@<TRIPOS>MOLECULE
NONAME
60 63 1 0 0 
SMALL
USER_CHARGES


@<TRIPOS>ATOM
  1 O       -0.4680     0.5950     0.4930 O.2   1 <1>  -0.5700 
  2 C       -1.4720     1.0700     0.0070 C.2   1 <1>   0.5690 
  3 N       -2.5360     0.2750    -0.3450 N.am  1 <1>  -0.6600 
  4 C       -1.5240     2.6000    -0.2080 C.3   1 <1>   0.1710 
  5 C       -3.8830     0.7490    -0.7990 C.3   1 <1>   0.1400 
  6 C       -2.4490    -1.2190    -0.2600 C.3   1 <1>   0.1400 
  7 N       -0.1910     3.2650    -0.3270 N.3   1 <1>  -0.8100 
  8 C       -5.0140     0.1130     0.0350 C.3   1 <1>   0.1900 
  9 C       -3.6170    -1.8040     0.5490 C.3   1 <1>   0.1100 
 10 C       -0.2220     4.7290    -0.1060 C.3   1 <1>   0.1100 
 11 C        0.5270     2.8750    -1.5540 C.3   1 <1>   0.1100 
 12 N       -4.9220    -1.3660     0.0070 N.3   1 <1>  -0.8100 
 13 C       -6.3900     0.5780    -0.4820 C.3   1 <1>   0.1200 
 14 C        1.1790     5.2870     0.2330 C.3   1 <1>   0.3430 
 15 C        1.9730     2.5060    -1.2060 C.3   1 <1>  -0.1600 
 16 C       -6.0570    -1.9600     0.7560 C.3   1 <1>   0.3330 
 17 O       -7.4150     0.0070     0.2770 O.3   1 <1>  -0.5600 
 18 N        2.0940     4.1670     0.6060 N.4   1 <1>  -0.9590 
 19 C        2.8050     3.6270    -0.5780 C.3   1 <1>   0.3430 
 20 C       -6.0670    -3.4820     0.6240 C.ar  1 <1>  -0.1440 
 21 C       -7.4030    -1.3960     0.2500 C.3   1 <1>   0.1200 
 22 C        2.9890     4.4690     1.7560 C.3   1 <1>   0.2630 
 23 C       -5.9010    -4.0910    -0.6130 C.ar  1 <1>  -0.1500 
 24 C       -6.2480    -4.2770     1.7470 C.ar  1 <1>  -0.1500 
 25 C       -5.9170    -5.4700    -0.7270 C.ar  1 <1>  -0.1500 
 26 C       -6.2640    -5.6570     1.6350 C.ar  1 <1>  -0.1500 
 27 C       -6.0990    -6.2540     0.3980 C.ar  1 <1>  -0.1500 
 28 H       -2.0480     3.0110     0.6350 H     1 <1>   0.0800 
 29 H       -2.0920     2.8140    -1.0940 H     1 <1>   0.0800 
 30 H       -3.9600     1.8170    -0.7190 H     1 <1>   0.0800 
 31 H       -4.0170     0.4790    -1.8330 H     1 <1>   0.0800 
 32 H       -2.4750    -1.6300    -1.2540 H     1 <1>   0.0800 
 33 H       -1.5230    -1.5240     0.1950 H     1 <1>   0.0800 
 34 H       -4.9120     0.4580     1.0500 H     1 <1>   0.0800 
 35 H       -3.5220    -1.5010     1.5780 H     1 <1>   0.0800 
 36 H       -3.5480    -2.8770     0.5120 H     1 <1>   0.0800 
 37 H       -0.6290     5.2340    -0.9660 H     1 <1>   0.0800 
 38 H       -0.8680     4.9430     0.7290 H     1 <1>   0.0800 
 39 H        0.0640     2.0080    -1.9970 H     1 <1>   0.0800 
 40 H        0.4980     3.6670    -2.2840 H     1 <1>   0.0800 
 41 H       -6.5250     0.2960    -1.5120 H     1 <1>   0.0800 
 42 H       -6.4820     1.6460    -0.3970 H     1 <1>   0.0800 
 43 H        1.0850     5.9850     1.0490 H     1 <1>   0.0800 
 44 H        1.5740     5.8220    -0.6150 H     1 <1>   0.0800 
 45 H        2.4660     2.1880    -2.1070 H     1 <1>   0.0800 
 46 H        1.9630     1.6570    -0.5450 H     1 <1>   0.0800 
 47 H       -5.9630    -1.7000     1.7960 H     1 <1>   0.0800 
 48 H        1.4190     3.4050     0.8460 H     1 <1>   0.4500 
 49 H        2.9780     4.4110    -1.2960 H     1 <1>   0.0800 
 50 H        3.7590     3.2230    -0.2810 H     1 <1>   0.0800 
 51 H       -8.2040    -1.7450     0.8750 H     1 <1>   0.0800 
 52 H       -7.5870    -1.7220    -0.7580 H     1 <1>   0.0800 
 53 H        3.6760     5.2590     1.4980 H     1 <1>   0.0800 
 54 H        3.5540     3.5920     2.0270 H     1 <1>   0.0800 
 55 H        2.4080     4.7780     2.6090 H     1 <1>   0.0800 
 56 H       -5.7540    -3.4840    -1.4900 H     1 <1>   0.1500 
 57 H       -6.3780    -3.8270     2.7160 H     1 <1>   0.1500 
 58 H       -5.7870    -5.9310    -1.6900 H     1 <1>   0.1500 
 59 H       -6.4050    -6.2660     2.5110 H     1 <1>   0.1500 
 60 H       -6.1120    -7.3260     0.3110 H     1 <1>   0.1500 
@<TRIPOS>BOND
  1   1   2  2   
  2   2   3  am  
  3   2   4  1   
  4   3   5  1   
  5   3   6  1   
  6   4   7  1   
  7   4  28  1   
  8   4  29  1   
  9   5   8  1   
 10   5  30  1   
 11   5  31  1   
 12   6   9  1   
 13   6  32  1   
 14   6  33  1   
 15   7  10  1   
 16   7  11  1   
 17   8  12  1   
 18   8  13  1   
 19   8  34  1   
 20   9  12  1   
 21   9  35  1   
 22   9  36  1   
 23  10  14  1   
 24  10  37  1   
 25  10  38  1   
 26  11  15  1   
 27  11  39  1   
 28  11  40  1   
 29  12  16  1   
 30  13  17  1   
 31  13  41  1   
 32  13  42  1   
 33  14  18  1   
 34  14  43  1   
 35  14  44  1   
 36  15  19  1   
 37  15  45  1   
 38  15  46  1   
 39  16  20  1   
 40  16  21  1   
 41  16  47  1   
 42  17  21  1   
 43  18  19  1   
 44  18  22  1   
 45  18  48  1   
 46  19  49  1   
 47  19  50  1   
 48  20  23  ar  
 49  20  24  ar  
 50  21  51  1   
 51  21  52  1   
 52  22  53  1   
 53  22  54  1   
 54  22  55  1   
 55  23  25  ar  
 56  23  56  1   
 57  24  26  ar  
 58  24  57  1   
 59  25  27  ar  
 60  25  58  1   
 61  26  27  ar  
 62  26  59  1   
 63  27  60  1   
@<TRIPOS>SUBSTRUCTURE
  1 ****   3 GROUP 4 **** **** 0

# MOE 2024.06 (io_trps.svl 2023.06)
