@<TRIPOS>MOLECULE
NONAME
49 51 1 0 0 
SMALL
USER_CHARGES


@<TRIPOS>ATOM
  1 O        4.6370    -2.0360     1.2730 O.2   1 <1>  -0.5700 
  2 C        3.6380    -1.8730     0.5980 C.2   1 <1>   0.5440 
  3 N        3.4320    -0.6050     0.1160 N.am  1 <1>  -0.6600 
  4 C        2.7620    -2.9710     0.2730 C.ar  1 <1>   0.0860 
  5 C        3.5300     0.5610     1.0730 C.3   1 <1>   0.2200 
  6 C        3.6350    -0.3660    -1.3440 C.3   1 <1>   0.1400 
  7 C        3.1250    -4.2920     0.4750 C.ar  1 <1>   0.1600 
  8 C        1.4980    -2.7940    -0.2630 C.ar  1 <1>   0.1600 
  9 C        2.7540     1.7960     0.5870 C.3   1 <1>   0.1200 
 10 C        4.9990     0.9420     1.3870 C.3   1 <1>   0.3430 
 11 C        4.4870     0.8740    -1.6720 C.3   1 <1>  -0.0800 
 12 N        2.3530    -5.3060     0.1690 N.ar  1 <1>  -0.6200 
 13 N        0.7020    -3.7820    -0.5830 N.ar  1 <1>  -0.6200 
 14 O        3.5610     2.5870    -0.2350 O.3   1 <1>  -0.5600 
 15 N        5.9670     0.3690     0.3930 N.4   1 <1>  -0.9590 
 16 C        3.6780     2.1760    -1.5540 C.3   1 <1>   0.1200 
 17 C        5.8680     0.9650    -0.9810 C.3   1 <1>   0.3430 
 18 C        1.1720    -5.0050    -0.3510 C.ar  1 <1>   0.7200 
 19 C        7.3610     0.4100     0.9180 C.3   1 <1>   0.2630 
 20 N        0.4060    -6.0670    -0.6550 N.pl3 1 <1>  -0.8690 
 21 C       -0.9680    -6.0750    -1.1570 C.3   1 <1>   0.2890 
 22 C       -1.8720    -6.5840    -0.0430 C.3   1 <1>  -0.2400 
 23 C       -1.0150    -6.9910    -2.3730 C.3   1 <1>  -0.2400 
 24 H        3.0690     0.2570     1.9980 H     1 <1>   0.0800 
 25 H        4.1120    -1.2320    -1.7740 H     1 <1>   0.0800 
 26 H        2.6710    -0.2710    -1.8160 H     1 <1>   0.0800 
 27 H        4.0890    -4.5110     0.9040 H     1 <1>   0.1500 
 28 H        1.1320    -1.7970    -0.4330 H     1 <1>   0.1500 
 29 H        2.4950     2.4060     1.4350 H     1 <1>   0.0800 
 30 H        1.8450     1.5300     0.0750 H     1 <1>   0.0800 
 31 H        5.2320     0.5510     2.3630 H     1 <1>   0.0800 
 32 H        5.0990     2.0140     1.4340 H     1 <1>   0.0800 
 33 H        4.7000     0.7980    -2.7240 H     1 <1>   0.0800 
 34 H        5.6660    -0.6270     0.3420 H     1 <1>   0.4500 
 35 H        2.6920     2.0750    -1.9780 H     1 <1>   0.0800 
 36 H        4.1830     2.9690    -2.0810 H     1 <1>   0.0800 
 37 H        6.1590     2.0030    -0.9370 H     1 <1>   0.0800 
 38 H        6.5820     0.4610    -1.6110 H     1 <1>   0.0800 
 39 H        7.6840     1.4300     1.0420 H     1 <1>   0.0800 
 40 H        8.0320    -0.0870     0.2360 H     1 <1>   0.0800 
 41 H        7.4130    -0.0900     1.8710 H     1 <1>   0.0800 
 42 H        0.8110    -6.9680    -0.4140 H     1 <1>   0.4000 
 43 H       -1.2700    -5.0810    -1.4440 H     1 <1>   0.0800 
 44 H       -1.5870    -7.5760     0.2570 H     1 <1>   0.0800 
 45 H       -2.8920    -6.6040    -0.3800 H     1 <1>   0.0800 
 46 H       -1.8090    -5.9250     0.8040 H     1 <1>   0.0800 
 47 H       -0.7210    -7.9910    -2.1090 H     1 <1>   0.0800 
 48 H       -0.3570    -6.6160    -3.1360 H     1 <1>   0.0800 
 49 H       -2.0130    -7.0190    -2.7710 H     1 <1>   0.0800 
@<TRIPOS>BOND
  1   1   2  2   
  2   2   3  am  
  3   2   4  1   
  4   3   5  1   
  5   3   6  1   
  6   4   7  ar  
  7   4   8  ar  
  8   5   9  1   
  9   5  10  1   
 10   5  24  1   
 11   6  11  1   
 12   6  25  1   
 13   6  26  1   
 14   7  12  ar  
 15   7  27  1   
 16   8  13  ar  
 17   8  28  1   
 18   9  14  1   
 19   9  29  1   
 20   9  30  1   
 21  10  15  1   
 22  10  31  1   
 23  10  32  1   
 24  11  16  1   
 25  11  17  1   
 26  11  33  1   
 27  12  18  ar  
 28  13  18  ar  
 29  14  16  1   
 30  15  17  1   
 31  15  19  1   
 32  15  34  1   
 33  16  35  1   
 34  16  36  1   
 35  17  37  1   
 36  17  38  1   
 37  18  20  1   
 38  19  39  1   
 39  19  40  1   
 40  19  41  1   
 41  20  21  1   
 42  20  42  1   
 43  21  22  1   
 44  21  23  1   
 45  21  43  1   
 46  22  44  1   
 47  22  45  1   
 48  22  46  1   
 49  23  47  1   
 50  23  48  1   
 51  23  49  1   
@<TRIPOS>SUBSTRUCTURE
  1 ****   2 GROUP 4 **** **** 0

# MOE 2024.06 (io_trps.svl 2023.06)
