@<TRIPOS>MOLECULE
NONAME
46 48 1 0 0 
SMALL
USER_CHARGES


@<TRIPOS>ATOM
  1 O       -0.6400    -0.7380    -1.0860 O.2   1 <1>  -0.5700 
  2 C       -0.6080    -1.9170    -0.8390 C.2   1 <1>   0.5690 
  3 N       -1.2400    -2.8440    -1.6190 N.am  1 <1>  -0.3680 
  4 C        0.1760    -2.4340     0.3510 C.3   1 <1>  -0.0990 
  5 N       -1.3180    -4.2100    -1.3740 N.2   1 <1>  -0.5120 
  6 C       -0.3900    -3.7710     0.8730 C.3   1 <1>  -0.0990 
  7 C       -0.9240    -4.6600    -0.2550 C.2   1 <1>   0.3280 
  8 C       -0.9890    -6.1450     0.0540 C.3   1 <1>  -0.0990 
  9 C       -2.1380    -6.4780     1.0180 C.3   1 <1>  -0.0990 
 10 C       -2.2320    -7.9720     1.2610 C.2   1 <1>   0.5690 
 11 O       -1.6510    -8.4210     2.2190 O.2   1 <1>  -0.5700 
 12 N       -2.9350    -8.7790     0.4110 N.am  1 <1>  -0.6600 
 13 C       -3.6630    -8.3800    -0.8230 C.3   1 <1>   0.1400 
 14 C       -2.9930   -10.2510     0.5890 C.3   1 <1>   0.1400 
 15 C       -4.5130    -9.6010    -1.1740 C.3   1 <1>   0.2000 
 16 C       -3.6720   -10.7830    -0.6790 C.3   1 <1>  -0.0800 
 17 O       -5.6900    -9.5300    -0.4440 O.3   1 <1>  -0.6800 
 18 C       -4.4540   -12.0930    -0.4680 C.3   1 <1>   0.0200 
 19 C       -3.5610   -13.2720    -0.1190 C.2   1 <1>  -0.0400 
 20 O       -4.1210   -14.4060     0.2090 O.3   1 <1>  -0.0190 
 21 C       -2.2300   -13.4460    -0.0660 C.2   1 <1>  -0.1500 
 22 N       -3.2410   -15.3250     0.4820 N.2   1 <1>  -0.4100 
 23 C       -2.0920   -14.7740     0.3250 C.2   1 <1>   0.1080 
 24 C       -0.7730   -15.4830     0.5400 C.3   1 <1>  -0.0590 
 25 H       -1.6790    -2.4720    -2.4670 H     1 <1>   0.3700 
 26 H        1.1900    -2.5800     0.0260 H     1 <1>   0.0800 
 27 H        0.1760    -1.6960     1.1320 H     1 <1>   0.0800 
 28 H       -1.2050    -3.5670     1.5450 H     1 <1>   0.0800 
 29 H        0.3760    -4.2860     1.4240 H     1 <1>   0.0800 
 30 H       -1.1330    -6.6800    -0.8670 H     1 <1>   0.0800 
 31 H       -0.0530    -6.4700     0.4720 H     1 <1>   0.0800 
 32 H       -3.0680    -6.1080     0.6290 H     1 <1>   0.0800 
 33 H       -1.9690    -5.9960     1.9640 H     1 <1>   0.0800 
 34 H       -4.2750    -7.5070    -0.6740 H     1 <1>   0.0800 
 35 H       -2.9500    -8.1950    -1.6070 H     1 <1>   0.0800 
 36 H       -2.0030   -10.6560     0.7150 H     1 <1>   0.0800 
 37 H       -3.5780   -10.4750     1.4650 H     1 <1>   0.0800 
 38 H       -4.7610    -9.6580    -2.2200 H     1 <1>   0.0800 
 39 H       -2.9040   -10.9600    -1.4120 H     1 <1>   0.0800 
 40 H       -5.4730    -9.3440     0.4920 H     1 <1>   0.4000 
 41 H       -4.9970   -12.3330    -1.3650 H     1 <1>   0.0800 
 42 H       -5.1740   -11.9690     0.3220 H     1 <1>   0.0800 
 43 H       -1.4260   -12.7630    -0.2670 H     1 <1>   0.1500 
 44 H       -0.2070   -14.9780     1.3010 H     1 <1>   0.0800 
 45 H       -0.2110   -15.4930    -0.3750 H     1 <1>   0.0800 
 46 H       -0.9480   -16.4970     0.8530 H     1 <1>   0.0800 
@<TRIPOS>BOND
  1   1   2  2   
  2   2   3  am  
  3   2   4  1   
  4   3   5  1   
  5   3  25  1   
  6   4   6  1   
  7   4  26  1   
  8   4  27  1   
  9   5   7  2   
 10   6   7  1   
 11   6  28  1   
 12   6  29  1   
 13   7   8  1   
 14   8   9  1   
 15   8  30  1   
 16   8  31  1   
 17   9  10  1   
 18   9  32  1   
 19   9  33  1   
 20  10  11  2   
 21  10  12  am  
 22  12  13  1   
 23  12  14  1   
 24  13  15  1   
 25  13  34  1   
 26  13  35  1   
 27  14  16  1   
 28  14  36  1   
 29  14  37  1   
 30  15  16  1   
 31  15  17  1   
 32  15  38  1   
 33  16  18  1   
 34  16  39  1   
 35  17  40  1   
 36  18  19  1   
 37  18  41  1   
 38  18  42  1   
 39  19  20  1   
 40  19  21  2   
 41  20  22  1   
 42  21  23  1   
 43  21  43  1   
 44  22  23  2   
 45  23  24  1   
 46  24  44  1   
 47  24  45  1   
 48  24  46  1   
@<TRIPOS>SUBSTRUCTURE
  1 ****  12 GROUP 4 **** **** 0

# MOE 2024.06 (io_trps.svl 2023.06)
