@<TRIPOS>MOLECULE
NONAME
52 53 1 0 0 
SMALL
USER_CHARGES


@<TRIPOS>ATOM
  1 O       -0.1100    -1.0790     0.5780 O.2   1 <1>  -0.5700 
  2 C        0.6490    -1.2480    -0.3490 C.2   1 <1>   0.5690 
  3 N        1.5810    -0.3230    -0.7050 N.am  1 <1>  -0.7300 
  4 C        0.5330    -2.5830    -1.1040 C.3   1 <1>   0.4040 
  5 C        1.7820     0.9680    -0.0200 C.3   1 <1>   0.2200 
  6 N       -0.2240    -3.6170    -0.2990 N.4   1 <1>  -0.9590 
  7 C        1.6320     2.0990    -1.0430 C.3   1 <1>  -0.1600 
  8 C        3.1730     0.9750     0.6200 C.3   1 <1>  -0.1600 
  9 C        0.6750    -4.6140     0.3850 C.3   1 <1>   0.4230 
 10 C       -1.2880    -4.2310    -1.1550 C.3   1 <1>   0.2630 
 11 C        1.9360     3.4630    -0.4050 C.3   1 <1>  -0.1600 
 12 C        3.4800     2.3370     1.2600 C.3   1 <1>  -0.1600 
 13 C       -0.0930    -5.6810     1.1940 C.3   1 <1>  -0.0170 
 14 C        1.6280    -3.8670     1.3260 C.3   1 <1>  -0.2400 
 15 C        3.3280     3.4750     0.2420 C.3   1 <1>  -0.1600 
 16 C       -0.7330    -6.7500     0.3250 C.ar  1 <1>   0.1670 
 17 N       -0.0730    -7.0890    -0.7720 N.ar  1 <1>  -0.6200 
 18 C       -1.9450    -7.3050     0.7060 C.ar  1 <1>  -0.1500 
 19 C       -0.6380    -8.0340    -1.5090 C.ar  1 <1>   0.1600 
 20 C       -2.5320    -8.2760    -0.0780 C.ar  1 <1>  -0.1430 
 21 C       -1.8440    -8.6440    -1.2150 C.ar  1 <1>  -0.1500 
 22 C       -3.8560    -8.9190     0.2950 C.3   1 <1>  -0.0970 
 23 H        2.2190    -0.4630    -1.4910 H     1 <1>   0.3700 
 24 H        1.5170    -2.9460    -1.3410 H     1 <1>   0.0800 
 25 H        0.0150    -2.3880    -2.0260 H     1 <1>   0.0800 
 26 H        1.0400     1.0960     0.7530 H     1 <1>   0.0800 
 27 H       -0.6780    -3.0510     0.4440 H     1 <1>   0.4500 
 28 H        0.6270     2.1070    -1.4250 H     1 <1>   0.0800 
 29 H        2.3110     1.9420    -1.8630 H     1 <1>   0.0800 
 30 H        3.9200     0.7680    -0.1270 H     1 <1>   0.0800 
 31 H        3.2230     0.2120     1.3770 H     1 <1>   0.0800 
 32 H        1.2660    -5.1270    -0.3590 H     1 <1>   0.0800 
 33 H       -0.8460    -4.8850    -1.8890 H     1 <1>   0.0800 
 34 H       -1.8540    -3.4660    -1.6610 H     1 <1>   0.0800 
 35 H       -1.9690    -4.8090    -0.5530 H     1 <1>   0.0800 
 36 H        1.1940     3.6810     0.3440 H     1 <1>   0.0800 
 37 H        1.8810     4.2330    -1.1560 H     1 <1>   0.0800 
 38 H        4.4830     2.3350     1.6510 H     1 <1>   0.0800 
 39 H        2.8070     2.5040     2.0840 H     1 <1>   0.0800 
 40 H       -0.8210    -5.2110     1.8280 H     1 <1>   0.0800 
 41 H        0.6020    -6.1980     1.8300 H     1 <1>   0.0800 
 42 H        1.0810    -3.2780     2.0410 H     1 <1>   0.0800 
 43 H        2.3090    -3.2350     0.7860 H     1 <1>   0.0800 
 44 H        2.2330    -4.5710     1.8690 H     1 <1>   0.0800 
 45 H        3.4870     4.4200     0.7330 H     1 <1>   0.0800 
 46 H        4.0790     3.3730    -0.5230 H     1 <1>   0.0800 
 47 H       -2.4290    -6.9900     1.6130 H     1 <1>   0.1500 
 48 H       -0.1120    -8.3430    -2.3980 H     1 <1>   0.1500 
 49 H       -2.2330    -9.4040    -1.8690 H     1 <1>   0.1500 
 50 H       -4.4550    -8.2450     0.8800 H     1 <1>   0.0800 
 51 H       -3.6780    -9.8110     0.8690 H     1 <1>   0.0800 
 52 H       -4.4080    -9.1830    -0.5900 H     1 <1>   0.0800 
@<TRIPOS>BOND
  1   1   2  2   
  2   2   3  am  
  3   2   4  1   
  4   3   5  1   
  5   3  23  1   
  6   4   6  1   
  7   4  24  1   
  8   4  25  1   
  9   5   7  1   
 10   5   8  1   
 11   5  26  1   
 12   6   9  1   
 13   6  10  1   
 14   6  27  1   
 15   7  11  1   
 16   7  28  1   
 17   7  29  1   
 18   8  12  1   
 19   8  30  1   
 20   8  31  1   
 21   9  13  1   
 22   9  14  1   
 23   9  32  1   
 24  10  33  1   
 25  10  34  1   
 26  10  35  1   
 27  11  15  1   
 28  11  36  1   
 29  11  37  1   
 30  12  15  1   
 31  12  38  1   
 32  12  39  1   
 33  13  16  1   
 34  13  40  1   
 35  13  41  1   
 36  14  42  1   
 37  14  43  1   
 38  14  44  1   
 39  15  45  1   
 40  15  46  1   
 41  16  17  ar  
 42  16  18  ar  
 43  17  19  ar  
 44  18  20  ar  
 45  18  47  1   
 46  19  21  ar  
 47  19  48  1   
 48  20  21  ar  
 49  20  22  1   
 50  21  49  1   
 51  22  50  1   
 52  22  51  1   
 53  22  52  1   
@<TRIPOS>SUBSTRUCTURE
  1 ****   6 GROUP 4 **** **** 0

# MOE 2024.06 (io_trps.svl 2023.06)
