@<TRIPOS>MOLECULE
NONAME
51 55 1 0 0 
SMALL
USER_CHARGES


@<TRIPOS>ATOM
  1 O       -0.9900     0.6420    -1.1920 O.2   1 <1>  -0.5700 
  2 C       -1.9690     1.2810    -0.8570 C.2   1 <1>   0.5440 
  3 N       -3.2220     0.7700    -1.1250 N.am  1 <1>  -0.6600 
  4 C       -1.7860     2.5320    -0.1730 C.ar  1 <1>   0.0860 
  5 C       -3.4180    -0.3250    -2.1160 C.3   1 <1>   0.1400 
  6 C       -4.4100     1.0040    -0.2560 C.3   1 <1>   0.1400 
  7 C       -2.5500     3.6540    -0.4380 C.ar  1 <1>   0.1600 
  8 C       -0.8220     2.6990     0.8040 C.ar  1 <1>   0.1600 
  9 C       -3.7220    -1.6260    -1.3720 C.3   1 <1>  -0.1600 
 10 C       -4.7170    -0.2810     0.5140 C.3   1 <1>  -0.1600 
 11 N       -2.4150     4.7890     0.2050 N.ar  1 <1>  -0.6200 
 12 N       -0.6570     3.8170     1.4680 N.ar  1 <1>  -0.6200 
 13 C       -4.9220    -1.4710    -0.4330 C.3   1 <1>   0.4600 
 14 C       -1.4720     4.8140     1.1360 C.ar  1 <1>   0.7200 
 15 O       -6.0400    -1.2160    -1.2570 O.3   1 <1>  -0.5600 
 16 C       -5.1510    -2.7600     0.3460 C.2   1 <1>  -0.3320 
 17 N       -1.3610     5.9880     1.7880 N.pl3 1 <1>  -0.8690 
 18 C       -7.3230    -1.4740    -0.7360 C.3   1 <1>   0.1200 
 19 N       -4.2400    -3.4080     1.1330 N.pl3 1 <1>   0.0330 
 20 C       -6.3120    -3.4460     0.3540 C.2   1 <1>  -0.1810 
 21 C       -0.3760     6.3570     2.8350 C.3   1 <1>   0.1290 
 22 C       -7.5100    -2.9690    -0.4280 C.3   1 <1>   0.0210 
 23 C       -4.8440    -4.5300     1.6460 C.ar  1 <1>  -0.1520 
 24 C       -6.1510    -4.5840     1.1710 C.ar  1 <1>   0.0000 
 25 C       -4.3510    -5.5220     2.4980 C.ar  1 <1>  -0.1500 
 26 C       -6.9830    -5.6430     1.5490 C.ar  1 <1>  -0.1500 
 27 C       -5.1800    -6.5580     2.8630 C.ar  1 <1>  -0.1500 
 28 C       -6.4960    -6.6180     2.3880 C.ar  1 <1>  -0.1500 
 29 H       -2.5390    -0.4480    -2.7250 H     1 <1>   0.0800 
 30 H       -4.2400    -0.0730    -2.7650 H     1 <1>   0.0800 
 31 H       -5.2520     1.2750    -0.8720 H     1 <1>   0.0800 
 32 H       -4.2320     1.8000     0.4440 H     1 <1>   0.0800 
 33 H       -3.2990     3.6000    -1.2100 H     1 <1>   0.1500 
 34 H       -0.1750     1.8700     1.0370 H     1 <1>   0.1500 
 35 H       -2.8500    -1.9050    -0.8110 H     1 <1>   0.0800 
 36 H       -3.9230    -2.4130    -2.0750 H     1 <1>   0.0800 
 37 H       -5.5860    -0.1470     1.1300 H     1 <1>   0.0800 
 38 H       -3.8940    -0.4910     1.1710 H     1 <1>   0.0800 
 39 H       -1.9920     6.7150     1.4520 H     1 <1>   0.4000 
 40 H       -8.0440    -1.1540    -1.4670 H     1 <1>   0.0800 
 41 H       -7.4550    -0.8910     0.1570 H     1 <1>   0.0800 
 42 H       -3.2680    -3.1320     1.3030 H     1 <1>   0.2700 
 43 H        0.2170     5.5050     3.1220 H     1 <1>   0.0800 
 44 H       -0.8930     6.7240     3.7040 H     1 <1>   0.0800 
 45 H        0.2800     7.1240     2.4610 H     1 <1>   0.0800 
 46 H       -7.5910    -3.5270    -1.3430 H     1 <1>   0.0800 
 47 H       -8.4080    -3.1130     0.1450 H     1 <1>   0.0800 
 48 H       -3.3390    -5.4690     2.8570 H     1 <1>   0.1500 
 49 H       -7.9890    -5.6770     1.1760 H     1 <1>   0.1500 
 50 H       -4.8240    -7.3340     3.5170 H     1 <1>   0.1500 
 51 H       -7.1230    -7.4390     2.6880 H     1 <1>   0.1500 
@<TRIPOS>BOND
  1   1   2  2   
  2   2   3  am  
  3   2   4  1   
  4   3   5  1   
  5   3   6  1   
  6   4   7  ar  
  7   4   8  ar  
  8   5   9  1   
  9   5  29  1   
 10   5  30  1   
 11   6  10  1   
 12   6  31  1   
 13   6  32  1   
 14   7  11  ar  
 15   7  33  1   
 16   8  12  ar  
 17   8  34  1   
 18   9  13  1   
 19   9  35  1   
 20   9  36  1   
 21  10  13  1   
 22  10  37  1   
 23  10  38  1   
 24  11  14  ar  
 25  12  14  ar  
 26  13  15  1   
 27  13  16  1   
 28  14  17  1   
 29  15  18  1   
 30  16  19  1   
 31  16  20  2   
 32  17  21  1   
 33  17  39  1   
 34  18  22  1   
 35  18  40  1   
 36  18  41  1   
 37  19  23  1   
 38  19  42  1   
 39  20  22  1   
 40  20  24  1   
 41  21  43  1   
 42  21  44  1   
 43  21  45  1   
 44  22  46  1   
 45  22  47  1   
 46  23  24  ar  
 47  23  25  ar  
 48  24  26  ar  
 49  25  27  ar  
 50  25  48  1   
 51  26  28  ar  
 52  26  49  1   
 53  27  28  ar  
 54  27  50  1   
 55  28  51  1   
@<TRIPOS>SUBSTRUCTURE
  1 ****  10 GROUP 4 **** **** 0

# MOE 2024.06 (io_trps.svl 2023.06)
