@<TRIPOS>MOLECULE
NONAME
44 47 1 0 0 
SMALL
USER_CHARGES


@<TRIPOS>ATOM
  1 O       -0.6130     0.5440     0.9480 O.2   1 <1>  -0.5700 
  2 C       -1.5700     1.0900     0.4190 C.2   1 <1>   0.7160 
  3 N       -2.7150     0.3210     0.2840 N.am  1 <1>  -0.6600 
  4 C       -1.4580     2.4810    -0.0340 C.2   1 <1>   0.2030 
  5 C       -3.9800     0.7450    -0.3730 C.3   1 <1>   0.1400 
  6 C       -2.7420    -1.1370     0.5580 C.3   1 <1>   0.1400 
  7 N       -2.4220     3.2430    -0.5390 N.2   1 <1>  -0.7070 
  8 C       -0.2650     3.2240     0.0080 C.2   1 <1>  -0.1810 
  9 C       -4.9280    -0.4410    -0.1940 C.3   1 <1>   0.2000 
 10 C       -3.9920    -1.6540    -0.1630 C.3   1 <1>  -0.0800 
 11 N       -1.8580     4.4330    -0.8020 N.pl3 1 <1>   0.3000 
 12 C       -0.5580     4.4400    -0.4700 C.2   1 <1>  -0.3320 
 13 C        1.1370     2.8490     0.4740 C.3   1 <1>   0.3010 
 14 O       -5.5580    -0.3120     1.0360 O.3   1 <1>  -0.6800 
 15 C       -4.5930    -2.9250     0.4650 C.3   1 <1>   0.0200 
 16 C        0.4730     5.5440    -0.5800 C.3   1 <1>   0.0200 
 17 O        2.0620     3.8140     0.0280 O.3   1 <1>  -0.5600 
 18 C       -3.6830    -4.1360     0.3450 C.2   1 <1>  -0.0400 
 19 C        1.7030     5.1510     0.2640 C.3   1 <1>   0.1200 
 20 O       -4.0200    -5.2350     0.9660 O.3   1 <1>  -0.0190 
 21 C       -2.5280    -4.3700    -0.2990 C.2   1 <1>  -0.1500 
 22 N       -3.1530    -6.1870     0.7770 N.2   1 <1>  -0.4100 
 23 C       -2.2420    -5.6950     0.0180 C.2   1 <1>   0.1080 
 24 C       -1.0290    -6.4610    -0.4600 C.3   1 <1>  -0.0590 
 25 H       -4.3810     1.6410     0.0700 H     1 <1>   0.0800 
 26 H       -3.7900     0.9160    -1.4180 H     1 <1>   0.0800 
 27 H       -1.8460    -1.6110     0.1950 H     1 <1>   0.0800 
 28 H       -2.8180    -1.2910     1.6210 H     1 <1>   0.0800 
 29 H       -5.6820    -0.4990    -0.9600 H     1 <1>   0.0800 
 30 H       -3.7170    -1.8730    -1.1800 H     1 <1>   0.0800 
 31 H       -2.3810     5.2190    -1.2060 H     1 <1>   0.2700 
 32 H        1.4330     1.8990     0.0640 H     1 <1>   0.0800 
 33 H        1.1800     2.8000     1.5480 H     1 <1>   0.0800 
 34 H       -4.8980    -0.0290     1.7000 H     1 <1>   0.4000 
 35 H       -5.5280    -3.1530    -0.0160 H     1 <1>   0.0800 
 36 H       -4.7990    -2.7580     1.5080 H     1 <1>   0.0800 
 37 H        0.0750     6.4760    -0.2200 H     1 <1>   0.0800 
 38 H        0.7680     5.6690    -1.6070 H     1 <1>   0.0800 
 39 H        1.4910     5.2600     1.3140 H     1 <1>   0.0800 
 40 H        2.5450     5.7700     0.0110 H     1 <1>   0.0800 
 41 H       -1.9310    -3.7280    -0.9200 H     1 <1>   0.1500 
 42 H       -0.9850    -6.4450    -1.5330 H     1 <1>   0.0800 
 43 H       -1.0870    -7.4820    -0.1290 H     1 <1>   0.0800 
 44 H       -0.1370    -6.0170    -0.0590 H     1 <1>   0.0800 
@<TRIPOS>BOND
  1   1   2  2   
  2   2   3  am  
  3   2   4  1   
  4   3   5  1   
  5   3   6  1   
  6   4   7  2   
  7   4   8  1   
  8   5   9  1   
  9   5  25  1   
 10   5  26  1   
 11   6  10  1   
 12   6  27  1   
 13   6  28  1   
 14   7  11  1   
 15   8  12  2   
 16   8  13  1   
 17   9  10  1   
 18   9  14  1   
 19   9  29  1   
 20  10  15  1   
 21  10  30  1   
 22  11  12  1   
 23  11  31  1   
 24  12  16  1   
 25  13  17  1   
 26  13  32  1   
 27  13  33  1   
 28  14  34  1   
 29  15  18  1   
 30  15  35  1   
 31  15  36  1   
 32  16  19  1   
 33  16  37  1   
 34  16  38  1   
 35  17  19  1   
 36  18  20  1   
 37  18  21  2   
 38  19  39  1   
 39  19  40  1   
 40  20  22  1   
 41  21  23  1   
 42  21  41  1   
 43  22  23  2   
 44  23  24  1   
 45  24  42  1   
 46  24  43  1   
 47  24  44  1   
@<TRIPOS>SUBSTRUCTURE
  1 ****   3 GROUP 4 **** **** 0

# MOE 2024.06 (io_trps.svl 2023.06)
