@<TRIPOS>MOLECULE
NONAME
42 43 1 0 0 
SMALL
USER_CHARGES


@<TRIPOS>ATOM
  1 F        0.0050    -0.7070    -0.7430 F     1 <1>  -0.1900 
  2 C       -0.5980    -1.8170    -0.3970 C.ar  1 <1>   0.1900 
  3 C        0.0090    -2.7630     0.4370 C.ar  1 <1>   0.0820 
  4 C       -1.8680    -2.0100    -0.9040 C.ar  1 <1>  -0.1500 
  5 O        1.2510    -2.6860     0.9970 O.3   1 <1>  -0.3630 
  6 C       -0.7100    -3.9080     0.7380 C.ar  1 <1>  -0.1500 
  7 C       -2.5550    -3.1660    -0.5840 C.ar  1 <1>  -0.1500 
  8 C        2.0750    -1.5470     0.8850 C.3   1 <1>   0.0400 
  9 C       -1.9970    -4.1400     0.2450 C.ar  1 <1>   0.0530 
 10 C       -2.6980    -5.3590     0.5730 C.2   1 <1>   0.0870 
 11 O       -2.0070    -6.4660     0.7250 O.3   1 <1>  -0.0190 
 12 C       -4.0060    -5.6860     0.7630 C.2   1 <1>  -0.2330 
 13 N       -2.7540    -7.5040     0.9910 N.2   1 <1>  -0.4100 
 14 C       -3.9570    -7.0530     1.0230 C.2   1 <1>   0.3720 
 15 C       -5.2160    -4.9170     0.7330 C.2   1 <1>   1.0330 
 16 N       -5.0720    -7.8340     1.2760 N.pl3 1 <1>  -0.8520 
 17 O       -5.1930    -3.6780     0.7820 O.co2 1 <1>  -0.9000 
 18 O       -6.3240    -5.4820     0.6390 O.co2 1 <1>  -0.9000 
 19 C       -5.2080    -9.0310     0.4080 C.3   1 <1>   0.2090 
 20 C       -6.6370    -9.5930     0.4550 C.3   1 <1>   0.2000 
 21 O       -6.6480   -10.7980    -0.2530 O.3   1 <1>  -0.5600 
 22 C       -7.6630    -8.6520    -0.1880 C.3   1 <1>  -0.2400 
 23 C       -7.5730   -11.7350     0.1900 C.3   1 <1>   0.1200 
 24 C       -7.4380   -12.9650    -0.6980 C.3   1 <1>  -0.2400 
 25 H       -2.3180    -1.2670    -1.5370 H     1 <1>   0.1500 
 26 H       -0.2590    -4.6430     1.3800 H     1 <1>   0.1500 
 27 H       -3.5460    -3.3160    -0.9770 H     1 <1>   0.1500 
 28 H        2.9650    -1.7200     1.4620 H     1 <1>   0.0800 
 29 H        1.5480    -0.6930     1.2740 H     1 <1>   0.0800 
 30 H        2.3340    -1.4030    -0.1490 H     1 <1>   0.0800 
 31 H       -5.8860    -7.1970     1.1240 H     1 <1>   0.4000 
 32 H       -4.5200    -9.7820     0.7530 H     1 <1>   0.0800 
 33 H       -4.9570    -8.7690    -0.6060 H     1 <1>   0.0800 
 34 H       -6.8880    -9.7890     1.4840 H     1 <1>   0.0800 
 35 H       -7.3950    -8.4520    -1.2100 H     1 <1>   0.0800 
 36 H       -7.6860    -7.7150     0.3400 H     1 <1>   0.0800 
 37 H       -8.6500    -9.0720    -0.1510 H     1 <1>   0.0800 
 38 H       -8.5630   -11.3190     0.1120 H     1 <1>   0.0800 
 39 H       -7.3550   -11.9810     1.2150 H     1 <1>   0.0800 
 40 H       -7.6430   -12.7040    -1.7210 H     1 <1>   0.0800 
 41 H       -8.1390   -13.7180    -0.3870 H     1 <1>   0.0800 
 42 H       -6.4440   -13.3660    -0.6220 H     1 <1>   0.0800 
@<TRIPOS>BOND
  1   1   2  1   
  2   2   3  ar  
  3   2   4  ar  
  4   3   5  1   
  5   3   6  ar  
  6   4   7  ar  
  7   4  25  1   
  8   5   8  1   
  9   6   9  ar  
 10   6  26  1   
 11   7   9  ar  
 12   7  27  1   
 13   8  28  1   
 14   8  29  1   
 15   8  30  1   
 16   9  10  1   
 17  10  11  1   
 18  10  12  2   
 19  11  13  1   
 20  12  14  1   
 21  12  15  1   
 22  13  14  2   
 23  14  16  1   
 24  15  17  ar  
 25  15  18  ar  
 26  16  19  1   
 27  16  31  1   
 28  19  20  1   
 29  19  32  1   
 30  19  33  1   
 31  20  21  1   
 32  20  22  1   
 33  20  34  1   
 34  21  23  1   
 35  22  35  1   
 36  22  36  1   
 37  22  37  1   
 38  23  24  1   
 39  23  38  1   
 40  23  39  1   
 41  24  40  1   
 42  24  41  1   
 43  24  42  1   
@<TRIPOS>SUBSTRUCTURE
  1 ****  12 GROUP 4 **** **** 0

# MOE 2024.06 (io_trps.svl 2023.06)
