@<TRIPOS>MOLECULE
NONAME
47 51 1 0 0 
SMALL
USER_CHARGES


@<TRIPOS>ATOM
  1 O        0.9720    -0.4680     0.7220 O.3   1 <1>  -0.5600 
  2 C        1.9450    -1.1940     0.0010 C.3   1 <1>   0.4600 
  3 C       -0.3740    -0.5880     0.3290 C.3   1 <1>   0.1200 
  4 C        1.3970    -2.5800    -0.3220 C.2   1 <1>  -0.3320 
  5 C        3.1620    -1.3080     0.9230 C.3   1 <1>  -0.1600 
  6 C        2.3040    -0.4310    -1.2800 C.3   1 <1>  -0.1600 
  7 C       -0.8810    -2.0270     0.5210 C.3   1 <1>   0.0210 
  8 N        2.0890    -3.6150    -0.8870 N.pl3 1 <1>   0.0330 
  9 C        0.1280    -2.9690    -0.0880 C.2   1 <1>  -0.1810 
 10 C        3.7750     0.0630     1.1990 C.3   1 <1>   0.2090 
 11 C        2.9430     0.9190    -0.9640 C.3   1 <1>   0.2090 
 12 C        1.2330    -4.6840    -1.0020 C.ar  1 <1>  -0.1520 
 13 C       -0.0120    -4.3090    -0.5040 C.ar  1 <1>   0.0000 
 14 N        4.1300     0.6940    -0.0970 N.pl3 1 <1>  -0.8380 
 15 C        1.4440    -5.9700    -1.5070 C.ar  1 <1>  -0.1500 
 16 C       -1.0650    -5.2290    -0.5070 C.ar  1 <1>  -0.1500 
 17 C        5.1450     1.6440    -0.0970 C.ar  1 <1>   0.4100 
 18 C        0.3980    -6.8650    -1.5050 C.ar  1 <1>  -0.1500 
 19 C       -0.8560    -6.4940    -1.0040 C.ar  1 <1>  -0.1500 
 20 N        4.8450     2.9110    -0.4130 N.ar  1 <1>  -0.3100 
 21 C        6.4360     1.2660     0.2260 C.ar  1 <1>  -0.1500 
 22 N        5.7750     3.8370    -0.4180 N.ar  1 <1>  -0.3100 
 23 C        7.4110     2.2320     0.2230 C.ar  1 <1>  -0.1500 
 24 C        7.0250     3.5130    -0.1090 C.ar  1 <1>   0.1670 
 25 C        8.0370     4.6400    -0.1370 C.3   1 <1>  -0.0970 
 26 H       -0.4580    -0.2960    -0.7020 H     1 <1>   0.0800 
 27 H       -0.9520     0.0920     0.9290 H     1 <1>   0.0800 
 28 H        3.9100    -1.9290     0.4680 H     1 <1>   0.0800 
 29 H        2.8640    -1.7710     1.8450 H     1 <1>   0.0800 
 30 H        1.4320    -0.2940    -1.8900 H     1 <1>   0.0800 
 31 H        3.0060    -1.0070    -1.8520 H     1 <1>   0.0800 
 32 H       -1.8350    -2.1430     0.0390 H     1 <1>   0.0800 
 33 H       -0.9930    -2.2420     1.5680 H     1 <1>   0.0800 
 34 H        3.0720    -3.6120    -1.1740 H     1 <1>   0.2700 
 35 H        4.6500    -0.0440     1.8180 H     1 <1>   0.0800 
 36 H        3.0680     0.6880     1.7200 H     1 <1>   0.0800 
 37 H        2.2400     1.5580    -0.4540 H     1 <1>   0.0800 
 38 H        3.2430     1.4030    -1.8790 H     1 <1>   0.0800 
 39 H        2.4090    -6.2470    -1.8900 H     1 <1>   0.1500 
 40 H       -2.0200    -4.9300    -0.1180 H     1 <1>   0.1500 
 41 H        0.5350    -7.8610    -1.8880 H     1 <1>   0.1500 
 42 H       -1.6560    -7.2130    -1.0130 H     1 <1>   0.1500 
 43 H        6.6530     0.2430     0.4640 H     1 <1>   0.1500 
 44 H        8.4300     1.9940     0.4670 H     1 <1>   0.1500 
 45 H        7.7430     5.4040     0.5590 H     1 <1>   0.0800 
 46 H        8.0730     5.0660    -1.1240 H     1 <1>   0.0800 
 47 H        9.0170     4.2880     0.1250 H     1 <1>   0.0800 
@<TRIPOS>BOND
  1   1   2  1   
  2   1   3  1   
  3   2   4  1   
  4   2   5  1   
  5   2   6  1   
  6   3   7  1   
  7   3  26  1   
  8   3  27  1   
  9   4   8  1   
 10   4   9  2   
 11   5  10  1   
 12   5  28  1   
 13   5  29  1   
 14   6  11  1   
 15   6  30  1   
 16   6  31  1   
 17   7   9  1   
 18   7  32  1   
 19   7  33  1   
 20   8  12  1   
 21   8  34  1   
 22   9  13  1   
 23  10  14  1   
 24  10  35  1   
 25  10  36  1   
 26  11  14  1   
 27  11  37  1   
 28  11  38  1   
 29  12  13  ar  
 30  12  15  ar  
 31  13  16  ar  
 32  14  17  1   
 33  15  18  ar  
 34  15  39  1   
 35  16  19  ar  
 36  16  40  1   
 37  17  20  ar  
 38  17  21  ar  
 39  18  19  ar  
 40  18  41  1   
 41  19  42  1   
 42  20  22  ar  
 43  21  23  ar  
 44  21  43  1   
 45  22  24  ar  
 46  23  24  ar  
 47  23  44  1   
 48  24  25  1   
 49  25  45  1   
 50  25  46  1   
 51  25  47  1   
@<TRIPOS>SUBSTRUCTURE
  1 ****   2 GROUP 4 **** **** 0

# MOE 2024.06 (io_trps.svl 2023.06)
