@<TRIPOS>MOLECULE
NONAME
53 55 1 0 0 
SMALL
USER_CHARGES


@<TRIPOS>ATOM
  1 F        2.1280    -3.8880     2.1050 F     1 <1>  -0.1900 
  2 C        2.1020    -3.0330     1.1170 C.ar  1 <1>   0.1900 
  3 C        0.8850    -2.6440     0.5770 C.ar  1 <1>  -0.1440 
  4 C        3.3110    -2.5500     0.6520 C.ar  1 <1>  -0.1500 
  5 C        0.9020    -1.7250    -0.4630 C.ar  1 <1>  -0.1500 
  6 C       -0.4290    -3.2000     1.1080 C.3   1 <1>   0.2840 
  7 C        3.3080    -1.6390    -0.3910 C.ar  1 <1>  -0.1500 
  8 C        2.1050    -1.2290    -0.9440 C.ar  1 <1>  -0.1500 
  9 N       -0.7270    -4.5640     0.5670 N.am  1 <1>  -0.6600 
 10 C       -1.2470    -5.5210     1.4130 C.2   1 <1>   0.5690 
 11 C       -0.6880    -4.7060    -0.9160 C.3   1 <1>   0.1400 
 12 O       -1.6070    -5.2220     2.5320 O.2   1 <1>  -0.5700 
 13 C       -1.4500    -6.9800     0.9660 C.3   1 <1>   0.2610 
 14 C        0.6290    -5.3420    -1.3600 C.3   1 <1>  -0.2400 
 15 O       -0.6560    -7.8750     1.7180 O.3   1 <1>  -0.5600 
 16 C       -2.9490    -7.3380     1.0680 C.3   1 <1>   0.3640 
 17 C       -0.7510    -9.2150     1.2980 C.3   1 <1>   0.1810 
 18 N       -3.2210    -8.8110     1.0570 N.am  1 <1>  -0.6600 
 19 C       -3.7270    -6.5960    -0.0320 C.ar  1 <1>  -0.1430 
 20 C       -2.1950    -9.7130     1.1700 C.2   1 <1>   0.5690 
 21 C       -4.6540    -9.2180     1.1200 C.3   1 <1>   0.0600 
 22 C       -3.7730    -6.9770    -1.3780 C.ar  1 <1>  -0.1430 
 23 C       -4.4070    -5.4500     0.3640 C.ar  1 <1>  -0.1500 
 24 O       -2.3820   -10.9070     1.1470 O.2   1 <1>  -0.5700 
 25 C       -4.4980    -6.2080    -2.2780 C.ar  1 <1>  -0.1500 
 26 C       -3.0750    -8.2130    -1.9380 C.3   1 <1>  -0.0970 
 27 C       -5.1230    -4.6920    -0.5420 C.ar  1 <1>  -0.1500 
 28 C       -5.1690    -5.0720    -1.8670 C.ar  1 <1>  -0.1500 
 29 H        4.2300    -2.8810     1.0990 H     1 <1>   0.1500 
 30 H       -0.0200    -1.3900    -0.9070 H     1 <1>   0.1500 
 31 H       -1.2380    -2.5410     0.8450 H     1 <1>   0.0800 
 32 H       -0.3750    -3.2270     2.1840 H     1 <1>   0.0800 
 33 H        4.2380    -1.2500    -0.7690 H     1 <1>   0.1500 
 34 H        2.1060    -0.5180    -1.7530 H     1 <1>   0.1500 
 35 H       -1.5170    -5.3080    -1.2470 H     1 <1>   0.0800 
 36 H       -0.8000    -3.7410    -1.3790 H     1 <1>   0.0800 
 37 H       -1.1390    -7.0800    -0.0510 H     1 <1>   0.0800 
 38 H        0.7970    -6.2800    -0.8640 H     1 <1>   0.0800 
 39 H        1.4540    -4.6880    -1.1500 H     1 <1>   0.0800 
 40 H        0.6050    -5.5150    -2.4210 H     1 <1>   0.0800 
 41 H       -3.2940    -6.9800     2.0230 H     1 <1>   0.0800 
 42 H       -0.2540    -9.3100     0.3500 H     1 <1>   0.0800 
 43 H       -0.2340    -9.8180     2.0210 H     1 <1>   0.0800 
 44 H       -5.1700    -8.8940     0.2330 H     1 <1>   0.0800 
 45 H       -5.1220    -8.7720     1.9800 H     1 <1>   0.0800 
 46 H       -4.7440   -10.2880     1.1960 H     1 <1>   0.0800 
 47 H       -4.3810    -5.1300     1.3930 H     1 <1>   0.1500 
 48 H       -4.5510    -6.4910    -3.3140 H     1 <1>   0.1500 
 49 H       -2.9960    -8.1580    -3.0090 H     1 <1>   0.0800 
 50 H       -3.6400    -9.0950    -1.6930 H     1 <1>   0.0800 
 51 H       -2.0840    -8.3220    -1.5470 H     1 <1>   0.0800 
 52 H       -5.6430    -3.8080    -0.2150 H     1 <1>   0.1500 
 53 H       -5.7280    -4.4880    -2.5780 H     1 <1>   0.1500 
@<TRIPOS>BOND
  1   1   2  1   
  2   2   3  ar  
  3   2   4  ar  
  4   3   5  ar  
  5   3   6  1   
  6   4   7  ar  
  7   4  29  1   
  8   5   8  ar  
  9   5  30  1   
 10   6   9  1   
 11   6  31  1   
 12   6  32  1   
 13   7   8  ar  
 14   7  33  1   
 15   8  34  1   
 16   9  10  am  
 17   9  11  1   
 18  10  12  2   
 19  10  13  1   
 20  11  14  1   
 21  11  35  1   
 22  11  36  1   
 23  13  15  1   
 24  13  16  1   
 25  13  37  1   
 26  14  38  1   
 27  14  39  1   
 28  14  40  1   
 29  15  17  1   
 30  16  18  1   
 31  16  19  1   
 32  16  41  1   
 33  17  20  1   
 34  17  42  1   
 35  17  43  1   
 36  18  20  am  
 37  18  21  1   
 38  19  22  ar  
 39  19  23  ar  
 40  20  24  2   
 41  21  44  1   
 42  21  45  1   
 43  21  46  1   
 44  22  25  ar  
 45  22  26  1   
 46  23  27  ar  
 47  23  47  1   
 48  25  28  ar  
 49  25  48  1   
 50  26  49  1   
 51  26  50  1   
 52  26  51  1   
 53  27  28  ar  
 54  27  52  1   
 55  28  53  1   
@<TRIPOS>SUBSTRUCTURE
  1 ****  10 GROUP 4 **** **** 0

# MOE 2024.06 (io_trps.svl 2023.06)
