@<TRIPOS>MOLECULE
NONAME
41 42 1 0 0 
SMALL
USER_CHARGES


@<TRIPOS>ATOM
  1 CL      -0.7840    -0.7540     0.6520 Cl    1 <1>  -0.1770 
  2 C        0.6740     0.1890     0.4600 C.ar  1 <1>   0.1770 
  3 C        1.7690    -0.3430    -0.2160 C.ar  1 <1>   0.0860 
  4 C        0.6880     1.4610     1.0040 C.ar  1 <1>  -0.1500 
  5 C        2.8960     0.4700    -0.3070 C.ar  1 <1>   0.1770 
  6 C        1.7450    -1.6600    -0.7950 C.2   1 <1>   0.5440 
  7 C        1.8220     2.2480     0.8870 C.ar  1 <1>  -0.1500 
  8 CL       4.3400    -0.1140    -1.0960 Cl    1 <1>  -0.1770 
  9 C        2.9310     1.7460     0.2280 C.ar  1 <1>  -0.1500 
 10 O        1.7150    -1.8080    -1.9990 O.2   1 <1>  -0.5700 
 11 N        1.7410    -2.7700    -0.0030 N.am  1 <1>  -0.7300 
 12 C        1.8820    -4.1660    -0.4810 C.3   1 <1>   0.2200 
 13 C        0.5310    -4.8590    -0.5540 C.3   1 <1>  -0.0800 
 14 C        2.5470    -4.9860     0.6150 C.3   1 <1>   0.1200 
 15 C        0.2890    -5.2650     0.9050 C.3   1 <1>   0.1200 
 16 C       -0.5930    -4.0310    -1.2120 C.3   1 <1>  -0.0550 
 17 O        1.5350    -5.2310     1.5440 O.3   1 <1>  -0.5600 
 18 S       -2.1400    -4.9170    -1.4130 S.o2  1 <1>   1.3330 
 19 O       -1.8360    -6.2410    -1.9100 O.2   1 <1>  -0.6500 
 20 O       -3.0860    -4.0890    -2.1270 O.2   1 <1>  -0.6500 
 21 N       -2.7240    -5.0850     0.1740 N.am  1 <1>  -0.8490 
 22 C       -3.3610    -3.8660     0.6870 C.3   1 <1>   0.1160 
 23 C       -3.6490    -6.2150     0.3010 C.3   1 <1>   0.1160 
 24 H       -0.1830     1.8340     1.5140 H     1 <1>   0.1500 
 25 H        1.8410     3.2410     1.3060 H     1 <1>   0.1500 
 26 H        3.8230     2.3400     0.1300 H     1 <1>   0.1500 
 27 H        1.6540    -2.6940     1.0140 H     1 <1>   0.3700 
 28 H        2.4240    -4.2000    -1.4120 H     1 <1>   0.0800 
 29 H        0.6570    -5.7640    -1.1230 H     1 <1>   0.0800 
 30 H        3.3630    -4.4700     1.0900 H     1 <1>   0.0800 
 31 H        2.8830    -5.9340     0.2340 H     1 <1>   0.0800 
 32 H       -0.1220    -6.2580     0.9830 H     1 <1>   0.0800 
 33 H       -0.3530    -4.5650     1.4110 H     1 <1>   0.0800 
 34 H       -0.2520    -3.7260    -2.1830 H     1 <1>   0.0800 
 35 H       -0.7700    -3.1410    -0.6460 H     1 <1>   0.0800 
 36 H       -3.6370    -4.0000     1.7190 H     1 <1>   0.0800 
 37 H       -4.2440    -3.6310     0.1160 H     1 <1>   0.0800 
 38 H       -2.6810    -3.0340     0.6250 H     1 <1>   0.0800 
 39 H       -3.9920    -6.3050     1.3170 H     1 <1>   0.0800 
 40 H       -3.1500    -7.1320     0.0330 H     1 <1>   0.0800 
 41 H       -4.4960    -6.0800    -0.3510 H     1 <1>   0.0800 
@<TRIPOS>BOND
  1   1   2  1   
  2   2   3  ar  
  3   2   4  ar  
  4   3   5  ar  
  5   3   6  1   
  6   4   7  ar  
  7   4  24  1   
  8   5   8  1   
  9   5   9  ar  
 10   6  10  2   
 11   6  11  am  
 12   7   9  ar  
 13   7  25  1   
 14   9  26  1   
 15  11  12  1   
 16  11  27  1   
 17  12  13  1   
 18  12  14  1   
 19  12  28  1   
 20  13  15  1   
 21  13  16  1   
 22  13  29  1   
 23  14  17  1   
 24  14  30  1   
 25  14  31  1   
 26  15  17  1   
 27  15  32  1   
 28  15  33  1   
 29  16  18  1   
 30  16  34  1   
 31  16  35  1   
 32  18  19  2   
 33  18  20  2   
 34  18  21  am  
 35  21  22  1   
 36  21  23  1   
 37  22  36  1   
 38  22  37  1   
 39  22  38  1   
 40  23  39  1   
 41  23  40  1   
 42  23  41  1   
@<TRIPOS>SUBSTRUCTURE
  1 ****  11 GROUP 4 **** **** 0

# MOE 2024.06 (io_trps.svl 2023.06)
