@<TRIPOS>MOLECULE
NONAME
56 58 1 0 0 
SMALL
USER_CHARGES


@<TRIPOS>ATOM
  1 O        2.3270    -0.9510     1.8500 O.2   1 <1>  -0.5700 
  2 C        1.7300    -1.0870     0.8050 C.2   1 <1>   0.5690 
  3 N        1.3710     0.0150     0.0490 N.am  1 <1>  -0.6600 
  4 C        1.4410    -2.5300     0.3460 C.3   1 <1>   0.1710 
  5 C        1.6500     1.3850     0.5590 C.3   1 <1>   0.1400 
  6 C        0.7180    -0.0180    -1.2920 C.3   1 <1>   0.0600 
  7 N        0.1540    -3.1330     0.8030 N.3   1 <1>  -0.8100 
  8 C        2.9990     1.8730     0.0250 C.3   1 <1>  -0.1600 
  9 C       -1.0370    -2.3460     0.4020 C.3   1 <1>   0.1100 
 10 C        0.0330    -4.5350     0.3390 C.3   1 <1>   0.1100 
 11 C        3.3720     3.2360     0.6150 C.3   1 <1>   0.0210 
 12 C       -2.3480    -2.9870     0.8930 C.3   1 <1>   0.2090 
 13 C       -1.2730    -5.2050     0.8100 C.3   1 <1>   0.2090 
 14 C        4.7070     3.6990     0.0590 C.2   1 <1>  -0.1810 
 15 N       -2.4530    -4.3910     0.3920 N.pl3 1 <1>  -0.8380 
 16 C        4.9150     4.5100    -1.0560 C.2   1 <1>   0.1080 
 17 C        5.9470     3.4220     0.5180 C.2   1 <1>  -0.3320 
 18 C       -3.2450    -4.7460    -0.6780 C.ar  1 <1>   0.7200 
 19 N        6.1720     4.7280    -1.2780 N.2   1 <1>  -0.7070 
 20 C        3.8370     5.0960    -1.9400 C.3   1 <1>  -0.0590 
 21 N        6.8090     4.0550    -0.3040 N.pl3 1 <1>   0.3000 
 22 C        6.3900     2.5750     1.6990 C.3   1 <1>  -0.0600 
 23 N       -3.3230    -6.0440    -0.9690 N.ar  1 <1>  -0.6200 
 24 N       -3.8620    -3.7630    -1.3370 N.ar  1 <1>  -0.6200 
 25 C       -4.0880    -6.3720    -1.9800 C.ar  1 <1>   0.1600 
 26 C       -4.6200    -4.1210    -2.3440 C.ar  1 <1>   0.1600 
 27 C       -4.7710    -5.4340    -2.7130 C.ar  1 <1>  -0.1500 
 28 H        2.2400    -3.1340     0.7380 H     1 <1>   0.0800 
 29 H        1.5100    -2.5890    -0.7220 H     1 <1>   0.0800 
 30 H        1.6710     1.3730     1.6360 H     1 <1>   0.0800 
 31 H        0.8630     2.0540     0.2550 H     1 <1>   0.0800 
 32 H        0.5440    -1.0200    -1.6310 H     1 <1>   0.0800 
 33 H        1.3460     0.4780    -2.0120 H     1 <1>   0.0800 
 34 H       -0.2270     0.4940    -1.2440 H     1 <1>   0.0800 
 35 H        2.9640     1.9490    -1.0460 H     1 <1>   0.0800 
 36 H        3.7610     1.1620     0.2930 H     1 <1>   0.0800 
 37 H       -1.0830    -2.2670    -0.6690 H     1 <1>   0.0800 
 38 H       -0.9690    -1.3560     0.8180 H     1 <1>   0.0800 
 39 H        0.8650    -5.1050     0.7140 H     1 <1>   0.0800 
 40 H        0.0620    -4.5670    -0.7370 H     1 <1>   0.0800 
 41 H        3.4420     3.1620     1.6860 H     1 <1>   0.0800 
 42 H        2.6140     3.9640     0.3860 H     1 <1>   0.0800 
 43 H       -3.1860    -2.3950     0.5730 H     1 <1>   0.0800 
 44 H       -2.3520    -2.9970     1.9680 H     1 <1>   0.0800 
 45 H       -1.2620    -5.2840     1.8820 H     1 <1>   0.0800 
 46 H       -1.3230    -6.2020     0.4110 H     1 <1>   0.0800 
 47 H        3.0990     4.3500    -2.1680 H     1 <1>   0.0800 
 48 H        4.2720     5.4450    -2.8580 H     1 <1>   0.0800 
 49 H        3.3710     5.9230    -1.4380 H     1 <1>   0.0800 
 50 H        7.8320     4.0450    -0.2300 H     1 <1>   0.2700 
 51 H        5.5420     2.1330     2.1890 H     1 <1>   0.0800 
 52 H        6.9200     3.1820     2.4120 H     1 <1>   0.0800 
 53 H        7.0360     1.7830     1.3640 H     1 <1>   0.0800 
 54 H       -4.1730    -7.4160    -2.2300 H     1 <1>   0.1500 
 55 H       -5.1340    -3.3470    -2.8880 H     1 <1>   0.1500 
 56 H       -5.3960    -5.7160    -3.5390 H     1 <1>   0.1500 
@<TRIPOS>BOND
  1   1   2  2   
  2   2   3  am  
  3   2   4  1   
  4   3   5  1   
  5   3   6  1   
  6   4   7  1   
  7   4  28  1   
  8   4  29  1   
  9   5   8  1   
 10   5  30  1   
 11   5  31  1   
 12   6  32  1   
 13   6  33  1   
 14   6  34  1   
 15   7   9  1   
 16   7  10  1   
 17   8  11  1   
 18   8  35  1   
 19   8  36  1   
 20   9  12  1   
 21   9  37  1   
 22   9  38  1   
 23  10  13  1   
 24  10  39  1   
 25  10  40  1   
 26  11  14  1   
 27  11  41  1   
 28  11  42  1   
 29  12  15  1   
 30  12  43  1   
 31  12  44  1   
 32  13  15  1   
 33  13  45  1   
 34  13  46  1   
 35  14  16  1   
 36  14  17  2   
 37  15  18  1   
 38  16  19  2   
 39  16  20  1   
 40  17  21  1   
 41  17  22  1   
 42  18  23  ar  
 43  18  24  ar  
 44  19  21  1   
 45  20  47  1   
 46  20  48  1   
 47  20  49  1   
 48  21  50  1   
 49  22  51  1   
 50  22  52  1   
 51  22  53  1   
 52  23  25  ar  
 53  24  26  ar  
 54  25  27  ar  
 55  25  54  1   
 56  26  27  ar  
 57  26  55  1   
 58  27  56  1   
@<TRIPOS>SUBSTRUCTURE
  1 ****   3 GROUP 4 **** **** 0

# MOE 2024.06 (io_trps.svl 2023.06)
