@<TRIPOS>MOLECULE
NONAME
57 61 1 0 0 
SMALL
USER_CHARGES


@<TRIPOS>ATOM
  1 O        0.6920     0.3340    -0.9250 O.3   1 <1>  -0.5600 
  2 C        1.1240    -0.4100     0.1610 C.3   1 <1>   0.2800 
  3 C       -0.5570     0.7020    -0.5000 C.3   1 <1>   0.2000 
  4 C        0.9860     0.6150     1.2870 C.3   1 <1>  -0.0800 
  5 C        2.5960    -0.8150     0.0810 C.3   1 <1>   0.2090 
  6 C        0.0370    -1.4790     0.2430 C.3   1 <1>  -0.1600 
  7 C       -0.1790     1.4980     0.7600 C.3   1 <1>  -0.0800 
  8 C       -1.1880    -0.6580    -0.1660 C.3   1 <1>  -0.1600 
  9 C        2.4030     1.1970     1.4580 C.3   1 <1>   0.2090 
 10 N        3.3300     0.2280     0.8450 N.pl3 1 <1>  -0.8380 
 11 C        0.2640     2.9230     0.3860 C.3   1 <1>   0.3430 
 12 C        4.6510     0.5200     0.6050 C.ar  1 <1>   0.7200 
 13 N       -0.8530     3.9220     0.3570 N.4   1 <1>  -0.9590 
 14 N        5.3550    -0.3930    -0.0580 N.ar  1 <1>  -0.6200 
 15 N        5.1000     1.6880     1.0620 N.ar  1 <1>  -0.6200 
 16 C       -1.8090     3.7060    -0.7740 C.3   1 <1>   0.3430 
 17 C       -0.2590     5.2950     0.3200 C.3   1 <1>   0.3430 
 18 C        6.6160    -0.1060    -0.2680 C.ar  1 <1>   0.1600 
 19 C        6.3670     1.9410     0.8370 C.ar  1 <1>   0.1600 
 20 C       -2.9320     4.7390    -0.7250 C.3   1 <1>  -0.1600 
 21 C       -1.3570     6.3510     0.3980 C.3   1 <1>  -0.1600 
 22 C        7.1900     1.0670     0.1660 C.ar  1 <1>  -0.1430 
 23 C       -2.3500     6.1470    -0.7400 C.3   1 <1>   0.2000 
 24 C        8.6570     1.3790    -0.0830 C.3   1 <1>  -0.0170 
 25 O       -3.3740     7.0490    -0.5980 O.3   1 <1>  -0.6800 
 26 C        8.8330     2.1190    -1.4100 C.3   1 <1>  -0.2400 
 27 H       -1.0700     1.2360    -1.2780 H     1 <1>   0.0800 
 28 H        0.7170     0.1160     2.2010 H     1 <1>   0.0800 
 29 H        2.9250    -0.8660    -0.9430 H     1 <1>   0.0800 
 30 H        2.7510    -1.7660     0.5600 H     1 <1>   0.0800 
 31 H        0.2360    -2.2610    -0.4700 H     1 <1>   0.0800 
 32 H       -0.0460    -1.9030     1.2290 H     1 <1>   0.0800 
 33 H       -0.9820     1.5240     1.4740 H     1 <1>   0.0800 
 34 H       -1.9180    -0.5840     0.6200 H     1 <1>   0.0800 
 35 H       -1.6510    -1.0790    -1.0430 H     1 <1>   0.0800 
 36 H        2.6480     1.3220     2.4990 H     1 <1>   0.0800 
 37 H        2.5430     2.1330     0.9520 H     1 <1>   0.0800 
 38 H        0.7790     2.8990    -0.5630 H     1 <1>   0.0800 
 39 H        0.9710     3.2520     1.1290 H     1 <1>   0.0800 
 40 H       -1.3790     3.8400     1.2370 H     1 <1>   0.4500 
 41 H       -1.2860     3.7840    -1.7140 H     1 <1>   0.0800 
 42 H       -2.2450     2.7220    -0.7080 H     1 <1>   0.0800 
 43 H        0.4200     5.4270     1.1480 H     1 <1>   0.0800 
 44 H        0.2980     5.4250    -0.5940 H     1 <1>   0.0800 
 45 H        7.2090    -0.8270    -0.8030 H     1 <1>   0.1500 
 46 H        6.7610     2.8750     1.1980 H     1 <1>   0.1500 
 47 H       -3.5250     4.5800     0.1580 H     1 <1>   0.0800 
 48 H       -3.5640     4.6070    -1.5870 H     1 <1>   0.0800 
 49 H       -0.9100     7.3260     0.3070 H     1 <1>   0.0800 
 50 H       -1.8480     6.2890     1.3520 H     1 <1>   0.0800 
 51 H       -1.8780     6.3470    -1.6890 H     1 <1>   0.0800 
 52 H        9.0420     1.9830     0.7210 H     1 <1>   0.0800 
 53 H        9.2250     0.4640    -0.1020 H     1 <1>   0.0800 
 54 H       -3.8560     6.9360     0.2440 H     1 <1>   0.4000 
 55 H        8.2870     3.0460    -1.3980 H     1 <1>   0.0800 
 56 H        8.4700     1.5170    -2.2250 H     1 <1>   0.0800 
 57 H        9.8730     2.3350    -1.5790 H     1 <1>   0.0800 
@<TRIPOS>BOND
  1   1   2  1   
  2   1   3  1   
  3   2   4  1   
  4   2   5  1   
  5   2   6  1   
  6   3   7  1   
  7   3   8  1   
  8   3  27  1   
  9   4   7  1   
 10   4   9  1   
 11   4  28  1   
 12   5  10  1   
 13   5  29  1   
 14   5  30  1   
 15   6   8  1   
 16   6  31  1   
 17   6  32  1   
 18   7  11  1   
 19   7  33  1   
 20   8  34  1   
 21   8  35  1   
 22   9  10  1   
 23   9  36  1   
 24   9  37  1   
 25  10  12  1   
 26  11  13  1   
 27  11  38  1   
 28  11  39  1   
 29  12  14  ar  
 30  12  15  ar  
 31  13  16  1   
 32  13  17  1   
 33  13  40  1   
 34  14  18  ar  
 35  15  19  ar  
 36  16  20  1   
 37  16  41  1   
 38  16  42  1   
 39  17  21  1   
 40  17  43  1   
 41  17  44  1   
 42  18  22  ar  
 43  18  45  1   
 44  19  22  ar  
 45  19  46  1   
 46  20  23  1   
 47  20  47  1   
 48  20  48  1   
 49  21  23  1   
 50  21  49  1   
 51  21  50  1   
 52  22  24  1   
 53  23  25  1   
 54  23  51  1   
 55  24  26  1   
 56  24  52  1   
 57  24  53  1   
 58  25  54  1   
 59  26  55  1   
 60  26  56  1   
 61  26  57  1   
@<TRIPOS>SUBSTRUCTURE
  1 ****   9 GROUP 4 **** **** 0

# MOE 2024.06 (io_trps.svl 2023.06)
