@<TRIPOS>MOLECULE
NONAME
53 55 1 0 0 
SMALL
USER_CHARGES


@<TRIPOS>ATOM
  1 O       -1.4330     1.2410    -0.1790 O.3   1 <1>  -0.3630 
  2 C       -0.4040     2.1310    -0.1790 C.ar  1 <1>   0.0830 
  3 C       -1.2520    -0.0860    -0.6310 C.3   1 <1>   0.0400 
  4 C       -0.6140     3.3530     0.4500 C.ar  1 <1>  -0.1440 
  5 C        0.8230     1.8740    -0.7850 C.ar  1 <1>  -0.1500 
  6 C        0.3820     4.3190     0.4580 C.ar  1 <1>   0.0830 
  7 C       -1.9370     3.6350     1.1290 C.3   1 <1>   0.4870 
  8 C        1.8200     2.8320    -0.7660 C.ar  1 <1>  -0.1500 
  9 O        0.0950     5.5000     1.0650 O.3   1 <1>  -0.3630 
 10 C        1.6050     4.0520    -0.1510 C.ar  1 <1>  -0.1500 
 11 N       -2.9850     3.6710     0.0850 N.4   1 <1>  -0.9590 
 12 C        1.0840     6.4940     1.2420 C.3   1 <1>   0.0400 
 13 C       -4.3530     3.5630     0.6660 C.3   1 <1>   0.3430 
 14 C       -2.8340     4.8550    -0.8020 C.3   1 <1>   0.3430 
 15 C       -5.4180     3.4340    -0.4440 C.3   1 <1>   0.0000 
 16 C       -3.8510     4.7730    -1.9440 C.3   1 <1>  -0.1600 
 17 C       -6.8130     3.3670     0.1950 C.3   1 <1>   0.2000 
 18 C       -5.2900     4.6190    -1.4240 C.3   1 <1>  -0.1600 
 19 C       -5.3090     2.0700    -1.1480 C.3   1 <1>  -0.1600 
 20 O       -6.8580     4.1840     1.3260 O.3   1 <1>  -0.5600 
 21 C       -7.0390     1.8970     0.5710 C.3   1 <1>  -0.1600 
 22 C       -5.9950     1.0810    -0.2040 C.3   1 <1>  -0.1600 
 23 C       -8.1430     4.4770     1.7840 C.3   1 <1>   0.0400 
 24 H       -2.1670    -0.6270    -0.4690 H     1 <1>   0.0800 
 25 H       -0.4560    -0.5430    -0.0680 H     1 <1>   0.0800 
 26 H       -1.0180    -0.0730    -1.6810 H     1 <1>   0.0800 
 27 H        1.0240     0.9400    -1.2770 H     1 <1>   0.1500 
 28 H       -1.9040     4.5690     1.6640 H     1 <1>   0.0800 
 29 H       -2.1420     2.8420     1.8290 H     1 <1>   0.0800 
 30 H        2.7690     2.6280    -1.2350 H     1 <1>   0.1500 
 31 H        2.3990     4.7750    -0.1600 H     1 <1>   0.1500 
 32 H       -2.8040     2.8250    -0.4750 H     1 <1>   0.4500 
 33 H        0.6480     7.3090     1.7910 H     1 <1>   0.0800 
 34 H        1.4120     6.8400     0.2780 H     1 <1>   0.0800 
 35 H        1.9040     6.0770     1.8000 H     1 <1>   0.0800 
 36 H       -4.4160     2.7060     1.3160 H     1 <1>   0.0800 
 37 H       -4.5650     4.4420     1.2530 H     1 <1>   0.0800 
 38 H       -3.0010     5.7560    -0.2340 H     1 <1>   0.0800 
 39 H       -1.8350     4.8900    -1.2080 H     1 <1>   0.0800 
 40 H       -3.7810     5.6690    -2.5350 H     1 <1>   0.0800 
 41 H       -3.5970     3.9480    -2.5850 H     1 <1>   0.0800 
 42 H       -7.5570     3.6910    -0.5140 H     1 <1>   0.0800 
 43 H       -5.9650     4.4940    -2.2540 H     1 <1>   0.0800 
 44 H       -5.5750     5.5240    -0.9130 H     1 <1>   0.0800 
 45 H       -5.8620     2.0970    -2.0720 H     1 <1>   0.0800 
 46 H       -4.2990     1.7730    -1.3690 H     1 <1>   0.0800 
 47 H       -6.9130     1.7420     1.6290 H     1 <1>   0.0800 
 48 H       -8.0320     1.5980     0.2850 H     1 <1>   0.0800 
 49 H       -5.2760     0.6680     0.4830 H     1 <1>   0.0800 
 50 H       -6.4510     0.2720    -0.7500 H     1 <1>   0.0800 
 51 H       -8.0550     5.1090     2.6500 H     1 <1>   0.0800 
 52 H       -8.6480     3.5660     2.0540 H     1 <1>   0.0800 
 53 H       -8.6870     4.9960     1.0130 H     1 <1>   0.0800 
@<TRIPOS>BOND
  1   1   2  1   
  2   1   3  1   
  3   2   4  ar  
  4   2   5  ar  
  5   3  24  1   
  6   3  25  1   
  7   3  26  1   
  8   4   6  ar  
  9   4   7  1   
 10   5   8  ar  
 11   5  27  1   
 12   6   9  1   
 13   6  10  ar  
 14   7  11  1   
 15   7  28  1   
 16   7  29  1   
 17   8  10  ar  
 18   8  30  1   
 19   9  12  1   
 20  10  31  1   
 21  11  13  1   
 22  11  14  1   
 23  11  32  1   
 24  12  33  1   
 25  12  34  1   
 26  12  35  1   
 27  13  15  1   
 28  13  36  1   
 29  13  37  1   
 30  14  16  1   
 31  14  38  1   
 32  14  39  1   
 33  15  17  1   
 34  15  18  1   
 35  15  19  1   
 36  16  18  1   
 37  16  40  1   
 38  16  41  1   
 39  17  20  1   
 40  17  21  1   
 41  17  42  1   
 42  18  43  1   
 43  18  44  1   
 44  19  22  1   
 45  19  45  1   
 46  19  46  1   
 47  20  23  1   
 48  21  22  1   
 49  21  47  1   
 50  21  48  1   
 51  22  49  1   
 52  22  50  1   
 53  23  51  1   
 54  23  52  1   
 55  23  53  1   
@<TRIPOS>SUBSTRUCTURE
  1 ****  11 GROUP 4 **** **** 0

# MOE 2024.06 (io_trps.svl 2023.06)
