@<TRIPOS>MOLECULE
NONAME
51 53 1 0 0 
SMALL
USER_CHARGES


@<TRIPOS>ATOM
  1 O       -1.4370     0.5690     0.2620 O.2   1 <1>  -0.5700 
  2 C       -1.0160     1.6470     0.5980 C.2   1 <1>   0.5690 
  3 N       -1.8110     2.7380     0.5640 N.am  1 <1>  -0.7300 
  4 C        0.4450     1.7980     1.0320 C.3   1 <1>   0.1810 
  5 C       -1.3670     4.0910     0.9780 C.3   1 <1>   0.3640 
  6 O        0.6970     2.9930     1.7420 O.3   1 <1>  -0.5600 
  7 C       -1.8390     5.1070    -0.0620 C.ar  1 <1>  -0.1440 
  8 C        0.1720     4.1680     1.1410 C.3   1 <1>   0.2610 
  9 C       -2.3530     6.3260     0.3560 C.ar  1 <1>  -0.1500 
 10 C       -1.7490     4.8470    -1.4240 C.ar  1 <1>  -0.1500 
 11 C        0.5900     5.4260     1.9240 C.2   1 <1>   0.5690 
 12 C       -2.7720     7.2680    -0.5680 C.ar  1 <1>  -0.1500 
 13 C       -2.1690     5.7880    -2.3490 C.ar  1 <1>  -0.1500 
 14 O       -0.1910     5.8920     2.7270 O.2   1 <1>  -0.5700 
 15 N        1.8090     6.0240     1.6990 N.am  1 <1>  -0.6600 
 16 C       -2.6800     7.0000    -1.9210 C.ar  1 <1>  -0.1500 
 17 C        2.9190     5.4390     0.9010 C.3   1 <1>   0.1400 
 18 C        2.1210     7.3780     2.2310 C.3   1 <1>   0.1400 
 19 C        3.1910     6.3430    -0.3050 C.3   1 <1>  -0.1600 
 20 C        2.4030     8.3220     1.0590 C.3   1 <1>  -0.1600 
 21 C        3.5150     7.7830     0.1360 C.3   1 <1>  -0.0800 
 22 C        3.7210     8.6860    -1.0870 C.3   1 <1>   0.1200 
 23 O        4.0980     9.9530    -0.6530 O.3   1 <1>  -0.5600 
 24 C        4.2760    10.8720    -1.6760 C.3   1 <1>   0.1200 
 25 C        4.6810    12.1940    -1.0370 C.3   1 <1>  -0.2400 
 26 H       -2.7860     2.6340     0.2780 H     1 <1>   0.3700 
 27 H        1.0780     1.7810     0.1640 H     1 <1>   0.0800 
 28 H        0.7120     0.9770     1.6720 H     1 <1>   0.0800 
 29 H       -1.8350     4.3090     1.9230 H     1 <1>   0.0800 
 30 H        0.5950     4.2390     0.1570 H     1 <1>   0.0800 
 31 H       -2.4260     6.5550     1.4070 H     1 <1>   0.1500 
 32 H       -1.3550     3.9100    -1.7780 H     1 <1>   0.1500 
 33 H       -3.1670     8.2110    -0.2310 H     1 <1>   0.1500 
 34 H       -2.0990     5.5770    -3.4020 H     1 <1>   0.1500 
 35 H       -3.0070     7.7320    -2.6390 H     1 <1>   0.1500 
 36 H        3.7990     5.3850     1.5200 H     1 <1>   0.0800 
 37 H        2.6910     4.4400     0.5780 H     1 <1>   0.0800 
 38 H        1.3000     7.7620     2.8130 H     1 <1>   0.0800 
 39 H        2.9830     7.3160     2.8730 H     1 <1>   0.0800 
 40 H        4.0180     5.9410    -0.8630 H     1 <1>   0.0800 
 41 H        2.3260     6.3390    -0.9440 H     1 <1>   0.0800 
 42 H        1.4940     8.4570     0.4990 H     1 <1>   0.0800 
 43 H        2.6910     9.2830     1.4480 H     1 <1>   0.0800 
 44 H        4.4400     7.7630     0.6880 H     1 <1>   0.0800 
 45 H        2.8060     8.7720    -1.6500 H     1 <1>   0.0800 
 46 H        4.5020     8.2960    -1.7170 H     1 <1>   0.0800 
 47 H        5.0500    10.5150    -2.3360 H     1 <1>   0.0800 
 48 H        3.3500    10.9790    -2.2150 H     1 <1>   0.0800 
 49 H        5.6000    12.0730    -0.4920 H     1 <1>   0.0800 
 50 H        3.9090    12.5310    -0.3690 H     1 <1>   0.0800 
 51 H        4.8280    12.9380    -1.7990 H     1 <1>   0.0800 
@<TRIPOS>BOND
  1   1   2  2   
  2   2   3  am  
  3   2   4  1   
  4   3   5  1   
  5   3  26  1   
  6   4   6  1   
  7   4  27  1   
  8   4  28  1   
  9   5   7  1   
 10   5   8  1   
 11   5  29  1   
 12   6   8  1   
 13   7   9  ar  
 14   7  10  ar  
 15   8  11  1   
 16   8  30  1   
 17   9  12  ar  
 18   9  31  1   
 19  10  13  ar  
 20  10  32  1   
 21  11  14  2   
 22  11  15  am  
 23  12  16  ar  
 24  12  33  1   
 25  13  16  ar  
 26  13  34  1   
 27  15  17  1   
 28  15  18  1   
 29  16  35  1   
 30  17  19  1   
 31  17  36  1   
 32  17  37  1   
 33  18  20  1   
 34  18  38  1   
 35  18  39  1   
 36  19  21  1   
 37  19  40  1   
 38  19  41  1   
 39  20  21  1   
 40  20  42  1   
 41  20  43  1   
 42  21  22  1   
 43  21  44  1   
 44  22  23  1   
 45  22  45  1   
 46  22  46  1   
 47  23  24  1   
 48  24  25  1   
 49  24  47  1   
 50  24  48  1   
 51  25  49  1   
 52  25  50  1   
 53  25  51  1   
@<TRIPOS>SUBSTRUCTURE
  1 ****  11 GROUP 4 **** **** 0

# MOE 2024.06 (io_trps.svl 2023.06)
