@<TRIPOS>MOLECULE
NONAME
41 42 1 0 0 
SMALL
USER_CHARGES


@<TRIPOS>ATOM
  1 O        0.4420    -0.4780     1.5120 O.2   1 <1>  -0.5700 
  2 C        1.2690    -0.8290     0.7060 C.2   1 <1>   0.5690 
  3 N        2.1240     0.0160     0.0630 N.am  1 <1>  -0.4930 
  4 C        1.3330    -2.3080     0.4060 C.3   1 <1>  -0.0990 
  5 C        2.2090     1.4300     0.1630 C.2   1 <1>   0.0630 
  6 C       -0.0990    -2.8540     0.2690 C.3   1 <1>   0.4230 
  7 C        3.1050     2.2670    -0.5090 C.2   1 <1>   0.1080 
  8 C        1.4650     2.2720     0.9080 C.2   1 <1>  -0.3020 
  9 N       -0.1360    -4.3590     0.2410 N.4   1 <1>  -0.9590 
 10 C       -0.7560    -2.3070    -1.0130 C.3   1 <1>  -0.1600 
 11 N        2.9320     3.5160    -0.2090 N.2   1 <1>  -0.7070 
 12 C        4.1740     1.8210    -1.4820 C.3   1 <1>  -0.0590 
 13 N        1.9160     3.5200     0.6690 N.pl3 1 <1>   0.3140 
 14 C       -1.5380    -4.8680     0.1290 C.3   1 <1>   0.3430 
 15 C        0.4960    -4.9930     1.4420 C.3   1 <1>   0.2630 
 16 C       -2.1790    -2.8370    -1.2180 C.3   1 <1>  -0.1600 
 17 C        1.4110     4.7600     1.2660 C.3   1 <1>   0.0160 
 18 C       -2.1850    -4.3660    -1.1590 C.3   1 <1>  -0.1600 
 19 H        2.8150    -0.3900    -0.5640 H     1 <1>   0.3700 
 20 H        1.8450    -2.7540     1.2350 H     1 <1>   0.0800 
 21 H        1.8940    -2.4830    -0.4930 H     1 <1>   0.0800 
 22 H       -0.6730    -2.5130     1.1180 H     1 <1>   0.0800 
 23 H        0.6570     2.0550     1.5810 H     1 <1>   0.1500 
 24 H        0.3600    -4.6630    -0.6070 H     1 <1>   0.4500 
 25 H       -0.1540    -2.5580    -1.8690 H     1 <1>   0.0800 
 26 H       -0.8080    -1.2320    -0.9630 H     1 <1>   0.0800 
 27 H        4.8600     1.1540    -0.9950 H     1 <1>   0.0800 
 28 H        4.7200     2.6780    -1.8360 H     1 <1>   0.0800 
 29 H        3.7220     1.3300    -2.3230 H     1 <1>   0.0800 
 30 H       -2.1160    -4.5290     0.9740 H     1 <1>   0.0800 
 31 H       -1.5400    -5.9470     0.1300 H     1 <1>   0.0800 
 32 H        0.0350    -4.6260     2.3450 H     1 <1>   0.0800 
 33 H        1.5500    -4.7750     1.4790 H     1 <1>   0.0800 
 34 H        0.3760    -6.0640     1.4060 H     1 <1>   0.0800 
 35 H       -2.5620    -2.5030    -2.1680 H     1 <1>   0.0800 
 36 H       -2.8230    -2.4420    -0.4490 H     1 <1>   0.0800 
 37 H        0.3450     4.6970     1.3700 H     1 <1>   0.0800 
 38 H        1.6660     5.5850     0.6270 H     1 <1>   0.0800 
 39 H        1.8680     4.8950     2.2280 H     1 <1>   0.0800 
 40 H       -3.2020    -4.7180    -1.2020 H     1 <1>   0.0800 
 41 H       -1.6670    -4.7740    -2.0100 H     1 <1>   0.0800 
@<TRIPOS>BOND
  1   1   2  2   
  2   2   3  am  
  3   2   4  1   
  4   3   5  1   
  5   3  19  1   
  6   4   6  1   
  7   4  20  1   
  8   4  21  1   
  9   5   7  1   
 10   5   8  2   
 11   6   9  1   
 12   6  10  1   
 13   6  22  1   
 14   7  11  2   
 15   7  12  1   
 16   8  13  1   
 17   8  23  1   
 18   9  14  1   
 19   9  15  1   
 20   9  24  1   
 21  10  16  1   
 22  10  25  1   
 23  10  26  1   
 24  11  13  1   
 25  12  27  1   
 26  12  28  1   
 27  12  29  1   
 28  13  17  1   
 29  14  18  1   
 30  14  30  1   
 31  14  31  1   
 32  15  32  1   
 33  15  33  1   
 34  15  34  1   
 35  16  18  1   
 36  16  35  1   
 37  16  36  1   
 38  17  37  1   
 39  17  38  1   
 40  17  39  1   
 41  18  40  1   
 42  18  41  1   
@<TRIPOS>SUBSTRUCTURE
  1 ****   2 GROUP 4 **** **** 0

# MOE 2024.06 (io_trps.svl 2023.06)
