@<TRIPOS>MOLECULE
NONAME
43 45 1 0 0 
SMALL
USER_CHARGES


@<TRIPOS>ATOM
  1 F       -1.4390     1.2200     1.0900 F     1 <1>  -0.1900 
  2 C       -0.7950     2.2260     0.5690 C.ar  1 <1>   0.1900 
  3 C       -1.4200     3.4540     0.4900 C.ar  1 <1>  -0.1500 
  4 C        0.4900     2.0320     0.1090 C.ar  1 <1>  -0.1500 
  5 C       -0.7430     4.5320    -0.0600 C.ar  1 <1>  -0.1440 
  6 C        1.1620     3.1110    -0.4330 C.ar  1 <1>  -0.1500 
  7 C        0.5800     4.3810    -0.5190 C.ar  1 <1>   0.0860 
  8 C       -1.4910     5.8570    -0.1610 C.3   1 <1>  -0.0960 
  9 C        1.3760     5.4690    -1.0660 C.2   1 <1>   0.5440 
 10 O        2.1330     5.2910    -2.0040 O.2   1 <1>  -0.5700 
 11 N        1.4370     6.7070    -0.4770 N.am  1 <1>  -0.6600 
 12 C        2.1480     6.7890     0.8460 C.3   1 <1>   0.2200 
 13 C        1.3890     7.9240    -1.3490 C.3   1 <1>   0.1400 
 14 C        1.7860     8.0470     1.6520 C.3   1 <1>   0.1200 
 15 C        3.6840     6.6820     0.6470 C.3   1 <1>   0.3430 
 16 C        2.5160     8.9470    -1.1080 C.3   1 <1>  -0.0800 
 17 O        2.6190     9.1120     1.3010 O.3   1 <1>  -0.5600 
 18 N        4.1130     6.9650    -0.7690 N.4   1 <1>  -0.9590 
 19 C        2.2690     9.7980     0.1470 C.3   1 <1>   0.1200 
 20 C        3.9580     8.3980    -1.1730 C.3   1 <1>   0.3430 
 21 C        5.4860     6.4600    -1.0470 C.3   1 <1>   0.2630 
 22 H       -2.4290     3.5470     0.8540 H     1 <1>   0.1500 
 23 H        0.9430     1.0590     0.1740 H     1 <1>   0.1500 
 24 H        2.1620     2.9660    -0.8050 H     1 <1>   0.1500 
 25 H       -2.5480     5.7130    -0.0180 H     1 <1>   0.0800 
 26 H       -1.3500     6.2930    -1.1340 H     1 <1>   0.0800 
 27 H       -1.1400     6.5420     0.5880 H     1 <1>   0.0800 
 28 H        1.8320     5.9490     1.4410 H     1 <1>   0.0800 
 29 H        1.4190     7.6190    -2.3830 H     1 <1>   0.0800 
 30 H        0.4380     8.4070    -1.2010 H     1 <1>   0.0800 
 31 H        1.9610     7.8580     2.6970 H     1 <1>   0.0800 
 32 H        0.7530     8.3230     1.5290 H     1 <1>   0.0800 
 33 H        3.9770     5.6780     0.9060 H     1 <1>   0.0800 
 34 H        4.1850     7.3490     1.3290 H     1 <1>   0.0800 
 35 H        2.4390     9.6490    -1.9190 H     1 <1>   0.0800 
 36 H        3.4380     6.4240    -1.3580 H     1 <1>   0.4500 
 37 H        1.2410    10.1130     0.2220 H     1 <1>   0.0800 
 38 H        2.8840    10.6820     0.1150 H     1 <1>   0.0800 
 39 H        4.5940     9.0160    -0.5600 H     1 <1>   0.0800 
 40 H        4.2990     8.4950    -2.1910 H     1 <1>   0.0800 
 41 H        6.2080     6.9850    -0.4440 H     1 <1>   0.0800 
 42 H        5.7310     6.6010    -2.0870 H     1 <1>   0.0800 
 43 H        5.5460     5.4070    -0.8240 H     1 <1>   0.0800 
@<TRIPOS>BOND
  1   1   2  1   
  2   2   3  ar  
  3   2   4  ar  
  4   3   5  ar  
  5   3  22  1   
  6   4   6  ar  
  7   4  23  1   
  8   5   7  ar  
  9   5   8  1   
 10   6   7  ar  
 11   6  24  1   
 12   7   9  1   
 13   8  25  1   
 14   8  26  1   
 15   8  27  1   
 16   9  10  2   
 17   9  11  am  
 18  11  12  1   
 19  11  13  1   
 20  12  14  1   
 21  12  15  1   
 22  12  28  1   
 23  13  16  1   
 24  13  29  1   
 25  13  30  1   
 26  14  17  1   
 27  14  31  1   
 28  14  32  1   
 29  15  18  1   
 30  15  33  1   
 31  15  34  1   
 32  16  19  1   
 33  16  20  1   
 34  16  35  1   
 35  17  19  1   
 36  18  20  1   
 37  18  21  1   
 38  18  36  1   
 39  19  37  1   
 40  19  38  1   
 41  20  39  1   
 42  20  40  1   
 43  21  41  1   
 44  21  42  1   
 45  21  43  1   
@<TRIPOS>SUBSTRUCTURE
  1 ****  11 GROUP 4 **** **** 0

# MOE 2024.06 (io_trps.svl 2023.06)
