@<TRIPOS>MOLECULE
NONAME
40 41 1 0 0 
SMALL
USER_CHARGES


@<TRIPOS>ATOM
  1 S       -0.3240     0.1180    -1.5860 S.o2  1 <1>   1.2040 
  2 O       -1.7010    -0.0230    -2.0010 O.2   1 <1>  -0.6500 
  3 O        0.7280     0.1520    -2.5800 O.2   1 <1>  -0.6500 
  4 C        0.0610    -1.1250    -0.3290 C.ar  1 <1>  -0.0090 
  5 C       -0.2050     1.6480    -0.6600 C.3   1 <1>  -0.0550 
  6 C        1.2960    -1.7630    -0.3010 C.ar  1 <1>  -0.1500 
  7 C       -0.8620    -1.4510     0.6580 C.ar  1 <1>  -0.1500 
  8 C        1.2150     1.9450    -0.1450 C.3   1 <1>  -0.0990 
  9 C        1.6040    -2.6880     0.6820 C.ar  1 <1>  -0.1500 
 10 C       -0.5620    -2.3740     1.6450 C.ar  1 <1>  -0.1500 
 11 C        1.2460     3.2670     0.5900 C.2   1 <1>   0.5690 
 12 C        0.6740    -2.9920     1.6590 C.ar  1 <1>  -0.1500 
 13 O        0.5360     3.3840     1.5530 O.2   1 <1>  -0.5700 
 14 N        2.0690     4.2470     0.1180 N.am  1 <1>  -0.4940 
 15 C        2.2230     5.5420     0.5680 C.2   1 <1>   0.4420 
 16 S        3.4370     6.4920    -0.2200 S.3   1 <1>  -0.0800 
 17 N        1.6120     6.1970     1.4860 N.2   1 <1>  -0.3380 
 18 C        2.9870     7.8010     0.8230 C.2   1 <1>   0.1980 
 19 N        2.0520     7.4850     1.6260 N.2   1 <1>  -0.3380 
 20 C        3.7170     9.1340     0.6970 C.3   1 <1>   0.3800 
 21 O        3.8080     9.4910    -0.6540 O.3   1 <1>  -0.5600 
 22 C        5.1340     9.0580     1.2720 C.3   1 <1>  -0.2400 
 23 C        3.8210    10.8600    -0.9140 C.3   1 <1>   0.0400 
 24 H       -0.8830     1.6160     0.1720 H     1 <1>   0.0800 
 25 H       -0.5160     2.4580    -1.2930 H     1 <1>   0.0800 
 26 H        2.0280    -1.5390    -1.0600 H     1 <1>   0.1500 
 27 H       -1.8330    -0.9820     0.6540 H     1 <1>   0.1500 
 28 H        1.9060     1.9610    -0.9680 H     1 <1>   0.0800 
 29 H        1.5240     1.1760     0.5400 H     1 <1>   0.0800 
 30 H        2.5660    -3.1720     0.6860 H     1 <1>   0.1500 
 31 H       -1.2910    -2.6130     2.4010 H     1 <1>   0.1500 
 32 H        0.9110    -3.7100     2.4250 H     1 <1>   0.1500 
 33 H        2.6510     4.0100    -0.6790 H     1 <1>   0.3700 
 34 H        3.1410     9.8800     1.2190 H     1 <1>   0.0800 
 35 H        5.7250     8.3580     0.7100 H     1 <1>   0.0800 
 36 H        5.0880     8.7260     2.2940 H     1 <1>   0.0800 
 37 H        5.6040    10.0230     1.2520 H     1 <1>   0.0800 
 38 H        3.8960    10.9960    -1.9790 H     1 <1>   0.0800 
 39 H        4.6700    11.3140    -0.4330 H     1 <1>   0.0800 
 40 H        2.9030    11.2980    -0.5610 H     1 <1>   0.0800 
@<TRIPOS>BOND
  1   1   2  2   
  2   1   3  2   
  3   1   4  1   
  4   1   5  1   
  5   4   6  ar  
  6   4   7  ar  
  7   5   8  1   
  8   5  24  1   
  9   5  25  1   
 10   6   9  ar  
 11   6  26  1   
 12   7  10  ar  
 13   7  27  1   
 14   8  11  1   
 15   8  28  1   
 16   8  29  1   
 17   9  12  ar  
 18   9  30  1   
 19  10  12  ar  
 20  10  31  1   
 21  11  13  2   
 22  11  14  am  
 23  12  32  1   
 24  14  15  1   
 25  14  33  1   
 26  15  16  1   
 27  15  17  2   
 28  16  18  1   
 29  17  19  1   
 30  18  19  2   
 31  18  20  1   
 32  20  21  1   
 33  20  22  1   
 34  20  34  1   
 35  21  23  1   
 36  22  35  1   
 37  22  36  1   
 38  22  37  1   
 39  23  38  1   
 40  23  39  1   
 41  23  40  1   
@<TRIPOS>SUBSTRUCTURE
  1 ****  11 GROUP 4 **** **** 0

# MOE 2024.06 (io_trps.svl 2023.06)
