@<TRIPOS>MOLECULE
NONAME
41 42 1 0 0 
SMALL
USER_CHARGES


@<TRIPOS>ATOM
  1 S       -0.0760    -0.0930     0.5280 S.o2  1 <1>   1.3330 
  2 O       -0.8490     1.1070     0.7530 O.2   1 <1>  -0.6500 
  3 O        0.3260    -0.9020     1.6570 O.2   1 <1>  -0.6500 
  4 N       -0.9430    -1.0910    -0.5380 N.am  1 <1>  -0.8490 
  5 C        1.3610     0.3590    -0.4450 C.3   1 <1>  -0.0550 
  6 C       -0.4880    -2.4850    -0.5290 C.3   1 <1>   0.1160 
  7 C       -2.3880    -1.0360    -0.3000 C.3   1 <1>   0.1160 
  8 C        2.3070     1.3500     0.2640 C.3   1 <1>  -0.0800 
  9 C        3.3720     1.8620    -0.6900 C.3   1 <1>   0.2200 
 10 C        3.1600     0.6650     1.3330 C.3   1 <1>   0.1200 
 11 N        3.8970     3.1520    -0.1900 N.am  1 <1>  -0.7300 
 12 C        4.4500     0.7860    -0.5780 C.3   1 <1>   0.1200 
 13 O        4.3050     0.2000     0.6840 O.3   1 <1>  -0.5600 
 14 C        3.7510     4.3740    -0.7910 C.2   1 <1>   0.5440 
 15 O        3.1140     4.4200    -1.8290 O.2   1 <1>  -0.5700 
 16 C        4.3480     5.5750    -0.1990 C.ar  1 <1>   0.3960 
 17 N        5.0800     5.4490     0.9260 N.ar  1 <1>  -0.6200 
 18 C        4.1490     6.8180    -0.8080 C.ar  1 <1>  -0.1500 
 19 C        5.5900     6.5620     1.4040 C.ar  1 <1>   0.3930 
 20 C        4.6950     7.9700    -0.2820 C.ar  1 <1>  -0.1500 
 21 O        6.3020     6.4010     2.5030 O.3   1 <1>  -0.5330 
 22 C        5.4400     7.8270     0.8640 C.ar  1 <1>  -0.1500 
 23 H        1.9040    -0.5270    -0.7130 H     1 <1>   0.0800 
 24 H        1.0110     0.8140    -1.3510 H     1 <1>   0.0800 
 25 H       -1.0050    -3.0480    -1.2870 H     1 <1>   0.0800 
 26 H       -0.6760    -2.9370     0.4320 H     1 <1>   0.0800 
 27 H        0.5680    -2.5340    -0.7310 H     1 <1>   0.0800 
 28 H       -2.9070    -1.6670    -1.0010 H     1 <1>   0.0800 
 29 H       -2.7450    -0.0280    -0.4290 H     1 <1>   0.0800 
 30 H       -2.6150    -1.3570     0.7040 H     1 <1>   0.0800 
 31 H        1.7270     2.1600     0.6730 H     1 <1>   0.0800 
 32 H        3.0190     1.9700    -1.7020 H     1 <1>   0.0800 
 33 H        2.6730    -0.1620     1.8190 H     1 <1>   0.0800 
 34 H        3.4760     1.3760     2.0770 H     1 <1>   0.0800 
 35 H        4.4490     3.1110     0.6710 H     1 <1>   0.3700 
 36 H        5.4440     1.1870    -0.6780 H     1 <1>   0.0800 
 37 H        4.2940     0.0160    -1.3110 H     1 <1>   0.0800 
 38 H        3.5570     6.8750    -1.7050 H     1 <1>   0.1500 
 39 H        4.5470     8.9300    -0.7450 H     1 <1>   0.1500 
 40 H        6.3070     5.4590     2.7390 H     1 <1>   0.4500 
 41 H        5.9040     8.6690     1.3430 H     1 <1>   0.1500 
@<TRIPOS>BOND
  1   1   2  2   
  2   1   3  2   
  3   1   4  am  
  4   1   5  1   
  5   4   6  1   
  6   4   7  1   
  7   5   8  1   
  8   5  23  1   
  9   5  24  1   
 10   6  25  1   
 11   6  26  1   
 12   6  27  1   
 13   7  28  1   
 14   7  29  1   
 15   7  30  1   
 16   8   9  1   
 17   8  10  1   
 18   8  31  1   
 19   9  11  1   
 20   9  12  1   
 21   9  32  1   
 22  10  13  1   
 23  10  33  1   
 24  10  34  1   
 25  11  14  am  
 26  11  35  1   
 27  12  13  1   
 28  12  36  1   
 29  12  37  1   
 30  14  15  2   
 31  14  16  1   
 32  16  17  ar  
 33  16  18  ar  
 34  17  19  ar  
 35  18  20  ar  
 36  18  38  1   
 37  19  21  1   
 38  19  22  ar  
 39  20  22  ar  
 40  20  39  1   
 41  21  40  1   
 42  22  41  1   
@<TRIPOS>SUBSTRUCTURE
  1 ****  11 GROUP 4 **** **** 0

# MOE 2024.06 (io_trps.svl 2023.06)
