@<TRIPOS>MOLECULE
NONAME
56 58 1 0 0 
SMALL
USER_CHARGES


@<TRIPOS>ATOM
  1 O        0.4400     0.3790    -0.4550 O.3   1 <1>  -0.5600 
  2 C        1.7000    -0.2320    -0.5080 C.3   1 <1>   0.3440 
  3 C        0.4370     1.7690    -0.6290 C.3   1 <1>   0.2000 
  4 C        1.5510    -1.7350    -0.3220 C.ar  1 <1>  -0.1440 
  5 C        2.5970     0.3370     0.6150 C.3   1 <1>   0.3430 
  6 C       -1.0290     2.2530    -0.6550 C.3   1 <1>  -0.0800 
  7 C        1.2550     2.4260     0.5080 C.3   1 <1>   0.3430 
  8 C        0.5880    -2.2640     0.5270 C.ar  1 <1>  -0.1500 
  9 C        2.4050    -2.5980    -0.9960 C.ar  1 <1>  -0.1500 
 10 N        2.6430     1.8460     0.6310 N.4   1 <1>  -0.9590 
 11 C       -1.8270     1.5670    -1.7760 C.3   1 <1>  -0.2400 
 12 C       -1.1280     3.7770    -0.8390 C.3   1 <1>  -0.2400 
 13 C        0.4870    -3.6330     0.7070 C.ar  1 <1>  -0.1500 
 14 C        2.3030    -3.9660    -0.8160 C.ar  1 <1>  -0.1500 
 15 C        3.3490     2.3660     1.8320 C.3   1 <1>   0.4860 
 16 C        1.3460    -4.4840     0.0370 C.ar  1 <1>  -0.1500 
 17 C        3.5250     3.8630     1.6680 C.ar  1 <1>  -0.1440 
 18 C        4.4820     4.3590     0.7960 C.ar  1 <1>  -0.1500 
 19 C        2.7310     4.7490     2.3820 C.ar  1 <1>  -0.1500 
 20 C        4.6430     5.7240     0.6240 C.ar  1 <1>   0.0820 
 21 C        2.8870     6.1140     2.2140 C.ar  1 <1>  -0.1500 
 22 O        5.6040     6.1150    -0.2480 O.3   1 <1>  -0.3630 
 23 C        3.8370     6.6050     1.3370 C.ar  1 <1>  -0.1500 
 24 C        5.9680     7.4760    -0.3720 C.3   1 <1>   0.1200 
 25 C        7.1650     7.5770    -1.3170 C.3   1 <1>   0.1200 
 26 O        7.4970     8.9130    -1.4950 O.3   1 <1>  -0.6800 
 27 H        2.1280    -0.0310    -1.4750 H     1 <1>   0.0800 
 28 H        0.8890     1.9900    -1.5810 H     1 <1>   0.0800 
 29 H        3.5900    -0.0650     0.5030 H     1 <1>   0.0800 
 30 H        2.2040    -0.0240     1.5520 H     1 <1>   0.0800 
 31 H       -1.4890     2.0000     0.2860 H     1 <1>   0.0800 
 32 H        0.7170     2.2820     1.4300 H     1 <1>   0.0800 
 33 H        1.3200     3.4870     0.3290 H     1 <1>   0.0800 
 34 H       -0.0970    -1.6180     1.0500 H     1 <1>   0.1500 
 35 H        3.1540    -2.2210    -1.6700 H     1 <1>   0.1500 
 36 H        3.1770     2.1750    -0.1840 H     1 <1>   0.4500 
 37 H       -1.3980     1.7820    -2.7390 H     1 <1>   0.0800 
 38 H       -2.8480     1.9070    -1.7740 H     1 <1>   0.0800 
 39 H       -1.8370     0.5000    -1.6380 H     1 <1>   0.0800 
 40 H       -0.6480     4.0840    -1.7520 H     1 <1>   0.0800 
 41 H       -0.6850     4.3080    -0.0160 H     1 <1>   0.0800 
 42 H       -2.1620     4.0740    -0.8920 H     1 <1>   0.0800 
 43 H       -0.2630    -4.0370     1.3650 H     1 <1>   0.1500 
 44 H        2.9660    -4.6320    -1.3420 H     1 <1>   0.1500 
 45 H        2.7800     2.1560     2.7240 H     1 <1>   0.0800 
 46 H        4.3180     1.9040     1.9260 H     1 <1>   0.0800 
 47 H        1.2660    -5.5490     0.1760 H     1 <1>   0.1500 
 48 H        5.1280     3.7050     0.2370 H     1 <1>   0.1500 
 49 H        1.9880     4.3950     3.0780 H     1 <1>   0.1500 
 50 H        2.2700     6.8000     2.7700 H     1 <1>   0.1500 
 51 H        3.9350     7.6690     1.2270 H     1 <1>   0.1500 
 52 H        5.1250     8.0130    -0.7680 H     1 <1>   0.0800 
 53 H        6.2360     7.8460     0.6020 H     1 <1>   0.0800 
 54 H        6.9380     7.1530    -2.2800 H     1 <1>   0.0800 
 55 H        8.0190     7.0810    -0.8900 H     1 <1>   0.0800 
 56 H        6.8380     9.3690    -2.0550 H     1 <1>   0.4000 
@<TRIPOS>BOND
  1   1   2  1   
  2   1   3  1   
  3   2   4  1   
  4   2   5  1   
  5   2  27  1   
  6   3   6  1   
  7   3   7  1   
  8   3  28  1   
  9   4   8  ar  
 10   4   9  ar  
 11   5  10  1   
 12   5  29  1   
 13   5  30  1   
 14   6  11  1   
 15   6  12  1   
 16   6  31  1   
 17   7  10  1   
 18   7  32  1   
 19   7  33  1   
 20   8  13  ar  
 21   8  34  1   
 22   9  14  ar  
 23   9  35  1   
 24  10  15  1   
 25  10  36  1   
 26  11  37  1   
 27  11  38  1   
 28  11  39  1   
 29  12  40  1   
 30  12  41  1   
 31  12  42  1   
 32  13  16  ar  
 33  13  43  1   
 34  14  16  ar  
 35  14  44  1   
 36  15  17  1   
 37  15  45  1   
 38  15  46  1   
 39  16  47  1   
 40  17  18  ar  
 41  17  19  ar  
 42  18  20  ar  
 43  18  48  1   
 44  19  21  ar  
 45  19  49  1   
 46  20  22  1   
 47  20  23  ar  
 48  21  23  ar  
 49  21  50  1   
 50  22  24  1   
 51  23  51  1   
 52  24  25  1   
 53  24  52  1   
 54  24  53  1   
 55  25  26  1   
 56  25  54  1   
 57  25  55  1   
 58  26  56  1   
@<TRIPOS>SUBSTRUCTURE
  1 ****  10 GROUP 4 **** **** 0

# MOE 2024.06 (io_trps.svl 2023.06)
