@<TRIPOS>MOLECULE
NONAME
53 55 1 0 0 
SMALL
USER_CHARGES


@<TRIPOS>ATOM
  1 S        0.2670     0.2810     0.8800 S.o2  1 <1>   1.3330 
  2 O        0.7000     1.3720     1.7240 O.2   1 <1>  -0.6500 
  3 O       -0.8310    -0.5610     1.2810 O.2   1 <1>  -0.6500 
  4 N        1.6520    -0.7210     0.6220 N.am  1 <1>  -0.6930 
  5 C       -0.0370     0.9220    -0.7530 C.3   1 <1>  -0.1350 
  6 C        1.5550    -1.8500    -0.1900 C.ar  1 <1>   0.1990 
  7 C        2.9700    -0.1660     1.0700 C.3   1 <1>   0.3370 
  8 C        0.8570    -2.9680     0.2510 C.ar  1 <1>  -0.1500 
  9 C        2.1320    -1.8840    -1.4560 C.ar  1 <1>  -0.1500 
 10 C        3.4390     1.0280     0.2070 C.2   1 <1>   0.5690 
 11 C        4.0300    -1.2730     1.1940 C.3   1 <1>  -0.2400 
 12 C        0.7420    -4.0930    -0.5450 C.ar  1 <1>  -0.1500 
 13 C        2.0210    -3.0070    -2.2550 C.ar  1 <1>  -0.1500 
 14 O        4.0670     0.8230    -0.8060 O.2   1 <1>  -0.5700 
 15 N        3.0890     2.2910     0.6080 N.am  1 <1>  -0.4940 
 16 C        1.3260    -4.1150    -1.8000 C.ar  1 <1>  -0.1500 
 17 C        3.2950     3.5470    -0.0140 C.2   1 <1>  -0.0880 
 18 N        4.4150     4.0110    -0.6540 N.pl3 1 <1>   0.3140 
 19 C        2.3760     4.5410    -0.0720 C.2   1 <1>  -0.1810 
 20 N        4.1970     5.2640    -1.1380 N.2   1 <1>  -0.7070 
 21 C        5.7550     3.3470    -0.7750 C.3   1 <1>   0.1760 
 22 C        2.9890     5.5630    -0.7830 C.2   1 <1>   0.1390 
 23 C        0.9680     4.5850     0.4920 C.3   1 <1>  -0.0590 
 24 C        6.3360     2.9000     0.5790 C.3   1 <1>  -0.1600 
 25 C        6.8530     4.2310    -1.3810 C.3   1 <1>  -0.1600 
 26 C        7.8520     3.1350     0.5180 C.3   1 <1>  -0.1600 
 27 C        8.1530     3.5910    -0.9080 C.3   1 <1>  -0.1600 
 28 H       -0.8770     1.5880    -0.7360 H     1 <1>   0.0800 
 29 H       -0.2530     0.1190    -1.4300 H     1 <1>   0.0800 
 30 H        0.8200     1.4560    -1.1140 H     1 <1>   0.0800 
 31 H        2.8320     0.2080     2.0690 H     1 <1>   0.0800 
 32 H        0.3990    -2.9500     1.2240 H     1 <1>   0.1500 
 33 H        2.6710    -1.0300    -1.8200 H     1 <1>   0.1500 
 34 H        4.2970    -1.6640     0.2290 H     1 <1>   0.0800 
 35 H        3.6650    -2.0710     1.8160 H     1 <1>   0.0800 
 36 H        4.9200    -0.8710     1.6430 H     1 <1>   0.0800 
 37 H        0.1980    -4.9510    -0.1890 H     1 <1>   0.1500 
 38 H        2.4750    -3.0210    -3.2310 H     1 <1>   0.1500 
 39 H        2.3690     2.3080     1.3450 H     1 <1>   0.3700 
 40 H        1.2380    -4.9900    -2.4210 H     1 <1>   0.1500 
 41 H        5.6490     2.4920    -1.4150 H     1 <1>   0.0800 
 42 H        2.5250     6.5050    -1.0200 H     1 <1>   0.1500 
 43 H        0.9000     3.9930     1.3860 H     1 <1>   0.0800 
 44 H        0.2710     4.2080    -0.2330 H     1 <1>   0.0800 
 45 H        0.7020     5.5980     0.7380 H     1 <1>   0.0800 
 46 H        6.1280     1.8580     0.7430 H     1 <1>   0.0800 
 47 H        5.9140     3.4800     1.3820 H     1 <1>   0.0800 
 48 H        6.7940     5.2290    -0.9800 H     1 <1>   0.0800 
 49 H        6.7880     4.2690    -2.4540 H     1 <1>   0.0800 
 50 H        8.4060     2.2460     0.7690 H     1 <1>   0.0800 
 51 H        8.1190     3.9180     1.2080 H     1 <1>   0.0800 
 52 H        8.9800     4.2800    -0.9470 H     1 <1>   0.0800 
 53 H        8.3760     2.7350    -1.5220 H     1 <1>   0.0800 
@<TRIPOS>BOND
  1   1   2  2   
  2   1   3  2   
  3   1   4  am  
  4   1   5  1   
  5   4   6  1   
  6   4   7  1   
  7   5  28  1   
  8   5  29  1   
  9   5  30  1   
 10   6   8  ar  
 11   6   9  ar  
 12   7  10  1   
 13   7  11  1   
 14   7  31  1   
 15   8  12  ar  
 16   8  32  1   
 17   9  13  ar  
 18   9  33  1   
 19  10  14  2   
 20  10  15  am  
 21  11  34  1   
 22  11  35  1   
 23  11  36  1   
 24  12  16  ar  
 25  12  37  1   
 26  13  16  ar  
 27  13  38  1   
 28  15  17  1   
 29  15  39  1   
 30  16  40  1   
 31  17  18  1   
 32  17  19  2   
 33  18  20  1   
 34  18  21  1   
 35  19  22  1   
 36  19  23  1   
 37  20  22  2   
 38  21  24  1   
 39  21  25  1   
 40  21  41  1   
 41  22  42  1   
 42  23  43  1   
 43  23  44  1   
 44  23  45  1   
 45  24  26  1   
 46  24  46  1   
 47  24  47  1   
 48  25  27  1   
 49  25  48  1   
 50  25  49  1   
 51  26  27  1   
 52  26  50  1   
 53  26  51  1   
 54  27  52  1   
 55  27  53  1   
@<TRIPOS>SUBSTRUCTURE
  1 ****  10 GROUP 4 **** **** 0

# MOE 2024.06 (io_trps.svl 2023.06)
