@<TRIPOS>MOLECULE
NONAME
55 59 1 0 0 
SMALL
USER_CHARGES


@<TRIPOS>ATOM
  1 S        0.4170     0.2670    -1.0590 S.3   1 <1>  -0.0800 
  2 C       -0.7010    -1.0660    -0.8630 C.ar  1 <1>   0.0400 
  3 C       -0.8950     1.3940    -0.7240 C.2   1 <1>   0.1980 
  4 C       -1.9440    -0.5400    -0.5670 C.ar  1 <1>   0.2270 
  5 C       -0.4520    -2.4220    -0.9730 C.ar  1 <1>  -0.1500 
  6 N       -2.0200     0.8500    -0.4940 N.2   1 <1>  -0.5650 
  7 C       -0.5620     2.8690    -0.7370 C.3   1 <1>   0.0200 
  8 C       -2.9990    -1.4200    -0.3680 C.ar  1 <1>  -0.1500 
  9 C       -1.5160    -3.2860    -0.7710 C.ar  1 <1>  -0.1500 
 10 C        0.1430     3.2620     0.5590 C.3   1 <1>   0.1400 
 11 C       -2.7810    -2.7860    -0.4700 C.ar  1 <1>  -0.1500 
 12 N        0.3710     4.7270     0.5890 N.am  1 <1>  -0.7300 
 13 C        1.4490     5.3520     0.0410 C.2   1 <1>   0.5690 
 14 O        2.2970     4.7160    -0.5380 O.2   1 <1>  -0.5700 
 15 C        1.5550     6.8880     0.1500 C.3   1 <1>   0.0610 
 16 C        0.3710     7.5520    -0.5940 C.3   1 <1>  -0.1600 
 17 C        2.8700     7.4210    -0.4770 C.3   1 <1>  -0.1600 
 18 C        1.5260     7.3320     1.6350 C.3   1 <1>  -0.1600 
 19 C        0.4710     9.0750    -0.4710 C.3   1 <1>   0.2800 
 20 C        2.9850     8.9600    -0.3830 C.3   1 <1>   0.0000 
 21 C        1.6070     8.8650     1.7510 C.3   1 <1>  -0.0800 
 22 O       -0.5980     9.6390    -1.1240 O.3   1 <1>  -0.6800 
 23 C        1.7700     9.5800    -1.1130 C.3   1 <1>  -0.1600 
 24 C        0.4150     9.4910     1.0040 C.3   1 <1>  -0.1600 
 25 C        2.9200     9.3550     1.1110 C.3   1 <1>  -0.1600 
 26 C        4.3230     9.3910    -1.0310 C.3   1 <1>  -0.1600 
 27 C        4.6140    10.9010    -1.0390 C.3   1 <1>  -0.2400 
 28 H        0.5340    -2.7820    -1.2060 H     1 <1>   0.1500 
 29 H       -1.4760     3.4250    -0.8340 H     1 <1>   0.0800 
 30 H        0.0700     3.0850    -1.5800 H     1 <1>   0.0800 
 31 H       -3.9700    -1.0240    -0.1370 H     1 <1>   0.1500 
 32 H       -1.3660    -4.3490    -0.8470 H     1 <1>   0.1500 
 33 H        1.0900     2.7510     0.6260 H     1 <1>   0.0800 
 34 H       -0.4570     2.9760     1.4060 H     1 <1>   0.0800 
 35 H       -3.5990    -3.4690    -0.3160 H     1 <1>   0.1500 
 36 H       -0.3500     5.2850     1.0490 H     1 <1>   0.3700 
 37 H       -0.5620     7.2240    -0.1710 H     1 <1>   0.0800 
 38 H        0.3960     7.2620    -1.6300 H     1 <1>   0.0800 
 39 H        2.9180     7.1180    -1.5090 H     1 <1>   0.0800 
 40 H        3.7070     6.9650     0.0240 H     1 <1>   0.0800 
 41 H        2.3540     6.8860     2.1590 H     1 <1>   0.0800 
 42 H        0.6230     6.9930     2.1100 H     1 <1>   0.0800 
 43 H        1.5790     9.1550     2.7880 H     1 <1>   0.0800 
 44 H       -0.5310     9.4520    -2.0770 H     1 <1>   0.4000 
 45 H        1.8000    10.6510    -1.0330 H     1 <1>   0.0800 
 46 H        1.7990     9.3110    -2.1530 H     1 <1>   0.0800 
 47 H       -0.5080     9.1590     1.4430 H     1 <1>   0.0800 
 48 H        0.4610    10.5630     1.0810 H     1 <1>   0.0800 
 49 H        2.9740    10.4240     1.2160 H     1 <1>   0.0800 
 50 H        3.7580     8.9340     1.6380 H     1 <1>   0.0800 
 51 H        4.3430     9.0420    -2.0490 H     1 <1>   0.0800 
 52 H        5.1300     8.8990    -0.5160 H     1 <1>   0.0800 
 53 H        3.8650    11.4380    -1.5920 H     1 <1>   0.0800 
 54 H        5.5640    11.0790    -1.5100 H     1 <1>   0.0800 
 55 H        4.6610    11.2930    -0.0400 H     1 <1>   0.0800 
@<TRIPOS>BOND
  1   1   2  1   
  2   1   3  1   
  3   2   4  ar  
  4   2   5  ar  
  5   3   6  2   
  6   3   7  1   
  7   4   6  1   
  8   4   8  ar  
  9   5   9  ar  
 10   5  28  1   
 11   7  10  1   
 12   7  29  1   
 13   7  30  1   
 14   8  11  ar  
 15   8  31  1   
 16   9  11  ar  
 17   9  32  1   
 18  10  12  1   
 19  10  33  1   
 20  10  34  1   
 21  11  35  1   
 22  12  13  am  
 23  12  36  1   
 24  13  14  2   
 25  13  15  1   
 26  15  16  1   
 27  15  17  1   
 28  15  18  1   
 29  16  19  1   
 30  16  37  1   
 31  16  38  1   
 32  17  20  1   
 33  17  39  1   
 34  17  40  1   
 35  18  21  1   
 36  18  41  1   
 37  18  42  1   
 38  19  22  1   
 39  19  23  1   
 40  19  24  1   
 41  20  23  1   
 42  20  25  1   
 43  20  26  1   
 44  21  24  1   
 45  21  25  1   
 46  21  43  1   
 47  22  44  1   
 48  23  45  1   
 49  23  46  1   
 50  24  47  1   
 51  24  48  1   
 52  25  49  1   
 53  25  50  1   
 54  26  27  1   
 55  26  51  1   
 56  26  52  1   
 57  27  53  1   
 58  27  54  1   
 59  27  55  1   
@<TRIPOS>SUBSTRUCTURE
  1 ****  12 GROUP 4 **** **** 0

# MOE 2024.06 (io_trps.svl 2023.06)
