@<TRIPOS>MOLECULE
NONAME
46 48 1 0 0 
SMALL
USER_CHARGES


@<TRIPOS>ATOM
  1 O        0.2460    -0.4570     2.1220 O.2   1 <1>  -0.5700 
  2 C       -0.4240     0.4130     1.6150 C.2   1 <1>   0.5690 
  3 N       -1.4620     0.1080     0.7750 N.am  1 <1>  -0.6600 
  4 C       -0.0900     1.8590     1.9580 C.3   1 <1>   0.0440 
  5 C       -2.2840     1.0700    -0.0040 C.3   1 <1>   0.1400 
  6 C       -1.8490    -1.2860     0.4610 C.3   1 <1>   0.1400 
  7 C        0.3930     2.6710     0.7610 C.ar  1 <1>  -0.1440 
  8 C       -3.1630     0.2040    -0.9070 C.3   1 <1>   0.2000 
  9 C       -3.1980    -1.1730    -0.2490 C.3   1 <1>  -0.0800 
 10 C       -0.2020     3.8840     0.4450 C.ar  1 <1>  -0.1500 
 11 C        1.4290     2.1970    -0.0280 C.ar  1 <1>  -0.1500 
 12 O       -4.4470     0.7150    -1.0110 O.3   1 <1>  -0.6800 
 13 C       -3.4660    -2.3120    -1.2440 C.3   1 <1>   0.0210 
 14 C        0.2230     4.6150    -0.6520 C.ar  1 <1>  -0.1430 
 15 C        1.8610     2.9250    -1.1230 C.ar  1 <1>  -0.1500 
 16 C       -3.3920    -3.6610    -0.5560 C.2   1 <1>   0.1080 
 17 C        1.2580     4.1300    -1.4340 C.ar  1 <1>  -0.1500 
 18 C       -0.4350     5.9410    -0.9900 C.3   1 <1>  -0.0970 
 19 N       -4.2030    -4.0120     0.3930 N.2   1 <1>  -0.7070 
 20 C       -2.4610    -4.6530    -0.8460 C.2   1 <1>  -0.1500 
 21 N       -3.8070    -5.2510     0.7380 N.pl3 1 <1>   0.3000 
 22 C       -2.7520    -5.6610     0.0030 C.2   1 <1>  -0.3320 
 23 C       -2.0770    -7.0110     0.1590 C.3   1 <1>  -0.0600 
 24 H       -0.9620     2.3100     2.3920 H     1 <1>   0.0800 
 25 H        0.6810     1.8630     2.7070 H     1 <1>   0.0800 
 26 H       -2.8820     1.6590     0.6690 H     1 <1>   0.0800 
 27 H       -1.6560     1.7060    -0.6040 H     1 <1>   0.0800 
 28 H       -1.1040    -1.7170    -0.1860 H     1 <1>   0.0800 
 29 H       -1.9260    -1.8780     1.3590 H     1 <1>   0.0800 
 30 H       -2.7330     0.1620    -1.8930 H     1 <1>   0.0800 
 31 H       -3.9550    -1.1910     0.5150 H     1 <1>   0.0800 
 32 H       -1.0010     4.2660     1.0550 H     1 <1>   0.1500 
 33 H        1.9030     1.2590     0.2070 H     1 <1>   0.1500 
 34 H       -4.9230     0.6000    -0.1660 H     1 <1>   0.4000 
 35 H       -2.7510    -2.2810    -2.0460 H     1 <1>   0.0800 
 36 H       -4.4480    -2.1950    -1.6660 H     1 <1>   0.0800 
 37 H        2.6660     2.5530    -1.7310 H     1 <1>   0.1500 
 38 H        1.6010     4.6890    -2.2870 H     1 <1>   0.1500 
 39 H       -0.3650     6.1390    -2.0440 H     1 <1>   0.0800 
 40 H        0.0530     6.7350    -0.4550 H     1 <1>   0.0800 
 41 H       -1.4750     5.9250    -0.7170 H     1 <1>   0.0800 
 42 H       -1.6860    -4.6010    -1.5890 H     1 <1>   0.1500 
 43 H       -4.2750    -5.7880     1.4780 H     1 <1>   0.2700 
 44 H       -1.2630    -7.1010    -0.5390 H     1 <1>   0.0800 
 45 H       -2.7790    -7.8030    -0.0300 H     1 <1>   0.0800 
 46 H       -1.6850    -7.1180     1.1560 H     1 <1>   0.0800 
@<TRIPOS>BOND
  1   1   2  2   
  2   2   3  am  
  3   2   4  1   
  4   3   5  1   
  5   3   6  1   
  6   4   7  1   
  7   4  24  1   
  8   4  25  1   
  9   5   8  1   
 10   5  26  1   
 11   5  27  1   
 12   6   9  1   
 13   6  28  1   
 14   6  29  1   
 15   7  10  ar  
 16   7  11  ar  
 17   8   9  1   
 18   8  12  1   
 19   8  30  1   
 20   9  13  1   
 21   9  31  1   
 22  10  14  ar  
 23  10  32  1   
 24  11  15  ar  
 25  11  33  1   
 26  12  34  1   
 27  13  16  1   
 28  13  35  1   
 29  13  36  1   
 30  14  17  ar  
 31  14  18  1   
 32  15  17  ar  
 33  15  37  1   
 34  16  19  2   
 35  16  20  1   
 36  17  38  1   
 37  18  39  1   
 38  18  40  1   
 39  18  41  1   
 40  19  21  1   
 41  20  22  2   
 42  20  42  1   
 43  21  22  1   
 44  21  43  1   
 45  22  23  1   
 46  23  44  1   
 47  23  45  1   
 48  23  46  1   
@<TRIPOS>SUBSTRUCTURE
  1 ****   3 GROUP 4 **** **** 0

# MOE 2024.06 (io_trps.svl 2023.06)
