@<TRIPOS>MOLECULE
NONAME
54 57 1 0 0 
SMALL
USER_CHARGES


@<TRIPOS>ATOM
  1 N        0.7410     0.3740     0.7080 N.ar  1 <1>  -0.6200 
  2 C       -0.1600     1.2880     1.0810 C.ar  1 <1>   0.7200 
  3 C        1.4120     0.6750    -0.3720 C.ar  1 <1>   0.1660 
  4 N       -0.4150     2.4430     0.4580 N.ar  1 <1>  -0.6200 
  5 N       -0.8820     1.0160     2.2230 N.pl3 1 <1>  -0.8380 
  6 C        1.2310     1.8230    -1.0800 C.ar  1 <1>  -0.1440 
  7 C        2.4950    -0.1900    -0.9660 C.3   1 <1>   0.1430 
  8 C        0.2810     2.7020    -0.6240 C.ar  1 <1>   0.1600 
  9 C       -1.1680    -0.3740     2.6730 C.3   1 <1>   0.1290 
 10 C       -1.6370     2.0820     2.9390 C.3   1 <1>   0.1290 
 11 C        2.1600     1.8970    -2.2650 C.3   1 <1>  -0.0160 
 12 C        3.4240    -0.6370     0.1770 C.3   1 <1>   0.3430 
 13 C        1.8760    -1.4170    -1.6660 C.3   1 <1>  -0.1600 
 14 C        3.1770     0.7750    -1.9740 C.3   1 <1>  -0.1600 
 15 N        4.4750    -1.6150    -0.2880 N.4   1 <1>  -0.9590 
 16 C        2.9440    -2.4570    -2.0480 C.3   1 <1>  -0.1600 
 17 C        3.8260    -2.8360    -0.8550 C.3   1 <1>   0.3430 
 18 C        5.4010    -2.0030     0.8180 C.3   1 <1>   0.3430 
 19 C        6.2740    -0.8360     1.2850 C.3   1 <1>  -0.1600 
 20 C        7.1830    -0.2710     0.1800 C.3   1 <1>   0.0960 
 21 N        8.2030     0.6150     0.7640 N.pl3 1 <1>   0.3140 
 22 N        9.2810     0.1090     1.3810 N.2   1 <1>  -0.7070 
 23 C        8.2080     1.9620     0.7840 C.2   1 <1>  -0.3020 
 24 C        9.9540     1.1470     1.7770 C.2   1 <1>   0.1390 
 25 C        9.3300     2.3400     1.4320 C.2   1 <1>  -0.1500 
 26 H        0.0910     3.6250    -1.1450 H     1 <1>   0.1500 
 27 H       -0.9370    -1.0840     1.8980 H     1 <1>   0.0800 
 28 H       -2.2110    -0.4720     2.9180 H     1 <1>   0.0800 
 29 H       -0.5770    -0.5980     3.5430 H     1 <1>   0.0800 
 30 H       -1.1370     3.0300     2.8370 H     1 <1>   0.0800 
 31 H       -1.7060     1.8460     3.9860 H     1 <1>   0.0800 
 32 H       -2.6270     2.1640     2.5240 H     1 <1>   0.0800 
 33 H        2.6350     2.8600    -2.3400 H     1 <1>   0.0800 
 34 H        1.6080     1.6920    -3.1670 H     1 <1>   0.0800 
 35 H        2.8200    -1.0950     0.9430 H     1 <1>   0.0800 
 36 H        3.8840     0.2370     0.6060 H     1 <1>   0.0800 
 37 H        1.3250    -1.1100    -2.5390 H     1 <1>   0.0800 
 38 H        1.1700    -1.8790    -0.9940 H     1 <1>   0.0800 
 39 H        3.4840     0.2900    -2.8830 H     1 <1>   0.0800 
 40 H        4.0410     1.2260    -1.5160 H     1 <1>   0.0800 
 41 H        5.0110    -1.1790    -1.0460 H     1 <1>   0.4500 
 42 H        3.5610    -2.0890    -2.8490 H     1 <1>   0.0800 
 43 H        2.4530    -3.3440    -2.4100 H     1 <1>   0.0800 
 44 H        3.2190    -3.3100    -0.0990 H     1 <1>   0.0800 
 45 H        4.5770    -3.5410    -1.1750 H     1 <1>   0.0800 
 46 H        6.0460    -2.8000     0.4840 H     1 <1>   0.0800 
 47 H        4.8290    -2.3740     1.6540 H     1 <1>   0.0800 
 48 H        6.9040    -1.2150     2.0730 H     1 <1>   0.0800 
 49 H        5.6740    -0.0530     1.7120 H     1 <1>   0.0800 
 50 H        6.6190     0.2870    -0.5430 H     1 <1>   0.0800 
 51 H        7.7040    -1.0690    -0.3210 H     1 <1>   0.0800 
 52 H        7.4370     2.5710     0.3500 H     1 <1>   0.1500 
 53 H       10.8880     1.0810     2.3110 H     1 <1>   0.1500 
 54 H        9.6910     3.3290     1.6500 H     1 <1>   0.1500 
@<TRIPOS>BOND
  1   1   2  ar  
  2   1   3  ar  
  3   2   4  ar  
  4   2   5  1   
  5   3   6  ar  
  6   3   7  1   
  7   4   8  ar  
  8   5   9  1   
  9   5  10  1   
 10   6   8  ar  
 11   6  11  1   
 12   7  12  1   
 13   7  13  1   
 14   7  14  1   
 15   8  26  1   
 16   9  27  1   
 17   9  28  1   
 18   9  29  1   
 19  10  30  1   
 20  10  31  1   
 21  10  32  1   
 22  11  14  1   
 23  11  33  1   
 24  11  34  1   
 25  12  15  1   
 26  12  35  1   
 27  12  36  1   
 28  13  16  1   
 29  13  37  1   
 30  13  38  1   
 31  14  39  1   
 32  14  40  1   
 33  15  17  1   
 34  15  18  1   
 35  15  41  1   
 36  16  17  1   
 37  16  42  1   
 38  16  43  1   
 39  17  44  1   
 40  17  45  1   
 41  18  19  1   
 42  18  46  1   
 43  18  47  1   
 44  19  20  1   
 45  19  48  1   
 46  19  49  1   
 47  20  21  1   
 48  20  50  1   
 49  20  51  1   
 50  21  22  1   
 51  21  23  1   
 52  22  24  2   
 53  23  25  2   
 54  23  52  1   
 55  24  25  1   
 56  24  53  1   
 57  25  54  1   
@<TRIPOS>SUBSTRUCTURE
  1 ****  12 GROUP 4 **** **** 0

# MOE 2024.06 (io_trps.svl 2023.06)
