@<TRIPOS>MOLECULE
NONAME
22 23 1 0 0 
SMALL
USER_CHARGES


@<TRIPOS>ATOM
  1 F        2.7100     5.8880    -1.0290 F     1 <1>  -0.1900 
  2 C        1.6030     5.2680    -0.7120 C.ar  1 <1>   0.1900 
  3 C        1.5160     3.8890    -0.8100 C.ar  1 <1>   0.1900 
  4 C        0.5270     6.0190    -0.2780 C.ar  1 <1>  -0.1500 
  5 F        2.5390     3.1870    -1.2230 F     1 <1>  -0.1900 
  6 C        0.3460     3.2340    -0.4740 C.ar  1 <1>  -0.1500 
  7 C       -0.6560     5.3710     0.0560 C.ar  1 <1>  -0.0320 
  8 C       -0.7380     3.9850    -0.0390 C.ar  1 <1>  -0.1500 
  9 C       -1.8570     6.1690     0.5320 C.3   1 <1>  -0.0680 
 10 C       -2.4240     7.2450    -0.3380 C.3   1 <1>   0.2960 
 11 C       -3.1890     5.9830    -0.1410 C.3   1 <1>  -0.2000 
 12 N       -2.9470     8.4740     0.2790 N.4   1 <1>  -0.7460 
 13 H        0.6330     7.0860    -0.2060 H     1 <1>   0.1500 
 14 H        0.2900     2.1620    -0.5500 H     1 <1>   0.1500 
 15 H       -1.6490     3.4760     0.2290 H     1 <1>   0.1500 
 16 H       -1.8620     6.3010     1.6010 H     1 <1>   0.1000 
 17 H       -1.9590     7.4070    -1.3000 H     1 <1>   0.1000 
 18 H       -4.0680     5.9610     0.4790 H     1 <1>   0.1000 
 19 H       -3.2480     5.2830    -0.9570 H     1 <1>   0.1000 
 20 H       -3.3900     8.2640     1.1790 H     1 <1>   0.4500 
 21 H       -3.6500     8.9100    -0.3280 H     1 <1>   0.4500 
 22 H       -2.1940     9.1520     0.4410 H     1 <1>   0.4500 
@<TRIPOS>BOND
  1   1   2  1   
  2   2   3  ar  
  3   2   4  ar  
  4   3   5  1   
  5   3   6  ar  
  6   4   7  ar  
  7   4  13  1   
  8   6   8  ar  
  9   6  14  1   
 10   7   8  ar  
 11   7   9  1   
 12   8  15  1   
 13   9  10  1   
 14   9  11  1   
 15   9  16  1   
 16  10  11  1   
 17  10  12  1   
 18  10  17  1   
 19  11  18  1   
 20  11  19  1   
 21  12  20  1   
 22  12  21  1   
 23  12  22  1   
@<TRIPOS>SUBSTRUCTURE
  1 ****   7 GROUP 4 **** **** 0

# MOE 2024.06 (io_trps.svl 2023.06)
