@<TRIPOS>MOLECULE
NONAME
46 48 1 0 0 
SMALL
USER_CHARGES


@<TRIPOS>ATOM
  1 O       -0.8690     0.4770     1.8710 O.2   1 <1>  -0.5700 
  2 C       -1.7190     1.0620     1.2280 C.2   1 <1>   0.5440 
  3 N       -2.7460     0.3300     0.6760 N.am  1 <1>  -0.6600 
  4 C       -1.6290     2.4970     1.0410 C.ar  1 <1>   0.0860 
  5 C       -3.6290     0.8070    -0.4200 C.3   1 <1>   0.1400 
  6 C       -2.8120    -1.1500     0.7810 C.3   1 <1>   0.1400 
  7 C       -0.5010     3.0700     0.4600 C.ar  1 <1>  -0.1500 
  8 C       -2.6600     3.3500     1.4340 C.ar  1 <1>  -0.1500 
  9 C       -4.5390    -0.3820    -0.7230 C.3   1 <1>   0.2000 
 10 C       -3.6600    -1.5990    -0.4150 C.3   1 <1>  -0.0800 
 11 C       -0.4030     4.4350     0.2560 C.ar  1 <1>   0.0830 
 12 C       -2.5750     4.7170     1.2380 C.ar  1 <1>  -0.1500 
 13 O       -5.6050    -0.3450     0.1630 O.3   1 <1>  -0.6800 
 14 C       -4.4280    -2.9140    -0.1800 C.3   1 <1>   0.0200 
 15 O        0.7360     4.8840    -0.3260 O.3   1 <1>  -0.3630 
 16 C       -1.4510     5.2640     0.6470 C.ar  1 <1>  -0.1500 
 17 C       -3.5130    -4.1170    -0.0180 C.2   1 <1>  -0.0400 
 18 C        0.9810     6.2600    -0.5000 C.3   1 <1>   0.1200 
 19 O       -4.0430    -5.2660     0.3090 O.3   1 <1>  -0.0190 
 20 C       -2.1880    -4.3010    -0.1430 C.2   1 <1>  -0.1500 
 21 C        2.3600     6.4170    -1.1330 C.3   1 <1>  -0.2400 
 22 N       -3.1470    -6.2040     0.4140 N.2   1 <1>  -0.4100 
 23 C       -2.0190    -5.6510     0.1470 C.2   1 <1>   0.1080 
 24 C       -0.6930    -6.3780     0.1510 C.3   1 <1>  -0.0590 
 25 H       -4.1970     1.6750    -0.1350 H     1 <1>   0.0800 
 26 H       -3.0250     1.0370    -1.2800 H     1 <1>   0.0800 
 27 H       -1.8260    -1.5820     0.7530 H     1 <1>   0.0800 
 28 H       -3.2850    -1.4130     1.7120 H     1 <1>   0.0800 
 29 H        0.3170     2.4380     0.1640 H     1 <1>   0.1500 
 30 H       -3.5330     2.9310     1.9030 H     1 <1>   0.1500 
 31 H       -4.9270    -0.3740    -1.7280 H     1 <1>   0.0800 
 32 H       -2.9980    -1.7370    -1.2520 H     1 <1>   0.0800 
 33 H       -3.3840     5.3560     1.5480 H     1 <1>   0.1500 
 34 H       -5.2580    -0.2070     1.0670 H     1 <1>   0.4000 
 35 H       -5.0850    -3.0970    -1.0120 H     1 <1>   0.0800 
 36 H       -5.0380    -2.8320     0.7030 H     1 <1>   0.0800 
 37 H       -1.4080     6.3270     0.5030 H     1 <1>   0.1500 
 38 H        0.2190     6.6640    -1.1450 H     1 <1>   0.0800 
 39 H        0.9480     6.7370     0.4640 H     1 <1>   0.0800 
 40 H       -1.4080    -3.6110    -0.4020 H     1 <1>   0.1500 
 41 H        2.3870     5.9230    -2.0870 H     1 <1>   0.0800 
 42 H        3.1110     5.9940    -0.4890 H     1 <1>   0.0800 
 43 H        2.5790     7.4590    -1.2780 H     1 <1>   0.0800 
 44 H       -0.2480    -6.3310    -0.8250 H     1 <1>   0.0800 
 45 H       -0.8420    -7.4100     0.4160 H     1 <1>   0.0800 
 46 H       -0.0320    -5.9270     0.8670 H     1 <1>   0.0800 
@<TRIPOS>BOND
  1   1   2  2   
  2   2   3  am  
  3   2   4  1   
  4   3   5  1   
  5   3   6  1   
  6   4   7  ar  
  7   4   8  ar  
  8   5   9  1   
  9   5  25  1   
 10   5  26  1   
 11   6  10  1   
 12   6  27  1   
 13   6  28  1   
 14   7  11  ar  
 15   7  29  1   
 16   8  12  ar  
 17   8  30  1   
 18   9  10  1   
 19   9  13  1   
 20   9  31  1   
 21  10  14  1   
 22  10  32  1   
 23  11  15  1   
 24  11  16  ar  
 25  12  16  ar  
 26  12  33  1   
 27  13  34  1   
 28  14  17  1   
 29  14  35  1   
 30  14  36  1   
 31  15  18  1   
 32  16  37  1   
 33  17  19  1   
 34  17  20  2   
 35  18  21  1   
 36  18  38  1   
 37  18  39  1   
 38  19  22  1   
 39  20  23  1   
 40  20  40  1   
 41  21  41  1   
 42  21  42  1   
 43  21  43  1   
 44  22  23  2   
 45  23  24  1   
 46  24  44  1   
 47  24  45  1   
 48  24  46  1   
@<TRIPOS>SUBSTRUCTURE
  1 ****   3 GROUP 4 **** **** 0

# MOE 2024.06 (io_trps.svl 2023.06)
