@<TRIPOS>MOLECULE
NONAME
35 35 1 0 0 
SMALL
USER_CHARGES


@<TRIPOS>ATOM
  1 O       -1.4620    -0.8360    -1.0470 O.2   1 <1>  -0.5700 
  2 C       -1.9560     0.0780    -0.4220 C.2   1 <1>   0.5690 
  3 N       -2.8870    -0.1920     0.5550 N.am  1 <1>  -0.6600 
  4 C       -1.4770     1.4920    -0.8010 C.3   1 <1>  -0.0190 
  5 C       -3.1150    -1.6100     0.9740 C.3   1 <1>   0.3200 
  6 C       -3.8240     0.7880     1.1840 C.3   1 <1>   0.1400 
  7 C       -0.7190     2.1840     0.3540 C.3   1 <1>  -0.1600 
  8 C       -2.5690     2.3730    -1.4410 C.3   1 <1>  -0.2400 
  9 C       -4.1060    -2.2910     0.0480 C.2   1 <1>   0.0060 
 10 C       -5.1660     0.8220     0.4430 C.3   1 <1>   0.1200 
 11 C       -0.0200     3.4840    -0.0690 C.3   1 <1>  -0.2400 
 12 N       -5.2630    -2.7570     0.4000 N.2   1 <1>  -0.5650 
 13 N       -3.8320    -2.4560    -1.2620 N.pl3 1 <1>   0.0330 
 14 O       -5.9510     1.8350     0.9760 O.3   1 <1>  -0.6800 
 15 C       -5.7690    -3.2540    -0.7470 C.2   1 <1>   0.0770 
 16 C       -4.9090    -3.0780    -1.7730 C.2   1 <1>  -0.3020 
 17 H       -0.7470     1.3370    -1.5780 H     1 <1>   0.0800 
 18 H       -3.4880    -1.6440     1.9830 H     1 <1>   0.0800 
 19 H       -2.1840    -2.1500     0.9540 H     1 <1>   0.0800 
 20 H       -3.3980     1.7710     1.1780 H     1 <1>   0.0800 
 21 H       -3.9900     0.5120     2.2110 H     1 <1>   0.0800 
 22 H        0.0300     1.5030     0.7220 H     1 <1>   0.0800 
 23 H       -1.3810     2.4000     1.1710 H     1 <1>   0.0800 
 24 H       -3.2350     2.7870    -0.7080 H     1 <1>   0.0800 
 25 H       -3.1430     1.7940    -2.1430 H     1 <1>   0.0800 
 26 H       -2.1200     3.1890    -1.9780 H     1 <1>   0.0800 
 27 H       -5.7000    -0.1070     0.5430 H     1 <1>   0.0800 
 28 H       -5.0150     1.0390    -0.5990 H     1 <1>   0.0800 
 29 H        0.6380     3.3050    -0.9020 H     1 <1>   0.0800 
 30 H        0.5650     3.8670     0.7490 H     1 <1>   0.0800 
 31 H       -0.7390     4.2340    -0.3460 H     1 <1>   0.0800 
 32 H       -2.9690    -2.1330    -1.7230 H     1 <1>   0.2700 
 33 H       -6.3900     1.5350     1.7960 H     1 <1>   0.4000 
 34 H       -6.7400    -3.7190    -0.7730 H     1 <1>   0.1500 
 35 H       -4.9990    -3.3520    -2.8090 H     1 <1>   0.1500 
@<TRIPOS>BOND
  1   1   2  2   
  2   2   3  am  
  3   2   4  1   
  4   3   5  1   
  5   3   6  1   
  6   4   7  1   
  7   4   8  1   
  8   4  17  1   
  9   5   9  1   
 10   5  18  1   
 11   5  19  1   
 12   6  10  1   
 13   6  20  1   
 14   6  21  1   
 15   7  11  1   
 16   7  22  1   
 17   7  23  1   
 18   8  24  1   
 19   8  25  1   
 20   8  26  1   
 21   9  12  2   
 22   9  13  1   
 23  10  14  1   
 24  10  27  1   
 25  10  28  1   
 26  11  29  1   
 27  11  30  1   
 28  11  31  1   
 29  12  15  1   
 30  13  16  1   
 31  13  32  1   
 32  14  33  1   
 33  15  16  2   
 34  15  34  1   
 35  16  35  1   
@<TRIPOS>SUBSTRUCTURE
  1 ****   3 GROUP 4 **** **** 0

# MOE 2024.06 (io_trps.svl 2023.06)
