@<TRIPOS>MOLECULE
NONAME
24 24 1 0 0 
SMALL
USER_CHARGES


@<TRIPOS>ATOM
  1 S       -0.1260     0.1080    -1.1730 S.3   1 <1>  -0.0800 
  2 C       -0.3590     1.5580    -0.2130 C.2   1 <1>  -0.1100 
  3 C        1.3790     0.7310    -1.8150 C.2   1 <1>  -0.1100 
  4 C        0.6540     2.4340    -0.3850 C.2   1 <1>  -0.1810 
  5 C        1.6430     1.9490    -1.3100 C.2   1 <1>  -0.1500 
  6 C        0.8170     3.8080     0.2940 C.3   1 <1>   0.2420 
  7 C        0.9810     4.9560    -0.7370 C.2   1 <1>   0.6590 
  8 C       -0.4070     4.1090     1.1840 C.3   1 <1>  -0.2400 
  9 C        2.0530     3.7190     1.2130 C.3   1 <1>  -0.2400 
 10 O        0.7640     4.8300    -1.9170 O.2   1 <1>  -0.5700 
 11 O        1.3690     6.1330    -0.2430 O.3   1 <1>  -0.4300 
 12 C        1.5430     7.2680    -1.0670 C.3   1 <1>   0.0400 
 13 H       -1.2490     1.5930     0.3890 H     1 <1>   0.1500 
 14 H        1.9110     0.1140    -2.5170 H     1 <1>   0.1500 
 15 H        2.5060     2.5400    -1.5630 H     1 <1>   0.1500 
 16 H       -1.2980     4.1500     0.5820 H     1 <1>   0.0800 
 17 H       -0.2900     5.0580     1.6760 H     1 <1>   0.0800 
 18 H       -0.5290     3.3500     1.9360 H     1 <1>   0.0800 
 19 H        2.9450     3.5770     0.6310 H     1 <1>   0.0800 
 20 H        1.9530     2.8890     1.8900 H     1 <1>   0.0800 
 21 H        2.1660     4.6190     1.7900 H     1 <1>   0.0800 
 22 H        1.8560     8.0920    -0.4510 H     1 <1>   0.0800 
 23 H        0.6060     7.4960    -1.5450 H     1 <1>   0.0800 
 24 H        2.2930     7.0490    -1.8070 H     1 <1>   0.0800 
@<TRIPOS>BOND
  1   1   2  1   
  2   1   3  1   
  3   2   4  2   
  4   2  13  1   
  5   3   5  2   
  6   3  14  1   
  7   4   5  1   
  8   4   6  1   
  9   5  15  1   
 10   6   7  1   
 11   6   8  1   
 12   6   9  1   
 13   7  10  2   
 14   7  11  1   
 15   8  16  1   
 16   8  17  1   
 17   8  18  1   
 18   9  19  1   
 19   9  20  1   
 20   9  21  1   
 21  11  12  1   
 22  12  22  1   
 23  12  23  1   
 24  12  24  1   
@<TRIPOS>SUBSTRUCTURE
  1 ****   6 GROUP 4 **** **** 0

# MOE 2024.06 (io_trps.svl 2023.06)
