@<TRIPOS>MOLECULE
NONAME
46 48 1 0 0 
SMALL
USER_CHARGES


@<TRIPOS>ATOM
  1 O        1.4780    -0.4070     1.1560 O.3   1 <1>  -0.0190 
  2 N        1.5890     0.8820     1.0480 N.2   1 <1>  -0.4100 
  3 C        1.5650    -0.8360    -0.0780 C.2   1 <1>   0.2980 
  4 C        1.7300     1.1460    -0.1910 C.2   1 <1>   0.3350 
  5 N        1.7260     0.0680    -0.9620 N.2   1 <1>  -0.5650 
  6 C        1.4710    -2.3360    -0.3390 C.3   1 <1>   0.2900 
  7 C        1.8920     2.5260    -0.7990 C.3   1 <1>   0.0210 
  8 N        0.1360    -2.8920    -0.0240 N.3   1 <1>  -0.8100 
  9 C        1.7780     3.6350     0.2470 C.3   1 <1>   0.1200 
 10 C       -0.9400    -2.2830    -0.8240 C.3   1 <1>   0.1100 
 11 C        0.0460    -4.3460    -0.2480 C.3   1 <1>   0.1100 
 12 O        1.9250     4.8610    -0.3960 O.3   1 <1>  -0.5600 
 13 C       -2.0840    -3.2820    -0.7150 C.3   1 <1>   0.2000 
 14 C       -1.3480    -4.6150    -0.8360 C.3   1 <1>  -0.0800 
 15 C        1.8420     5.9560     0.4580 C.3   1 <1>   0.0400 
 16 O       -2.6110    -3.1530     0.5580 O.3   1 <1>  -0.6800 
 17 C       -2.0600    -5.8310    -0.2160 C.3   1 <1>   0.0210 
 18 C       -1.2360    -7.0950    -0.3870 C.2   1 <1>   0.1080 
 19 N       -0.8530    -7.5430    -1.5430 N.2   1 <1>  -0.7070 
 20 C       -0.8000    -7.9020     0.6580 C.2   1 <1>  -0.1500 
 21 N       -0.1630    -8.6640    -1.2620 N.pl3 1 <1>   0.3000 
 22 C       -0.1130    -8.9000     0.0650 C.2   1 <1>  -0.3320 
 23 C        0.5950   -10.0860     0.6950 C.3   1 <1>  -0.0600 
 24 H        2.2100    -2.8310     0.2660 H     1 <1>   0.0800 
 25 H        1.7050    -2.5210    -1.3730 H     1 <1>   0.0800 
 26 H        1.1290     2.6630    -1.5430 H     1 <1>   0.0800 
 27 H        2.8540     2.5810    -1.2720 H     1 <1>   0.0800 
 28 H        2.5540     3.5340     0.9870 H     1 <1>   0.0800 
 29 H        0.8130     3.6040     0.7230 H     1 <1>   0.0800 
 30 H       -1.2170    -1.3120    -0.4490 H     1 <1>   0.0800 
 31 H       -0.6350    -2.1970    -1.8530 H     1 <1>   0.0800 
 32 H        0.8000    -4.6910    -0.9370 H     1 <1>   0.0800 
 33 H        0.1770    -4.8560     0.6920 H     1 <1>   0.0800 
 34 H       -2.8660    -3.1420    -1.4410 H     1 <1>   0.0800 
 35 H       -1.2140    -4.8160    -1.8840 H     1 <1>   0.0800 
 36 H        1.9650     6.8480    -0.1300 H     1 <1>   0.0800 
 37 H        2.6260     5.8950     1.1930 H     1 <1>   0.0800 
 38 H        0.8760     5.9650     0.9330 H     1 <1>   0.0800 
 39 H       -1.8430    -3.0320     1.1570 H     1 <1>   0.4000 
 40 H       -3.0110    -5.9720    -0.6960 H     1 <1>   0.0800 
 41 H       -2.2370    -5.6700     0.8320 H     1 <1>   0.0800 
 42 H       -0.9880    -7.7390     1.7050 H     1 <1>   0.1500 
 43 H        0.2570    -9.2460    -1.9970 H     1 <1>   0.2700 
 44 H        0.4910   -10.0530     1.7650 H     1 <1>   0.0800 
 45 H        1.6430   -10.0670     0.4510 H     1 <1>   0.0800 
 46 H        0.1680   -11.0060     0.3380 H     1 <1>   0.0800 
@<TRIPOS>BOND
  1   1   2  1   
  2   1   3  1   
  3   2   4  2   
  4   3   5  2   
  5   3   6  1   
  6   4   5  1   
  7   4   7  1   
  8   6   8  1   
  9   6  24  1   
 10   6  25  1   
 11   7   9  1   
 12   7  26  1   
 13   7  27  1   
 14   8  10  1   
 15   8  11  1   
 16   9  12  1   
 17   9  28  1   
 18   9  29  1   
 19  10  13  1   
 20  10  30  1   
 21  10  31  1   
 22  11  14  1   
 23  11  32  1   
 24  11  33  1   
 25  12  15  1   
 26  13  14  1   
 27  13  16  1   
 28  13  34  1   
 29  14  17  1   
 30  14  35  1   
 31  15  36  1   
 32  15  37  1   
 33  15  38  1   
 34  16  39  1   
 35  17  18  1   
 36  17  40  1   
 37  17  41  1   
 38  18  19  2   
 39  18  20  1   
 40  19  21  1   
 41  20  22  2   
 42  20  42  1   
 43  21  22  1   
 44  21  43  1   
 45  22  23  1   
 46  23  44  1   
 47  23  45  1   
 48  23  46  1   
@<TRIPOS>SUBSTRUCTURE
  1 ****   8 GROUP 4 **** **** 0

# MOE 2024.06 (io_trps.svl 2023.06)
