@<TRIPOS>MOLECULE
NONAME
57 60 1 0 0 
SMALL
USER_CHARGES


@<TRIPOS>ATOM
  1 O        0.5770    -0.2220     1.8040 O.2   1 <1>  -0.5700 
  2 C        0.1510     0.7860     1.2880 C.2   1 <1>   0.5690 
  3 N       -1.2030     0.9970     1.1450 N.am  1 <1>  -0.6600 
  4 C        1.1790     1.8420     0.8810 C.3   1 <1>   0.1810 
  5 C       -1.8160     2.1270     0.3810 C.3   1 <1>   0.1400 
  6 C       -2.2130     0.0830     1.7460 C.3   1 <1>   0.1400 
  7 O        1.2230     2.0640    -0.5270 O.3   1 <1>  -0.3620 
  8 C       -2.7300     2.9790     1.2740 C.3   1 <1>   0.1440 
  9 C       -3.1580     0.8810     2.6580 C.3   1 <1>  -0.1600 
 10 C        1.2620     3.3510    -0.9700 C.ar  1 <1>   0.0820 
 11 C       -3.3030     4.0810     0.4030 C.ar  1 <1>   0.1660 
 12 C       -3.7990     2.0780     1.9280 C.3   1 <1>  -0.1600 
 13 C       -1.9130     3.7860     2.3180 C.3   1 <1>  -0.1600 
 14 C        2.0940     4.3390    -0.4280 C.ar  1 <1>   0.0820 
 15 C        0.3900     3.6860    -1.9940 C.ar  1 <1>  -0.1500 
 16 N       -4.2650     3.9360    -0.4740 N.ar  1 <1>  -0.6200 
 17 C       -2.6590     5.2630     0.6120 C.ar  1 <1>  -0.1430 
 18 C       -1.5840     5.1400     1.6630 C.3   1 <1>  -0.0170 
 19 O        3.0130     4.0710     0.5300 O.3   1 <1>  -0.3630 
 20 C        1.9930     5.6470    -0.8730 C.ar  1 <1>  -0.1500 
 21 C        0.3010     4.9940    -2.4410 C.ar  1 <1>  -0.1500 
 22 C       -4.5850     5.0400    -1.1550 C.ar  1 <1>   0.7200 
 23 C       -3.0510     6.3430    -0.1370 C.ar  1 <1>   0.1600 
 24 C        4.1690     3.3940     0.0870 C.3   1 <1>   0.0400 
 25 C        1.0970     5.9750    -1.8760 C.ar  1 <1>  -0.1500 
 26 N       -4.0140     6.2430    -1.0240 N.ar  1 <1>  -0.6200 
 27 N       -5.5980     4.9260    -2.0870 N.pl3 1 <1>  -0.8380 
 28 C       -5.8700     5.9880    -3.0940 C.3   1 <1>   0.1290 
 29 C       -6.5320     3.7660    -2.1030 C.3   1 <1>   0.1290 
 30 H        2.1570     1.5270     1.1910 H     1 <1>   0.0800 
 31 H        0.9370     2.7630     1.3780 H     1 <1>   0.0800 
 32 H       -2.3940     1.7220    -0.4320 H     1 <1>   0.0800 
 33 H       -1.0700     2.7630    -0.0420 H     1 <1>   0.0800 
 34 H       -1.7310    -0.6930     2.3160 H     1 <1>   0.0800 
 35 H       -2.7730    -0.3860     0.9550 H     1 <1>   0.0800 
 36 H       -2.6030     1.2250     3.5120 H     1 <1>   0.0800 
 37 H       -3.9310     0.2260     3.0180 H     1 <1>   0.0800 
 38 H       -4.4510     1.7030     1.1580 H     1 <1>   0.0800 
 39 H       -4.4030     2.6520     2.6080 H     1 <1>   0.0800 
 40 H       -1.0290     3.2720     2.6490 H     1 <1>   0.0800 
 41 H       -2.5310     3.9760     3.1770 H     1 <1>   0.0800 
 42 H       -0.2300     2.9240    -2.4300 H     1 <1>   0.1500 
 43 H       -0.6180     5.1130     1.1900 H     1 <1>   0.0800 
 44 H       -1.6240     5.9460     2.3750 H     1 <1>   0.0800 
 45 H        2.6210     6.4020    -0.4370 H     1 <1>   0.1500 
 46 H       -0.3930     5.2460    -3.2260 H     1 <1>   0.1500 
 47 H       -2.5710     7.2970    -0.0090 H     1 <1>   0.1500 
 48 H        4.8120     3.2340     0.9330 H     1 <1>   0.0800 
 49 H        4.6670     4.0030    -0.6460 H     1 <1>   0.0800 
 50 H        3.8840     2.4500    -0.3440 H     1 <1>   0.0800 
 51 H        1.0220     6.9920    -2.2210 H     1 <1>   0.1500 
 52 H       -4.9630     6.5090    -3.3470 H     1 <1>   0.0800 
 53 H       -6.5760     6.6930    -2.6910 H     1 <1>   0.0800 
 54 H       -6.2710     5.5530    -3.9920 H     1 <1>   0.0800 
 55 H       -6.6260     3.3420    -1.1170 H     1 <1>   0.0800 
 56 H       -6.1570     3.0130    -2.7730 H     1 <1>   0.0800 
 57 H       -7.5070     4.0800    -2.4290 H     1 <1>   0.0800 
@<TRIPOS>BOND
  1   1   2  2   
  2   2   3  am  
  3   2   4  1   
  4   3   5  1   
  5   3   6  1   
  6   4   7  1   
  7   4  30  1   
  8   4  31  1   
  9   5   8  1   
 10   5  32  1   
 11   5  33  1   
 12   6   9  1   
 13   6  34  1   
 14   6  35  1   
 15   7  10  1   
 16   8  11  1   
 17   8  12  1   
 18   8  13  1   
 19   9  12  1   
 20   9  36  1   
 21   9  37  1   
 22  10  14  ar  
 23  10  15  ar  
 24  11  16  ar  
 25  11  17  ar  
 26  12  38  1   
 27  12  39  1   
 28  13  18  1   
 29  13  40  1   
 30  13  41  1   
 31  14  19  1   
 32  14  20  ar  
 33  15  21  ar  
 34  15  42  1   
 35  16  22  ar  
 36  17  18  1   
 37  17  23  ar  
 38  18  43  1   
 39  18  44  1   
 40  19  24  1   
 41  20  25  ar  
 42  20  45  1   
 43  21  25  ar  
 44  21  46  1   
 45  22  26  ar  
 46  22  27  1   
 47  23  26  ar  
 48  23  47  1   
 49  24  48  1   
 50  24  49  1   
 51  24  50  1   
 52  25  51  1   
 53  27  28  1   
 54  27  29  1   
 55  28  52  1   
 56  28  53  1   
 57  28  54  1   
 58  29  55  1   
 59  29  56  1   
 60  29  57  1   
@<TRIPOS>SUBSTRUCTURE
  1 ****   5 GROUP 4 **** **** 0

# MOE 2024.06 (io_trps.svl 2023.06)
