@<TRIPOS>MOLECULE
NONAME
47 49 1 0 0 
SMALL
USER_CHARGES


@<TRIPOS>ATOM
  1 S        0.1870    -0.9170    -1.1840 S.o2  1 <1>   1.4470 
  2 O       -0.4760    -2.2000    -1.0720 O.2   1 <1>  -0.6500 
  3 O        1.0580    -0.6890    -2.3180 O.2   1 <1>  -0.6500 
  4 N       -1.0400     0.2540    -1.2670 N.am  1 <1>  -0.8490 
  5 C        1.0420    -0.5700     0.3980 C.ar  1 <1>  -0.0090 
  6 C       -2.0430     0.1370    -0.1950 C.3   1 <1>   0.1960 
  7 C       -0.5500     1.6230    -1.4130 C.3   1 <1>   0.1960 
  8 C        2.2030     0.2040     0.5340 C.ar  1 <1>  -0.1440 
  9 C        0.4840    -1.0930     1.5630 C.ar  1 <1>  -0.1500 
 10 C       -3.2800     1.0280    -0.4680 C.3   1 <1>   0.0000 
 11 C       -1.7100     2.5770    -1.7200 C.3   1 <1>  -0.1600 
 12 C        2.7440     0.4410     1.7910 C.ar  1 <1>  -0.1500 
 13 C        2.9420     0.8050    -0.6570 C.3   1 <1>  -0.0970 
 14 C        1.0250    -0.8570     2.8130 C.ar  1 <1>  -0.1500 
 15 C       -4.3130     0.9060     0.6660 C.3   1 <1>   0.2000 
 16 C       -2.8190     2.4870    -0.6620 C.3   1 <1>  -0.1600 
 17 C       -4.0690     0.4950    -1.6760 C.3   1 <1>  -0.1600 
 18 C        2.1600    -0.0830     2.9270 C.ar  1 <1>  -0.1500 
 19 O       -3.6910     0.8300     1.9150 O.3   1 <1>  -0.5600 
 20 C       -5.1140    -0.3670     0.3690 C.3   1 <1>  -0.1600 
 21 C       -4.9410    -0.6410    -1.1310 C.3   1 <1>  -0.1600 
 22 C       -4.5330     1.0470     3.0030 C.3   1 <1>   0.0400 
 23 H       -2.3610    -0.8870    -0.1040 H     1 <1>   0.0800 
 24 H       -1.5960     0.4300     0.7390 H     1 <1>   0.0800 
 25 H       -0.0530     1.9320    -0.5090 H     1 <1>   0.0800 
 26 H        0.1550     1.6680    -2.2270 H     1 <1>   0.0800 
 27 H       -0.4000    -1.7060     1.4940 H     1 <1>   0.1500 
 28 H       -1.3360     3.5840    -1.7660 H     1 <1>   0.0800 
 29 H       -2.1070     2.3340    -2.6900 H     1 <1>   0.0800 
 30 H        3.6350     1.0350     1.8980 H     1 <1>   0.1500 
 31 H        3.7710     1.4100    -0.3390 H     1 <1>   0.0800 
 32 H        2.2900     1.4240    -1.2430 H     1 <1>   0.0800 
 33 H        3.3290     0.0190    -1.2820 H     1 <1>   0.0800 
 34 H        0.5630    -1.2750     3.6910 H     1 <1>   0.1500 
 35 H       -4.9640     1.7640     0.6450 H     1 <1>   0.0800 
 36 H       -3.6490     3.1090    -0.9480 H     1 <1>   0.0800 
 37 H       -2.4390     2.8570     0.2750 H     1 <1>   0.0800 
 38 H       -4.7090     1.2690    -2.0620 H     1 <1>   0.0800 
 39 H       -3.4290     0.1540    -2.4730 H     1 <1>   0.0800 
 40 H        2.5890     0.1090     3.8960 H     1 <1>   0.1500 
 41 H       -4.7220    -1.1960     0.9320 H     1 <1>   0.0800 
 42 H       -6.1510    -0.2220     0.6120 H     1 <1>   0.0800 
 43 H       -4.4360    -1.5820    -1.2700 H     1 <1>   0.0800 
 44 H       -5.8880    -0.6790    -1.6420 H     1 <1>   0.0800 
 45 H       -3.9430     0.9800     3.8990 H     1 <1>   0.0800 
 46 H       -5.3010     0.2940     3.0190 H     1 <1>   0.0800 
 47 H       -4.9650     2.0300     2.9270 H     1 <1>   0.0800 
@<TRIPOS>BOND
  1   1   2  2   
  2   1   3  2   
  3   1   4  am  
  4   1   5  1   
  5   4   6  1   
  6   4   7  1   
  7   5   8  ar  
  8   5   9  ar  
  9   6  10  1   
 10   6  23  1   
 11   6  24  1   
 12   7  11  1   
 13   7  25  1   
 14   7  26  1   
 15   8  12  ar  
 16   8  13  1   
 17   9  14  ar  
 18   9  27  1   
 19  10  15  1   
 20  10  16  1   
 21  10  17  1   
 22  11  16  1   
 23  11  28  1   
 24  11  29  1   
 25  12  18  ar  
 26  12  30  1   
 27  13  31  1   
 28  13  32  1   
 29  13  33  1   
 30  14  18  ar  
 31  14  34  1   
 32  15  19  1   
 33  15  20  1   
 34  15  35  1   
 35  16  36  1   
 36  16  37  1   
 37  17  21  1   
 38  17  38  1   
 39  17  39  1   
 40  18  40  1   
 41  19  22  1   
 42  20  21  1   
 43  20  41  1   
 44  20  42  1   
 45  21  43  1   
 46  21  44  1   
 47  22  45  1   
 48  22  46  1   
 49  22  47  1   
@<TRIPOS>SUBSTRUCTURE
  1 ****   6 GROUP 4 **** **** 0

# MOE 2024.06 (io_trps.svl 2023.06)
