@<TRIPOS>MOLECULE
NONAME
44 45 1 0 0 
SMALL
USER_CHARGES


@<TRIPOS>ATOM
  1 S        0.4150     0.6990    -0.3870 S.3   1 <1>  -0.3320 
  2 C        0.1760     2.3840     0.1950 C.ar  1 <1>   0.1020 
  3 C       -1.2510    -0.1000    -0.4120 C.3   1 <1>  -0.0100 
  4 C        1.3140     3.1540     0.3400 C.ar  1 <1>  -0.1500 
  5 C       -1.0760     2.9010     0.4840 C.ar  1 <1>  -0.1500 
  6 C        1.2090     4.4690     0.7700 C.ar  1 <1>  -0.1430 
  7 C       -1.1800     4.2090     0.9250 C.ar  1 <1>  -0.1500 
  8 C       -0.0440     4.9900     1.0670 C.ar  1 <1>  -0.1500 
  9 C        2.4510     5.3270     0.9040 C.3   1 <1>   0.4860 
 10 N        2.9670     5.6210    -0.4680 N.4   1 <1>  -0.9590 
 11 C        4.3650     6.1840    -0.3860 C.3   1 <1>   0.4840 
 12 C        2.0030     6.5120    -1.1990 C.3   1 <1>   0.2630 
 13 C        4.4320     7.6070     0.2350 C.2   1 <1>   0.5690 
 14 C        5.0050     6.0680    -1.7760 C.3   1 <1>  -0.2400 
 15 O        4.1330     7.7030     1.4010 O.2   1 <1>  -0.5700 
 16 N        4.7540     8.6880    -0.5390 N.am  1 <1>  -0.5470 
 17 C        4.7470    10.0410    -0.2910 C.ar  1 <1>   0.4270 
 18 N        4.7810    10.7380    -1.4130 N.ar  1 <1>  -0.6200 
 19 C        4.7160    10.6180     0.9780 C.ar  1 <1>  -0.1500 
 20 C        4.7780    12.0550    -1.2750 C.ar  1 <1>   0.1600 
 21 C        4.7110    11.9880     1.1060 C.ar  1 <1>  -0.1500 
 22 C        4.7420    12.7200    -0.0630 C.ar  1 <1>  -0.1500 
 23 H       -1.1190    -1.1160    -0.7360 H     1 <1>   0.0800 
 24 H       -1.8710     0.4420    -1.1030 H     1 <1>   0.0800 
 25 H       -1.6510    -0.0680     0.5860 H     1 <1>   0.0800 
 26 H        2.2640     2.7040     0.1160 H     1 <1>   0.1500 
 27 H       -1.9640     2.3080     0.3760 H     1 <1>   0.1500 
 28 H       -2.1490     4.6180     1.1590 H     1 <1>   0.1500 
 29 H       -0.1530     6.0040     1.4160 H     1 <1>   0.1500 
 30 H        3.1910     4.7900     1.4760 H     1 <1>   0.0800 
 31 H        2.2190     6.2420     1.4250 H     1 <1>   0.0800 
 32 H        3.0000     4.7170    -0.9560 H     1 <1>   0.4500 
 33 H        4.9370     5.5520     0.2730 H     1 <1>   0.0800 
 34 H        1.9050     7.4590    -0.6920 H     1 <1>   0.0800 
 35 H        1.0300     6.0490    -1.2470 H     1 <1>   0.0800 
 36 H        2.3410     6.6920    -2.2060 H     1 <1>   0.0800 
 37 H        4.5040     6.6820    -2.5030 H     1 <1>   0.0800 
 38 H        4.9940     5.0450    -2.1090 H     1 <1>   0.0800 
 39 H        6.0340     6.3800    -1.7250 H     1 <1>   0.0800 
 40 H        4.9770     8.5370    -1.5210 H     1 <1>   0.3700 
 41 H        4.7000    10.0070     1.8600 H     1 <1>   0.1500 
 42 H        4.8060    12.6410    -2.1790 H     1 <1>   0.1500 
 43 H        4.6860    12.4670     2.0700 H     1 <1>   0.1500 
 44 H        4.7410    13.7950    -0.0330 H     1 <1>   0.1500 
@<TRIPOS>BOND
  1   1   2  1   
  2   1   3  1   
  3   2   4  ar  
  4   2   5  ar  
  5   3  23  1   
  6   3  24  1   
  7   3  25  1   
  8   4   6  ar  
  9   4  26  1   
 10   5   7  ar  
 11   5  27  1   
 12   6   8  ar  
 13   6   9  1   
 14   7   8  ar  
 15   7  28  1   
 16   8  29  1   
 17   9  10  1   
 18   9  30  1   
 19   9  31  1   
 20  10  11  1   
 21  10  12  1   
 22  10  32  1   
 23  11  13  1   
 24  11  14  1   
 25  11  33  1   
 26  12  34  1   
 27  12  35  1   
 28  12  36  1   
 29  13  15  2   
 30  13  16  am  
 31  14  37  1   
 32  14  38  1   
 33  14  39  1   
 34  16  17  1   
 35  16  40  1   
 36  17  18  ar  
 37  17  19  ar  
 38  18  20  ar  
 39  19  21  ar  
 40  19  41  1   
 41  20  22  ar  
 42  20  42  1   
 43  21  22  ar  
 44  21  43  1   
 45  22  44  1   
@<TRIPOS>SUBSTRUCTURE
  1 ****  10 GROUP 4 **** **** 0

# MOE 2024.06 (io_trps.svl 2023.06)
