@<TRIPOS>MOLECULE
NONAME
29 29 1 0 0 
SMALL
USER_CHARGES


@<TRIPOS>ATOM
  1 O        5.4150     1.1020     1.9770 O.2   1 <1>  -0.5700 
  2 C        6.0260     0.4390     1.1770 C.2   1 <1>   0.6670 
  3 O        7.3530     0.5110     1.1470 O.3   1 <1>  -0.4300 
  4 C        5.2920    -0.5690     0.2540 C.3   1 <1>   0.2630 
  5 C        8.1290     1.1010     0.1280 C.3   1 <1>   0.2800 
  6 N        4.8520    -0.0620    -1.0700 N.3   1 <1>  -0.9300 
  7 C        4.1140    -1.2960     0.9730 C.3   1 <1>   0.0000 
  8 C        5.9660    -1.9710     0.1490 C.3   1 <1>   0.0000 
  9 C        9.4520     1.4730     0.7950 C.3   1 <1>  -0.2400 
 10 C        7.4470     2.3660    -0.4050 C.3   1 <1>  -0.2400 
 11 C        8.3870     0.0850    -0.9860 C.3   1 <1>  -0.2400 
 12 C        4.5550    -2.6020     0.2650 C.3   1 <1>   0.0000 
 13 H        4.2120     0.7230    -0.9040 H     1 <1>   0.3600 
 14 H        4.3050    -0.7980    -1.5290 H     1 <1>   0.3600 
 15 H        3.1350    -0.9510     0.6900 H     1 <1>   0.0000 
 16 H        4.2450    -1.3630     2.0400 H     1 <1>   0.0000 
 17 H        6.5810    -2.2070     1.0020 H     1 <1>   0.0000 
 18 H        6.4500    -2.1710    -0.7900 H     1 <1>   0.0000 
 19 H        9.2800     2.1660     1.5990 H     1 <1>   0.0800 
 20 H       10.1140     1.9350     0.0850 H     1 <1>   0.0800 
 21 H        9.9330     0.5950     1.1870 H     1 <1>   0.0800 
 22 H        7.2210     3.0390     0.4030 H     1 <1>   0.0800 
 23 H        6.5420     2.1270    -0.9320 H     1 <1>   0.0800 
 24 H        8.1000     2.8720    -1.0930 H     1 <1>   0.0800 
 25 H        8.7720    -0.8320    -0.5770 H     1 <1>   0.0800 
 26 H        9.1110     0.4780    -1.6770 H     1 <1>   0.0800 
 27 H        7.4910    -0.1140    -1.5420 H     1 <1>   0.0800 
 28 H        4.0790    -2.7420    -0.6910 H     1 <1>   0.0000 
 29 H        4.5180    -3.4730     0.8960 H     1 <1>   0.0000 
@<TRIPOS>BOND
  1   1   2  2   
  2   2   3  1   
  3   2   4  1   
  4   3   5  1   
  5   4   6  1   
  6   4   7  1   
  7   4   8  1   
  8   5   9  1   
  9   5  10  1   
 10   5  11  1   
 11   6  13  1   
 12   6  14  1   
 13   7  12  1   
 14   7  15  1   
 15   7  16  1   
 16   8  12  1   
 17   8  17  1   
 18   8  18  1   
 19   9  19  1   
 20   9  20  1   
 21   9  21  1   
 22  10  22  1   
 23  10  23  1   
 24  10  24  1   
 25  11  25  1   
 26  11  26  1   
 27  11  27  1   
 28  12  28  1   
 29  12  29  1   
@<TRIPOS>SUBSTRUCTURE
  1 ****   2 GROUP 4 **** **** 0

# MOE 2024.06 (io_trps.svl 2023.06)
