@<TRIPOS>MOLECULE
NONAME
51 53 1 0 0 
SMALL
USER_CHARGES


@<TRIPOS>ATOM
  1 S        0.4350    -0.4610    -0.4060 S.3   1 <1>  -0.0800 
  2 C       -0.1930     1.1280    -0.1810 C.2   1 <1>   0.4340 
  3 C       -1.1960    -1.0180    -0.1890 C.2   1 <1>   0.4420 
  4 S        0.9770     2.4750    -0.2610 S.3   1 <1>  -0.2860 
  5 N       -1.4450     1.1810     0.0220 N.2   1 <1>  -0.3380 
  6 N       -2.0260    -0.0590     0.0170 N.2   1 <1>  -0.3380 
  7 N       -1.3960    -2.3840    -0.2670 N.am  1 <1>  -0.4940 
  8 C       -0.0780     3.9660     0.0260 C.3   1 <1>   0.0700 
  9 C       -2.5580    -3.0800    -0.0940 C.2   1 <1>   0.5690 
 10 C        0.8200     5.1980    -0.0200 C.3   1 <1>   0.1200 
 11 O       -3.6080    -2.5660     0.1920 O.2   1 <1>  -0.5700 
 12 C       -2.5360    -4.5930    -0.2720 C.3   1 <1>  -0.0190 
 13 O        0.0300     6.3220     0.1950 O.3   1 <1>  -0.5600 
 14 C       -3.9840    -5.0970    -0.3840 C.3   1 <1>   0.3430 
 15 C       -1.8050    -5.2880     0.8940 C.3   1 <1>  -0.1600 
 16 C        0.7360     7.5200     0.1770 C.3   1 <1>   0.0400 
 17 N       -4.0570    -6.5920    -0.4790 N.4   1 <1>  -0.9590 
 18 C       -1.9460    -6.8140     0.7980 C.3   1 <1>  -0.1600 
 19 C       -5.4700    -7.0160    -0.7330 C.3   1 <1>   0.4230 
 20 C       -3.4110    -7.2460     0.7000 C.3   1 <1>   0.3430 
 21 C       -6.3720    -6.9030     0.4990 C.3   1 <1>  -0.1600 
 22 C       -5.5400    -8.4930    -1.1170 C.3   1 <1>  -0.1600 
 23 C       -6.3820    -8.2740     1.1860 C.3   1 <1>  -0.1600 
 24 C       -5.8760    -9.2860     0.1530 C.3   1 <1>  -0.1600 
 25 H       -0.5550    -2.9180    -0.4670 H     1 <1>   0.3700 
 26 H       -0.5410     3.8520     0.9890 H     1 <1>   0.0800 
 27 H       -0.8190     3.9900    -0.7530 H     1 <1>   0.0800 
 28 H        1.2900     5.2840    -0.9850 H     1 <1>   0.0800 
 29 H        1.5670     5.1460     0.7540 H     1 <1>   0.0800 
 30 H       -2.0320    -4.8100    -1.1960 H     1 <1>   0.0800 
 31 H       -4.4470    -4.6470    -1.2480 H     1 <1>   0.0800 
 32 H       -4.5310    -4.7650     0.4850 H     1 <1>   0.0800 
 33 H       -2.2270    -4.9530     1.8280 H     1 <1>   0.0800 
 34 H       -0.7610    -5.0220     0.8950 H     1 <1>   0.0800 
 35 H        0.0390     8.3210     0.3520 H     1 <1>   0.0800 
 36 H        1.1990     7.6460    -0.7860 H     1 <1>   0.0800 
 37 H        1.4780     7.5080     0.9580 H     1 <1>   0.0800 
 38 H       -3.5230    -6.8770    -1.3070 H     1 <1>   0.4500 
 39 H       -1.5110    -7.2650     1.6740 H     1 <1>   0.0800 
 40 H       -1.4050    -7.1870    -0.0540 H     1 <1>   0.0800 
 41 H       -5.8740    -6.4190    -1.5360 H     1 <1>   0.0800 
 42 H       -3.4600    -8.3180     0.6020 H     1 <1>   0.0800 
 43 H       -3.9290    -6.9650     1.6030 H     1 <1>   0.0800 
 44 H       -7.3710    -6.7020     0.1530 H     1 <1>   0.0800 
 45 H       -6.0930    -6.1100     1.1700 H     1 <1>   0.0800 
 46 H       -4.6460    -8.8490    -1.5990 H     1 <1>   0.0800 
 47 H       -6.3580    -8.6130    -1.8060 H     1 <1>   0.0800 
 48 H       -7.3770    -8.5260     1.5160 H     1 <1>   0.0800 
 49 H       -5.7370    -8.2720     2.0490 H     1 <1>   0.0800 
 50 H       -5.0060    -9.7970     0.5280 H     1 <1>   0.0800 
 51 H       -6.6310   -10.0270    -0.0560 H     1 <1>   0.0800 
@<TRIPOS>BOND
  1   1   2  1   
  2   1   3  1   
  3   2   4  1   
  4   2   5  2   
  5   3   6  2   
  6   3   7  1   
  7   4   8  1   
  8   5   6  1   
  9   7   9  am  
 10   7  25  1   
 11   8  10  1   
 12   8  26  1   
 13   8  27  1   
 14   9  11  2   
 15   9  12  1   
 16  10  13  1   
 17  10  28  1   
 18  10  29  1   
 19  12  14  1   
 20  12  15  1   
 21  12  30  1   
 22  13  16  1   
 23  14  17  1   
 24  14  31  1   
 25  14  32  1   
 26  15  18  1   
 27  15  33  1   
 28  15  34  1   
 29  16  35  1   
 30  16  36  1   
 31  16  37  1   
 32  17  19  1   
 33  17  20  1   
 34  17  38  1   
 35  18  20  1   
 36  18  39  1   
 37  18  40  1   
 38  19  21  1   
 39  19  22  1   
 40  19  41  1   
 41  20  42  1   
 42  20  43  1   
 43  21  23  1   
 44  21  44  1   
 45  21  45  1   
 46  22  24  1   
 47  22  46  1   
 48  22  47  1   
 49  23  24  1   
 50  23  48  1   
 51  23  49  1   
 52  24  50  1   
 53  24  51  1   
@<TRIPOS>SUBSTRUCTURE
  1 ****   9 GROUP 4 **** **** 0

# MOE 2024.06 (io_trps.svl 2023.06)
