@<TRIPOS>MOLECULE
NONAME
49 51 1 0 0 
SMALL
USER_CHARGES


@<TRIPOS>ATOM
  1 O        2.4190    -0.0440    -2.1060 O.2   1 <1>  -0.5700 
  2 C        1.9170    -0.5990    -1.1550 C.2   1 <1>   0.5690 
  3 N        1.6220     0.0210     0.0150 N.am  1 <1>  -0.4930 
  4 C        1.5870    -2.0890    -1.2550 C.3   1 <1>   0.1710 
  5 C        1.7560     1.3450     0.4120 C.2   1 <1>   0.3520 
  6 N        0.5060    -2.5360    -0.3310 N.3   1 <1>  -0.8100 
  7 N        1.2900     1.7180     1.5610 N.2   1 <1>  -0.7070 
  8 C        2.3520     2.3930    -0.2830 C.2   1 <1>  -0.1500 
  9 C        0.3900    -4.0060    -0.2620 C.3   1 <1>   0.1100 
 10 C       -0.8130    -2.0080    -0.6980 C.3   1 <1>   0.1100 
 11 N        1.5800     3.0320     1.6350 N.pl3 1 <1>   0.3140 
 12 C        2.2220     3.4610     0.5310 C.2   1 <1>  -0.3020 
 13 C       -1.0870    -4.3550    -0.4670 C.3   1 <1>   0.0630 
 14 C       -1.7910    -3.0370    -0.1620 C.3   1 <1>  -0.1600 
 15 C        1.2090     3.8300     2.8080 C.3   1 <1>   0.0160 
 16 C       -1.5180    -5.6050     0.3150 C.ar  1 <1>  -0.1430 
 17 C       -0.9720    -6.8420    -0.0290 C.ar  1 <1>   0.0830 
 18 C       -2.4450    -5.5530     1.3520 C.ar  1 <1>  -0.1500 
 19 O       -0.1070    -6.9050    -1.0760 O.3   1 <1>  -0.3620 
 20 C       -1.3170    -7.9920     0.6920 C.ar  1 <1>   0.0830 
 21 C       -2.8100    -6.6960     2.0410 C.ar  1 <1>  -0.1500 
 22 C       -0.5550    -7.6070    -2.2160 C.3   1 <1>   0.0400 
 23 O       -0.7730    -9.2070     0.4390 O.3   1 <1>  -0.3630 
 24 C       -2.2470    -7.9140     1.7120 C.ar  1 <1>  -0.1500 
 25 C        0.5920    -9.3560     0.7600 C.3   1 <1>   0.0400 
 26 H        1.1520    -0.5690     0.7030 H     1 <1>   0.3700 
 27 H        2.4890    -2.6280    -1.0230 H     1 <1>   0.0800 
 28 H        1.3190    -2.3180    -2.2710 H     1 <1>   0.0800 
 29 H        2.8070     2.3250    -1.2550 H     1 <1>   0.1500 
 30 H        0.7100    -4.3320     0.7130 H     1 <1>   0.0800 
 31 H        0.9940    -4.4950    -1.0070 H     1 <1>   0.0800 
 32 H       -0.9070    -1.9440    -1.7700 H     1 <1>   0.0800 
 33 H       -0.9790    -1.0360    -0.2640 H     1 <1>   0.0800 
 34 H        2.5430     4.4760     0.3860 H     1 <1>   0.1500 
 35 H       -1.2260    -4.5610    -1.5140 H     1 <1>   0.0800 
 36 H       -2.7560    -2.9660    -0.6310 H     1 <1>   0.0800 
 37 H       -1.8840    -2.8760     0.8960 H     1 <1>   0.0800 
 38 H        1.6320     3.3760     3.6850 H     1 <1>   0.0800 
 39 H        0.1390     3.8460     2.8930 H     1 <1>   0.0800 
 40 H        1.5830     4.8300     2.6990 H     1 <1>   0.0800 
 41 H       -2.9040    -4.6270     1.6440 H     1 <1>   0.1500 
 42 H       -3.5330    -6.6380     2.8360 H     1 <1>   0.1500 
 43 H        0.1620    -7.4640    -3.0030 H     1 <1>   0.0800 
 44 H       -1.5130    -7.2150    -2.5100 H     1 <1>   0.0800 
 45 H       -0.6380    -8.6530    -1.9820 H     1 <1>   0.0800 
 46 H       -2.5210    -8.8060     2.2460 H     1 <1>   0.1500 
 47 H        0.8700   -10.3790     0.5830 H     1 <1>   0.0800 
 48 H        0.7320    -9.1090     1.7980 H     1 <1>   0.0800 
 49 H        1.1780    -8.7040     0.1380 H     1 <1>   0.0800 
@<TRIPOS>BOND
  1   1   2  2   
  2   2   3  am  
  3   2   4  1   
  4   3   5  1   
  5   3  26  1   
  6   4   6  1   
  7   4  27  1   
  8   4  28  1   
  9   5   7  2   
 10   5   8  1   
 11   6   9  1   
 12   6  10  1   
 13   7  11  1   
 14   8  12  2   
 15   8  29  1   
 16   9  13  1   
 17   9  30  1   
 18   9  31  1   
 19  10  14  1   
 20  10  32  1   
 21  10  33  1   
 22  11  12  1   
 23  11  15  1   
 24  12  34  1   
 25  13  14  1   
 26  13  16  1   
 27  13  35  1   
 28  14  36  1   
 29  14  37  1   
 30  15  38  1   
 31  15  39  1   
 32  15  40  1   
 33  16  17  ar  
 34  16  18  ar  
 35  17  19  1   
 36  17  20  ar  
 37  18  21  ar  
 38  18  41  1   
 39  19  22  1   
 40  20  23  1   
 41  20  24  ar  
 42  21  24  ar  
 43  21  42  1   
 44  22  43  1   
 45  22  44  1   
 46  22  45  1   
 47  23  25  1   
 48  24  46  1   
 49  25  47  1   
 50  25  48  1   
 51  25  49  1   
@<TRIPOS>SUBSTRUCTURE
  1 ****   6 GROUP 4 **** **** 0

# MOE 2024.06 (io_trps.svl 2023.06)
