@<TRIPOS>MOLECULE
NONAME
52 55 1 0 0 
SMALL
USER_CHARGES


@<TRIPOS>ATOM
  1 O        0.7240    -0.0080    -0.3700 O.2   1 <1>  -0.5700 
  2 C        1.3480    -1.0010    -0.1050 C.2   1 <1>   0.5690 
  3 N        0.8090    -2.0130     0.6040 N.am  1 <1>  -0.7300 
  4 C        2.7820    -1.1570    -0.5610 C.3   1 <1>  -0.0990 
  5 C        1.5610    -3.2160     1.0120 C.3   1 <1>   0.1400 
  6 C        3.0150    -2.5880    -1.0850 C.3   1 <1>  -0.0800 
  7 C        2.4760    -3.6930    -0.1410 C.3   1 <1>  -0.0800 
  8 C        4.4990    -2.8970    -1.3350 C.3   1 <1>  -0.1600 
  9 C        3.7120    -4.4600     0.3450 C.3   1 <1>  -0.1600 
 10 C        4.7140    -4.3090    -0.7990 C.3   1 <1>   0.4230 
 11 N        6.1490    -4.5990    -0.4700 N.4   1 <1>  -0.9590 
 12 C        6.6490    -4.2300     0.8970 C.3   1 <1>   0.4810 
 13 C        6.4440    -6.0380    -0.7470 C.3   1 <1>   0.2630 
 14 C        6.8130    -2.7190     1.0010 C.2   1 <1>  -0.0380 
 15 N        7.7730    -2.0930     0.2260 N.pl3 1 <1>  -0.6000 
 16 C        6.0230    -1.9700     1.8100 C.2   1 <1>  -0.1360 
 17 C        7.9200    -0.7130     0.2140 C.ar  1 <1>   0.1000 
 18 C        6.1170    -0.5560     1.8530 C.2   1 <1>   0.4690 
 19 C        7.0950     0.0890     1.0200 C.ar  1 <1>   0.0860 
 20 C        8.8800    -0.1050    -0.5920 C.ar  1 <1>  -0.1500 
 21 O        5.3500     0.0750     2.5640 O.2   1 <1>  -0.5700 
 22 C        7.2550     1.4750     0.9750 C.ar  1 <1>  -0.1500 
 23 C        9.0110     1.2640    -0.6150 C.ar  1 <1>  -0.1500 
 24 C        8.1950     2.0970     0.1630 C.ar  1 <1>   0.0860 
 25 C        8.3430     3.5410     0.1050 C.2   1 <1>   0.5440 
 26 O        9.3050     4.0620    -0.4160 O.2   1 <1>  -0.5700 
 27 N        7.4170     4.3880     0.6130 N.am  1 <1>  -0.8000 
 28 H       -0.1440    -1.8810     0.9540 H     1 <1>   0.3700 
 29 H        2.9880    -0.4380    -1.3330 H     1 <1>   0.0800 
 30 H        3.4150    -0.9440     0.2800 H     1 <1>   0.0800 
 31 H        2.1440    -2.9600     1.8800 H     1 <1>   0.0800 
 32 H        0.8730    -3.9980     1.2860 H     1 <1>   0.0800 
 33 H        2.4790    -2.6740    -2.0170 H     1 <1>   0.0800 
 34 H        1.8900    -4.3660    -0.7470 H     1 <1>   0.0800 
 35 H        5.1050    -2.1770    -0.8240 H     1 <1>   0.0800 
 36 H        4.7190    -2.8480    -2.3870 H     1 <1>   0.0800 
 37 H        3.4770    -5.4910     0.5380 H     1 <1>   0.0800 
 38 H        4.0630    -3.9920     1.2430 H     1 <1>   0.0800 
 39 H        4.3980    -4.9780    -1.5840 H     1 <1>   0.0800 
 40 H        6.6930    -4.0200    -1.1230 H     1 <1>   0.4500 
 41 H        5.9730    -4.5880     1.6560 H     1 <1>   0.0800 
 42 H        7.6090    -4.6870     1.0720 H     1 <1>   0.0800 
 43 H        5.8800    -6.6720    -0.0820 H     1 <1>   0.0800 
 44 H        7.4940    -6.2420    -0.6090 H     1 <1>   0.0800 
 45 H        6.1810    -6.2860    -1.7630 H     1 <1>   0.0800 
 46 H        8.4900    -2.6200    -0.2890 H     1 <1>   0.4000 
 47 H        5.2730    -2.3930     2.4530 H     1 <1>   0.1500 
 48 H        9.5260    -0.7080    -1.2050 H     1 <1>   0.1500 
 49 H        6.6180     2.0710     1.6050 H     1 <1>   0.1500 
 50 H        9.7580     1.7210    -1.2450 H     1 <1>   0.1500 
 51 H        7.5770     5.3920     0.5220 H     1 <1>   0.3700 
 52 H        6.5230     4.1030     1.0100 H     1 <1>   0.3700 
@<TRIPOS>BOND
  1   1   2  2   
  2   2   3  am  
  3   2   4  1   
  4   3   5  1   
  5   3  28  1   
  6   4   6  1   
  7   4  29  1   
  8   4  30  1   
  9   5   7  1   
 10   5  31  1   
 11   5  32  1   
 12   6   7  1   
 13   6   8  1   
 14   6  33  1   
 15   7   9  1   
 16   7  34  1   
 17   8  10  1   
 18   8  35  1   
 19   8  36  1   
 20   9  10  1   
 21   9  37  1   
 22   9  38  1   
 23  10  11  1   
 24  10  39  1   
 25  11  12  1   
 26  11  13  1   
 27  11  40  1   
 28  12  14  1   
 29  12  41  1   
 30  12  42  1   
 31  13  43  1   
 32  13  44  1   
 33  13  45  1   
 34  14  15  1   
 35  14  16  2   
 36  15  17  1   
 37  15  46  1   
 38  16  18  1   
 39  16  47  1   
 40  17  19  ar  
 41  17  20  ar  
 42  18  19  1   
 43  18  21  2   
 44  19  22  ar  
 45  20  23  ar  
 46  20  48  1   
 47  22  24  ar  
 48  22  49  1   
 49  23  24  ar  
 50  23  50  1   
 51  24  25  1   
 52  25  26  2   
 53  25  27  am  
 54  27  51  1   
 55  27  52  1   
@<TRIPOS>SUBSTRUCTURE
  1 ****  18 GROUP 4 **** **** 0

# MOE 2024.06 (io_trps.svl 2023.06)
