@<TRIPOS>MOLECULE
NONAME
53 54 1 0 0 
SMALL
USER_CHARGES


@<TRIPOS>ATOM
  1 S        3.9040     1.1660     1.0340 S.o2  1 <1>   1.3330 
  2 O        4.0820     1.9250     2.2520 O.2   1 <1>  -0.6500 
  3 O        4.8630     0.1420     0.6820 O.2   1 <1>  -0.6500 
  4 N        2.3760     0.4290     1.1220 N.am  1 <1>  -0.8490 
  5 C        3.7400     2.2860    -0.3550 C.3   1 <1>  -0.0550 
  6 C        1.3560     1.2820     1.7430 C.3   1 <1>   0.1160 
  7 C        2.4310    -0.8600     1.8180 C.3   1 <1>   0.1160 
  8 C        3.3440     1.6100    -1.6870 C.3   1 <1>  -0.0800 
  9 C        2.9570     2.5730    -2.8080 C.3   1 <1>   0.2200 
 10 C        4.4750     0.7760    -2.3060 C.3   1 <1>   0.1200 
 11 N        3.7790     3.7990    -2.7400 N.am  1 <1>  -0.7300 
 12 C        3.3580     1.7700    -4.0360 C.3   1 <1>   0.1200 
 13 O        4.5260     1.1070    -3.6630 O.3   1 <1>  -0.5600 
 14 C        3.3590     5.0030    -2.2760 C.2   1 <1>   0.5690 
 15 O        2.1920     5.2360    -2.0760 O.2   1 <1>  -0.5700 
 16 C        4.4060     6.0490    -1.9380 C.3   1 <1>   0.0440 
 17 C        5.4410     5.4390    -1.0020 C.ar  1 <1>  -0.1440 
 18 C        6.6540     4.9750    -1.4880 C.ar  1 <1>  -0.1500 
 19 C        5.1480     5.2880     0.3430 C.ar  1 <1>  -0.1500 
 20 C        7.5470     4.3430    -0.6420 C.ar  1 <1>  -0.1500 
 21 C        6.0400     4.6500     1.1850 C.ar  1 <1>  -0.1500 
 22 C        7.2460     4.1650     0.7000 C.ar  1 <1>  -0.1440 
 23 C        8.2320     3.4390     1.6140 C.3   1 <1>   0.0630 
 24 C        7.6160     2.1450     2.1560 C.3   1 <1>  -0.2400 
 25 C        8.6900     4.3460     2.7610 C.3   1 <1>  -0.2400 
 26 H        3.0070     3.0290    -0.1140 H     1 <1>   0.0800 
 27 H        4.6770     2.7890    -0.4880 H     1 <1>   0.0800 
 28 H        0.3960     0.7970     1.7050 H     1 <1>   0.0800 
 29 H        1.2820     2.2190     1.2170 H     1 <1>   0.0800 
 30 H        1.6070     1.4830     2.7720 H     1 <1>   0.0800 
 31 H        1.4540    -1.3120     1.8460 H     1 <1>   0.0800 
 32 H        2.7910    -0.7270     2.8250 H     1 <1>   0.0800 
 33 H        3.0960    -1.5310     1.2990 H     1 <1>   0.0800 
 34 H        2.5090     0.9540    -1.5140 H     1 <1>   0.0800 
 35 H        1.9080     2.8180    -2.8050 H     1 <1>   0.0800 
 36 H        4.2840    -0.2790    -2.2130 H     1 <1>   0.0800 
 37 H        5.4350     1.0060    -1.8760 H     1 <1>   0.0800 
 38 H        4.7830     3.6200    -2.8360 H     1 <1>   0.3700 
 39 H        3.5480     2.3880    -4.8950 H     1 <1>   0.0800 
 40 H        2.6150     1.0270    -4.2690 H     1 <1>   0.0800 
 41 H        4.8650     6.3930    -2.8450 H     1 <1>   0.0800 
 42 H        3.9310     6.8880    -1.4630 H     1 <1>   0.0800 
 43 H        6.9090     5.0930    -2.5270 H     1 <1>   0.1500 
 44 H        4.2140     5.6480     0.7410 H     1 <1>   0.1500 
 45 H        8.4810     3.9830    -1.0370 H     1 <1>   0.1500 
 46 H        5.7850     4.5230     2.2230 H     1 <1>   0.1500 
 47 H        9.1030     3.1720     1.0400 H     1 <1>   0.0800 
 48 H        6.7630     2.3560     2.7760 H     1 <1>   0.0800 
 49 H        8.3380     1.6030     2.7390 H     1 <1>   0.0800 
 50 H        7.2970     1.5200     1.3410 H     1 <1>   0.0800 
 51 H        7.8650     4.5950     3.4040 H     1 <1>   0.0800 
 52 H        9.1030     5.2560     2.3640 H     1 <1>   0.0800 
 53 H        9.4440     3.8520     3.3460 H     1 <1>   0.0800 
@<TRIPOS>BOND
  1   1   2  2   
  2   1   3  2   
  3   1   4  am  
  4   1   5  1   
  5   4   6  1   
  6   4   7  1   
  7   5   8  1   
  8   5  26  1   
  9   5  27  1   
 10   6  28  1   
 11   6  29  1   
 12   6  30  1   
 13   7  31  1   
 14   7  32  1   
 15   7  33  1   
 16   8   9  1   
 17   8  10  1   
 18   8  34  1   
 19   9  11  1   
 20   9  12  1   
 21   9  35  1   
 22  10  13  1   
 23  10  36  1   
 24  10  37  1   
 25  11  14  am  
 26  11  38  1   
 27  12  13  1   
 28  12  39  1   
 29  12  40  1   
 30  14  15  2   
 31  14  16  1   
 32  16  17  1   
 33  16  41  1   
 34  16  42  1   
 35  17  18  ar  
 36  17  19  ar  
 37  18  20  ar  
 38  18  43  1   
 39  19  21  ar  
 40  19  44  1   
 41  20  22  ar  
 42  20  45  1   
 43  21  22  ar  
 44  21  46  1   
 45  22  23  1   
 46  23  24  1   
 47  23  25  1   
 48  23  47  1   
 49  24  48  1   
 50  24  49  1   
 51  24  50  1   
 52  25  51  1   
 53  25  52  1   
 54  25  53  1   
@<TRIPOS>SUBSTRUCTURE
  1 ****   5 GROUP 4 **** **** 0

# MOE 2024.06 (io_trps.svl 2023.06)
