@<TRIPOS>MOLECULE
NONAME
43 44 1 0 0 
SMALL
USER_CHARGES


@<TRIPOS>ATOM
  1 O       -0.2050     0.0880     0.3930 O.2   1 <1>  -0.5700 
  2 C        0.7120    -0.4870    -0.1350 C.2   1 <1>   0.5690 
  3 N        1.8980     0.1050    -0.4620 N.am  1 <1>  -0.4940 
  4 C        0.5420    -1.9560    -0.4590 C.3   1 <1>  -0.0990 
  5 C        2.3330     1.4130    -0.2180 C.2   1 <1>   0.2040 
  6 C        0.3460    -2.7840     0.8140 C.3   1 <1>   0.0210 
  7 O        1.6450     2.2540     0.5180 O.3   1 <1>  -0.0190 
  8 C        3.4490     2.0500    -0.6270 C.2   1 <1>  -0.1810 
  9 C        0.2670    -4.2580     0.4580 C.2   1 <1>  -0.1810 
 10 N        2.2430     3.4130     0.6230 N.2   1 <1>  -0.4100 
 11 C        3.3300     3.3170    -0.0560 C.2   1 <1>   0.1080 
 12 C        4.5900     1.5530    -1.5000 C.3   1 <1>  -0.0590 
 13 C        1.3150    -5.1760     0.4650 C.2   1 <1>   0.1080 
 14 C       -0.8100    -4.9710     0.0620 C.2   1 <1>  -0.3320 
 15 C        4.3240     4.4570    -0.1910 C.3   1 <1>   0.0210 
 16 N        0.9320    -6.3570     0.1020 N.2   1 <1>  -0.7070 
 17 C        2.7480    -4.8870     0.8470 C.3   1 <1>  -0.0590 
 18 N       -0.3810    -6.2360    -0.1440 N.pl3 1 <1>   0.3140 
 19 C       -2.2490    -4.5170    -0.1380 C.3   1 <1>  -0.0600 
 20 C        5.4360     4.3550     0.8580 C.3   1 <1>  -0.2400 
 21 C       -1.1780    -7.3890    -0.5800 C.3   1 <1>   0.0160 
 22 H        2.5650    -0.4800    -0.9570 H     1 <1>   0.3700 
 23 H        1.3960    -2.3220    -0.9970 H     1 <1>   0.0800 
 24 H       -0.3210    -2.0680    -1.0900 H     1 <1>   0.0800 
 25 H       -0.5600    -2.4830     1.3090 H     1 <1>   0.0800 
 26 H        1.1590    -2.6160     1.4970 H     1 <1>   0.0800 
 27 H        4.4200     0.5390    -1.8100 H     1 <1>   0.0800 
 28 H        5.5150     1.5950    -0.9530 H     1 <1>   0.0800 
 29 H        4.6750     2.1690    -2.3770 H     1 <1>   0.0800 
 30 H        3.8000     5.3890    -0.0650 H     1 <1>   0.0800 
 31 H        4.7480     4.4510    -1.1790 H     1 <1>   0.0800 
 32 H        3.1030    -4.0210     0.3220 H     1 <1>   0.0800 
 33 H        3.3680    -5.7270     0.5910 H     1 <1>   0.0800 
 34 H        2.8120    -4.7190     1.9050 H     1 <1>   0.0800 
 35 H       -2.3490    -3.4670     0.0660 H     1 <1>   0.0800 
 36 H       -2.9010    -5.0560     0.5260 H     1 <1>   0.0800 
 37 H       -2.5560    -4.6960    -1.1530 H     1 <1>   0.0800 
 38 H        5.0080     4.3780     1.8450 H     1 <1>   0.0800 
 39 H        6.1170     5.1800     0.7570 H     1 <1>   0.0800 
 40 H        5.9810     3.4360     0.7410 H     1 <1>   0.0800 
 41 H       -1.9620    -7.5630     0.1320 H     1 <1>   0.0800 
 42 H       -0.5430    -8.2530    -0.6370 H     1 <1>   0.0800 
 43 H       -1.5950    -7.1820    -1.5470 H     1 <1>   0.0800 
@<TRIPOS>BOND
  1   1   2  2   
  2   2   3  am  
  3   2   4  1   
  4   3   5  1   
  5   3  22  1   
  6   4   6  1   
  7   4  23  1   
  8   4  24  1   
  9   5   7  1   
 10   5   8  2   
 11   6   9  1   
 12   6  25  1   
 13   6  26  1   
 14   7  10  1   
 15   8  11  1   
 16   8  12  1   
 17   9  13  1   
 18   9  14  2   
 19  10  11  2   
 20  11  15  1   
 21  12  27  1   
 22  12  28  1   
 23  12  29  1   
 24  13  16  2   
 25  13  17  1   
 26  14  18  1   
 27  14  19  1   
 28  15  20  1   
 29  15  30  1   
 30  15  31  1   
 31  16  18  1   
 32  17  32  1   
 33  17  33  1   
 34  17  34  1   
 35  18  21  1   
 36  19  35  1   
 37  19  36  1   
 38  19  37  1   
 39  20  38  1   
 40  20  39  1   
 41  20  40  1   
 42  21  41  1   
 43  21  42  1   
 44  21  43  1   
@<TRIPOS>SUBSTRUCTURE
  1 ****   2 GROUP 4 **** **** 0

# MOE 2024.06 (io_trps.svl 2023.06)
