@<TRIPOS>MOLECULE
NONAME
48 50 1 0 0 
SMALL
USER_CHARGES


@<TRIPOS>ATOM
  1 S        0.4360    -0.1640     1.8310 S.3   1 <1>   0.1810 
  2 N        1.5390     0.5400     0.7560 N.2   1 <1>  -0.2210 
  3 C        0.2680    -1.5990     0.8830 C.2   1 <1>  -0.0450 
  4 N        1.7750    -0.2350    -0.2090 N.2   1 <1>  -0.2270 
  5 C        1.0990    -1.4290    -0.1620 C.2   1 <1>   0.0460 
  6 C       -0.6420    -2.6120     1.3350 C.2   1 <1>   0.7150 
  7 C        1.3760    -2.4190    -1.2770 C.3   1 <1>  -0.0590 
  8 O       -0.6060    -2.9710     2.4970 O.2   1 <1>  -0.5700 
  9 N       -1.5670    -3.1900     0.4900 N.am  1 <1>  -0.6600 
 10 C       -2.2630    -4.4510     0.8970 C.3   1 <1>   0.1400 
 11 C       -2.0240    -2.5450    -0.7790 C.3   1 <1>   0.1400 
 12 C       -3.4770    -4.1510     1.7870 C.3   1 <1>   0.1400 
 13 C       -3.5440    -2.3360    -0.8770 C.3   1 <1>  -0.1600 
 14 N       -4.5880    -3.5380     0.9970 N.am  1 <1>  -0.6600 
 15 C       -4.2890    -2.1850     0.4550 C.3   1 <1>   0.1400 
 16 C       -5.7500    -4.1910     0.6380 C.2   1 <1>   0.5690 
 17 O       -6.6290    -3.5970     0.0510 O.2   1 <1>  -0.5700 
 18 C       -5.9860    -5.6740     0.9800 C.3   1 <1>   0.2610 
 19 O       -4.8910    -6.4810     0.5610 O.3   1 <1>  -0.2170 
 20 C       -7.1920    -6.3540     0.3180 C.3   1 <1>  -0.0990 
 21 N       -5.2820    -7.5780    -0.0560 N.2   1 <1>  -0.5130 
 22 C       -6.5260    -7.5810    -0.2250 C.2   1 <1>   0.3280 
 23 C       -7.3760    -8.6560    -0.9100 C.3   1 <1>  -0.0190 
 24 C       -8.2460    -9.4110     0.1070 C.3   1 <1>  -0.2400 
 25 C       -6.5200    -9.6620    -1.6970 C.3   1 <1>  -0.2400 
 26 H        0.8600    -3.3460    -1.1060 H     1 <1>   0.0800 
 27 H        2.4310    -2.6190    -1.3260 H     1 <1>   0.0800 
 28 H        1.0590    -2.0070    -2.2180 H     1 <1>   0.0800 
 29 H       -1.5750    -5.0650     1.4530 H     1 <1>   0.0800 
 30 H       -2.5710    -5.0110     0.0310 H     1 <1>   0.0800 
 31 H       -1.6970    -3.1430    -1.6130 H     1 <1>   0.0800 
 32 H       -1.5600    -1.5790    -0.8750 H     1 <1>   0.0800 
 33 H       -3.1860    -3.4820     2.5790 H     1 <1>   0.0800 
 34 H       -3.8010    -5.0620     2.2540 H     1 <1>   0.0800 
 35 H       -3.9830    -3.1420    -1.4370 H     1 <1>   0.0800 
 36 H       -3.7090    -1.4450    -1.4550 H     1 <1>   0.0800 
 37 H       -5.2110    -1.6540     0.2890 H     1 <1>   0.0800 
 38 H       -3.7090    -1.6150     1.1620 H     1 <1>   0.0800 
 39 H       -6.0560    -5.7790     2.0460 H     1 <1>   0.0800 
 40 H       -7.6110    -5.7760    -0.4850 H     1 <1>   0.0800 
 41 H       -7.9480    -6.5820     1.0450 H     1 <1>   0.0800 
 42 H       -8.0230    -8.1600    -1.6130 H     1 <1>   0.0800 
 43 H       -7.6240    -9.8890     0.8440 H     1 <1>   0.0800 
 44 H       -8.8310   -10.1650    -0.3890 H     1 <1>   0.0800 
 45 H       -8.9190    -8.7400     0.6070 H     1 <1>   0.0800 
 46 H       -5.8590   -10.1930    -1.0340 H     1 <1>   0.0800 
 47 H       -5.9210    -9.1440    -2.4270 H     1 <1>   0.0800 
 48 H       -7.1430   -10.3730    -2.2090 H     1 <1>   0.0800 
@<TRIPOS>BOND
  1   1   2  1   
  2   1   3  1   
  3   2   4  2   
  4   3   5  2   
  5   3   6  1   
  6   4   5  1   
  7   5   7  1   
  8   6   8  2   
  9   6   9  am  
 10   7  26  1   
 11   7  27  1   
 12   7  28  1   
 13   9  10  1   
 14   9  11  1   
 15  10  12  1   
 16  10  29  1   
 17  10  30  1   
 18  11  13  1   
 19  11  31  1   
 20  11  32  1   
 21  12  14  1   
 22  12  33  1   
 23  12  34  1   
 24  13  15  1   
 25  13  35  1   
 26  13  36  1   
 27  14  15  1   
 28  14  16  am  
 29  15  37  1   
 30  15  38  1   
 31  16  17  2   
 32  16  18  1   
 33  18  19  1   
 34  18  20  1   
 35  18  39  1   
 36  19  21  1   
 37  20  22  1   
 38  20  40  1   
 39  20  41  1   
 40  21  22  2   
 41  22  23  1   
 42  23  24  1   
 43  23  25  1   
 44  23  42  1   
 45  24  43  1   
 46  24  44  1   
 47  24  45  1   
 48  25  46  1   
 49  25  47  1   
 50  25  48  1   
@<TRIPOS>SUBSTRUCTURE
  1 ****  10 GROUP 4 **** **** 0

# MOE 2024.06 (io_trps.svl 2023.06)
