@<TRIPOS>MOLECULE
NONAME
45 48 1 0 0 
SMALL
USER_CHARGES


@<TRIPOS>ATOM
  1 F       -1.4060     2.0700     2.0180 F     1 <1>  -0.1900 
  2 C       -1.6550     2.1860     0.7410 C.ar  1 <1>   0.1900 
  3 C       -0.6060     2.3130    -0.1610 C.ar  1 <1>  -0.0320 
  4 C       -2.9810     2.1670     0.3490 C.ar  1 <1>  -0.1500 
  5 C       -0.9320     2.4110    -1.5080 C.ar  1 <1>  -0.1500 
  6 C        0.8510     2.3380     0.3090 C.3   1 <1>   0.0320 
  7 C       -3.2810     2.2740    -0.9970 C.ar  1 <1>  -0.1500 
  8 C       -2.2560     2.3940    -1.9220 C.ar  1 <1>  -0.1500 
  9 C        1.2030     3.5770     1.1560 C.2   1 <1>   0.6300 
 10 C        1.4310     1.0050     0.7010 C.3   1 <1>  -0.2000 
 11 C        1.9350     1.6960    -0.5200 C.3   1 <1>  -0.2000 
 12 O        1.3440     3.4120     2.3480 O.2   1 <1>  -0.5700 
 13 N        1.3580     4.8270     0.5890 N.am  1 <1>  -0.6600 
 14 C        1.7290     5.9900     1.4620 C.3   1 <1>   0.1400 
 15 C        1.2950     5.0910    -0.8840 C.3   1 <1>   0.1400 
 16 C        3.1230     6.5990     1.1910 C.3   1 <1>   0.2200 
 17 C        2.5720     5.6830    -1.5130 C.3   1 <1>  -0.0190 
 18 N        3.0590     7.5600     0.0530 N.am  1 <1>  -0.6600 
 19 C        4.2840     5.5850     1.0240 C.3   1 <1>   0.1200 
 20 C        2.7210     7.1550    -1.2050 C.2   1 <1>   0.5690 
 21 C        3.8970     4.9420    -1.2570 C.3   1 <1>   0.1200 
 22 C        3.2770     8.9950     0.3890 C.3   1 <1>   0.0600 
 23 O        4.0810     4.5720     0.0740 O.3   1 <1>  -0.5600 
 24 O        2.5430     7.9390    -2.1070 O.2   1 <1>  -0.5700 
 25 H       -3.7570     2.0700     1.0870 H     1 <1>   0.1500 
 26 H       -0.1590     2.4980    -2.2490 H     1 <1>   0.1500 
 27 H       -4.3070     2.2610    -1.3240 H     1 <1>   0.1500 
 28 H       -2.4910     2.4720    -2.9700 H     1 <1>   0.1500 
 29 H        2.0580     0.9610     1.5760 H     1 <1>   0.1000 
 30 H        0.8150     0.1300     0.5950 H     1 <1>   0.1000 
 31 H        1.7060     1.2540    -1.4720 H     1 <1>   0.1000 
 32 H        2.9260     2.1150    -0.4860 H     1 <1>   0.1000 
 33 H        0.9820     6.7570     1.3550 H     1 <1>   0.0800 
 34 H        1.7080     5.6890     2.4940 H     1 <1>   0.0800 
 35 H        1.0840     4.1800    -1.4050 H     1 <1>   0.0800 
 36 H        0.4720     5.7580    -1.0730 H     1 <1>   0.0800 
 37 H        3.3630     7.1760     2.0660 H     1 <1>   0.0800 
 38 H        2.4200     5.6360    -2.5760 H     1 <1>   0.0800 
 39 H        4.4310     5.0820     1.9640 H     1 <1>   0.0800 
 40 H        5.1940     6.1020     0.7780 H     1 <1>   0.0800 
 41 H        4.7380     5.5390    -1.5660 H     1 <1>   0.0800 
 42 H        3.9060     4.0300    -1.8280 H     1 <1>   0.0800 
 43 H        4.2430     9.1200     0.8480 H     1 <1>   0.0800 
 44 H        2.5130     9.3310     1.0680 H     1 <1>   0.0800 
 45 H        3.2410     9.6060    -0.4970 H     1 <1>   0.0800 
@<TRIPOS>BOND
  1   1   2  1   
  2   2   3  ar  
  3   2   4  ar  
  4   3   5  ar  
  5   3   6  1   
  6   4   7  ar  
  7   4  25  1   
  8   5   8  ar  
  9   5  26  1   
 10   6   9  1   
 11   6  10  1   
 12   6  11  1   
 13   7   8  ar  
 14   7  27  1   
 15   8  28  1   
 16   9  12  2   
 17   9  13  am  
 18  10  11  1   
 19  10  29  1   
 20  10  30  1   
 21  11  31  1   
 22  11  32  1   
 23  13  14  1   
 24  13  15  1   
 25  14  16  1   
 26  14  33  1   
 27  14  34  1   
 28  15  17  1   
 29  15  35  1   
 30  15  36  1   
 31  16  18  1   
 32  16  19  1   
 33  16  37  1   
 34  17  20  1   
 35  17  21  1   
 36  17  38  1   
 37  18  20  am  
 38  18  22  1   
 39  19  23  1   
 40  19  39  1   
 41  19  40  1   
 42  20  24  2   
 43  21  23  1   
 44  21  41  1   
 45  21  42  1   
 46  22  43  1   
 47  22  44  1   
 48  22  45  1   
@<TRIPOS>SUBSTRUCTURE
  1 ****  13 GROUP 4 **** **** 0

# MOE 2024.06 (io_trps.svl 2023.06)
