@<TRIPOS>MOLECULE
NONAME
46 49 1 0 0 
SMALL
USER_CHARGES


@<TRIPOS>ATOM
  1 S        1.0530    -0.0470     1.3510 S.3   1 <1>  -0.0800 
  2 C        1.4010    -0.8940    -0.1400 C.2   1 <1>   0.1980 
  3 C        0.4900    -1.5400     2.0430 C.2   1 <1>  -0.1100 
  4 N        1.1220    -2.1360    -0.1140 N.2   1 <1>  -0.5650 
  5 C        1.9840    -0.0820    -1.2740 C.3   1 <1>  -0.0600 
  6 C        0.6100    -2.5130     1.1260 C.2   1 <1>   0.0460 
  7 C        0.2330    -3.9760     1.2950 C.3   1 <1>   0.5240 
  8 N       -0.4860    -4.3990     0.0630 N.4   1 <1>  -0.9590 
  9 C       -1.8590    -3.8210    -0.0580 C.3   1 <1>   0.3430 
 10 C       -0.5640    -5.8730    -0.1370 C.3   1 <1>   0.3430 
 11 C       -2.7220    -4.9410    -0.6420 C.3   1 <1>   0.2000 
 12 C       -2.0520    -6.2290    -0.1830 C.3   1 <1>  -0.0800 
 13 O       -4.0280    -4.8810    -0.1800 O.3   1 <1>  -0.6800 
 14 C       -2.3610    -7.4330    -1.0920 C.3   1 <1>  -0.0160 
 15 C       -1.6480    -8.6860    -0.6070 C.ar  1 <1>   0.1670 
 16 N       -0.3540    -8.7150    -0.7220 N.ar  1 <1>  -0.6200 
 17 C       -2.4040    -9.7330    -0.0550 C.ar  1 <1>  -0.1500 
 18 C        0.2940    -9.8310    -0.2940 C.ar  1 <1>   0.3100 
 19 C       -1.7770   -10.8550     0.3960 C.ar  1 <1>  -0.1500 
 20 C       -0.3800   -10.9270     0.2870 C.ar  1 <1>   0.0000 
 21 C        1.6910    -9.8980    -0.4250 C.ar  1 <1>  -0.1500 
 22 C        0.3690   -12.0370     0.7260 C.ar  1 <1>  -0.1500 
 23 C        2.4000   -10.9870     0.0070 C.ar  1 <1>  -0.1500 
 24 C        1.7310   -12.0670     0.5900 C.ar  1 <1>  -0.1500 
 25 H        0.1380    -1.5120     3.0600 H     1 <1>   0.1500 
 26 H        2.1540    -0.7130    -2.1280 H     1 <1>   0.0800 
 27 H        2.9180     0.3510    -0.9690 H     1 <1>   0.0800 
 28 H        1.3040     0.7040    -1.5490 H     1 <1>   0.0800 
 29 H       -0.3770    -4.1180     2.1710 H     1 <1>   0.0800 
 30 H        1.1390    -4.5510     1.4000 H     1 <1>   0.0800 
 31 H        0.0920    -3.9730    -0.6840 H     1 <1>   0.4500 
 32 H       -2.2350    -3.5510     0.9140 H     1 <1>   0.0800 
 33 H       -1.8590    -2.9540    -0.7000 H     1 <1>   0.0800 
 34 H       -0.1050    -6.1360    -1.0770 H     1 <1>   0.0800 
 35 H       -0.0650    -6.4190     0.6490 H     1 <1>   0.0800 
 36 H       -2.7410    -4.8600    -1.7160 H     1 <1>   0.0800 
 37 H       -2.3550    -6.4620     0.8230 H     1 <1>   0.0800 
 38 H       -4.1220    -5.2010     0.7400 H     1 <1>   0.4000 
 39 H       -2.0440    -7.2290    -2.1010 H     1 <1>   0.0800 
 40 H       -3.4230    -7.6010    -1.1170 H     1 <1>   0.0800 
 41 H       -3.4730    -9.6440     0.0070 H     1 <1>   0.1500 
 42 H       -2.3210   -11.6780     0.8250 H     1 <1>   0.1500 
 43 H        2.1920    -9.0640    -0.8800 H     1 <1>   0.1500 
 44 H       -0.1510   -12.8670     1.1710 H     1 <1>   0.1500 
 45 H        3.4710   -11.0290    -0.0990 H     1 <1>   0.1500 
 46 H        2.3010   -12.9170     0.9260 H     1 <1>   0.1500 
@<TRIPOS>BOND
  1   1   2  1   
  2   1   3  1   
  3   2   4  2   
  4   2   5  1   
  5   3   6  2   
  6   3  25  1   
  7   4   6  1   
  8   5  26  1   
  9   5  27  1   
 10   5  28  1   
 11   6   7  1   
 12   7   8  1   
 13   7  29  1   
 14   7  30  1   
 15   8   9  1   
 16   8  10  1   
 17   8  31  1   
 18   9  11  1   
 19   9  32  1   
 20   9  33  1   
 21  10  12  1   
 22  10  34  1   
 23  10  35  1   
 24  11  12  1   
 25  11  13  1   
 26  11  36  1   
 27  12  14  1   
 28  12  37  1   
 29  13  38  1   
 30  14  15  1   
 31  14  39  1   
 32  14  40  1   
 33  15  16  ar  
 34  15  17  ar  
 35  16  18  ar  
 36  17  19  ar  
 37  17  41  1   
 38  18  20  ar  
 39  18  21  ar  
 40  19  20  ar  
 41  19  42  1   
 42  20  22  ar  
 43  21  23  ar  
 44  21  43  1   
 45  22  24  ar  
 46  22  44  1   
 47  23  24  ar  
 48  23  45  1   
 49  24  46  1   
@<TRIPOS>SUBSTRUCTURE
  1 ****  10 GROUP 4 **** **** 0

# MOE 2024.06 (io_trps.svl 2023.06)
