@<TRIPOS>MOLECULE
NONAME
47 48 1 0 0 
SMALL
USER_CHARGES


@<TRIPOS>ATOM
  1 O       -3.9150     2.8960     0.7720 O.2   1 <1>  -0.5700 
  2 C       -3.2020     2.1360     0.1550 C.2   1 <1>   0.5690 
  3 N       -3.7970     1.2840    -0.7580 N.am  1 <1>  -0.6600 
  4 C       -1.6770     2.1750     0.4740 C.3   1 <1>   0.0610 
  5 C       -3.1400     0.1150    -1.4060 C.3   1 <1>   0.3200 
  6 C       -5.1720     1.6170    -1.2890 C.3   1 <1>   0.1400 
  7 C       -1.2850     3.4990     1.1670 C.3   1 <1>  -0.1600 
  8 C       -0.7640     2.2180    -0.7720 C.3   1 <1>  -0.1600 
  9 C       -1.2850     1.0070     1.4090 C.3   1 <1>  -0.2400 
 10 C       -3.9270    -1.1270    -1.0450 C.2   1 <1>  -0.3320 
 11 C       -6.2710     1.6420    -0.2020 C.3   1 <1>   0.3430 
 12 C        0.2100     3.6970     0.9290 C.3   1 <1>  -0.1600 
 13 C        0.5090     2.9810    -0.3860 C.3   1 <1>  -0.1600 
 14 N       -4.6580    -1.8530    -1.9150 N.pl3 1 <1>   0.0330 
 15 C       -4.0420    -1.7390     0.1540 C.2   1 <1>   0.0770 
 16 N       -6.1260     0.4870     0.7330 N.4   1 <1>  -0.9590 
 17 C       -5.2050    -2.8380    -1.1730 C.2   1 <1>   0.0360 
 18 N       -4.8780    -2.7880     0.0780 N.2   1 <1>  -0.5650 
 19 C       -7.1650    -0.5680     0.5560 C.3   1 <1>   0.2630 
 20 C       -6.0410     0.9520     2.1490 C.3   1 <1>   0.2630 
 21 H       -2.1370    -0.0210    -1.0610 H     1 <1>   0.0800 
 22 H       -3.1080     0.2580    -2.4730 H     1 <1>   0.0800 
 23 H       -5.4560     0.9120    -2.0490 H     1 <1>   0.0800 
 24 H       -5.1340     2.5870    -1.7550 H     1 <1>   0.0800 
 25 H       -1.5300     3.5060     2.2150 H     1 <1>   0.0800 
 26 H       -1.8040     4.3170     0.6970 H     1 <1>   0.0800 
 27 H       -1.2630     2.7620    -1.5550 H     1 <1>   0.0800 
 28 H       -0.4980     1.2450    -1.1410 H     1 <1>   0.0800 
 29 H       -1.8450     1.0690     2.3250 H     1 <1>   0.0800 
 30 H       -0.2390     1.0420     1.6560 H     1 <1>   0.0800 
 31 H       -1.4810     0.0520     0.9630 H     1 <1>   0.0800 
 32 H       -7.2450     1.6410    -0.6610 H     1 <1>   0.0800 
 33 H       -6.1710     2.5640     0.3490 H     1 <1>   0.0800 
 34 H        0.7710     3.2430     1.7270 H     1 <1>   0.0800 
 35 H        0.4630     4.7430     0.8810 H     1 <1>   0.0800 
 36 H        0.7700     3.6870    -1.1560 H     1 <1>   0.0800 
 37 H        1.3320     2.3000    -0.2500 H     1 <1>   0.0800 
 38 H       -4.7620    -1.7290    -2.9290 H     1 <1>   0.2700 
 39 H       -3.5670    -1.4760     1.0870 H     1 <1>   0.1500 
 40 H       -5.2070     0.0720     0.4880 H     1 <1>   0.4500 
 41 H       -5.8460    -3.5920    -1.6010 H     1 <1>   0.1500 
 42 H       -8.1400    -0.1860     0.8110 H     1 <1>   0.0800 
 43 H       -6.9440    -1.4130     1.1890 H     1 <1>   0.0800 
 44 H       -7.1770    -0.9110    -0.4650 H     1 <1>   0.0800 
 45 H       -6.9650     1.4180     2.4470 H     1 <1>   0.0800 
 46 H       -5.2430     1.6690     2.2570 H     1 <1>   0.0800 
 47 H       -5.8440     0.1180     2.8030 H     1 <1>   0.0800 
@<TRIPOS>BOND
  1   1   2  2   
  2   2   3  am  
  3   2   4  1   
  4   3   5  1   
  5   3   6  1   
  6   4   7  1   
  7   4   8  1   
  8   4   9  1   
  9   5  10  1   
 10   5  21  1   
 11   5  22  1   
 12   6  11  1   
 13   6  23  1   
 14   6  24  1   
 15   7  12  1   
 16   7  25  1   
 17   7  26  1   
 18   8  13  1   
 19   8  27  1   
 20   8  28  1   
 21   9  29  1   
 22   9  30  1   
 23   9  31  1   
 24  10  14  1   
 25  10  15  2   
 26  11  16  1   
 27  11  32  1   
 28  11  33  1   
 29  12  13  1   
 30  12  34  1   
 31  12  35  1   
 32  13  36  1   
 33  13  37  1   
 34  14  17  1   
 35  14  38  1   
 36  15  18  1   
 37  15  39  1   
 38  16  19  1   
 39  16  20  1   
 40  16  40  1   
 41  17  18  2   
 42  17  41  1   
 43  19  42  1   
 44  19  43  1   
 45  19  44  1   
 46  20  45  1   
 47  20  46  1   
 48  20  47  1   
@<TRIPOS>SUBSTRUCTURE
  1 ****   3 GROUP 4 **** **** 0

# MOE 2024.06 (io_trps.svl 2023.06)
