@<TRIPOS>MOLECULE
NONAME
44 46 1 0 0 
SMALL
USER_CHARGES


@<TRIPOS>ATOM
  1 S        0.3440    -0.1440    -0.5340 S.o2  1 <1>   1.3330 
  2 O       -0.3420    -0.2570    -1.8010 O.2   1 <1>  -0.6500 
  3 O        1.7870    -0.0650    -0.5080 O.2   1 <1>  -0.6500 
  4 N       -0.1270    -1.4460     0.4470 N.am  1 <1>  -0.8490 
  5 C       -0.3330     1.2770     0.3180 C.3   1 <1>  -0.0550 
  6 C       -0.2450    -2.6950    -0.3110 C.3   1 <1>   0.1160 
  7 C        0.7500    -1.6480     1.6060 C.3   1 <1>   0.1160 
  8 C       -0.1100     2.6000    -0.4420 C.3   1 <1>  -0.0800 
  9 C       -0.8050     3.8120     0.1860 C.3   1 <1>   0.2000 
 10 C        1.3630     3.0200    -0.5610 C.3   1 <1>   0.2090 
 11 O       -0.5820     3.7970     1.5560 O.3   1 <1>  -0.6800 
 12 C       -0.0520     5.0030    -0.4040 C.3   1 <1>   0.2090 
 13 N        1.3400     4.5040    -0.5290 N.pl3 1 <1>  -0.8220 
 14 C        2.4850     5.2590    -0.4430 C.2   1 <1>   0.4620 
 15 S        2.3800     6.9840    -0.4130 S.3   1 <1>  -0.0800 
 16 N        3.7020     4.8490    -0.3760 N.2   1 <1>  -0.3380 
 17 C        4.1180     7.0400    -0.3010 C.2   1 <1>   0.3250 
 18 N        4.6150     5.8520    -0.2940 N.2   1 <1>  -0.3380 
 19 C        4.8030     8.3110    -0.2250 C.ar  1 <1>   0.0530 
 20 C        6.1930     8.3440    -0.0790 C.ar  1 <1>  -0.1500 
 21 C        4.1470     9.5450    -0.2910 C.ar  1 <1>  -0.1500 
 22 C        6.8910     9.5340    -0.0010 C.ar  1 <1>  -0.1500 
 23 C        4.8390    10.7400    -0.2130 C.ar  1 <1>  -0.1500 
 24 C        6.2140    10.7380    -0.0680 C.ar  1 <1>  -0.1500 
 25 H       -1.3880     1.1300     0.4450 H     1 <1>   0.0800 
 26 H        0.1030     1.3460     1.2950 H     1 <1>   0.0800 
 27 H       -0.5630    -3.4960     0.3350 H     1 <1>   0.0800 
 28 H        0.7000    -2.9530    -0.7590 H     1 <1>   0.0800 
 29 H       -0.9790    -2.5840    -1.0920 H     1 <1>   0.0800 
 30 H        0.3590    -2.4300     2.2340 H     1 <1>   0.0800 
 31 H        0.8100    -0.7450     2.1890 H     1 <1>   0.0800 
 32 H        1.7430    -1.9190     1.2850 H     1 <1>   0.0800 
 33 H       -0.4930     2.4870    -1.4430 H     1 <1>   0.0800 
 34 H       -1.8670     3.8440     0.0070 H     1 <1>   0.0800 
 35 H        1.8040     2.6660    -1.4790 H     1 <1>   0.0800 
 36 H        1.9430     2.6570     0.2710 H     1 <1>   0.0800 
 37 H        0.3660     3.9980     1.7100 H     1 <1>   0.4000 
 38 H       -0.1260     5.8700     0.2300 H     1 <1>   0.0800 
 39 H       -0.4320     5.2340    -1.3840 H     1 <1>   0.0800 
 40 H        6.7360     7.4150    -0.0260 H     1 <1>   0.1500 
 41 H        3.0790     9.5870    -0.4050 H     1 <1>   0.1500 
 42 H        7.9610     9.5240     0.1120 H     1 <1>   0.1500 
 43 H        4.3090    11.6750    -0.2670 H     1 <1>   0.1500 
 44 H        6.7540    11.6670    -0.0070 H     1 <1>   0.1500 
@<TRIPOS>BOND
  1   1   2  2   
  2   1   3  2   
  3   1   4  am  
  4   1   5  1   
  5   4   6  1   
  6   4   7  1   
  7   5   8  1   
  8   5  25  1   
  9   5  26  1   
 10   6  27  1   
 11   6  28  1   
 12   6  29  1   
 13   7  30  1   
 14   7  31  1   
 15   7  32  1   
 16   8   9  1   
 17   8  10  1   
 18   8  33  1   
 19   9  11  1   
 20   9  12  1   
 21   9  34  1   
 22  10  13  1   
 23  10  35  1   
 24  10  36  1   
 25  11  37  1   
 26  12  13  1   
 27  12  38  1   
 28  12  39  1   
 29  13  14  1   
 30  14  15  1   
 31  14  16  2   
 32  15  17  1   
 33  16  18  1   
 34  17  18  2   
 35  17  19  1   
 36  19  20  ar  
 37  19  21  ar  
 38  20  22  ar  
 39  20  40  1   
 40  21  23  ar  
 41  21  41  1   
 42  22  24  ar  
 43  22  42  1   
 44  23  24  ar  
 45  23  43  1   
 46  24  44  1   
@<TRIPOS>SUBSTRUCTURE
  1 ****  14 GROUP 4 **** **** 0

# MOE 2024.06 (io_trps.svl 2023.06)
