@<TRIPOS>MOLECULE
NONAME
52 55 1 0 0 
SMALL
USER_CHARGES


@<TRIPOS>ATOM
  1 O        0.7570    -1.4460    -1.8750 O.3   1 <1>  -0.6800 
  2 C        0.3580    -1.9410    -0.6410 C.3   1 <1>   0.1200 
  3 C        1.5220    -1.9200     0.3930 C.3   1 <1>   0.0000 
  4 C        2.8550    -2.5190    -0.1470 C.3   1 <1>   0.4230 
  5 C        1.7750    -0.4560     0.8470 C.3   1 <1>  -0.1600 
  6 C        1.0820    -2.7430     1.6360 C.3   1 <1>  -0.1600 
  7 N        2.7280    -3.9780    -0.5890 N.4   1 <1>  -0.9590 
  8 C        3.5720    -1.5670    -1.1590 C.3   1 <1>   0.3430 
  9 C        2.4060     0.4330    -0.2290 C.3   1 <1>   0.3430 
 10 C        1.5960    -4.1990     1.6330 C.3   1 <1>  -0.1600 
 11 C        1.7450    -4.7750     0.2250 C.3   1 <1>   0.3430 
 12 C        2.4190    -4.1760    -2.0470 C.3   1 <1>   0.2630 
 13 N        3.7110    -0.1520    -0.6620 N.4   1 <1>  -0.9590 
 14 C        4.3560     0.7360    -1.6720 C.3   1 <1>   0.4860 
 15 C        4.7670     1.9960    -0.9520 C.ar  1 <1>  -0.1440 
 16 C        5.7780     1.9210     0.0160 C.ar  1 <1>   0.0000 
 17 C        4.1560     3.2080    -1.1970 C.ar  1 <1>  -0.1500 
 18 C        6.1160     3.0590     0.7420 C.ar  1 <1>  -0.1520 
 19 C        6.6170     0.8870     0.4930 C.2   1 <1>  -0.1500 
 20 C        4.5200     4.3490    -0.4740 C.ar  1 <1>  -0.1500 
 21 N        7.1010     2.7280     1.6370 N.pl3 1 <1>   0.0330 
 22 C        5.4910     4.2820     0.4970 C.ar  1 <1>  -0.1500 
 23 C        7.3930     1.4050     1.4730 C.2   1 <1>  -0.3020 
 24 H       -0.0300    -1.3060    -2.4530 H     1 <1>   0.4000 
 25 H       -0.4640    -1.3370    -0.2900 H     1 <1>   0.0800 
 26 H       -0.0130    -2.9390    -0.7970 H     1 <1>   0.0800 
 27 H        3.5060    -2.5360     0.7110 H     1 <1>   0.0800 
 28 H        2.4220    -0.4330     1.7080 H     1 <1>   0.0800 
 29 H        0.8450    -0.0070     1.1530 H     1 <1>   0.0800 
 30 H        1.4340    -2.2870     2.5470 H     1 <1>   0.0800 
 31 H        0.0060    -2.7480     1.7090 H     1 <1>   0.0800 
 32 H        3.6420    -4.4220    -0.4140 H     1 <1>   0.4500 
 33 H        3.0110    -1.5530    -2.0780 H     1 <1>   0.0800 
 34 H        4.5510    -1.9620    -1.3710 H     1 <1>   0.0800 
 35 H        2.5610     1.4230     0.1730 H     1 <1>   0.0800 
 36 H        1.7390     0.5180    -1.0720 H     1 <1>   0.0800 
 37 H        0.9100    -4.8130     2.1930 H     1 <1>   0.0800 
 38 H        2.5450    -4.2580     2.1380 H     1 <1>   0.0800 
 39 H        0.7790    -4.7620    -0.2530 H     1 <1>   0.0800 
 40 H        2.0660    -5.8040     0.2840 H     1 <1>   0.0800 
 41 H        1.4710    -3.7280    -2.2980 H     1 <1>   0.0800 
 42 H        2.3670    -5.2280    -2.2780 H     1 <1>   0.0800 
 43 H        3.1830    -3.7340    -2.6650 H     1 <1>   0.0800 
 44 H        4.3410    -0.0950     0.1530 H     1 <1>   0.4500 
 45 H        5.2340     0.2670    -2.0860 H     1 <1>   0.0800 
 46 H        3.6710     0.9650    -2.4730 H     1 <1>   0.0800 
 47 H        3.3870     3.3100    -1.9450 H     1 <1>   0.1500 
 48 H        6.6460    -0.1230     0.1260 H     1 <1>   0.1500 
 49 H        4.0320     5.2860    -0.6850 H     1 <1>   0.1500 
 50 H        7.5510     3.3790     2.2910 H     1 <1>   0.2700 
 51 H        5.7730     5.1560     1.0600 H     1 <1>   0.1500 
 52 H        8.1530     0.9180     2.0620 H     1 <1>   0.1500 
@<TRIPOS>BOND
  1   1   2  1   
  2   1  24  1   
  3   2   3  1   
  4   2  25  1   
  5   2  26  1   
  6   3   4  1   
  7   3   5  1   
  8   3   6  1   
  9   4   7  1   
 10   4   8  1   
 11   4  27  1   
 12   5   9  1   
 13   5  28  1   
 14   5  29  1   
 15   6  10  1   
 16   6  30  1   
 17   6  31  1   
 18   7  11  1   
 19   7  12  1   
 20   7  32  1   
 21   8  13  1   
 22   8  33  1   
 23   8  34  1   
 24   9  13  1   
 25   9  35  1   
 26   9  36  1   
 27  10  11  1   
 28  10  37  1   
 29  10  38  1   
 30  11  39  1   
 31  11  40  1   
 32  12  41  1   
 33  12  42  1   
 34  12  43  1   
 35  13  14  1   
 36  13  44  1   
 37  14  15  1   
 38  14  45  1   
 39  14  46  1   
 40  15  16  ar  
 41  15  17  ar  
 42  16  18  ar  
 43  16  19  1   
 44  17  20  ar  
 45  17  47  1   
 46  18  21  1   
 47  18  22  ar  
 48  19  23  2   
 49  19  48  1   
 50  20  22  ar  
 51  20  49  1   
 52  21  23  1   
 53  21  50  1   
 54  22  51  1   
 55  23  52  1   
@<TRIPOS>SUBSTRUCTURE
  1 ****  13 GROUP 4 **** **** 0

# MOE 2024.06 (io_trps.svl 2023.06)
