@<TRIPOS>MOLECULE
NONAME
49 52 1 0 0 
SMALL
USER_CHARGES


@<TRIPOS>ATOM
  1 O        0.2320    -0.2170    -1.1600 O.2   1 <1>  -0.5700 
  2 C        1.1590    -0.9530    -0.8790 C.2   1 <1>   0.5440 
  3 N        2.2420    -0.4330    -0.2090 N.am  1 <1>  -0.6600 
  4 C        1.1000    -2.3520    -1.2460 C.ar  1 <1>   0.0860 
  5 C        2.3140     0.9920     0.1830 C.3   1 <1>   0.1400 
  6 C        3.2490    -1.2340     0.5220 C.3   1 <1>   0.1400 
  7 C        0.0270    -3.1530    -0.9120 C.ar  1 <1>  -0.1500 
  8 C        2.1080    -2.9880    -1.9580 C.ar  1 <1>  -0.1500 
  9 C        3.5630     1.0990     1.0500 C.3   1 <1>  -0.1600 
 10 C        3.7610    -0.3040     1.6160 C.3   1 <1>  -0.1600 
 11 C       -0.0060    -4.4950    -1.2640 C.ar  1 <1>   0.4100 
 12 C        1.9960    -4.3290    -2.2660 C.ar  1 <1>   0.1600 
 13 N        0.9720    -5.0940    -1.9330 N.ar  1 <1>  -0.6200 
 14 N       -1.1030    -5.2590    -0.9200 N.pl3 1 <1>  -0.8380 
 15 C       -0.9020    -6.7050    -0.6360 C.3   1 <1>   0.2090 
 16 C       -2.3870    -4.9380    -1.5900 C.3   1 <1>   0.2090 
 17 C       -2.0480    -7.2180     0.2340 C.3   1 <1>  -0.1600 
 18 C       -3.5470    -5.4300    -0.7250 C.3   1 <1>  -0.1600 
 19 C       -3.3980    -6.9240    -0.4320 C.3   1 <1>   0.2000 
 20 O       -4.4440    -7.2980     0.4400 O.3   1 <1>  -0.3630 
 21 C       -4.8950    -8.5570     0.5570 C.ar  1 <1>   0.7030 
 22 N       -4.3500    -9.5010    -0.2110 N.ar  1 <1>  -0.6200 
 23 N       -5.8620    -8.7100     1.4530 N.ar  1 <1>  -0.6200 
 24 C       -4.8340   -10.7100    -0.0490 C.ar  1 <1>   0.1600 
 25 C       -6.3230    -9.9310     1.5890 C.ar  1 <1>   0.1600 
 26 C       -5.8350   -10.9820     0.8510 C.ar  1 <1>  -0.1500 
 27 H        1.4330     1.2450     0.7500 H     1 <1>   0.0800 
 28 H        2.3730     1.6230    -0.6880 H     1 <1>   0.0800 
 29 H        4.0490    -1.4930    -0.1500 H     1 <1>   0.0800 
 30 H        2.8140    -2.1270     0.9380 H     1 <1>   0.0800 
 31 H       -0.7980    -2.7380    -0.3650 H     1 <1>   0.1500 
 32 H        2.9710    -2.4300    -2.2710 H     1 <1>   0.1500 
 33 H        3.4490     1.8410     1.8210 H     1 <1>   0.0800 
 34 H        4.3980     1.3650     0.4270 H     1 <1>   0.0800 
 35 H        4.7870    -0.5060     1.8660 H     1 <1>   0.0800 
 36 H        3.1530    -0.4320     2.4950 H     1 <1>   0.0800 
 37 H        2.7900    -4.8020    -2.8190 H     1 <1>   0.1500 
 38 H        0.0350    -6.8470    -0.1240 H     1 <1>   0.0800 
 39 H       -0.8640    -7.2480    -1.5660 H     1 <1>   0.0800 
 40 H       -2.4120    -5.4200    -2.5530 H     1 <1>   0.0800 
 41 H       -2.4720    -3.8760    -1.7430 H     1 <1>   0.0800 
 42 H       -1.9990    -6.7320     1.1920 H     1 <1>   0.0800 
 43 H       -1.9300    -8.2760     0.3770 H     1 <1>   0.0800 
 44 H       -4.4730    -5.2540    -1.2390 H     1 <1>   0.0800 
 45 H       -3.5510    -4.8750     0.1960 H     1 <1>   0.0800 
 46 H       -3.4940    -7.4730    -1.3530 H     1 <1>   0.0800 
 47 H       -4.4210   -11.5030    -0.6500 H     1 <1>   0.1500 
 48 H       -7.1080   -10.0940     2.3080 H     1 <1>   0.1500 
 49 H       -6.2220   -11.9760     0.9740 H     1 <1>   0.1500 
@<TRIPOS>BOND
  1   1   2  2   
  2   2   3  am  
  3   2   4  1   
  4   3   5  1   
  5   3   6  1   
  6   4   7  ar  
  7   4   8  ar  
  8   5   9  1   
  9   5  27  1   
 10   5  28  1   
 11   6  10  1   
 12   6  29  1   
 13   6  30  1   
 14   7  11  ar  
 15   7  31  1   
 16   8  12  ar  
 17   8  32  1   
 18   9  10  1   
 19   9  33  1   
 20   9  34  1   
 21  10  35  1   
 22  10  36  1   
 23  11  13  ar  
 24  11  14  1   
 25  12  13  ar  
 26  12  37  1   
 27  14  15  1   
 28  14  16  1   
 29  15  17  1   
 30  15  38  1   
 31  15  39  1   
 32  16  18  1   
 33  16  40  1   
 34  16  41  1   
 35  17  19  1   
 36  17  42  1   
 37  17  43  1   
 38  18  19  1   
 39  18  44  1   
 40  18  45  1   
 41  19  20  1   
 42  19  46  1   
 43  20  21  1   
 44  21  22  ar  
 45  21  23  ar  
 46  22  24  ar  
 47  23  25  ar  
 48  24  26  ar  
 49  24  47  1   
 50  25  26  ar  
 51  25  48  1   
 52  26  49  1   
@<TRIPOS>SUBSTRUCTURE
  1 ****  14 GROUP 4 **** **** 0

# MOE 2024.06 (io_trps.svl 2023.06)
