@<TRIPOS>MOLECULE
NONAME
47 48 1 0 0 
SMALL
USER_CHARGES


@<TRIPOS>ATOM
  1 O        0.0990     0.1750     0.7790 O.3   1 <1>  -0.6800 
  2 C        0.9350    -0.1370    -0.2870 C.3   1 <1>   0.2000 
  3 C        1.7770    -1.3490     0.1130 C.3   1 <1>  -0.0800 
  4 C        1.9710     0.9790    -0.4080 C.3   1 <1>   0.3430 
  5 C        2.9760    -0.7580     0.8740 C.3   1 <1>   0.3430 
  6 C        2.2330    -2.1550    -1.1190 C.3   1 <1>  -0.0170 
  7 N        2.8940     0.7270     0.7340 N.4   1 <1>  -0.9590 
  8 C        3.2670    -3.2010    -0.7340 C.ar  1 <1>  -0.1440 
  9 C        4.2260     1.3940     0.6520 C.3   1 <1>   0.3430 
 10 C        4.5760    -3.1300    -1.1690 C.ar  1 <1>  -0.1500 
 11 C        2.9520    -4.2750     0.0750 C.ar  1 <1>  -0.1500 
 12 C        4.1030     2.9170     0.7150 C.3   1 <1>  -0.0220 
 13 C        5.4850    -4.0950    -0.7670 C.ar  1 <1>   0.1600 
 14 C        3.9360    -5.1860     0.4190 C.ar  1 <1>   0.1600 
 15 C        5.4920     3.5280     0.6580 C.2   1 <1>  -0.2880 
 16 N        5.1960    -5.1130     0.0250 N.ar  1 <1>  -0.6200 
 17 C        6.0940     4.1260    -0.3770 C.2   1 <1>  -0.2760 
 18 C        7.5000     4.7010    -0.2390 C.3   1 <1>  -0.0220 
 19 C        5.5080     4.3110    -1.7740 C.3   1 <1>  -0.1020 
 20 C        7.4890     6.2320    -0.2590 C.3   1 <1>  -0.2400 
 21 H       -0.6860    -0.4120     0.8040 H     1 <1>   0.4000 
 22 H        0.3410    -0.2690    -1.1770 H     1 <1>   0.0800 
 23 H        1.2230    -2.0080     0.7600 H     1 <1>   0.0800 
 24 H        1.5070     1.9500    -0.3500 H     1 <1>   0.0800 
 25 H        2.5020     0.8840    -1.3400 H     1 <1>   0.0800 
 26 H        3.9000    -1.1260     0.4570 H     1 <1>   0.0800 
 27 H        2.9340    -1.0360     1.9150 H     1 <1>   0.0800 
 28 H        2.6520    -1.5010    -1.8650 H     1 <1>   0.0800 
 29 H        1.3860    -2.6500    -1.5640 H     1 <1>   0.0800 
 30 H        2.3820     1.0630     1.5670 H     1 <1>   0.4500 
 31 H        4.8450     1.0660     1.4710 H     1 <1>   0.0800 
 32 H        4.7190     1.1190    -0.2660 H     1 <1>   0.0800 
 33 H        4.9080    -2.3410    -1.8200 H     1 <1>   0.1500 
 34 H        1.9520    -4.4220     0.4430 H     1 <1>   0.1500 
 35 H        3.5040     3.2790    -0.0970 H     1 <1>   0.0800 
 36 H        3.6330     3.2150     1.6360 H     1 <1>   0.0800 
 37 H        6.5020    -4.0290    -1.1160 H     1 <1>   0.1500 
 38 H        3.6760    -6.0190     1.0510 H     1 <1>   0.1500 
 39 H        5.9970     3.4370     1.6080 H     1 <1>   0.1500 
 40 H        7.9340     4.3800     0.6930 H     1 <1>   0.0800 
 41 H        8.1310     4.3300    -1.0290 H     1 <1>   0.0800 
 42 H        6.2080     3.9670    -2.5150 H     1 <1>   0.0800 
 43 H        5.3050     5.3510    -1.9570 H     1 <1>   0.0800 
 44 H        4.5960     3.7670    -1.9120 H     1 <1>   0.0800 
 45 H        6.8280     6.6060     0.5020 H     1 <1>   0.0800 
 46 H        7.1630     6.6000    -1.2150 H     1 <1>   0.0800 
 47 H        8.4780     6.6080    -0.0710 H     1 <1>   0.0800 
@<TRIPOS>BOND
  1   1   2  1   
  2   1  21  1   
  3   2   3  1   
  4   2   4  1   
  5   2  22  1   
  6   3   5  1   
  7   3   6  1   
  8   3  23  1   
  9   4   7  1   
 10   4  24  1   
 11   4  25  1   
 12   5   7  1   
 13   5  26  1   
 14   5  27  1   
 15   6   8  1   
 16   6  28  1   
 17   6  29  1   
 18   7   9  1   
 19   7  30  1   
 20   8  10  ar  
 21   8  11  ar  
 22   9  12  1   
 23   9  31  1   
 24   9  32  1   
 25  10  13  ar  
 26  10  33  1   
 27  11  14  ar  
 28  11  34  1   
 29  12  15  1   
 30  12  35  1   
 31  12  36  1   
 32  13  16  ar  
 33  13  37  1   
 34  14  16  ar  
 35  14  38  1   
 36  15  17  2   
 37  15  39  1   
 38  17  18  1   
 39  17  19  1   
 40  18  20  1   
 41  18  40  1   
 42  18  41  1   
 43  19  42  1   
 44  19  43  1   
 45  19  44  1   
 46  20  45  1   
 47  20  46  1   
 48  20  47  1   
@<TRIPOS>SUBSTRUCTURE
  1 ****   7 GROUP 4 **** **** 0

# MOE 2024.06 (io_trps.svl 2023.06)
