@<TRIPOS>MOLECULE
NONAME
24 25 1 0 0 
SMALL
USER_CHARGES


@<TRIPOS>ATOM
  1 O        8.8320     2.1250     0.8910 O.co2 1 <1>  -0.9000 
  2 C        8.5720     1.8190    -0.2760 C.2   1 <1>   0.9060 
  3 O        8.9420     2.4600    -1.2570 O.co2 1 <1>  -0.9000 
  4 C        7.7360     0.5760    -0.5000 C.3   1 <1>  -0.1860 
  5 C        6.3450     0.7720     0.1300 C.3   1 <1>  -0.0650 
  6 C        8.4520    -0.6700     0.0660 C.3   1 <1>  -0.1600 
  7 C        5.5500    -0.5330     0.1490 C.3   1 <1>   0.3010 
  8 C        7.5610    -1.9060     0.0310 C.3   1 <1>   0.3430 
  9 N        6.3060    -1.6200     0.7710 N.4   1 <1>  -0.7990 
 10 C        4.6560    -0.8990    -0.9830 C.3   1 <1>  -0.2000 
 11 C        4.0780    -0.5250     0.3580 C.3   1 <1>  -0.2000 
 12 H        7.6190     0.4570    -1.5630 H     1 <1>   0.0800 
 13 H        5.8140     1.5340    -0.4160 H     1 <1>   0.0800 
 14 H        6.4540     1.1280     1.1400 H     1 <1>   0.0800 
 15 H        8.7640    -0.4810     1.0790 H     1 <1>   0.0800 
 16 H        9.3430    -0.8500    -0.5100 H     1 <1>   0.0800 
 17 H        8.0790    -2.7370     0.4810 H     1 <1>   0.0800 
 18 H        7.3310    -2.1530    -0.9930 H     1 <1>   0.0800 
 19 H        5.7160    -2.4510     0.8400 H     1 <1>   0.4500 
 20 H        6.5570    -1.3080     1.7160 H     1 <1>   0.4500 
 21 H        4.5880    -1.9220    -1.3080 H     1 <1>   0.1000 
 22 H        4.5310    -0.2020    -1.7950 H     1 <1>   0.1000 
 23 H        3.5640     0.4190     0.4320 H     1 <1>   0.1000 
 24 H        3.6120    -1.2920     0.9520 H     1 <1>   0.1000 
@<TRIPOS>BOND
  1   1   2  ar  
  2   2   3  ar  
  3   2   4  1   
  4   4   5  1   
  5   4   6  1   
  6   4  12  1   
  7   5   7  1   
  8   5  13  1   
  9   5  14  1   
 10   6   8  1   
 11   6  15  1   
 12   6  16  1   
 13   7   9  1   
 14   7  10  1   
 15   7  11  1   
 16   8   9  1   
 17   8  17  1   
 18   8  18  1   
 19   9  19  1   
 20   9  20  1   
 21  10  11  1   
 22  10  21  1   
 23  10  22  1   
 24  11  23  1   
 25  11  24  1   
@<TRIPOS>SUBSTRUCTURE
  1 ****   5 GROUP 4 **** **** 0

# MOE 2024.06 (io_trps.svl 2023.06)
