@<TRIPOS>MOLECULE
NONAME
63 66 1 0 0 
SMALL
USER_CHARGES


@<TRIPOS>ATOM
  1 O        0.5620    -0.8070    -0.2800 O.2   1 <1>  -0.5700 
  2 C        0.1870    -1.9380    -0.5290 C.2   1 <1>   0.5440 
  3 N       -1.1160    -2.1460    -0.9370 N.am  1 <1>  -0.6600 
  4 C        1.1230    -3.0390    -0.3990 C.ar  1 <1>   0.0860 
  5 C       -1.6500    -3.4790    -1.3350 C.3   1 <1>   0.1400 
  6 C       -2.1080    -1.0370    -0.9870 C.3   1 <1>   0.1400 
  7 C        1.2820    -3.7440     0.8000 C.ar  1 <1>  -0.1440 
  8 C        1.8850    -3.4300    -1.4980 C.ar  1 <1>  -0.1500 
  9 C       -2.8580    -3.8340    -0.4640 C.3   1 <1>  -0.1600 
 10 C       -3.3110    -1.3840    -0.1070 C.3   1 <1>  -0.1600 
 11 C        2.1640    -4.8100     0.8710 C.ar  1 <1>  -0.1500 
 12 C        0.4920    -3.3400     2.0380 C.3   1 <1>  -0.0970 
 13 C        2.7650    -4.4930    -1.4230 C.ar  1 <1>  -0.1500 
 14 C       -3.9380    -2.7330    -0.5050 C.3   1 <1>  -0.0190 
 15 C        2.9030    -5.1870    -0.2360 C.ar  1 <1>  -0.1500 
 16 C       -5.1530    -3.0560     0.3770 C.2   1 <1>   0.5690 
 17 O       -4.9820    -3.7890     1.3240 O.2   1 <1>  -0.5700 
 18 N       -6.3940    -2.5330     0.0960 N.am  1 <1>  -0.6600 
 19 C       -7.5970    -2.9360     0.8910 C.3   1 <1>   0.1400 
 20 C       -6.7360    -1.5950    -1.0080 C.3   1 <1>   0.1400 
 21 C       -8.6300    -3.6590    -0.0110 C.3   1 <1>   0.0000 
 22 C       -7.7240    -2.2750    -1.9620 C.3   1 <1>  -0.1600 
 23 C       -9.8870    -4.0500     0.7830 C.3   1 <1>   0.2000 
 24 C       -8.9810    -2.7610    -1.2190 C.3   1 <1>  -0.1600 
 25 C       -8.0940    -5.0370    -0.4420 C.3   1 <1>  -0.1600 
 26 O      -10.2680    -3.0380     1.6680 O.3   1 <1>  -0.5600 
 27 C       -9.5240    -5.3400     1.5270 C.3   1 <1>  -0.1600 
 28 C       -8.3650    -5.9690     0.7430 C.3   1 <1>  -0.1600 
 29 C      -11.5450    -3.1770     2.2060 C.3   1 <1>   0.0400 
 30 H       -1.9440    -3.4400    -2.3690 H     1 <1>   0.0800 
 31 H       -0.9020    -4.2460    -1.2320 H     1 <1>   0.0800 
 32 H       -1.6700    -0.1150    -0.6450 H     1 <1>   0.0800 
 33 H       -2.4220    -0.8960    -2.0070 H     1 <1>   0.0800 
 34 H        1.7790    -2.8860    -2.4200 H     1 <1>   0.1500 
 35 H       -3.2800    -4.7640    -0.8020 H     1 <1>   0.0800 
 36 H       -2.5230    -3.9810     0.5470 H     1 <1>   0.0800 
 37 H       -2.9890    -1.4250     0.9190 H     1 <1>   0.0800 
 38 H       -4.0410    -0.5990    -0.1850 H     1 <1>   0.0800 
 39 H        2.2850    -5.3530     1.7920 H     1 <1>   0.1500 
 40 H        0.7450    -3.9570     2.8810 H     1 <1>   0.0800 
 41 H       -0.5630    -3.4320     1.8530 H     1 <1>   0.0800 
 42 H        0.7070    -2.3160     2.2910 H     1 <1>   0.0800 
 43 H        3.3430    -4.7790    -2.2850 H     1 <1>   0.1500 
 44 H       -4.2720    -2.6760    -1.5240 H     1 <1>   0.0800 
 45 H        3.5860    -6.0160    -0.1710 H     1 <1>   0.1500 
 46 H       -7.3170    -3.5690     1.7140 H     1 <1>   0.0800 
 47 H       -8.0390    -2.0490     1.3090 H     1 <1>   0.0800 
 48 H       -7.1930    -0.7170    -0.5840 H     1 <1>   0.0800 
 49 H       -5.8650    -1.2780    -1.5500 H     1 <1>   0.0800 
 50 H       -8.0110    -1.5790    -2.7300 H     1 <1>   0.0800 
 51 H       -7.2350    -3.1060    -2.4400 H     1 <1>   0.0800 
 52 H      -10.6950    -4.2390     0.0960 H     1 <1>   0.0800 
 53 H       -9.6240    -3.2880    -1.9020 H     1 <1>   0.0800 
 54 H       -9.5220    -1.9030    -0.8590 H     1 <1>   0.0800 
 55 H       -8.6480    -5.3910    -1.2940 H     1 <1>   0.0800 
 56 H       -7.0490    -5.0190    -0.6980 H     1 <1>   0.0800 
 57 H       -9.1980    -5.1130     2.5280 H     1 <1>   0.0800 
 58 H      -10.3680    -6.0050     1.5630 H     1 <1>   0.0800 
 59 H       -7.4900    -6.0170     1.3710 H     1 <1>   0.0800 
 60 H       -8.6040    -6.9630     0.4060 H     1 <1>   0.0800 
 61 H      -11.7290    -2.3330     2.8470 H     1 <1>   0.0800 
 62 H      -11.5960    -4.0850     2.7810 H     1 <1>   0.0800 
 63 H      -12.2670    -3.1910     1.4090 H     1 <1>   0.0800 
@<TRIPOS>BOND
  1   1   2  2   
  2   2   3  am  
  3   2   4  1   
  4   3   5  1   
  5   3   6  1   
  6   4   7  ar  
  7   4   8  ar  
  8   5   9  1   
  9   5  30  1   
 10   5  31  1   
 11   6  10  1   
 12   6  32  1   
 13   6  33  1   
 14   7  11  ar  
 15   7  12  1   
 16   8  13  ar  
 17   8  34  1   
 18   9  14  1   
 19   9  35  1   
 20   9  36  1   
 21  10  14  1   
 22  10  37  1   
 23  10  38  1   
 24  11  15  ar  
 25  11  39  1   
 26  12  40  1   
 27  12  41  1   
 28  12  42  1   
 29  13  15  ar  
 30  13  43  1   
 31  14  16  1   
 32  14  44  1   
 33  15  45  1   
 34  16  17  2   
 35  16  18  am  
 36  18  19  1   
 37  18  20  1   
 38  19  21  1   
 39  19  46  1   
 40  19  47  1   
 41  20  22  1   
 42  20  48  1   
 43  20  49  1   
 44  21  23  1   
 45  21  24  1   
 46  21  25  1   
 47  22  24  1   
 48  22  50  1   
 49  22  51  1   
 50  23  26  1   
 51  23  27  1   
 52  23  52  1   
 53  24  53  1   
 54  24  54  1   
 55  25  28  1   
 56  25  55  1   
 57  25  56  1   
 58  26  29  1   
 59  27  28  1   
 60  27  57  1   
 61  27  58  1   
 62  28  59  1   
 63  28  60  1   
 64  29  61  1   
 65  29  62  1   
 66  29  63  1   
@<TRIPOS>SUBSTRUCTURE
  1 ****  14 GROUP 4 **** **** 0

# MOE 2024.06 (io_trps.svl 2023.06)
