@<TRIPOS>MOLECULE
NONAME
64 68 1 0 0 
SMALL
USER_CHARGES


@<TRIPOS>ATOM
  1 O       -0.8200     0.9530     0.7130 O.3   1 <1>  -0.3630 
  2 C       -0.9170     2.0610     1.5170 C.ar  1 <1>   0.0830 
  3 C        0.4430     0.5200     0.2310 C.3   1 <1>   0.1200 
  4 C       -0.0670     3.1790     1.4400 C.ar  1 <1>   0.0830 
  5 C       -1.9470     2.0470     2.4550 C.ar  1 <1>  -0.1440 
  6 C        0.3710    -0.9680    -0.1030 C.3   1 <1>   0.0960 
  7 O        0.8860     3.2390     0.4660 O.3   1 <1>  -0.3630 
  8 C       -0.2350     4.2230     2.3450 C.ar  1 <1>  -0.1500 
  9 C       -2.0980     3.0990     3.3450 C.ar  1 <1>  -0.1500 
 10 C       -2.9330     0.8970     2.4970 C.3   1 <1>   0.4870 
 11 N        1.6640    -1.4130    -0.6520 N.pl3 1 <1>   0.0480 
 12 C        1.8310     4.2860     0.3920 C.3   1 <1>   0.0400 
 13 C       -1.2400     4.1800     3.2930 C.ar  1 <1>  -0.1500 
 14 N       -3.6430     0.8720     1.1950 N.4   1 <1>  -0.9590 
 15 C        2.6960    -1.9850     0.0080 C.2   1 <1>   0.0360 
 16 C        2.0810    -1.3260    -1.9280 C.2   1 <1>  -0.3020 
 17 C       -4.4580     2.1160     0.9780 C.3   1 <1>   0.3430 
 18 C       -4.4500    -0.3590     0.9900 C.3   1 <1>   0.3430 
 19 N        3.7130    -2.2580    -0.7430 N.2   1 <1>  -0.5650 
 20 C        3.3280    -1.8440    -1.9640 C.2   1 <1>   0.0770 
 21 C       -5.0040     2.1820    -0.4560 C.3   1 <1>   0.1430 
 22 C       -4.9870    -0.3790    -0.4460 C.3   1 <1>  -0.1600 
 23 C       -5.9050     3.3870    -0.5670 C.ar  1 <1>   0.1670 
 24 C       -5.7860     0.8930    -0.7890 C.3   1 <1>  -0.1600 
 25 C       -3.8990     2.4880    -1.5040 C.3   1 <1>  -0.1600 
 26 N       -6.8490     3.6910     0.2930 N.ar  1 <1>  -0.6200 
 27 C       -5.6160     4.1390    -1.6640 C.ar  1 <1>  -0.1430 
 28 C       -4.4750     3.5530    -2.4580 C.3   1 <1>  -0.0170 
 29 C       -7.5170     4.7990    -0.0070 C.ar  1 <1>   0.4770 
 30 C       -6.3670     5.2680    -1.8750 C.ar  1 <1>   0.1600 
 31 N       -7.3300     5.6070    -1.0420 N.ar  1 <1>  -0.6200 
 32 C       -8.6240     5.1960     0.9380 C.3   1 <1>  -0.0970 
 33 H        1.1830     0.6970     0.9930 H     1 <1>   0.0800 
 34 H        0.6770     1.0870    -0.6540 H     1 <1>   0.0800 
 35 H       -0.3890    -1.1470    -0.8400 H     1 <1>   0.0800 
 36 H        0.1590    -1.5370     0.7830 H     1 <1>   0.0800 
 37 H        0.4000     5.0880     2.3310 H     1 <1>   0.1500 
 38 H       -2.8820     3.0960     4.0850 H     1 <1>   0.1500 
 39 H       -3.6320     1.0270     3.3060 H     1 <1>   0.0800 
 40 H       -2.3940    -0.0250     2.6450 H     1 <1>   0.0800 
 41 H        2.4980     4.0790    -0.4260 H     1 <1>   0.0800 
 42 H        2.3870     4.3240     1.3130 H     1 <1>   0.0800 
 43 H        1.3150     5.2130     0.2140 H     1 <1>   0.0800 
 44 H       -1.3550     4.9950     3.9890 H     1 <1>   0.1500 
 45 H       -2.8760     0.8900     0.5030 H     1 <1>   0.4500 
 46 H        2.6620    -2.1880     1.0640 H     1 <1>   0.1500 
 47 H        1.4920    -0.9120    -2.7260 H     1 <1>   0.1500 
 48 H       -3.8620     2.9950     1.1620 H     1 <1>   0.0800 
 49 H       -5.2900     2.1310     1.6640 H     1 <1>   0.0800 
 50 H       -5.2770    -0.3720     1.6820 H     1 <1>   0.0800 
 51 H       -3.8460    -1.2350     1.1610 H     1 <1>   0.0800 
 52 H        3.9790    -1.9440    -2.8160 H     1 <1>   0.1500 
 53 H       -5.6260    -1.2370    -0.5650 H     1 <1>   0.0800 
 54 H       -4.1660    -0.5000    -1.1300 H     1 <1>   0.0800 
 55 H       -6.0640     0.8880    -1.8300 H     1 <1>   0.0800 
 56 H       -6.7010     0.8880    -0.2190 H     1 <1>   0.0800 
 57 H       -3.5800     1.6170    -2.0480 H     1 <1>   0.0800 
 58 H       -3.0400     2.9140    -1.0130 H     1 <1>   0.0800 
 59 H       -4.8580     3.0980    -3.3560 H     1 <1>   0.0800 
 60 H       -3.7420     4.3000    -2.7120 H     1 <1>   0.0800 
 61 H       -6.1840     5.9000    -2.7280 H     1 <1>   0.1500 
 62 H       -8.7280     4.4770     1.7280 H     1 <1>   0.0800 
 63 H       -9.5500     5.2570     0.3970 H     1 <1>   0.0800 
 64 H       -8.4030     6.1570     1.3630 H     1 <1>   0.0800 
@<TRIPOS>BOND
  1   1   2  1   
  2   1   3  1   
  3   2   4  ar  
  4   2   5  ar  
  5   3   6  1   
  6   3  33  1   
  7   3  34  1   
  8   4   7  1   
  9   4   8  ar  
 10   5   9  ar  
 11   5  10  1   
 12   6  11  1   
 13   6  35  1   
 14   6  36  1   
 15   7  12  1   
 16   8  13  ar  
 17   8  37  1   
 18   9  13  ar  
 19   9  38  1   
 20  10  14  1   
 21  10  39  1   
 22  10  40  1   
 23  11  15  1   
 24  11  16  1   
 25  12  41  1   
 26  12  42  1   
 27  12  43  1   
 28  13  44  1   
 29  14  17  1   
 30  14  18  1   
 31  14  45  1   
 32  15  19  2   
 33  15  46  1   
 34  16  20  2   
 35  16  47  1   
 36  17  21  1   
 37  17  48  1   
 38  17  49  1   
 39  18  22  1   
 40  18  50  1   
 41  18  51  1   
 42  19  20  1   
 43  20  52  1   
 44  21  23  1   
 45  21  24  1   
 46  21  25  1   
 47  22  24  1   
 48  22  53  1   
 49  22  54  1   
 50  23  26  ar  
 51  23  27  ar  
 52  24  55  1   
 53  24  56  1   
 54  25  28  1   
 55  25  57  1   
 56  25  58  1   
 57  26  29  ar  
 58  27  28  1   
 59  27  30  ar  
 60  28  59  1   
 61  28  60  1   
 62  29  31  ar  
 63  29  32  1   
 64  30  31  ar  
 65  30  61  1   
 66  32  62  1   
 67  32  63  1   
 68  32  64  1   
@<TRIPOS>SUBSTRUCTURE
  1 ****  14 GROUP 4 **** **** 0

# MOE 2024.06 (io_trps.svl 2023.06)
