@<TRIPOS>MOLECULE
NONAME
45 46 1 0 0 
SMALL
USER_CHARGES


@<TRIPOS>ATOM
  1 S        1.4940    -1.7330     2.1780 S.o2  1 <1>   1.5000 
  2 O        1.3820    -1.6300     3.6130 O.2   1 <1>  -0.6500 
  3 O        2.5960    -2.4690     1.5990 O.2   1 <1>  -0.6500 
  4 N        0.0820    -2.5110     1.7150 N.am  1 <1>  -0.9140 
  5 C        1.3220    -0.0980     1.4260 C.2   1 <1>  -0.0220 
  6 C        0.2050    -3.3640     0.5390 C.3   1 <1>   0.2760 
  7 S        1.2570     0.0050    -0.3320 S.3   1 <1>  -0.0800 
  8 C        1.2070     1.1420     1.9460 C.2   1 <1>  -0.1500 
  9 C       -1.1780    -3.6600    -0.0200 C.3   1 <1>  -0.0800 
 10 C        0.6320    -4.7670     0.9610 C.3   1 <1>   0.1200 
 11 C        1.0730     1.7490    -0.2960 C.2   1 <1>  -0.1400 
 12 C        1.0670     2.1860     0.9770 C.2   1 <1>  -0.1500 
 13 C       -1.6500    -4.8480     0.8300 C.3   1 <1>   0.1200 
 14 C       -2.1460    -2.4590    -0.0310 C.3   1 <1>  -0.0550 
 15 O       -0.5220    -5.3320     1.5000 O.3   1 <1>  -0.5600 
 16 C        0.9560     2.4450    -1.6410 C.3   1 <1>   0.0200 
 17 S       -3.6870    -2.8120    -0.8690 S.o2  1 <1>   1.3330 
 18 C        0.7900     3.9600    -1.4960 C.3   1 <1>  -0.2400 
 19 O       -3.3700    -3.1240    -2.2440 O.2   1 <1>  -0.6500 
 20 O       -4.4510    -3.7540    -0.0810 O.2   1 <1>  -0.6500 
 21 N       -4.5000    -1.3220    -0.8350 N.am  1 <1>  -0.8490 
 22 C       -5.1640    -1.0510     0.4450 C.3   1 <1>   0.1160 
 23 C       -5.4640    -1.1950    -1.9320 C.3   1 <1>   0.1160 
 24 H       -0.1200    -3.1430     2.4930 H     1 <1>   0.4200 
 25 H        0.8560    -2.9310    -0.2040 H     1 <1>   0.0800 
 26 H        1.2120     1.3670     2.9990 H     1 <1>   0.1500 
 27 H       -1.0590    -4.0100    -1.0310 H     1 <1>   0.0800 
 28 H        1.4200    -4.7770     1.6930 H     1 <1>   0.0800 
 29 H        0.9220    -5.3530     0.1060 H     1 <1>   0.0800 
 30 H        0.9700     3.2110     1.2880 H     1 <1>   0.1500 
 31 H       -2.0620    -5.6370     0.2230 H     1 <1>   0.0800 
 32 H       -2.3700    -4.5540     1.5750 H     1 <1>   0.0800 
 33 H       -1.6670    -1.6370    -0.5280 H     1 <1>   0.0800 
 34 H       -2.3540    -2.1530     0.9760 H     1 <1>   0.0800 
 35 H        1.8390     2.2370    -2.2200 H     1 <1>   0.0800 
 36 H        0.1090     2.0430    -2.1700 H     1 <1>   0.0800 
 37 H        1.6390     4.3800    -0.9870 H     1 <1>   0.0800 
 38 H       -0.1010     4.1860    -0.9380 H     1 <1>   0.0800 
 39 H        0.7120     4.4160    -2.4670 H     1 <1>   0.0800 
 40 H       -5.5920    -0.0630     0.4370 H     1 <1>   0.0800 
 41 H       -4.4550    -1.1060     1.2520 H     1 <1>   0.0800 
 42 H       -5.9470    -1.7710     0.6230 H     1 <1>   0.0800 
 43 H       -5.9490    -0.2350    -1.8940 H     1 <1>   0.0800 
 44 H       -6.2080    -1.9720    -1.8690 H     1 <1>   0.0800 
 45 H       -4.9580    -1.2780    -2.8790 H     1 <1>   0.0800 
@<TRIPOS>BOND
  1   1   2  2   
  2   1   3  2   
  3   1   4  am  
  4   1   5  1   
  5   4   6  1   
  6   4  24  1   
  7   5   7  1   
  8   5   8  2   
  9   6   9  1   
 10   6  10  1   
 11   6  25  1   
 12   7  11  1   
 13   8  12  1   
 14   8  26  1   
 15   9  13  1   
 16   9  14  1   
 17   9  27  1   
 18  10  15  1   
 19  10  28  1   
 20  10  29  1   
 21  11  12  2   
 22  11  16  1   
 23  12  30  1   
 24  13  15  1   
 25  13  31  1   
 26  13  32  1   
 27  14  17  1   
 28  14  33  1   
 29  14  34  1   
 30  16  18  1   
 31  16  35  1   
 32  16  36  1   
 33  17  19  2   
 34  17  20  2   
 35  17  21  am  
 36  18  37  1   
 37  18  38  1   
 38  18  39  1   
 39  21  22  1   
 40  21  23  1   
 41  22  40  1   
 42  22  41  1   
 43  22  42  1   
 44  23  43  1   
 45  23  44  1   
 46  23  45  1   
@<TRIPOS>SUBSTRUCTURE
  1 ****  14 GROUP 4 **** **** 0

# MOE 2024.06 (io_trps.svl 2023.06)
