@<TRIPOS>MOLECULE
NONAME
45 48 1 0 0 
SMALL
USER_CHARGES


@<TRIPOS>ATOM
  1 O       -1.5700     0.6750    -1.8290 O.2   1 <1>  -0.5700 
  2 C       -1.6350     0.8910    -0.6300 C.2   1 <1>   0.7160 
  3 N       -1.9230    -0.1380     0.2210 N.am  1 <1>  -0.5100 
  4 C       -1.3830     2.1970    -0.1210 C.2   1 <1>  -0.0860 
  5 C       -2.7340    -1.3380    -0.1490 C.3   1 <1>   0.2250 
  6 C       -2.7260     0.0110     1.4800 C.3   1 <1>   0.2250 
  7 C       -2.3540     3.1680     0.1230 C.2   1 <1>   0.3720 
  8 C       -0.2290     2.7860     0.2860 C.2   1 <1>   0.0870 
  9 C       -3.1170    -1.4740     1.3410 C.3   1 <1>   0.0000 
 10 C       -1.8630    -2.4660    -0.6950 C.3   1 <1>  -0.2400 
 11 N       -1.8320     4.2250     0.6400 N.2   1 <1>  -0.4100 
 12 N       -3.7190     3.0090    -0.1440 N.pl3 1 <1>  -0.8210 
 13 O       -0.5510     3.9760     0.7270 O.3   1 <1>  -0.0190 
 14 C        1.1390     2.3320     0.3140 C.ar  1 <1>   0.0530 
 15 C       -4.6330     3.9120     0.6210 C.3   1 <1>   0.2090 
 16 C       -4.0610     3.0490    -1.5990 C.3   1 <1>   0.2090 
 17 C        2.0290     2.8070     1.2770 C.ar  1 <1>  -0.1500 
 18 C        1.6270     1.4070    -0.6100 C.ar  1 <1>  -0.1500 
 19 C       -6.1060     3.5920     0.3100 C.3   1 <1>   0.1200 
 20 C       -5.5590     2.7670    -1.8180 C.3   1 <1>   0.1200 
 21 C        3.3410     2.3740     1.3250 C.ar  1 <1>  -0.1500 
 22 C        2.9370     0.9680    -0.5670 C.ar  1 <1>  -0.1500 
 23 O       -6.3510     3.6470    -1.0690 O.3   1 <1>  -0.5600 
 24 C        3.7980     1.4510     0.4020 C.ar  1 <1>  -0.1500 
 25 H       -3.5620    -1.0680    -0.7810 H     1 <1>   0.0000 
 26 H       -3.5520     0.6870     1.3490 H     1 <1>   0.0000 
 27 H       -2.1060     0.2210     2.3330 H     1 <1>   0.0000 
 28 H       -2.4710    -2.1280     1.9010 H     1 <1>   0.0000 
 29 H       -4.1620    -1.6660     1.5070 H     1 <1>   0.0000 
 30 H       -1.0230    -2.6490    -0.0480 H     1 <1>   0.0800 
 31 H       -1.5040    -2.2030    -1.6740 H     1 <1>   0.0800 
 32 H       -2.4430    -3.3670    -0.7760 H     1 <1>   0.0800 
 33 H       -4.4330     4.9390     0.3640 H     1 <1>   0.0800 
 34 H       -4.4540     3.7910     1.6750 H     1 <1>   0.0800 
 35 H       -3.4870     2.3150    -2.1360 H     1 <1>   0.0800 
 36 H       -3.8190     4.0180    -2.0010 H     1 <1>   0.0800 
 37 H        1.6860     3.5250     2.0020 H     1 <1>   0.1500 
 38 H        0.9810     1.0260    -1.3800 H     1 <1>   0.1500 
 39 H       -6.7500     4.3090     0.7870 H     1 <1>   0.0800 
 40 H       -6.3580     2.6080     0.6650 H     1 <1>   0.0800 
 41 H       -5.7950     1.7580    -1.5270 H     1 <1>   0.0800 
 42 H       -5.8120     2.8980    -2.8540 H     1 <1>   0.0800 
 43 H        4.0080     2.7550     2.0790 H     1 <1>   0.1500 
 44 H        3.2890     0.2530    -1.2900 H     1 <1>   0.1500 
 45 H        4.8190     1.1100     0.4370 H     1 <1>   0.1500 
@<TRIPOS>BOND
  1   1   2  2   
  2   2   3  am  
  3   2   4  1   
  4   3   5  1   
  5   3   6  1   
  6   4   7  1   
  7   4   8  2   
  8   5   9  1   
  9   5  10  1   
 10   5  25  1   
 11   6   9  1   
 12   6  26  1   
 13   6  27  1   
 14   7  11  2   
 15   7  12  1   
 16   8  13  1   
 17   8  14  1   
 18   9  28  1   
 19   9  29  1   
 20  10  30  1   
 21  10  31  1   
 22  10  32  1   
 23  11  13  1   
 24  12  15  1   
 25  12  16  1   
 26  14  17  ar  
 27  14  18  ar  
 28  15  19  1   
 29  15  33  1   
 30  15  34  1   
 31  16  20  1   
 32  16  35  1   
 33  16  36  1   
 34  17  21  ar  
 35  17  37  1   
 36  18  22  ar  
 37  18  38  1   
 38  19  23  1   
 39  19  39  1   
 40  19  40  1   
 41  20  23  1   
 42  20  41  1   
 43  20  42  1   
 44  21  24  ar  
 45  21  43  1   
 46  22  24  ar  
 47  22  44  1   
 48  24  45  1   
@<TRIPOS>SUBSTRUCTURE
  1 ****   4 GROUP 4 **** **** 0

# MOE 2024.06 (io_trps.svl 2023.06)
