@<TRIPOS>MOLECULE
NONAME
43 46 1 0 0 
SMALL
USER_CHARGES


@<TRIPOS>ATOM
  1 O       -1.5850     0.8020    -1.5500 O.2   1 <1>  -0.5700 
  2 C       -1.4880     0.7730    -0.3340 C.2   1 <1>   0.7160 
  3 N       -1.6810    -0.4180     0.3020 N.am  1 <1>  -0.7300 
  4 C       -1.1930     1.9560     0.4600 C.2   1 <1>   0.2030 
  5 C       -2.0810    -1.6940    -0.3260 C.3   1 <1>   0.2200 
  6 N       -1.1320     2.0000     1.7880 N.2   1 <1>  -0.7070 
  7 C       -0.9300     3.2300    -0.0560 C.2   1 <1>  -0.1810 
  8 C       -3.5660    -1.9160    -0.0950 C.3   1 <1>  -0.0800 
  9 C       -1.4520    -2.8710     0.4200 C.3   1 <1>   0.1200 
 10 N       -0.8350     3.2790     2.0950 N.pl3 1 <1>   0.3000 
 11 C       -0.7130     4.0230     0.9830 C.2   1 <1>  -0.3320 
 12 C       -0.8170     3.9560    -1.3670 C.3   1 <1>   0.0210 
 13 C       -3.5650    -2.5630     1.2890 C.3   1 <1>   0.1200 
 14 C       -4.1740    -2.8360    -1.1700 C.3   1 <1>  -0.0160 
 15 O       -2.3790    -3.2930     1.3800 O.3   1 <1>  -0.5600 
 16 C       -0.4090     5.4480     0.6200 C.3   1 <1>   0.0200 
 17 C       -0.5340     5.4160    -0.9250 C.3   1 <1>  -0.1600 
 18 C       -5.6650    -3.0330    -0.9480 C.ar  1 <1>  -0.1430 
 19 C       -6.1820    -4.2050    -0.4350 C.ar  1 <1>  -0.1500 
 20 C       -6.5790    -2.0440    -1.2490 C.ar  1 <1>  -0.1500 
 21 C       -7.5500    -4.3260    -0.2480 C.ar  1 <1>   0.1600 
 22 C       -7.9270    -2.2650    -1.0240 C.ar  1 <1>   0.1600 
 23 N       -8.4350    -3.3830    -0.5290 N.ar  1 <1>  -0.6200 
 24 H       -1.6300    -0.3910     1.3250 H     1 <1>   0.3700 
 25 H       -1.8120    -1.6910    -1.3690 H     1 <1>   0.0800 
 26 H       -4.1050    -0.9840    -0.0880 H     1 <1>   0.0800 
 27 H       -0.5290    -2.6040     0.9050 H     1 <1>   0.0800 
 28 H       -1.2850    -3.6960    -0.2490 H     1 <1>   0.0800 
 29 H       -0.7220     3.6100     3.0610 H     1 <1>   0.2700 
 30 H       -0.0030     3.5540    -1.9440 H     1 <1>   0.0800 
 31 H       -1.7350     3.8790    -1.9230 H     1 <1>   0.0800 
 32 H       -4.4000    -3.2200     1.4560 H     1 <1>   0.0800 
 33 H       -3.5430    -1.8100     2.0580 H     1 <1>   0.0800 
 34 H       -3.6770    -3.7910    -1.1670 H     1 <1>   0.0800 
 35 H       -4.0260    -2.3960    -2.1410 H     1 <1>   0.0800 
 36 H       -1.1240     6.1220     1.0570 H     1 <1>   0.0800 
 37 H        0.5890     5.7130     0.9240 H     1 <1>   0.0800 
 38 H       -1.3490     6.0480    -1.2330 H     1 <1>   0.0800 
 39 H        0.3710     5.7740    -1.3820 H     1 <1>   0.0800 
 40 H       -5.5360    -5.0240    -0.1760 H     1 <1>   0.1500 
 41 H       -6.2550    -1.1030    -1.6550 H     1 <1>   0.1500 
 42 H       -7.9350    -5.2470     0.1540 H     1 <1>   0.1500 
 43 H       -8.6250    -1.4810    -1.2630 H     1 <1>   0.1500 
@<TRIPOS>BOND
  1   1   2  2   
  2   2   3  am  
  3   2   4  1   
  4   3   5  1   
  5   3  24  1   
  6   4   6  2   
  7   4   7  1   
  8   5   8  1   
  9   5   9  1   
 10   5  25  1   
 11   6  10  1   
 12   7  11  2   
 13   7  12  1   
 14   8  13  1   
 15   8  14  1   
 16   8  26  1   
 17   9  15  1   
 18   9  27  1   
 19   9  28  1   
 20  10  11  1   
 21  10  29  1   
 22  11  16  1   
 23  12  17  1   
 24  12  30  1   
 25  12  31  1   
 26  13  15  1   
 27  13  32  1   
 28  13  33  1   
 29  14  18  1   
 30  14  34  1   
 31  14  35  1   
 32  16  17  1   
 33  16  36  1   
 34  16  37  1   
 35  17  38  1   
 36  17  39  1   
 37  18  19  ar  
 38  18  20  ar  
 39  19  21  ar  
 40  19  40  1   
 41  20  22  ar  
 42  20  41  1   
 43  21  23  ar  
 44  21  42  1   
 45  22  23  ar  
 46  22  43  1   
@<TRIPOS>SUBSTRUCTURE
  1 ****   3 GROUP 4 **** **** 0

# MOE 2024.06 (io_trps.svl 2023.06)
