@<TRIPOS>MOLECULE
NONAME
34 34 1 0 0 
SMALL
USER_CHARGES


@<TRIPOS>ATOM
  1 S        0.8130     0.3100     0.8820 S.o2  1 <1>   1.0900 
  2 O        2.2280     0.0230     0.8690 O.2   1 <1>  -0.6500 
  3 O        0.0220     0.0030     2.0480 O.2   1 <1>  -0.6500 
  4 C        0.6110     2.0550     0.5280 C.3   1 <1>  -0.0550 
  5 C        0.0660    -0.5110    -0.5140 C.3   1 <1>  -0.1350 
  6 C        1.4960     2.5540    -0.6260 C.3   1 <1>  -0.0990 
  7 C        1.2940     4.0370    -0.8330 C.2   1 <1>   0.5690 
  8 O        0.2610     4.3900    -1.3450 O.2   1 <1>  -0.5700 
  9 N        2.2760     4.8880    -0.4090 N.am  1 <1>  -0.4940 
 10 C        2.3070     6.3050    -0.4580 C.2   1 <1>  -0.0880 
 11 N        3.3010     7.0860     0.0470 N.pl3 1 <1>   0.3140 
 12 C        1.4000     7.1570    -0.9920 C.2   1 <1>  -0.1500 
 13 N        3.0510     8.3990    -0.1490 N.2   1 <1>  -0.7070 
 14 C        4.5240     6.6470     0.7490 C.3   1 <1>   0.0960 
 15 C        1.9130     8.4270    -0.7710 C.2   1 <1>   0.1390 
 16 C        5.6020     6.1990    -0.2490 C.3   1 <1>  -0.1600 
 17 C        6.8580     5.6990     0.4730 C.3   1 <1>  -0.2400 
 18 H        0.8620     2.6120     1.4110 H     1 <1>   0.0800 
 19 H       -0.4190     2.2640     0.3040 H     1 <1>   0.0800 
 20 H        0.1150    -1.5740    -0.3780 H     1 <1>   0.0800 
 21 H        0.5800    -0.2660    -1.4230 H     1 <1>   0.0800 
 22 H       -0.9650    -0.2320    -0.6090 H     1 <1>   0.0800 
 23 H        1.2350     2.0500    -1.5380 H     1 <1>   0.0800 
 24 H        2.5300     2.3490    -0.4150 H     1 <1>   0.0800 
 25 H        3.0990     4.4400    -0.0070 H     1 <1>   0.3700 
 26 H        0.4740     6.9250    -1.4870 H     1 <1>   0.1500 
 27 H        4.2680     5.8470     1.4170 H     1 <1>   0.0800 
 28 H        4.8880     7.4740     1.3330 H     1 <1>   0.0800 
 29 H        1.4280     9.3390    -1.0780 H     1 <1>   0.1500 
 30 H        5.8660     7.0350    -0.8770 H     1 <1>   0.0800 
 31 H        5.2190     5.4130    -0.8770 H     1 <1>   0.0800 
 32 H        7.2730     6.4780     1.0900 H     1 <1>   0.0800 
 33 H        7.6030     5.4050    -0.2460 H     1 <1>   0.0800 
 34 H        6.6300     4.8500     1.0940 H     1 <1>   0.0800 
@<TRIPOS>BOND
  1   1   2  2   
  2   1   3  2   
  3   1   4  1   
  4   1   5  1   
  5   4   6  1   
  6   4  18  1   
  7   4  19  1   
  8   5  20  1   
  9   5  21  1   
 10   5  22  1   
 11   6   7  1   
 12   6  23  1   
 13   6  24  1   
 14   7   8  2   
 15   7   9  am  
 16   9  10  1   
 17   9  25  1   
 18  10  11  1   
 19  10  12  2   
 20  11  13  1   
 21  11  14  1   
 22  12  15  1   
 23  12  26  1   
 24  13  15  2   
 25  14  16  1   
 26  14  27  1   
 27  14  28  1   
 28  15  29  1   
 29  16  17  1   
 30  16  30  1   
 31  16  31  1   
 32  17  32  1   
 33  17  33  1   
 34  17  34  1   
@<TRIPOS>SUBSTRUCTURE
  1 ****   9 GROUP 4 **** **** 0

# MOE 2024.06 (io_trps.svl 2023.06)
