@<TRIPOS>MOLECULE
NONAME
52 53 1 0 0 
SMALL
USER_CHARGES


@<TRIPOS>ATOM
  1 O       -0.8610     1.0830    -1.5460 O.2   1 <1>  -0.5700 
  2 C       -0.3850     0.5010    -0.5990 C.2   1 <1>   0.5690 
  3 N        0.7680     0.9210    -0.0210 N.am  1 <1>  -0.7300 
  4 C       -1.1120    -0.7210    -0.0200 C.3   1 <1>   0.1710 
  5 C        1.7320     1.8080    -0.6680 C.3   1 <1>   0.3640 
  6 N       -0.4950    -2.0520    -0.3030 N.3   1 <1>  -0.8100 
  7 C        3.1070     1.1510    -0.5000 C.ar  1 <1>  -0.1430 
  8 C        1.5900     3.2020    -0.0600 C.3   1 <1>  -0.2400 
  9 C       -1.4720    -3.1440    -0.0700 C.3   1 <1>   0.2900 
 10 C        0.8080    -2.2610     0.3460 C.3   1 <1>   0.0300 
 11 C        3.5430     0.1860    -1.4090 C.ar  1 <1>  -0.1430 
 12 C        3.9320     1.4800     0.5730 C.ar  1 <1>  -0.1500 
 13 C       -0.9690    -4.5360    -0.4550 C.2   1 <1>   0.0070 
 14 C        4.7830    -0.4100    -1.2350 C.ar  1 <1>  -0.1500 
 15 C        2.6980    -0.2530    -2.6010 C.3   1 <1>  -0.0970 
 16 C        5.1670     0.8800     0.7430 C.ar  1 <1>  -0.1430 
 17 N       -1.0360    -5.0100    -1.6610 N.2   1 <1>  -0.5650 
 18 N       -0.4390    -5.4140     0.4380 N.pl3 1 <1>   0.0480 
 19 C        5.5920    -0.0660    -0.1690 C.ar  1 <1>  -0.1500 
 20 C        6.0500     1.2650     1.9170 C.3   1 <1>  -0.0970 
 21 C       -0.5150    -6.2440    -1.5590 C.2   1 <1>   0.0770 
 22 C       -0.1470    -6.5090    -0.2880 C.2   1 <1>  -0.3020 
 23 C       -0.2350    -5.2770     1.8960 C.3   1 <1>   0.0960 
 24 C       -1.4570    -5.7950     2.6620 C.3   1 <1>  -0.2400 
 25 H        1.1990     0.3450     0.6990 H     1 <1>   0.3700 
 26 H       -2.1030    -0.7060    -0.4400 H     1 <1>   0.0800 
 27 H       -1.2100    -0.5890     1.0420 H     1 <1>   0.0800 
 28 H        1.5010     1.8880    -1.7170 H     1 <1>   0.0800 
 29 H        1.6400     3.1690     1.0120 H     1 <1>   0.0800 
 30 H        0.6410     3.6180    -0.3490 H     1 <1>   0.0800 
 31 H        2.3680     3.8410    -0.4340 H     1 <1>   0.0800 
 32 H       -2.3430    -2.9500    -0.6720 H     1 <1>   0.0800 
 33 H       -1.7810    -3.1400     0.9590 H     1 <1>   0.0800 
 34 H        1.5190    -1.5330    -0.0010 H     1 <1>   0.0800 
 35 H        1.2040    -3.2260     0.0810 H     1 <1>   0.0800 
 36 H        0.7180    -2.1910     1.4150 H     1 <1>   0.0800 
 37 H        3.6230     2.2110     1.2960 H     1 <1>   0.1500 
 38 H        5.1290    -1.1520    -1.9330 H     1 <1>   0.1500 
 39 H        1.7270    -0.5830    -2.2770 H     1 <1>   0.0800 
 40 H        3.1610    -1.0680    -3.1260 H     1 <1>   0.0800 
 41 H        2.5760     0.5630    -3.2900 H     1 <1>   0.0800 
 42 H        6.5510    -0.5400    -0.0560 H     1 <1>   0.1500 
 43 H        5.4500     1.4760     2.7840 H     1 <1>   0.0800 
 44 H        6.6220     2.1400     1.6690 H     1 <1>   0.0800 
 45 H        6.7260     0.4650     2.1600 H     1 <1>   0.0800 
 46 H       -0.4320    -6.8850    -2.4200 H     1 <1>   0.1500 
 47 H        0.2930    -7.3960     0.1250 H     1 <1>   0.1500 
 48 H       -0.0600    -4.2460     2.1350 H     1 <1>   0.0800 
 49 H        0.6380    -5.8410     2.1730 H     1 <1>   0.0800 
 50 H       -2.3350    -5.2340     2.3940 H     1 <1>   0.0800 
 51 H       -1.2950    -5.6930     3.7200 H     1 <1>   0.0800 
 52 H       -1.6210    -6.8350     2.4410 H     1 <1>   0.0800 
@<TRIPOS>BOND
  1   1   2  2   
  2   2   3  am  
  3   2   4  1   
  4   3   5  1   
  5   3  25  1   
  6   4   6  1   
  7   4  26  1   
  8   4  27  1   
  9   5   7  1   
 10   5   8  1   
 11   5  28  1   
 12   6   9  1   
 13   6  10  1   
 14   7  11  ar  
 15   7  12  ar  
 16   8  29  1   
 17   8  30  1   
 18   8  31  1   
 19   9  13  1   
 20   9  32  1   
 21   9  33  1   
 22  10  34  1   
 23  10  35  1   
 24  10  36  1   
 25  11  14  ar  
 26  11  15  1   
 27  12  16  ar  
 28  12  37  1   
 29  13  17  2   
 30  13  18  1   
 31  14  19  ar  
 32  14  38  1   
 33  15  39  1   
 34  15  40  1   
 35  15  41  1   
 36  16  19  ar  
 37  16  20  1   
 38  17  21  1   
 39  18  22  1   
 40  18  23  1   
 41  19  42  1   
 42  20  43  1   
 43  20  44  1   
 44  20  45  1   
 45  21  22  2   
 46  21  46  1   
 47  22  47  1   
 48  23  24  1   
 49  23  48  1   
 50  23  49  1   
 51  24  50  1   
 52  24  51  1   
 53  24  52  1   
@<TRIPOS>SUBSTRUCTURE
  1 ****  10 GROUP 4 **** **** 0

# MOE 2024.06 (io_trps.svl 2023.06)
