@<TRIPOS>MOLECULE
NONAME
55 59 1 0 0 
SMALL
USER_CHARGES


@<TRIPOS>ATOM
  1 N        0.4880     0.2020     0.3210 N.ar  1 <1>  -0.6200 
  2 C       -0.6610     0.8200     0.6380 C.ar  1 <1>   0.6200 
  3 C        1.1610     0.7400    -0.6650 C.ar  1 <1>   0.1660 
  4 N       -1.1270     1.9280     0.0440 N.ar  1 <1>  -0.6200 
  5 C       -1.4620     0.2460     1.7100 C.ar  1 <1>   0.0000 
  6 C        0.7670     1.8620    -1.3210 C.ar  1 <1>  -0.1430 
  7 C        2.4670     0.2030    -1.2000 C.3   1 <1>   0.1440 
  8 C       -0.4110     2.4430    -0.9300 C.ar  1 <1>   0.1600 
  9 C       -0.8750    -0.4130     2.7940 C.ar  1 <1>  -0.1500 
 10 C       -2.8570     0.3270     1.7010 C.ar  1 <1>  -0.1500 
 11 C        1.7530     2.2580    -2.3920 C.3   1 <1>  -0.0160 
 12 C        3.3840    -0.1280    -0.0080 C.3   1 <1>   0.3430 
 13 C        2.2100    -1.0610    -2.0460 C.3   1 <1>  -0.1600 
 14 C        2.9820     1.3860    -2.0650 C.3   1 <1>  -0.1600 
 15 C       -1.6370    -0.9620     3.8110 C.ar  1 <1>  -0.1500 
 16 C       -3.6250    -0.2190     2.7130 C.ar  1 <1>  -0.1500 
 17 N        4.6660    -0.8040    -0.4310 N.4   1 <1>  -0.9590 
 18 C        3.5160    -1.7950    -2.3950 C.3   1 <1>  -0.1600 
 19 C       -3.0160    -0.8660     3.7720 C.ar  1 <1>  -0.1500 
 20 C        4.3600    -2.0820    -1.1500 C.3   1 <1>   0.3430 
 21 C        5.5340    -1.0140     0.7770 C.3   1 <1>   0.3430 
 22 C        6.9540    -1.4830     0.4330 C.3   1 <1>   0.0960 
 23 N        7.7050    -1.6210     1.6900 N.pl3 1 <1>   0.0480 
 24 C        8.4370    -0.7180     2.3530 C.2   1 <1>   0.0060 
 25 C        7.7490    -2.6850     2.4940 C.2   1 <1>   0.0360 
 26 N        8.8700    -1.1960     3.4660 N.2   1 <1>  -0.3380 
 27 C        8.7370     0.6930     1.8810 C.3   1 <1>  -0.0600 
 28 N        8.4310    -2.4510     3.5560 N.2   1 <1>  -0.3380 
 29 H       -0.7730     3.3340    -1.4160 H     1 <1>   0.1500 
 30 H        0.1950    -0.4950     2.8450 H     1 <1>   0.1500 
 31 H       -3.3490     0.8280     0.8850 H     1 <1>   0.1500 
 32 H        1.9840     3.3090    -2.3540 H     1 <1>   0.0800 
 33 H        1.3520     2.0090    -3.3600 H     1 <1>   0.0800 
 34 H        2.8410    -0.7770     0.6600 H     1 <1>   0.0800 
 35 H        3.5990     0.7830     0.5260 H     1 <1>   0.0800 
 36 H        1.6760    -0.8040    -2.9460 H     1 <1>   0.0800 
 37 H        1.5780    -1.7310    -1.4850 H     1 <1>   0.0800 
 38 H        3.4790     1.0690    -2.9650 H     1 <1>   0.0800 
 39 H        3.6660     1.9870    -1.4890 H     1 <1>   0.0800 
 40 H       -1.1590    -1.4630     4.6340 H     1 <1>   0.1500 
 41 H       -4.6980    -0.1390     2.6780 H     1 <1>   0.1500 
 42 H        5.1370    -0.1710    -1.0940 H     1 <1>   0.4500 
 43 H        4.0940    -1.2240    -3.1000 H     1 <1>   0.0800 
 44 H        3.2730    -2.7290    -2.8710 H     1 <1>   0.0800 
 45 H       -3.6110    -1.2910     4.5610 H     1 <1>   0.1500 
 46 H        3.8150    -2.7470    -0.4980 H     1 <1>   0.0800 
 47 H        5.2720    -2.5740    -1.4490 H     1 <1>   0.0800 
 48 H        5.0720    -1.7410     1.4270 H     1 <1>   0.0800 
 49 H        5.6100    -0.0860     1.3220 H     1 <1>   0.0800 
 50 H        7.4530    -0.7660    -0.1930 H     1 <1>   0.0800 
 51 H        6.9390    -2.4390    -0.0580 H     1 <1>   0.0800 
 52 H        7.2690    -3.6230     2.2800 H     1 <1>   0.1500 
 53 H        9.2530     0.6690     0.9390 H     1 <1>   0.0800 
 54 H        9.3710     1.1830     2.5990 H     1 <1>   0.0800 
 55 H        7.8310     1.2620     1.7870 H     1 <1>   0.0800 
@<TRIPOS>BOND
  1   1   2  ar  
  2   1   3  ar  
  3   2   4  ar  
  4   2   5  1   
  5   3   6  ar  
  6   3   7  1   
  7   4   8  ar  
  8   5   9  ar  
  9   5  10  ar  
 10   6   8  ar  
 11   6  11  1   
 12   7  12  1   
 13   7  13  1   
 14   7  14  1   
 15   8  29  1   
 16   9  15  ar  
 17   9  30  1   
 18  10  16  ar  
 19  10  31  1   
 20  11  14  1   
 21  11  32  1   
 22  11  33  1   
 23  12  17  1   
 24  12  34  1   
 25  12  35  1   
 26  13  18  1   
 27  13  36  1   
 28  13  37  1   
 29  14  38  1   
 30  14  39  1   
 31  15  19  ar  
 32  15  40  1   
 33  16  19  ar  
 34  16  41  1   
 35  17  20  1   
 36  17  21  1   
 37  17  42  1   
 38  18  20  1   
 39  18  43  1   
 40  18  44  1   
 41  19  45  1   
 42  20  46  1   
 43  20  47  1   
 44  21  22  1   
 45  21  48  1   
 46  21  49  1   
 47  22  23  1   
 48  22  50  1   
 49  22  51  1   
 50  23  24  1   
 51  23  25  1   
 52  24  26  2   
 53  24  27  1   
 54  25  28  2   
 55  25  52  1   
 56  26  28  1   
 57  27  53  1   
 58  27  54  1   
 59  27  55  1   
@<TRIPOS>SUBSTRUCTURE
  1 ****  12 GROUP 4 **** **** 0

# MOE 2024.06 (io_trps.svl 2023.06)
