@<TRIPOS>MOLECULE
NONAME
48 51 1 0 0 
SMALL
USER_CHARGES


@<TRIPOS>ATOM
  1 S        1.4070     0.4240     0.5870 S.3   1 <1>  -0.0800 
  2 C        2.5110     1.2400     1.6620 C.2   1 <1>   0.2280 
  3 C        1.5930     1.7260    -0.5410 C.2   1 <1>  -0.1100 
  4 N        2.9540     2.3530     1.2260 N.2   1 <1>  -0.5650 
  5 C        2.4350     2.6640    -0.0520 C.2   1 <1>   0.1410 
  6 C        2.8150     3.8740    -0.7800 C.2   1 <1>   0.7160 
  7 O        2.8320     3.8420    -1.9960 O.2   1 <1>  -0.5700 
  8 N        3.1970     5.0590    -0.1650 N.am  1 <1>  -0.6600 
  9 C        3.0180     5.3470     1.2900 C.3   1 <1>   0.1400 
 10 C        3.8590     6.1480    -0.9320 C.3   1 <1>   0.1400 
 11 C        4.3080     5.0860     2.0980 C.3   1 <1>   0.3430 
 12 C        5.3750     5.9220    -0.9590 C.3   1 <1>  -0.1600 
 13 N        5.5270     5.7620     1.5280 N.4   1 <1>  -0.9590 
 14 C        5.9420     5.1440     0.2330 C.3   1 <1>   0.3430 
 15 C        6.6460     5.7700     2.4990 C.3   1 <1>   0.5240 
 16 C        7.3480     7.1000     2.3500 C.2   1 <1>  -0.1810 
 17 C        8.3890     7.3920     1.4600 C.2   1 <1>   0.2350 
 18 C        7.1070     8.2520     3.0120 C.2   1 <1>  -0.3020 
 19 N        8.7380     8.6450     1.5570 N.2   1 <1>  -0.7070 
 20 C        8.9980     6.4640     0.5350 C.ar  1 <1>   0.0540 
 21 N        7.9660     9.1670     2.5210 N.pl3 1 <1>   0.3000 
 22 C        9.5910     5.2790     0.9780 C.ar  1 <1>  -0.1500 
 23 C        8.9870     6.7300    -0.8350 C.ar  1 <1>  -0.1500 
 24 C       10.1200     4.3670     0.0810 C.ar  1 <1>  -0.1500 
 25 C        9.5110     5.8290    -1.7450 C.ar  1 <1>  -0.1500 
 26 C       10.0640     4.6570    -1.2680 C.ar  1 <1>   0.1900 
 27 F       10.5510     3.7960    -2.1200 F     1 <1>  -0.1900 
 28 H        2.7270     0.7460     2.5940 H     1 <1>   0.1500 
 29 H        1.0610     1.6720    -1.4740 H     1 <1>   0.1500 
 30 H        2.2190     4.7440     1.6880 H     1 <1>   0.0800 
 31 H        2.7160     6.3720     1.4180 H     1 <1>   0.0800 
 32 H        3.6350     7.0970    -0.4760 H     1 <1>   0.0800 
 33 H        3.4770     6.1840    -1.9400 H     1 <1>   0.0800 
 34 H        4.4750     4.0220     2.1440 H     1 <1>   0.0800 
 35 H        4.1420     5.4290     3.1060 H     1 <1>   0.0800 
 36 H        5.8780     6.8670    -1.0550 H     1 <1>   0.0800 
 37 H        5.6070     5.3620    -1.8480 H     1 <1>   0.0800 
 38 H        5.3180     6.7510     1.3480 H     1 <1>   0.4500 
 39 H        7.0150     5.1220     0.1490 H     1 <1>   0.0800 
 40 H        5.5910     4.1240     0.1890 H     1 <1>   0.0800 
 41 H        7.3220     4.9500     2.3200 H     1 <1>   0.0800 
 42 H        6.2660     5.6920     3.5050 H     1 <1>   0.0800 
 43 H        6.3990     8.4870     3.7880 H     1 <1>   0.1500 
 44 H        8.0520    10.1500     2.8180 H     1 <1>   0.2700 
 45 H        9.6540     5.0780     2.0330 H     1 <1>   0.1500 
 46 H        8.5680     7.6600    -1.1810 H     1 <1>   0.1500 
 47 H       10.5790     3.4520     0.4120 H     1 <1>   0.1500 
 48 H        9.5020     6.0290    -2.8020 H     1 <1>   0.1500 
@<TRIPOS>BOND
  1   1   2  1   
  2   1   3  1   
  3   2   4  2   
  4   2  28  1   
  5   3   5  2   
  6   3  29  1   
  7   4   5  1   
  8   5   6  1   
  9   6   7  2   
 10   6   8  am  
 11   8   9  1   
 12   8  10  1   
 13   9  11  1   
 14   9  30  1   
 15   9  31  1   
 16  10  12  1   
 17  10  32  1   
 18  10  33  1   
 19  11  13  1   
 20  11  34  1   
 21  11  35  1   
 22  12  14  1   
 23  12  36  1   
 24  12  37  1   
 25  13  14  1   
 26  13  15  1   
 27  13  38  1   
 28  14  39  1   
 29  14  40  1   
 30  15  16  1   
 31  15  41  1   
 32  15  42  1   
 33  16  17  1   
 34  16  18  2   
 35  17  19  2   
 36  17  20  1   
 37  18  21  1   
 38  18  43  1   
 39  19  21  1   
 40  20  22  ar  
 41  20  23  ar  
 42  21  44  1   
 43  22  24  ar  
 44  22  45  1   
 45  23  25  ar  
 46  23  46  1   
 47  24  26  ar  
 48  24  47  1   
 49  25  26  ar  
 50  25  48  1   
 51  26  27  1   
@<TRIPOS>SUBSTRUCTURE
  1 ****  14 GROUP 4 **** **** 0

# MOE 2024.06 (io_trps.svl 2023.06)
