@<TRIPOS>MOLECULE
NONAME
54 57 1 0 0 
SMALL
USER_CHARGES


@<TRIPOS>ATOM
  1 O        0.9290     0.4090    -0.2320 O.3   1 <1>  -0.6800 
  2 C        1.9600    -0.1480    -0.9810 C.3   1 <1>   0.2000 
  3 C        2.4070    -1.4290    -0.2830 C.3   1 <1>  -0.0800 
  4 C        3.1840     0.7690    -0.8670 C.3   1 <1>   0.3430 
  5 C        3.2470    -0.8940     0.8790 C.3   1 <1>   0.3430 
  6 C        3.2260    -2.3410    -1.2200 C.3   1 <1>  -0.0170 
  7 N        3.9140     0.3330     0.3670 N.4   1 <1>  -0.9590 
  8 C        3.9410    -3.4280    -0.4340 C.ar  1 <1>  -0.1440 
  9 C        3.9970     1.3880     1.4060 C.3   1 <1>   0.4860 
 10 C        5.3140    -3.4330    -0.2800 C.ar  1 <1>  -0.1500 
 11 C        3.2550    -4.4610     0.1730 C.ar  1 <1>  -0.1500 
 12 C        4.5890     2.6690     0.8180 C.ar  1 <1>  -0.1440 
 13 C        5.9140    -4.4340     0.4660 C.ar  1 <1>   0.1600 
 14 C        3.9520    -5.4120     0.9000 C.ar  1 <1>   0.1600 
 15 C        5.9140     2.7390     0.3410 C.ar  1 <1>  -0.0230 
 16 C        3.7700     3.7980     0.7760 C.ar  1 <1>  -0.1440 
 17 N        5.2630    -5.4140     1.0670 N.ar  1 <1>  -0.6200 
 18 N        6.8230     1.6210     0.2900 N.pl3 1 <1>   0.5930 
 19 C        6.3740     3.9720    -0.1240 C.ar  1 <1>  -0.1500 
 20 C        4.2640     4.9920     0.2830 C.ar  1 <1>  -0.1500 
 21 C        2.3240     3.7910     1.2690 C.3   1 <1>  -0.0970 
 22 N        6.6810     0.4720     1.0150 N.2   1 <1>  -0.7070 
 23 C        7.9040     1.4850    -0.5240 C.2   1 <1>  -0.3020 
 24 C        5.5640     5.0870    -0.1640 C.ar  1 <1>  -0.1440 
 25 C        7.6770    -0.2910     0.6880 C.2   1 <1>   0.1390 
 26 C        8.4750     0.2870    -0.2850 C.2   1 <1>  -0.1500 
 27 C        6.0940     6.4130    -0.6830 C.3   1 <1>  -0.0970 
 28 H        0.0740    -0.0340    -0.4180 H     1 <1>   0.4000 
 29 H        1.6250    -0.2790    -1.9960 H     1 <1>   0.0800 
 30 H        1.5680    -1.9880     0.0930 H     1 <1>   0.0800 
 31 H        2.8810     1.8020    -0.8200 H     1 <1>   0.0800 
 32 H        3.8200     0.6300    -1.7250 H     1 <1>   0.0800 
 33 H        3.9640    -1.6170     1.2360 H     1 <1>   0.0800 
 34 H        2.5840    -0.6310     1.6870 H     1 <1>   0.0800 
 35 H        3.9550    -1.7720    -1.7700 H     1 <1>   0.0800 
 36 H        2.5710    -2.8020    -1.9400 H     1 <1>   0.0800 
 37 H        4.9050     0.1100     0.1630 H     1 <1>   0.4500 
 38 H        3.0150     1.5750     1.8040 H     1 <1>   0.0800 
 39 H        4.6230     1.0520     2.2170 H     1 <1>   0.0800 
 40 H        5.9290    -2.6770    -0.7320 H     1 <1>   0.1500 
 41 H        2.1860    -4.5430     0.0910 H     1 <1>   0.1500 
 42 H        6.9860    -4.4300     0.5760 H     1 <1>   0.1500 
 43 H        3.4030    -6.2120     1.3680 H     1 <1>   0.1500 
 44 H        7.3890     4.0820    -0.4610 H     1 <1>   0.1500 
 45 H        3.6370     5.8680     0.2520 H     1 <1>   0.1500 
 46 H        1.8490     4.7390     1.0870 H     1 <1>   0.0800 
 47 H        2.2920     3.6090     2.3280 H     1 <1>   0.0800 
 48 H        1.7480     3.0380     0.7610 H     1 <1>   0.0800 
 49 H        8.2130     2.2370    -1.2240 H     1 <1>   0.1500 
 50 H        7.8600    -1.2630     1.1200 H     1 <1>   0.1500 
 51 H        9.3530    -0.1490    -0.7320 H     1 <1>   0.1500 
 52 H        5.3250     6.9400    -1.2190 H     1 <1>   0.0800 
 53 H        6.9240     6.2590    -1.3500 H     1 <1>   0.0800 
 54 H        6.4200     7.0220     0.1410 H     1 <1>   0.0800 
@<TRIPOS>BOND
  1   1   2  1   
  2   1  28  1   
  3   2   3  1   
  4   2   4  1   
  5   2  29  1   
  6   3   5  1   
  7   3   6  1   
  8   3  30  1   
  9   4   7  1   
 10   4  31  1   
 11   4  32  1   
 12   5   7  1   
 13   5  33  1   
 14   5  34  1   
 15   6   8  1   
 16   6  35  1   
 17   6  36  1   
 18   7   9  1   
 19   7  37  1   
 20   8  10  ar  
 21   8  11  ar  
 22   9  12  1   
 23   9  38  1   
 24   9  39  1   
 25  10  13  ar  
 26  10  40  1   
 27  11  14  ar  
 28  11  41  1   
 29  12  15  ar  
 30  12  16  ar  
 31  13  17  ar  
 32  13  42  1   
 33  14  17  ar  
 34  14  43  1   
 35  15  18  1   
 36  15  19  ar  
 37  16  20  ar  
 38  16  21  1   
 39  18  22  1   
 40  18  23  1   
 41  19  24  ar  
 42  19  44  1   
 43  20  24  ar  
 44  20  45  1   
 45  21  46  1   
 46  21  47  1   
 47  21  48  1   
 48  22  25  2   
 49  23  26  2   
 50  23  49  1   
 51  24  27  1   
 52  25  26  1   
 53  25  50  1   
 54  26  51  1   
 55  27  52  1   
 56  27  53  1   
 57  27  54  1   
@<TRIPOS>SUBSTRUCTURE
  1 ****   7 GROUP 4 **** **** 0

# MOE 2024.06 (io_trps.svl 2023.06)
