@<TRIPOS>MOLECULE
NONAME
50 52 1 0 0 
SMALL
USER_CHARGES


@<TRIPOS>ATOM
  1 O        1.1230    -1.2220    -1.7410 O.co2 1 <1>  -0.9000 
  2 C        2.1500    -1.1560    -1.0690 C.2   1 <1>   0.9060 
  3 O        2.7150    -2.1310    -0.5650 O.co2 1 <1>  -0.9000 
  4 C        2.7740     0.2090    -0.8360 C.3   1 <1>  -0.1860 
  5 C        4.1910     0.2530    -1.4430 C.3   1 <1>  -0.1600 
  6 C        2.7800     0.5380     0.6700 C.3   1 <1>  -0.1600 
  7 C        4.9580     1.4990    -1.0290 C.3   1 <1>   0.3430 
  8 C        3.6130     1.7710     0.9890 C.3   1 <1>   0.3430 
  9 N        4.9940     1.5550     0.4660 N.4   1 <1>  -0.9590 
 10 C        5.9970     2.4700     1.0760 C.3   1 <1>   0.4230 
 11 C        5.8670     3.9090     0.5570 C.3   1 <1>  -0.1600 
 12 C        7.4120     1.9350     0.8390 C.3   1 <1>  -0.1600 
 13 C        6.9200     4.8130     1.1980 C.3   1 <1>   0.3430 
 14 C        8.4560     2.8500     1.4790 C.3   1 <1>   0.3430 
 15 N        8.2750     4.2380     0.9740 N.4   1 <1>  -0.9590 
 16 C        9.3580     5.1730     1.4370 C.3   1 <1>   0.4860 
 17 C        9.5540     6.2680     0.3910 C.ar  1 <1>   0.1670 
 18 N        9.2390     5.9600    -0.8650 N.ar  1 <1>  -0.6200 
 19 C       10.0390     7.5120     0.7830 C.ar  1 <1>   0.1600 
 20 C        9.4580     6.9760    -1.6900 C.ar  1 <1>   0.1600 
 21 N       10.2410     8.5190    -0.0430 N.ar  1 <1>  -0.6200 
 22 C        9.9430     8.2210    -1.2940 C.ar  1 <1>   0.1670 
 23 C       10.1600     9.3270    -2.3070 C.3   1 <1>  -0.0970 
 24 H        2.1580     0.9290    -1.3450 H     1 <1>   0.0800 
 25 H        4.1100     0.2150    -2.5160 H     1 <1>   0.0800 
 26 H        4.7430    -0.6210    -1.1400 H     1 <1>   0.0800 
 27 H        3.1640    -0.3020     1.2240 H     1 <1>   0.0800 
 28 H        1.7660     0.6910     0.9970 H     1 <1>   0.0800 
 29 H        4.4670     2.3730    -1.4240 H     1 <1>   0.0800 
 30 H        5.9540     1.4460    -1.4350 H     1 <1>   0.0800 
 31 H        3.6300     1.9140     2.0570 H     1 <1>   0.0800 
 32 H        3.1680     2.6380     0.5280 H     1 <1>   0.0800 
 33 H        5.2080     0.5850     0.7470 H     1 <1>   0.4500 
 34 H        5.8280     2.4840     2.1420 H     1 <1>   0.0800 
 35 H        4.8950     4.3010     0.7970 H     1 <1>   0.0800 
 36 H        5.9920     3.9500    -0.5100 H     1 <1>   0.0800 
 37 H        7.6260     1.8560    -0.2110 H     1 <1>   0.0800 
 38 H        7.5050     0.9560     1.2760 H     1 <1>   0.0800 
 39 H        6.7300     4.9050     2.2560 H     1 <1>   0.0800 
 40 H        6.8630     5.7980     0.7580 H     1 <1>   0.0800 
 41 H        9.4450     2.4940     1.2340 H     1 <1>   0.0800 
 42 H        8.3490     2.8340     2.5530 H     1 <1>   0.0800 
 43 H        8.4390     4.2620    -0.0540 H     1 <1>   0.4500 
 44 H       10.2880     4.6350     1.5290 H     1 <1>   0.0800 
 45 H        9.1130     5.6030     2.3940 H     1 <1>   0.0800 
 46 H       10.2760     7.6940     1.8180 H     1 <1>   0.1500 
 47 H        9.2450     6.8190    -2.7330 H     1 <1>   0.1500 
 48 H        9.8990     9.0090    -3.2990 H     1 <1>   0.0800 
 49 H       11.1930     9.6240    -2.2990 H     1 <1>   0.0800 
 50 H        9.5580    10.1790    -2.0460 H     1 <1>   0.0800 
@<TRIPOS>BOND
  1   1   2  ar  
  2   2   3  ar  
  3   2   4  1   
  4   4   5  1   
  5   4   6  1   
  6   4  24  1   
  7   5   7  1   
  8   5  25  1   
  9   5  26  1   
 10   6   8  1   
 11   6  27  1   
 12   6  28  1   
 13   7   9  1   
 14   7  29  1   
 15   7  30  1   
 16   8   9  1   
 17   8  31  1   
 18   8  32  1   
 19   9  10  1   
 20   9  33  1   
 21  10  11  1   
 22  10  12  1   
 23  10  34  1   
 24  11  13  1   
 25  11  35  1   
 26  11  36  1   
 27  12  14  1   
 28  12  37  1   
 29  12  38  1   
 30  13  15  1   
 31  13  39  1   
 32  13  40  1   
 33  14  15  1   
 34  14  41  1   
 35  14  42  1   
 36  15  16  1   
 37  15  43  1   
 38  16  17  1   
 39  16  44  1   
 40  16  45  1   
 41  17  18  ar  
 42  17  19  ar  
 43  18  20  ar  
 44  19  21  ar  
 45  19  46  1   
 46  20  22  ar  
 47  20  47  1   
 48  21  22  ar  
 49  22  23  1   
 50  23  48  1   
 51  23  49  1   
 52  23  50  1   
@<TRIPOS>SUBSTRUCTURE
  1 ****  11 GROUP 4 **** **** 0

# MOE 2024.06 (io_trps.svl 2023.06)
