@<TRIPOS>MOLECULE
NONAME
63 66 1 0 0 
SMALL
USER_CHARGES


@<TRIPOS>ATOM
  1 O       -1.6530     0.0070    -1.4610 O.2   1 <1>  -0.5700 
  2 C       -1.6580    -0.0570    -0.2560 C.2   1 <1>   0.5690 
  3 N       -1.7780    -1.2370     0.3930 N.am  1 <1>  -0.7300 
  4 C       -1.5360     1.2170     0.5630 C.3   1 <1>  -0.0990 
  5 C       -1.8610    -2.5680    -0.2570 C.3   1 <1>   0.2200 
  6 C       -0.6340     2.2870    -0.0900 C.3   1 <1>  -0.0800 
  7 C       -3.2840    -3.1160    -0.2340 C.3   1 <1>  -0.0800 
  8 C       -1.1660    -3.5820     0.6400 C.3   1 <1>   0.1200 
  9 C        0.8090     1.7900    -0.2810 C.3   1 <1>  -0.1600 
 10 C       -0.6270     3.5840     0.7350 C.3   1 <1>  -0.1600 
 11 C       -3.3880    -3.7150     1.1760 C.3   1 <1>   0.1200 
 12 C       -4.3870    -2.0950    -0.5850 C.3   1 <1>  -0.0160 
 13 O       -2.0810    -3.8380     1.6600 O.3   1 <1>  -0.5600 
 14 C        1.6970     2.8740    -0.8910 C.3   1 <1>   0.3430 
 15 C        0.2910     4.6380     0.1130 C.3   1 <1>   0.3430 
 16 C       -5.8180    -2.6370    -0.6880 C.ar  1 <1>  -0.1440 
 17 N        1.6770     4.0890    -0.0240 N.4   1 <1>  -0.9590 
 18 C       -6.8980    -1.7320    -0.8370 C.ar  1 <1>   0.0000 
 19 C       -6.1300    -3.9690    -0.6510 C.ar  1 <1>  -0.1500 
 20 C        2.6920     5.0810    -0.4680 C.3   1 <1>   0.4230 
 21 C       -8.2100    -2.2640    -0.8990 C.ar  1 <1>   0.3100 
 22 C       -6.7540    -0.3270    -0.9360 C.ar  1 <1>  -0.1500 
 23 C       -7.4620    -4.3900    -0.7310 C.ar  1 <1>   0.1600 
 24 C        2.9320     6.0850     0.6550 C.3   1 <1>  -0.2400 
 25 C        2.2790     5.7890    -1.7600 C.3   1 <1>  -0.2400 
 26 N       -8.4750    -3.5920    -0.8440 N.ar  1 <1>  -0.6200 
 27 C       -9.2980    -1.3850    -1.0300 C.ar  1 <1>  -0.1500 
 28 C       -7.8350     0.5020    -1.0670 C.ar  1 <1>  -0.1500 
 29 C       -9.1250    -0.0310    -1.1110 C.ar  1 <1>  -0.1500 
 30 H       -1.8420    -1.2840     1.4140 H     1 <1>   0.3700 
 31 H       -2.5270     1.6130     0.6840 H     1 <1>   0.0800 
 32 H       -1.1580     0.9710     1.5380 H     1 <1>   0.0800 
 33 H       -1.4410    -2.5370    -1.2490 H     1 <1>   0.0800 
 34 H       -1.0440     2.5140    -1.0630 H     1 <1>   0.0800 
 35 H       -3.3220    -3.9200    -0.9460 H     1 <1>   0.0800 
 36 H       -0.2460    -3.2130     1.0580 H     1 <1>   0.0800 
 37 H       -0.9880    -4.5030     0.1130 H     1 <1>   0.0800 
 38 H        0.8170     0.9420    -0.9450 H     1 <1>   0.0800 
 39 H        1.2260     1.4670     0.6570 H     1 <1>   0.0800 
 40 H       -0.3110     3.3860     1.7450 H     1 <1>   0.0800 
 41 H       -1.6250     3.9840     0.7810 H     1 <1>   0.0800 
 42 H       -3.8460    -4.6880     1.1700 H     1 <1>   0.0800 
 43 H       -3.9260    -3.0650     1.8460 H     1 <1>   0.0800 
 44 H       -4.1350    -1.6360    -1.5260 H     1 <1>   0.0800 
 45 H       -4.3820    -1.3250     0.1640 H     1 <1>   0.0800 
 46 H        1.3340     3.1200    -1.8760 H     1 <1>   0.0800 
 47 H        2.7050     2.5010    -0.9840 H     1 <1>   0.0800 
 48 H        0.2980     5.5170     0.7370 H     1 <1>   0.0800 
 49 H       -0.0890     4.9140    -0.8570 H     1 <1>   0.0800 
 50 H        1.9630     3.7820     0.9120 H     1 <1>   0.4500 
 51 H       -5.3890    -4.7380    -0.5630 H     1 <1>   0.1500 
 52 H        3.6210     4.5620    -0.6500 H     1 <1>   0.0800 
 53 H       -5.7730     0.1080    -0.9140 H     1 <1>   0.1500 
 54 H       -7.6570    -5.4480    -0.6940 H     1 <1>   0.1500 
 55 H        2.0660     6.6950     0.8380 H     1 <1>   0.0800 
 56 H        3.7390     6.7410     0.3780 H     1 <1>   0.0800 
 57 H        3.2180     5.5820     1.5610 H     1 <1>   0.0800 
 58 H        1.4080     6.4030    -1.6190 H     1 <1>   0.0800 
 59 H        2.0990     5.0840    -2.5510 H     1 <1>   0.0800 
 60 H        3.0790     6.4330    -2.0790 H     1 <1>   0.0800 
 61 H      -10.2800    -1.8190    -1.0660 H     1 <1>   0.1500 
 62 H       -7.7080     1.5680    -1.1390 H     1 <1>   0.1500 
 63 H       -9.9680     0.6310    -1.2120 H     1 <1>   0.1500 
@<TRIPOS>BOND
  1   1   2  2   
  2   2   3  am  
  3   2   4  1   
  4   3   5  1   
  5   3  30  1   
  6   4   6  1   
  7   4  31  1   
  8   4  32  1   
  9   5   7  1   
 10   5   8  1   
 11   5  33  1   
 12   6   9  1   
 13   6  10  1   
 14   6  34  1   
 15   7  11  1   
 16   7  12  1   
 17   7  35  1   
 18   8  13  1   
 19   8  36  1   
 20   8  37  1   
 21   9  14  1   
 22   9  38  1   
 23   9  39  1   
 24  10  15  1   
 25  10  40  1   
 26  10  41  1   
 27  11  13  1   
 28  11  42  1   
 29  11  43  1   
 30  12  16  1   
 31  12  44  1   
 32  12  45  1   
 33  14  17  1   
 34  14  46  1   
 35  14  47  1   
 36  15  17  1   
 37  15  48  1   
 38  15  49  1   
 39  16  18  ar  
 40  16  19  ar  
 41  17  20  1   
 42  17  50  1   
 43  18  21  ar  
 44  18  22  ar  
 45  19  23  ar  
 46  19  51  1   
 47  20  24  1   
 48  20  25  1   
 49  20  52  1   
 50  21  26  ar  
 51  21  27  ar  
 52  22  28  ar  
 53  22  53  1   
 54  23  26  ar  
 55  23  54  1   
 56  24  55  1   
 57  24  56  1   
 58  24  57  1   
 59  25  58  1   
 60  25  59  1   
 61  25  60  1   
 62  27  29  ar  
 63  27  61  1   
 64  28  29  ar  
 65  28  62  1   
 66  29  63  1   
@<TRIPOS>SUBSTRUCTURE
  1 ****   2 GROUP 4 **** **** 0

# MOE 2024.06 (io_trps.svl 2023.06)
