@<TRIPOS>MOLECULE
NONAME
40 42 1 0 0 
SMALL
USER_CHARGES


@<TRIPOS>ATOM
  1 O       -0.2730     0.6550    -0.7850 O.co2 1 <1>  -0.9000 
  2 C       -1.0080     0.0170    -0.0130 C.2   1 <1>   0.9060 
  3 O       -0.7560    -1.1120     0.4040 O.co2 1 <1>  -0.9000 
  4 C       -2.2850     0.7480     0.4430 C.3   1 <1>   0.3170 
  5 N       -2.2500     2.1980     0.0330 N.4   1 <1>  -0.9590 
  6 C       -3.5670     0.1900    -0.1810 C.3   1 <1>  -0.1600 
  7 C       -3.5610     2.5540    -0.5740 C.3   1 <1>   0.3430 
  8 C       -1.7930     3.0690     1.1300 C.3   1 <1>   0.4860 
  9 C       -4.4990     1.3890    -0.2430 C.3   1 <1>   0.2000 
 10 C       -1.5980     4.4730     0.5870 C.ar  1 <1>  -0.1430 
 11 O       -5.0260     1.5860     1.0280 O.3   1 <1>  -0.6800 
 12 C       -0.5060     4.8120    -0.2120 C.ar  1 <1>  -0.1430 
 13 C       -2.5520     5.4340     0.8970 C.ar  1 <1>  -0.1500 
 14 C       -0.3890     6.1090    -0.6920 C.ar  1 <1>  -0.1500 
 15 C        0.5780     3.8070    -0.5880 C.3   1 <1>  -0.0970 
 16 C       -2.4340     6.7210     0.4100 C.ar  1 <1>   0.0830 
 17 C       -1.3400     7.0640    -0.3830 C.ar  1 <1>   0.0830 
 18 O       -3.3980     7.6260     0.7120 O.3   1 <1>  -0.3620 
 19 O       -1.1850     8.3250    -0.8570 O.3   1 <1>  -0.3620 
 20 C       -3.4060     8.8290    -0.0350 C.3   1 <1>   0.1200 
 21 C       -1.9730     9.3340    -0.2540 C.3   1 <1>   0.1200 
 22 H       -2.3550     0.6710     1.5130 H     1 <1>   0.0800 
 23 H       -1.4850     2.1920    -0.6780 H     1 <1>   0.4500 
 24 H       -3.9610    -0.6350     0.3840 H     1 <1>   0.0800 
 25 H       -3.3470    -0.1540    -1.1770 H     1 <1>   0.0800 
 26 H       -3.9490     3.4830    -0.1910 H     1 <1>   0.0800 
 27 H       -3.4450     2.6290    -1.6420 H     1 <1>   0.0800 
 28 H       -2.5260     3.0750     1.9200 H     1 <1>   0.0800 
 29 H       -0.8610     2.7010     1.5260 H     1 <1>   0.0800 
 30 H       -5.3060     1.2840    -0.9480 H     1 <1>   0.0800 
 31 H       -5.6240     0.8500     1.2710 H     1 <1>   0.4000 
 32 H       -3.4010     5.1990     1.5150 H     1 <1>   0.1500 
 33 H        0.4430     6.3950    -1.3110 H     1 <1>   0.1500 
 34 H        1.4880     4.3130    -0.8580 H     1 <1>   0.0800 
 35 H        0.2650     3.2180    -1.4320 H     1 <1>   0.0800 
 36 H        0.8080     3.1440     0.2260 H     1 <1>   0.0800 
 37 H       -3.8800     8.6330    -0.9800 H     1 <1>   0.0800 
 38 H       -3.9880     9.5530     0.5070 H     1 <1>   0.0800 
 39 H       -1.5210     9.5940     0.6870 H     1 <1>   0.0800 
 40 H       -1.9630    10.1930    -0.9000 H     1 <1>   0.0800 
@<TRIPOS>BOND
  1   1   2  ar  
  2   2   3  ar  
  3   2   4  1   
  4   4   5  1   
  5   4   6  1   
  6   4  22  1   
  7   5   7  1   
  8   5   8  1   
  9   5  23  1   
 10   6   9  1   
 11   6  24  1   
 12   6  25  1   
 13   7   9  1   
 14   7  26  1   
 15   7  27  1   
 16   8  10  1   
 17   8  28  1   
 18   8  29  1   
 19   9  11  1   
 20   9  30  1   
 21  10  12  ar  
 22  10  13  ar  
 23  11  31  1   
 24  12  14  ar  
 25  12  15  1   
 26  13  16  ar  
 27  13  32  1   
 28  14  17  ar  
 29  14  33  1   
 30  15  34  1   
 31  15  35  1   
 32  15  36  1   
 33  16  17  ar  
 34  16  18  1   
 35  17  19  1   
 36  18  20  1   
 37  19  21  1   
 38  20  21  1   
 39  20  37  1   
 40  20  38  1   
 41  21  39  1   
 42  21  40  1   
@<TRIPOS>SUBSTRUCTURE
  1 ****  10 GROUP 4 **** **** 0

# MOE 2024.06 (io_trps.svl 2023.06)
