@<TRIPOS>MOLECULE
NONAME
44 45 1 0 0 
SMALL
USER_CHARGES


@<TRIPOS>ATOM
  1 S       -3.8570    -0.3900    -1.4020 S.3   1 <1>  -0.0800 
  2 C       -3.1520    -1.1880    -0.0090 C.2   1 <1>  -0.1100 
  3 C       -2.7620    -1.2230    -2.4880 C.2   1 <1>  -0.1100 
  4 C       -2.1660    -2.0270    -0.3840 C.2   1 <1>  -0.1810 
  5 C       -1.9400    -2.0390    -1.8030 C.2   1 <1>  -0.1500 
  6 C       -1.3570    -2.8950     0.5560 C.3   1 <1>   0.5240 
  7 N       -1.6100    -4.3250     0.2290 N.4   1 <1>  -0.9590 
  8 C       -3.0840    -4.6870     0.2320 C.3   1 <1>   0.4040 
  9 C       -0.8080    -5.2830     1.0430 C.3   1 <1>   0.3430 
 10 C       -3.3790    -5.9800    -0.5440 C.2   1 <1>   0.5690 
 11 C        0.6750    -5.1770     0.6890 C.3   1 <1>  -0.1600 
 12 O       -2.5500    -6.3300    -1.3540 O.2   1 <1>  -0.5700 
 13 N       -4.5160    -6.6780    -0.2790 N.am  1 <1>  -0.4930 
 14 C        1.4820    -6.2550     1.4230 C.3   1 <1>  -0.1600 
 15 C       -4.9500    -7.8900    -0.7950 C.2   1 <1>   0.3520 
 16 C        2.9700    -6.1570     1.0750 C.3   1 <1>  -0.2400 
 17 N       -6.0300    -8.3990    -0.3040 N.2   1 <1>  -0.7070 
 18 C       -4.3910    -8.6810    -1.7940 C.2   1 <1>  -0.1500 
 19 N       -6.2010    -9.5530    -0.9840 N.pl3 1 <1>   0.3140 
 20 C       -5.2200    -9.7410    -1.8880 C.2   1 <1>  -0.3020 
 21 C       -7.3390   -10.4400    -0.7170 C.3   1 <1>   0.0160 
 22 H       -3.5690    -0.9300     0.9510 H     1 <1>   0.1500 
 23 H       -2.8500    -1.0050    -3.5390 H     1 <1>   0.1500 
 24 H       -1.1760    -2.6460    -2.2600 H     1 <1>   0.1500 
 25 H       -1.6410    -2.6910     1.5760 H     1 <1>   0.0800 
 26 H       -0.3110    -2.6630     0.4400 H     1 <1>   0.0800 
 27 H       -1.3250    -4.4770    -0.7520 H     1 <1>   0.4500 
 28 H       -3.6520    -3.9020    -0.2370 H     1 <1>   0.0800 
 29 H       -3.4330    -4.7940     1.2450 H     1 <1>   0.0800 
 30 H       -1.1320    -6.2910     0.8330 H     1 <1>   0.0800 
 31 H       -0.9510    -5.0960     2.0950 H     1 <1>   0.0800 
 32 H        1.0630    -4.2130     0.9670 H     1 <1>   0.0800 
 33 H        0.8030    -5.3150    -0.3720 H     1 <1>   0.0800 
 34 H       -5.1980    -6.3420     0.3980 H     1 <1>   0.3700 
 35 H        1.1250    -7.2340     1.1470 H     1 <1>   0.0800 
 36 H        1.3650    -6.1460     2.4880 H     1 <1>   0.0800 
 37 H        3.1250    -6.2930     0.0190 H     1 <1>   0.0800 
 38 H        3.5200    -6.9220     1.5960 H     1 <1>   0.0800 
 39 H        3.3690    -5.2000     1.3640 H     1 <1>   0.0800 
 40 H       -3.4960    -8.4710    -2.3520 H     1 <1>   0.1500 
 41 H       -5.1670   -10.5980    -2.5350 H     1 <1>   0.1500 
 42 H       -7.3040   -10.7510     0.3100 H     1 <1>   0.0800 
 43 H       -7.2880   -11.2980    -1.3600 H     1 <1>   0.0800 
 44 H       -8.2500    -9.9020    -0.8980 H     1 <1>   0.0800 
@<TRIPOS>BOND
  1   1   2  1   
  2   1   3  1   
  3   2   4  2   
  4   2  22  1   
  5   3   5  2   
  6   3  23  1   
  7   4   5  1   
  8   4   6  1   
  9   5  24  1   
 10   6   7  1   
 11   6  25  1   
 12   6  26  1   
 13   7   8  1   
 14   7   9  1   
 15   7  27  1   
 16   8  10  1   
 17   8  28  1   
 18   8  29  1   
 19   9  11  1   
 20   9  30  1   
 21   9  31  1   
 22  10  12  2   
 23  10  13  am  
 24  11  14  1   
 25  11  32  1   
 26  11  33  1   
 27  13  15  1   
 28  13  34  1   
 29  14  16  1   
 30  14  35  1   
 31  14  36  1   
 32  15  17  2   
 33  15  18  1   
 34  16  37  1   
 35  16  38  1   
 36  16  39  1   
 37  17  19  1   
 38  18  20  2   
 39  18  40  1   
 40  19  20  1   
 41  19  21  1   
 42  20  41  1   
 43  21  42  1   
 44  21  43  1   
 45  21  44  1   
@<TRIPOS>SUBSTRUCTURE
  1 ****  10 GROUP 4 **** **** 0

# MOE 2024.06 (io_trps.svl 2023.06)
