@<TRIPOS>MOLECULE
NONAME
51 54 1 0 0 
SMALL
USER_CHARGES


@<TRIPOS>ATOM
  1 S       -0.4950     0.1210     0.8510 S.o2  1 <1>   1.2040 
  2 O       -1.5710     0.7860     0.1510 O.2   1 <1>  -0.6500 
  3 O       -0.4450     0.1400     2.2950 O.2   1 <1>  -0.6500 
  4 C       -0.4060    -1.5970     0.2890 C.ar  1 <1>  -0.0090 
  5 C        1.0370     0.8060     0.2510 C.3   1 <1>  -0.1350 
  6 C       -0.9240    -1.9790    -0.9430 C.ar  1 <1>  -0.1500 
  7 C        0.1960    -2.5770     1.0680 C.ar  1 <1>  -0.1500 
  8 C       -0.8630    -3.2920    -1.3750 C.ar  1 <1>  -0.1500 
  9 C        0.2640    -3.8940     0.6460 C.ar  1 <1>  -0.1500 
 10 C       -0.2790    -4.2620    -0.5760 C.ar  1 <1>  -0.1430 
 11 C       -0.2590    -5.7120    -1.0250 C.3   1 <1>   0.4860 
 12 N       -1.2540    -6.4690    -0.2180 N.4   1 <1>  -0.9590 
 13 C       -2.6480    -5.9100    -0.3730 C.3   1 <1>   0.3430 
 14 C       -1.2350    -7.9370    -0.5350 C.3   1 <1>   0.3430 
 15 C       -3.6880    -6.7100     0.4370 C.3   1 <1>   0.1900 
 16 C       -2.3010    -8.7150     0.2630 C.3   1 <1>   0.1100 
 17 N       -3.6520    -8.1470     0.0590 N.3   1 <1>  -0.8100 
 18 C       -5.0910    -6.1190     0.2130 C.3   1 <1>   0.1200 
 19 C       -4.7280    -8.8980     0.7690 C.3   1 <1>   0.2850 
 20 O       -6.0210    -6.8380     0.9570 O.3   1 <1>  -0.5600 
 21 C       -4.7600   -10.3630     0.2760 C.3   1 <1>  -0.1950 
 22 C       -6.0940    -8.1890     0.5920 C.3   1 <1>   0.1200 
 23 C       -5.1460   -10.7280    -1.1250 C.3   1 <1>  -0.2000 
 24 C       -6.0170   -11.1460     0.0240 C.3   1 <1>  -0.2000 
 25 H        1.0880     0.7340    -0.8170 H     1 <1>   0.0800 
 26 H        1.8730     0.2860     0.6760 H     1 <1>   0.0800 
 27 H        1.1060     1.8410     0.5260 H     1 <1>   0.0800 
 28 H       -1.3900    -1.2340    -1.5700 H     1 <1>   0.1500 
 29 H        0.6120    -2.3040     2.0250 H     1 <1>   0.1500 
 30 H       -1.2800    -3.5410    -2.3370 H     1 <1>   0.1500 
 31 H        0.7420    -4.6180     1.2850 H     1 <1>   0.1500 
 32 H        0.7280    -6.1200    -0.8790 H     1 <1>   0.0800 
 33 H       -0.5040    -5.7760    -2.0730 H     1 <1>   0.0800 
 34 H       -1.0000    -6.3500     0.7690 H     1 <1>   0.4500 
 35 H       -2.6690    -4.8830    -0.0460 H     1 <1>   0.0800 
 36 H       -2.9360    -5.9350    -1.4100 H     1 <1>   0.0800 
 37 H       -1.4320    -8.0850    -1.5840 H     1 <1>   0.0800 
 38 H       -0.2630    -8.3500    -0.3190 H     1 <1>   0.0800 
 39 H       -3.4590    -6.6070     1.4840 H     1 <1>   0.0800 
 40 H       -2.0530    -8.7130     1.3110 H     1 <1>   0.0800 
 41 H       -2.2800    -9.7350    -0.0800 H     1 <1>   0.0800 
 42 H       -5.3730    -6.1590    -0.8250 H     1 <1>   0.0800 
 43 H       -5.1330    -5.0970     0.5490 H     1 <1>   0.0800 
 44 H       -4.5190    -8.9100     1.8260 H     1 <1>   0.0800 
 45 H       -3.9810   -10.9390     0.7420 H     1 <1>   0.1000 
 46 H       -6.8320    -8.6520     1.2220 H     1 <1>   0.0800 
 47 H       -6.4270    -8.2490    -0.4290 H     1 <1>   0.0800 
 48 H       -5.4980    -9.9580    -1.7900 H     1 <1>   0.1000 
 49 H       -4.5750   -11.4810    -1.6400 H     1 <1>   0.1000 
 50 H       -6.0360   -12.1890     0.2930 H     1 <1>   0.1000 
 51 H       -6.9930   -10.6990     0.0930 H     1 <1>   0.1000 
@<TRIPOS>BOND
  1   1   2  2   
  2   1   3  2   
  3   1   4  1   
  4   1   5  1   
  5   4   6  ar  
  6   4   7  ar  
  7   5  25  1   
  8   5  26  1   
  9   5  27  1   
 10   6   8  ar  
 11   6  28  1   
 12   7   9  ar  
 13   7  29  1   
 14   8  10  ar  
 15   8  30  1   
 16   9  10  ar  
 17   9  31  1   
 18  10  11  1   
 19  11  12  1   
 20  11  32  1   
 21  11  33  1   
 22  12  13  1   
 23  12  14  1   
 24  12  34  1   
 25  13  15  1   
 26  13  35  1   
 27  13  36  1   
 28  14  16  1   
 29  14  37  1   
 30  14  38  1   
 31  15  17  1   
 32  15  18  1   
 33  15  39  1   
 34  16  17  1   
 35  16  40  1   
 36  16  41  1   
 37  17  19  1   
 38  18  20  1   
 39  18  42  1   
 40  18  43  1   
 41  19  21  1   
 42  19  22  1   
 43  19  44  1   
 44  20  22  1   
 45  21  23  1   
 46  21  24  1   
 47  21  45  1   
 48  22  46  1   
 49  22  47  1   
 50  23  24  1   
 51  23  48  1   
 52  23  49  1   
 53  24  50  1   
 54  24  51  1   
@<TRIPOS>SUBSTRUCTURE
  1 ****  13 GROUP 4 **** **** 0

# MOE 2024.06 (io_trps.svl 2023.06)
