@<TRIPOS>MOLECULE
NONAME
44 47 1 0 0 
SMALL
USER_CHARGES


@<TRIPOS>ATOM
  1 O       -0.8790    -0.5420    -1.3920 O.co2 1 <1>  -0.9000 
  2 C       -0.6620    -1.3300    -0.4580 C.2   1 <1>   1.0330 
  3 O       -1.3570    -1.2380     0.5710 O.co2 1 <1>  -0.9000 
  4 C        0.3750    -2.3050    -0.5360 C.2   1 <1>  -0.2330 
  5 C        0.2590    -3.6510    -0.9050 C.2   1 <1>   0.3720 
  6 C        1.6990    -2.1470    -0.2780 C.2   1 <1>   0.0870 
  7 N        1.4140    -4.2250    -0.8760 N.2   1 <1>  -0.4100 
  8 N       -0.9060    -4.3490    -1.2890 N.pl3 1 <1>  -0.8210 
  9 O        2.2640    -3.3090    -0.4970 O.3   1 <1>  -0.0190 
 10 C        2.5010    -1.0260     0.1580 C.ar  1 <1>   0.0530 
 11 C       -0.8870    -5.8310    -1.2260 C.3   1 <1>   0.2090 
 12 C       -2.2150    -3.8500    -0.8110 C.3   1 <1>   0.2090 
 13 C        3.8820    -1.0100    -0.0550 C.ar  1 <1>  -0.1500 
 14 C        1.9500     0.0770     0.8130 C.ar  1 <1>  -0.1500 
 15 C       -2.2830    -6.2760    -0.7790 C.3   1 <1>  -0.0800 
 16 C       -3.1750    -5.0310    -0.9170 C.3   1 <1>  -0.0800 
 17 C        4.6710     0.0460     0.3610 C.ar  1 <1>  -0.1500 
 18 C        2.7310     1.1390     1.2300 C.ar  1 <1>  -0.1500 
 19 C       -2.2940    -6.8100     0.6640 C.3   1 <1>  -0.1600 
 20 C       -4.3210    -4.9410     0.1210 C.3   1 <1>  -0.1600 
 21 C        4.0960     1.1260     1.0060 C.ar  1 <1>  -0.1500 
 22 C       -3.7090    -7.2270     1.1050 C.3   1 <1>   0.2000 
 23 C       -4.8440    -6.3200     0.5390 C.3   1 <1>   0.2000 
 24 O       -3.9200    -8.5270     0.6790 O.3   1 <1>  -0.6800 
 25 O       -5.4280    -6.8950    -0.5890 O.3   1 <1>  -0.6800 
 26 H       -0.6680    -6.2110    -2.2080 H     1 <1>   0.0800 
 27 H       -0.1340    -6.1830    -0.5410 H     1 <1>   0.0800 
 28 H       -2.1150    -3.5410     0.2160 H     1 <1>   0.0800 
 29 H       -2.5470    -3.0150    -1.4060 H     1 <1>   0.0800 
 30 H        4.3410    -1.8420    -0.5590 H     1 <1>   0.1500 
 31 H        0.8910     0.1100     1.0020 H     1 <1>   0.1500 
 32 H       -2.6220    -7.0610    -1.4330 H     1 <1>   0.0800 
 33 H       -3.5900    -5.0200    -1.9100 H     1 <1>   0.0800 
 34 H        5.7310     0.0290     0.1810 H     1 <1>   0.1500 
 35 H        2.2700     1.9730     1.7270 H     1 <1>   0.1500 
 36 H       -1.9450    -6.0290     1.3180 H     1 <1>   0.0800 
 37 H       -1.6190    -7.6410     0.7710 H     1 <1>   0.0800 
 38 H       -5.1250    -4.3370    -0.2610 H     1 <1>   0.0800 
 39 H       -3.9620    -4.4530     1.0100 H     1 <1>   0.0800 
 40 H        4.7040     1.9520     1.3300 H     1 <1>   0.1500 
 41 H       -3.7490    -7.2310     2.1810 H     1 <1>   0.0800 
 42 H       -5.6160    -6.2110     1.2810 H     1 <1>   0.0800 
 43 H       -4.7190    -8.5000     0.1040 H     1 <1>   0.4000 
 44 H       -4.8130    -6.7950    -1.3430 H     1 <1>   0.4000 
@<TRIPOS>BOND
  1   1   2  ar  
  2   2   3  ar  
  3   2   4  1   
  4   4   5  1   
  5   4   6  2   
  6   5   7  2   
  7   5   8  1   
  8   6   9  1   
  9   6  10  1   
 10   7   9  1   
 11   8  11  1   
 12   8  12  1   
 13  10  13  ar  
 14  10  14  ar  
 15  11  15  1   
 16  11  26  1   
 17  11  27  1   
 18  12  16  1   
 19  12  28  1   
 20  12  29  1   
 21  13  17  ar  
 22  13  30  1   
 23  14  18  ar  
 24  14  31  1   
 25  15  16  1   
 26  15  19  1   
 27  15  32  1   
 28  16  20  1   
 29  16  33  1   
 30  17  21  ar  
 31  17  34  1   
 32  18  21  ar  
 33  18  35  1   
 34  19  22  1   
 35  19  36  1   
 36  19  37  1   
 37  20  23  1   
 38  20  38  1   
 39  20  39  1   
 40  21  40  1   
 41  22  23  1   
 42  22  24  1   
 43  22  41  1   
 44  23  25  1   
 45  23  42  1   
 46  24  43  1   
 47  25  44  1   
@<TRIPOS>SUBSTRUCTURE
  1 ****   5 GROUP 4 **** **** 0

# MOE 2024.06 (io_trps.svl 2023.06)
