@<TRIPOS>MOLECULE
NONAME
41 42 1 0 0 
SMALL
USER_CHARGES


@<TRIPOS>ATOM
  1 O        1.0990    -1.9810     1.6470 O.3   1 <1>  -0.2170 
  2 N        0.1330    -1.0970     1.4800 N.2   1 <1>  -0.5130 
  3 C        2.2020    -1.7130     0.7980 C.3   1 <1>   0.2000 
  4 C        0.5460    -0.0980     0.8400 C.2   1 <1>   0.3280 
  5 C        1.9730    -0.2490     0.4060 C.3   1 <1>  -0.0990 
  6 C        2.1250    -2.6980    -0.3960 C.3   1 <1>   0.3430 
  7 C       -0.2180     1.1640     0.4660 C.3   1 <1>  -0.0990 
  8 N        0.6990    -3.0650    -0.7130 N.4   1 <1>  -0.9590 
  9 C       -1.7010     1.1220     0.8640 C.3   1 <1>  -0.2400 
 10 C        0.3400    -4.3640    -0.0530 C.3   1 <1>   0.3430 
 11 C        0.3650    -3.0790    -2.1610 C.3   1 <1>   0.3430 
 12 C       -1.1370    -4.4120     0.3450 C.3   1 <1>   0.0960 
 13 C        0.3240    -1.6500    -2.6890 C.3   1 <1>  -0.2400 
 14 N       -1.4480    -5.7790     0.7760 N.pl3 1 <1>   0.3140 
 15 N       -0.9730    -6.8410     0.1010 N.2   1 <1>  -0.7070 
 16 C       -2.1940    -6.1580     1.8300 C.2   1 <1>  -0.3020 
 17 C       -1.4340    -7.8730     0.7420 C.2   1 <1>   0.1390 
 18 C       -2.2070    -7.5080     1.8370 C.2   1 <1>  -0.1500 
 19 H        3.1150    -1.8350     1.3540 H     1 <1>   0.0800 
 20 H        2.1080    -0.0690    -0.6440 H     1 <1>   0.0800 
 21 H        2.6060     0.4050     0.9770 H     1 <1>   0.0800 
 22 H        2.6840    -3.5870    -0.1550 H     1 <1>   0.0800 
 23 H        2.5980    -2.2470    -1.2520 H     1 <1>   0.0800 
 24 H       -0.1480     1.3170    -0.5960 H     1 <1>   0.0800 
 25 H        0.2480     2.0030     0.9520 H     1 <1>   0.0800 
 26 H        0.1350    -2.3420    -0.2220 H     1 <1>   0.4500 
 27 H       -2.2030     0.3060     0.3750 H     1 <1>   0.0800 
 28 H       -2.1870     2.0410     0.5840 H     1 <1>   0.0800 
 29 H       -1.7980     0.9970     1.9290 H     1 <1>   0.0800 
 30 H        0.9250    -4.4900     0.8430 H     1 <1>   0.0800 
 31 H        0.5630    -5.1830    -0.7190 H     1 <1>   0.0800 
 32 H       -0.6030    -3.5310    -2.3070 H     1 <1>   0.0800 
 33 H        1.0910    -3.6600    -2.7080 H     1 <1>   0.0800 
 34 H       -1.7700    -4.1810    -0.4900 H     1 <1>   0.0800 
 35 H       -1.3310    -3.7350     1.1570 H     1 <1>   0.0800 
 36 H       -0.3730    -1.0550    -2.1260 H     1 <1>   0.0800 
 37 H       -0.0070    -1.6660    -3.7120 H     1 <1>   0.0800 
 38 H        1.2970    -1.1960    -2.6700 H     1 <1>   0.0800 
 39 H       -2.6690    -5.4680     2.5040 H     1 <1>   0.1500 
 40 H       -1.2370    -8.8930     0.4510 H     1 <1>   0.1500 
 41 H       -2.6960    -8.1790     2.5210 H     1 <1>   0.1500 
@<TRIPOS>BOND
  1   1   2  1   
  2   1   3  1   
  3   2   4  2   
  4   3   5  1   
  5   3   6  1   
  6   3  19  1   
  7   4   5  1   
  8   4   7  1   
  9   5  20  1   
 10   5  21  1   
 11   6   8  1   
 12   6  22  1   
 13   6  23  1   
 14   7   9  1   
 15   7  24  1   
 16   7  25  1   
 17   8  10  1   
 18   8  11  1   
 19   8  26  1   
 20   9  27  1   
 21   9  28  1   
 22   9  29  1   
 23  10  12  1   
 24  10  30  1   
 25  10  31  1   
 26  11  13  1   
 27  11  32  1   
 28  11  33  1   
 29  12  14  1   
 30  12  34  1   
 31  12  35  1   
 32  13  36  1   
 33  13  37  1   
 34  13  38  1   
 35  14  15  1   
 36  14  16  1   
 37  15  17  2   
 38  16  18  2   
 39  16  39  1   
 40  17  18  1   
 41  17  40  1   
 42  18  41  1   
@<TRIPOS>SUBSTRUCTURE
  1 ****   8 GROUP 4 **** **** 0

# MOE 2024.06 (io_trps.svl 2023.06)
