@<TRIPOS>MOLECULE
NONAME
40 41 1 0 0 
SMALL
USER_CHARGES


@<TRIPOS>ATOM
  1 S        1.1580     0.6280     1.0500 S.3   1 <1>  -0.3320 
  2 C        0.8300    -1.1170     1.2150 C.ar  1 <1>   0.7220 
  3 C        2.0110     0.7700    -0.5990 C.3   1 <1>   0.1310 
  4 N        1.2420    -1.8780     0.2130 N.ar  1 <1>  -0.6200 
  5 N        0.2060    -1.4580     2.3290 N.ar  1 <1>  -0.6200 
  6 C        2.3150     2.2170    -0.9610 C.2   1 <1>   0.5690 
  7 C        0.9870    -3.1580     0.3570 C.ar  1 <1>   0.1660 
  8 C       -0.0330    -2.7450     2.4400 C.ar  1 <1>   0.1600 
  9 O        2.7700     2.4520    -2.0540 O.2   1 <1>  -0.5700 
 10 N        2.0880     3.2070    -0.0640 N.am  1 <1>  -0.7300 
 11 C        0.3420    -3.6460     1.4710 C.ar  1 <1>  -0.1500 
 12 C        1.4350    -4.0770    -0.7600 C.3   1 <1>  -0.0970 
 13 C        2.2910     4.6360    -0.2990 C.3   1 <1>   0.4000 
 14 C        3.4230     5.0830     0.6090 C.2   1 <1>  -0.3320 
 15 C        0.9650     5.3610    -0.0320 C.3   1 <1>  -0.1600 
 16 N        4.7250     4.8520     0.3240 N.pl3 1 <1>   0.3140 
 17 C        3.4000     5.7460     1.7880 C.2   1 <1>  -0.1500 
 18 C        1.0120     6.8520    -0.4070 C.3   1 <1>  -0.2400 
 19 N        5.5320     5.3530     1.2750 N.2   1 <1>  -0.7070 
 20 C        5.2850     4.1430    -0.8370 C.3   1 <1>   0.0160 
 21 C        4.7330     5.8830     2.1480 C.2   1 <1>   0.1390 
 22 H        1.3590     0.3370    -1.3330 H     1 <1>   0.0800 
 23 H        2.9200     0.2020    -0.5380 H     1 <1>   0.0800 
 24 H       -0.5400    -3.0880     3.3270 H     1 <1>   0.1500 
 25 H        1.7770     2.9660     0.8800 H     1 <1>   0.3700 
 26 H        0.1350    -4.6930     1.5860 H     1 <1>   0.1500 
 27 H        2.5010    -4.0050    -0.8810 H     1 <1>   0.0800 
 28 H        0.9630    -3.7840    -1.6800 H     1 <1>   0.0800 
 29 H        1.1780    -5.0980    -0.5470 H     1 <1>   0.0800 
 30 H        2.5650     4.8010    -1.3280 H     1 <1>   0.0800 
 31 H        0.6990     5.2600     1.0040 H     1 <1>   0.0800 
 32 H        0.1960     4.8920    -0.6220 H     1 <1>   0.0800 
 33 H        2.5610     6.1050     2.3550 H     1 <1>   0.1500 
 34 H        1.7570     7.3710     0.1700 H     1 <1>   0.0800 
 35 H        0.0570     7.3090    -0.2170 H     1 <1>   0.0800 
 36 H        1.2440     6.9690    -1.4510 H     1 <1>   0.0800 
 37 H        4.8130     4.4910    -1.7360 H     1 <1>   0.0800 
 38 H        5.1130     3.0900    -0.7210 H     1 <1>   0.0800 
 39 H        6.3410     4.3310    -0.8890 H     1 <1>   0.0800 
 40 H        5.0770     6.3720     3.0440 H     1 <1>   0.1500 
@<TRIPOS>BOND
  1   1   2  1   
  2   1   3  1   
  3   2   4  ar  
  4   2   5  ar  
  5   3   6  1   
  6   3  22  1   
  7   3  23  1   
  8   4   7  ar  
  9   5   8  ar  
 10   6   9  2   
 11   6  10  am  
 12   7  11  ar  
 13   7  12  1   
 14   8  11  ar  
 15   8  24  1   
 16  10  13  1   
 17  10  25  1   
 18  11  26  1   
 19  12  27  1   
 20  12  28  1   
 21  12  29  1   
 22  13  14  1   
 23  13  15  1   
 24  13  30  1   
 25  14  16  1   
 26  14  17  2   
 27  15  18  1   
 28  15  31  1   
 29  15  32  1   
 30  16  19  1   
 31  16  20  1   
 32  17  21  1   
 33  17  33  1   
 34  18  34  1   
 35  18  35  1   
 36  18  36  1   
 37  19  21  2   
 38  20  37  1   
 39  20  38  1   
 40  20  39  1   
 41  21  40  1   
@<TRIPOS>SUBSTRUCTURE
  1 ****  10 GROUP 4 **** **** 0

# MOE 2024.06 (io_trps.svl 2023.06)
