@<TRIPOS>MOLECULE
NONAME
53 56 1 0 0 
SMALL
USER_CHARGES


@<TRIPOS>ATOM
  1 O        1.4410     0.3280    -2.3570 O.2   1 <1>  -0.5700 
  2 C        2.4210     0.0890    -1.6560 C.2   1 <1>   0.6900 
  3 N        3.1850     1.0060    -1.0360 N.am  1 <1>  -0.4200 
  4 N        2.9410    -1.1280    -1.3430 N.am  1 <1>  -0.2980 
  5 C        4.1340     0.2840    -0.3520 C.2   1 <1>   0.4490 
  6 C        2.9160     2.4500    -0.8890 C.3   1 <1>   0.1400 
  7 N        4.0260    -0.9790    -0.5110 N.2   1 <1>  -0.5120 
  8 C        2.4530    -2.4510    -1.7720 C.3   1 <1>   0.0600 
  9 C        5.1870     0.9970     0.4770 C.3   1 <1>  -0.0990 
 10 C        4.1680     3.1750    -0.3610 C.3   1 <1>  -0.0190 
 11 C        4.7640     2.4300     0.8550 C.3   1 <1>  -0.1600 
 12 C        3.8500     4.6240    -0.0150 C.2   1 <1>   0.5690 
 13 O        2.7600     4.8980     0.4240 O.2   1 <1>  -0.5700 
 14 N        4.8420     5.5450    -0.1980 N.am  1 <1>  -0.4940 
 15 C        4.9050     6.9330     0.0550 C.2   1 <1>  -0.0880 
 16 N        3.9080     7.8600     0.0130 N.pl3 1 <1>   0.3140 
 17 C        6.0500     7.6030     0.3590 C.2   1 <1>  -0.0540 
 18 N        4.3790     9.0990     0.2750 N.2   1 <1>  -0.7070 
 19 C        2.4930     7.6880    -0.3390 C.3   1 <1>   0.0160 
 20 C        7.3730     7.0550     0.5390 C.ar  1 <1>   0.0540 
 21 C        5.6460     8.9350     0.4740 C.2   1 <1>   0.1080 
 22 C        8.4150     7.2920    -0.3650 C.ar  1 <1>   0.0820 
 23 C        7.6250     6.2510     1.6470 C.ar  1 <1>  -0.1500 
 24 C        6.5680    10.0890     0.7960 C.3   1 <1>  -0.0590 
 25 O        8.1430     8.0710    -1.4460 O.3   1 <1>  -0.3620 
 26 C        9.6710     6.7320    -0.1440 C.ar  1 <1>  -0.1500 
 27 C        8.8720     5.6950     1.8620 C.ar  1 <1>  -0.1500 
 28 C        9.1380     8.4410    -2.3740 C.3   1 <1>   0.0400 
 29 C        9.8970     5.9360     0.9650 C.ar  1 <1>  -0.1500 
 30 H        2.0980     2.5680    -0.1990 H     1 <1>   0.0800 
 31 H        2.6170     2.8580    -1.8400 H     1 <1>   0.0800 
 32 H        1.5970    -2.3340    -2.4120 H     1 <1>   0.0800 
 33 H        2.1780    -3.0250    -0.9060 H     1 <1>   0.0800 
 34 H        3.2340    -2.9600    -2.3060 H     1 <1>   0.0800 
 35 H        6.0900     1.0320    -0.1050 H     1 <1>   0.0800 
 36 H        5.3870     0.4230     1.3630 H     1 <1>   0.0800 
 37 H        4.8950     3.1810    -1.1530 H     1 <1>   0.0800 
 38 H        5.6150     2.9640     1.2420 H     1 <1>   0.0800 
 39 H        4.0220     2.3860     1.6360 H     1 <1>   0.0800 
 40 H        5.7490     5.1590    -0.4660 H     1 <1>   0.3700 
 41 H        2.4070     6.9760    -1.1370 H     1 <1>   0.0800 
 42 H        2.0910     8.6330    -0.6530 H     1 <1>   0.0800 
 43 H        1.9590     7.3390     0.5250 H     1 <1>   0.0800 
 44 H        6.8290     6.0710     2.3480 H     1 <1>   0.1500 
 45 H        7.2990     9.7870     1.5230 H     1 <1>   0.0800 
 46 H        5.9990    10.9110     1.1900 H     1 <1>   0.0800 
 47 H        7.0680    10.4060    -0.1000 H     1 <1>   0.0800 
 48 H       10.4850     6.9000    -0.8220 H     1 <1>   0.1500 
 49 H        9.0480     5.0800     2.7280 H     1 <1>   0.1500 
 50 H        8.6860     9.0820    -3.1090 H     1 <1>   0.0800 
 51 H        9.5210     7.5550    -2.8480 H     1 <1>   0.0800 
 52 H        9.9180     8.9720    -1.8570 H     1 <1>   0.0800 
 53 H       10.8710     5.5070     1.1320 H     1 <1>   0.1500 
@<TRIPOS>BOND
  1   1   2  2   
  2   2   3  am  
  3   2   4  am  
  4   3   5  1   
  5   3   6  1   
  6   4   7  1   
  7   4   8  1   
  8   5   7  2   
  9   5   9  1   
 10   6  10  1   
 11   6  30  1   
 12   6  31  1   
 13   8  32  1   
 14   8  33  1   
 15   8  34  1   
 16   9  11  1   
 17   9  35  1   
 18   9  36  1   
 19  10  11  1   
 20  10  12  1   
 21  10  37  1   
 22  11  38  1   
 23  11  39  1   
 24  12  13  2   
 25  12  14  am  
 26  14  15  1   
 27  14  40  1   
 28  15  16  1   
 29  15  17  2   
 30  16  18  1   
 31  16  19  1   
 32  17  20  1   
 33  17  21  1   
 34  18  21  2   
 35  19  41  1   
 36  19  42  1   
 37  19  43  1   
 38  20  22  ar  
 39  20  23  ar  
 40  21  24  1   
 41  22  25  1   
 42  22  26  ar  
 43  23  27  ar  
 44  23  44  1   
 45  24  45  1   
 46  24  46  1   
 47  24  47  1   
 48  25  28  1   
 49  26  29  ar  
 50  26  48  1   
 51  27  29  ar  
 52  27  49  1   
 53  28  50  1   
 54  28  51  1   
 55  28  52  1   
 56  29  53  1   
@<TRIPOS>SUBSTRUCTURE
  1 ****  14 GROUP 4 **** **** 0

# MOE 2024.06 (io_trps.svl 2023.06)
