@<TRIPOS>MOLECULE
NONAME
47 49 1 0 0 
SMALL
USER_CHARGES


@<TRIPOS>ATOM
  1 CL      -0.2780     0.0410    -0.9870 Cl    1 <1>  -0.1230 
  2 C        0.7150    -1.3940    -0.8240 C.2   1 <1>   0.1230 
  3 C        2.0200    -1.4430    -0.4680 C.2   1 <1>  -0.3020 
  4 C        0.2680    -2.6870    -1.0490 C.2   1 <1>  -0.1500 
  5 N        2.4130    -2.7420    -0.4620 N.pl3 1 <1>   0.0480 
  6 C        1.3300    -3.5260    -0.8030 C.2   1 <1>  -0.2370 
  7 C        3.7830    -3.2070    -0.1670 C.3   1 <1>   0.0160 
  8 C        1.3890    -4.9600    -0.8830 C.2   1 <1>   0.7150 
  9 O        2.2940    -5.5020    -1.4860 O.2   1 <1>  -0.5700 
 10 N        0.4390    -5.7590    -0.2760 N.am  1 <1>  -0.6600 
 11 C       -0.4410    -5.3000     0.8420 C.3   1 <1>   0.1400 
 12 C        0.4000    -7.2320    -0.5250 C.3   1 <1>   0.1400 
 13 C       -1.8930    -5.8000     0.6710 C.3   1 <1>   0.4230 
 14 C       -1.0480    -7.7220    -0.7020 C.3   1 <1>   0.3430 
 15 N       -1.9550    -7.3000     0.4340 N.4   1 <1>  -0.9590 
 16 C       -2.6100    -5.0330    -0.4630 C.3   1 <1>   0.1200 
 17 C       -3.3910    -7.7030     0.2280 C.3   1 <1>   0.4230 
 18 O       -3.9250    -5.4880    -0.6020 O.3   1 <1>  -0.5600 
 19 C       -4.0620    -6.8540    -0.8810 C.3   1 <1>   0.1200 
 20 C       -3.4990    -9.2150    -0.0290 C.3   1 <1>  -0.1600 
 21 C       -4.9360    -9.7360     0.1280 C.3   1 <1>  -0.1600 
 22 C       -4.9880   -11.2550    -0.0560 C.3   1 <1>  -0.2400 
 23 H        2.6740    -0.6240    -0.2310 H     1 <1>   0.1500 
 24 H       -0.7260    -2.9330    -1.3690 H     1 <1>   0.1500 
 25 H        4.3870    -2.3790     0.1540 H     1 <1>   0.0800 
 26 H        4.2090    -3.6360    -1.0560 H     1 <1>   0.0800 
 27 H        3.7520    -3.9500     0.6080 H     1 <1>   0.0800 
 28 H       -0.0460    -5.6820     1.7680 H     1 <1>   0.0800 
 29 H       -0.4390    -4.2280     0.9230 H     1 <1>   0.0800 
 30 H        0.9550    -7.4780    -1.4160 H     1 <1>   0.0800 
 31 H        0.8660    -7.7460     0.2980 H     1 <1>   0.0800 
 32 H       -2.4220    -5.5700     1.5810 H     1 <1>   0.0800 
 33 H       -1.0380    -8.7970    -0.7860 H     1 <1>   0.0800 
 34 H       -1.4230    -7.3270    -1.6310 H     1 <1>   0.0800 
 35 H       -1.6240    -7.7630     1.2880 H     1 <1>   0.4500 
 36 H       -2.1000    -5.1480    -1.4030 H     1 <1>   0.0800 
 37 H       -2.6570    -3.9840    -0.2270 H     1 <1>   0.0800 
 38 H       -3.9290    -7.4980     1.1400 H     1 <1>   0.0800 
 39 H       -5.1160    -7.0630    -0.9260 H     1 <1>   0.0800 
 40 H       -3.6350    -7.0550    -1.8470 H     1 <1>   0.0800 
 41 H       -3.1580    -9.4510    -1.0220 H     1 <1>   0.0800 
 42 H       -2.8800    -9.7370     0.6800 H     1 <1>   0.0800 
 43 H       -5.3140    -9.4920     1.1070 H     1 <1>   0.0800 
 44 H       -5.5870    -9.2830    -0.6020 H     1 <1>   0.0800 
 45 H       -4.3800   -11.7510     0.6800 H     1 <1>   0.0800 
 46 H       -4.6430   -11.5340    -1.0360 H     1 <1>   0.0800 
 47 H       -6.0010   -11.6030     0.0550 H     1 <1>   0.0800 
@<TRIPOS>BOND
  1   1   2  1   
  2   2   3  2   
  3   2   4  1   
  4   3   5  1   
  5   3  23  1   
  6   4   6  2   
  7   4  24  1   
  8   5   6  1   
  9   5   7  1   
 10   6   8  1   
 11   7  25  1   
 12   7  26  1   
 13   7  27  1   
 14   8   9  2   
 15   8  10  am  
 16  10  11  1   
 17  10  12  1   
 18  11  13  1   
 19  11  28  1   
 20  11  29  1   
 21  12  14  1   
 22  12  30  1   
 23  12  31  1   
 24  13  15  1   
 25  13  16  1   
 26  13  32  1   
 27  14  15  1   
 28  14  33  1   
 29  14  34  1   
 30  15  17  1   
 31  15  35  1   
 32  16  18  1   
 33  16  36  1   
 34  16  37  1   
 35  17  19  1   
 36  17  20  1   
 37  17  38  1   
 38  18  19  1   
 39  19  39  1   
 40  19  40  1   
 41  20  21  1   
 42  20  41  1   
 43  20  42  1   
 44  21  22  1   
 45  21  43  1   
 46  21  44  1   
 47  22  45  1   
 48  22  46  1   
 49  22  47  1   
@<TRIPOS>SUBSTRUCTURE
  1 ****  11 GROUP 4 **** **** 0

# MOE 2024.06 (io_trps.svl 2023.06)
