@<TRIPOS>MOLECULE
NONAME
43 45 1 0 0 
SMALL
USER_CHARGES


@<TRIPOS>ATOM
  1 O        3.2550    -0.9400    -2.1030 O.2   1 <1>  -0.5700 
  2 C        2.4310    -1.1380    -1.2250 C.2   1 <1>   0.7160 
  3 N        2.0960    -0.1310    -0.3670 N.am  1 <1>  -0.4930 
  4 C        1.7910    -2.4130    -1.0620 C.2   1 <1>  -0.0860 
  5 C        2.5470     1.2080    -0.2750 C.2   1 <1>   0.0630 
  6 C        0.8550    -2.7660    -0.1190 C.2   1 <1>  -0.0260 
  7 C        1.9620    -3.5820    -1.8100 C.2   1 <1>   0.1080 
  8 C        2.1270     2.1300     0.6190 C.2   1 <1>  -0.3320 
  9 C        3.4950     1.8720    -1.0520 C.2   1 <1>   0.1390 
 10 N        0.2890    -2.0240     0.8970 N.2   1 <1>  -0.5760 
 11 N        0.5380    -4.0800    -0.3560 N.pl3 1 <1>   0.6010 
 12 N        1.2300    -4.5730    -1.4040 N.2   1 <1>  -0.7070 
 13 C        2.8960    -3.7460    -2.9920 C.3   1 <1>  -0.0590 
 14 N        2.8180     3.2690     0.3540 N.pl3 1 <1>   0.3140 
 15 C        1.0920     1.9870     1.7260 C.3   1 <1>  -0.0600 
 16 N        3.6610     3.1070    -0.6820 N.2   1 <1>  -0.7070 
 17 C       -0.5780    -2.6320     1.6420 C.2   1 <1>   0.3750 
 18 C       -0.3910    -4.7210     0.4480 C.2   1 <1>  -0.1690 
 19 C        2.7200     4.5690     1.0530 C.3   1 <1>   0.0960 
 20 C       -0.9500    -3.9910     1.4510 C.2   1 <1>  -0.1360 
 21 C       -1.2290    -1.8660     2.7720 C.3   1 <1>  -0.1790 
 22 C       -0.7240    -6.1790     0.1630 C.3   1 <1>  -0.1020 
 23 C        3.6620     4.6210     2.2630 C.3   1 <1>  -0.2400 
 24 H        1.3960    -0.4220     0.3220 H     1 <1>   0.3700 
 25 H        4.0320     1.4190    -1.8680 H     1 <1>   0.1500 
 26 H        2.6300    -3.0510    -3.7670 H     1 <1>   0.0800 
 27 H        2.8300    -4.7450    -3.3820 H     1 <1>   0.0800 
 28 H        3.9090    -3.5580    -2.6860 H     1 <1>   0.0800 
 29 H        0.6850     0.9930     1.7390 H     1 <1>   0.0800 
 30 H        0.2850     2.6800     1.5700 H     1 <1>   0.0800 
 31 H        1.5420     2.1810     2.6830 H     1 <1>   0.0800 
 32 H        1.7030     4.7220     1.3600 H     1 <1>   0.0800 
 33 H        2.9840     5.3410     0.3530 H     1 <1>   0.0800 
 34 H       -1.6790    -4.4140     2.1180 H     1 <1>   0.1500 
 35 H       -1.0160    -2.3460     3.7090 H     1 <1>   0.0800 
 36 H       -2.2930    -1.8330     2.6240 H     1 <1>   0.0800 
 37 H       -0.8550    -0.8590     2.8080 H     1 <1>   0.0800 
 38 H        0.1650    -6.7810     0.2420 H     1 <1>   0.0800 
 39 H       -1.1130    -6.2780    -0.8360 H     1 <1>   0.0800 
 40 H       -1.4560    -6.5520     0.8570 H     1 <1>   0.0800 
 41 H        3.4060     3.8570     2.9740 H     1 <1>   0.0800 
 42 H        3.5860     5.5790     2.7430 H     1 <1>   0.0800 
 43 H        4.6790     4.4790     1.9400 H     1 <1>   0.0800 
@<TRIPOS>BOND
  1   1   2  2   
  2   2   3  am  
  3   2   4  1   
  4   3   5  1   
  5   3  24  1   
  6   4   6  2   
  7   4   7  1   
  8   5   8  2   
  9   5   9  1   
 10   6  10  1   
 11   6  11  1   
 12   7  12  2   
 13   7  13  1   
 14   8  14  1   
 15   8  15  1   
 16   9  16  2   
 17   9  25  1   
 18  10  17  2   
 19  11  12  1   
 20  11  18  1   
 21  13  26  1   
 22  13  27  1   
 23  13  28  1   
 24  14  16  1   
 25  14  19  1   
 26  15  29  1   
 27  15  30  1   
 28  15  31  1   
 29  17  20  1   
 30  17  21  1   
 31  18  20  2   
 32  18  22  1   
 33  19  23  1   
 34  19  32  1   
 35  19  33  1   
 36  20  34  1   
 37  21  35  1   
 38  21  36  1   
 39  21  37  1   
 40  22  38  1   
 41  22  39  1   
 42  22  40  1   
 43  23  41  1   
 44  23  42  1   
 45  23  43  1   
@<TRIPOS>SUBSTRUCTURE
  1 ****   3 GROUP 4 **** **** 0

# MOE 2024.06 (io_trps.svl 2023.06)
