@<TRIPOS>MOLECULE
NONAME
57 60 1 0 0 
SMALL
USER_CHARGES


@<TRIPOS>ATOM
  1 O        0.4700     0.6140     0.2400 O.2   1 <1>  -0.5700 
  2 C       -0.0950     1.5980    -0.1750 C.2   1 <1>   0.5690 
  3 N       -1.4600     1.6320    -0.3260 N.am  1 <1>  -0.6600 
  4 C        0.7430     2.8240    -0.5300 C.3   1 <1>  -0.0990 
  5 C       -2.2570     2.8220    -0.7670 C.3   1 <1>   0.1400 
  6 C       -2.2970     0.4270    -0.0530 C.3   1 <1>   0.1400 
  7 C        2.2650     2.6310    -0.3790 C.3   1 <1>  -0.1600 
  8 C       -3.3160     3.2000     0.2870 C.3   1 <1>   0.1440 
  9 C       -3.3700     0.7540     0.9940 C.3   1 <1>  -0.1600 
 10 C        3.0290     3.8990    -0.7600 C.3   1 <1>   0.1200 
 11 C       -4.1080     4.3830    -0.2360 C.ar  1 <1>   0.1660 
 12 C       -4.2100     1.9780     0.5870 C.3   1 <1>  -0.1600 
 13 C       -2.6680     3.7740     1.5780 C.3   1 <1>  -0.1600 
 14 O        4.3820     3.6450    -0.5930 O.3   1 <1>  -0.5600 
 15 N       -4.9820     4.3400    -1.2180 N.ar  1 <1>  -0.6200 
 16 C       -3.7950     5.5330     0.4240 C.ar  1 <1>  -0.1440 
 17 C       -2.7470     5.3080     1.4840 C.3   1 <1>  -0.0170 
 18 C        5.2110     4.7300    -0.8790 C.3   1 <1>   0.2630 
 19 C       -5.5460     5.5060    -1.5020 C.ar  1 <1>   0.4770 
 20 C       -4.4400     6.6850     0.0470 C.ar  1 <1>   0.1600 
 21 C        6.6680     4.3350    -0.6800 C.ar  1 <1>  -0.1440 
 22 N       -5.3270     6.6800    -0.9260 N.ar  1 <1>  -0.6200 
 23 C       -6.5670     5.4990    -2.6140 C.3   1 <1>  -0.0970 
 24 C        7.6370     4.7770    -1.5690 C.ar  1 <1>  -0.1500 
 25 C        7.0500     3.5440     0.3940 C.ar  1 <1>  -0.1500 
 26 C        8.9660     4.4350    -1.3880 C.ar  1 <1>  -0.1500 
 27 C        8.3780     3.2010     0.5780 C.ar  1 <1>  -0.1500 
 28 C        9.3380     3.6470    -0.3130 C.ar  1 <1>  -0.1500 
 29 H        0.4340     3.6330     0.1040 H     1 <1>   0.0800 
 30 H        0.5310     3.0850    -1.5510 H     1 <1>   0.0800 
 31 H       -2.7560     2.5770    -1.6900 H     1 <1>   0.0800 
 32 H       -1.6290     3.6710    -0.9570 H     1 <1>   0.0800 
 33 H       -1.6900    -0.3900     0.3000 H     1 <1>   0.0800 
 34 H       -2.7660     0.1150    -0.9700 H     1 <1>   0.0800 
 35 H        2.5860     1.8220    -1.0120 H     1 <1>   0.0800 
 36 H        2.4930     2.3740     0.6410 H     1 <1>   0.0800 
 37 H       -2.8870     0.9300     1.9390 H     1 <1>   0.0800 
 38 H       -4.0140    -0.0990     1.1140 H     1 <1>   0.0800 
 39 H        2.7480     4.7170    -0.1190 H     1 <1>   0.0800 
 40 H        2.8500     4.1550    -1.7910 H     1 <1>   0.0800 
 41 H       -4.7720     1.7330    -0.2980 H     1 <1>   0.0800 
 42 H       -4.9190     2.2170     1.3600 H     1 <1>   0.0800 
 43 H       -1.6570     3.4350     1.7200 H     1 <1>   0.0800 
 44 H       -3.2430     3.4660     2.4330 H     1 <1>   0.0800 
 45 H       -1.8070     5.7190     1.1590 H     1 <1>   0.0800 
 46 H       -3.0320     5.7460     2.4250 H     1 <1>   0.0800 
 47 H        4.9590     5.5390    -0.2150 H     1 <1>   0.0800 
 48 H        5.0400     5.0280    -1.8990 H     1 <1>   0.0800 
 49 H       -4.2290     7.6170     0.5410 H     1 <1>   0.1500 
 50 H       -6.4360     4.6330    -3.2360 H     1 <1>   0.0800 
 51 H       -6.4560     6.3820    -3.2150 H     1 <1>   0.0800 
 52 H       -7.5520     5.4830    -2.1890 H     1 <1>   0.0800 
 53 H        7.3620     5.3900    -2.4100 H     1 <1>   0.1500 
 54 H        6.3060     3.1900     1.0870 H     1 <1>   0.1500 
 55 H        9.7100     4.7820    -2.0820 H     1 <1>   0.1500 
 56 H        8.6610     2.5850     1.4130 H     1 <1>   0.1500 
 57 H       10.3700     3.3800    -0.1710 H     1 <1>   0.1500 
@<TRIPOS>BOND
  1   1   2  2   
  2   2   3  am  
  3   2   4  1   
  4   3   5  1   
  5   3   6  1   
  6   4   7  1   
  7   4  29  1   
  8   4  30  1   
  9   5   8  1   
 10   5  31  1   
 11   5  32  1   
 12   6   9  1   
 13   6  33  1   
 14   6  34  1   
 15   7  10  1   
 16   7  35  1   
 17   7  36  1   
 18   8  11  1   
 19   8  12  1   
 20   8  13  1   
 21   9  12  1   
 22   9  37  1   
 23   9  38  1   
 24  10  14  1   
 25  10  39  1   
 26  10  40  1   
 27  11  15  ar  
 28  11  16  ar  
 29  12  41  1   
 30  12  42  1   
 31  13  17  1   
 32  13  43  1   
 33  13  44  1   
 34  14  18  1   
 35  15  19  ar  
 36  16  17  1   
 37  16  20  ar  
 38  17  45  1   
 39  17  46  1   
 40  18  21  1   
 41  18  47  1   
 42  18  48  1   
 43  19  22  ar  
 44  19  23  1   
 45  20  22  ar  
 46  20  49  1   
 47  21  24  ar  
 48  21  25  ar  
 49  23  50  1   
 50  23  51  1   
 51  23  52  1   
 52  24  26  ar  
 53  24  53  1   
 54  25  27  ar  
 55  25  54  1   
 56  26  28  ar  
 57  26  55  1   
 58  27  28  ar  
 59  27  56  1   
 60  28  57  1   
@<TRIPOS>SUBSTRUCTURE
  1 ****   4 GROUP 4 **** **** 0

# MOE 2024.06 (io_trps.svl 2023.06)
