@<TRIPOS>MOLECULE
NONAME
46 48 1 0 0 
SMALL
USER_CHARGES


@<TRIPOS>ATOM
  1 S       -1.8330    -0.4490    -0.0490 S.3   1 <1>  -0.3320 
  2 C       -1.1760    -2.1070     0.2010 C.ar  1 <1>   0.1020 
  3 C       -0.4070     0.6440    -0.4770 C.3   1 <1>  -0.0100 
  4 C       -2.0540    -3.0960     0.5460 C.ar  1 <1>  -0.1500 
  5 C        0.1860    -2.3840     0.0490 C.ar  1 <1>  -0.1500 
  6 C       -1.6200    -4.4120     0.7600 C.ar  1 <1>   0.3100 
  7 C        0.6370    -3.6610     0.2530 C.ar  1 <1>  -0.1500 
  8 N       -2.5510    -5.3370     1.0940 N.ar  1 <1>  -0.6200 
  9 C       -0.2410    -4.7070     0.6140 C.ar  1 <1>   0.0000 
 10 C       -2.1350    -6.5490     1.2860 C.ar  1 <1>   0.4100 
 11 C        0.1730    -6.0390     0.8450 C.ar  1 <1>  -0.1430 
 12 N       -3.1090    -7.4460     1.5980 N.pl3 1 <1>  -0.8690 
 13 C       -0.7880    -6.9410     1.1830 C.ar  1 <1>  -0.1500 
 14 C        1.6310    -6.4580     0.7330 C.3   1 <1>  -0.0970 
 15 C       -3.2740    -8.7090     0.8400 C.3   1 <1>   0.2090 
 16 C       -4.5870    -8.7290     0.0240 C.3   1 <1>   0.0000 
 17 C       -5.8220    -8.7160     0.9610 C.3   1 <1>  -0.1600 
 18 C       -4.6800   -10.0720    -0.7440 C.3   1 <1>  -0.1600 
 19 C       -4.5960    -7.5250    -0.9530 C.3   1 <1>   0.1200 
 20 C       -6.4590   -10.1020     0.8680 C.3   1 <1>  -0.1600 
 21 C       -6.0970   -10.5980    -0.5240 C.3   1 <1>  -0.1600 
 22 O       -5.7090    -7.5620    -1.7840 O.3   1 <1>  -0.6800 
 23 H       -0.7920     1.6380    -0.6190 H     1 <1>   0.0800 
 24 H        0.0360     0.2740    -1.3840 H     1 <1>   0.0800 
 25 H        0.2890     0.6190     0.3430 H     1 <1>   0.0800 
 26 H       -3.1000    -2.8830     0.6600 H     1 <1>   0.1500 
 27 H        0.8740    -1.6090    -0.2240 H     1 <1>   0.1500 
 28 H        1.6840    -3.8720     0.1370 H     1 <1>   0.1500 
 29 H       -3.9980    -6.9610     1.7510 H     1 <1>   0.4000 
 30 H       -0.5540    -7.9660     1.3900 H     1 <1>   0.1500 
 31 H        2.2300    -5.9000     1.4300 H     1 <1>   0.0800 
 32 H        1.9920    -6.2790    -0.2640 H     1 <1>   0.0800 
 33 H        1.7470    -7.5040     0.9510 H     1 <1>   0.0800 
 34 H       -3.2700    -9.5290     1.5390 H     1 <1>   0.0800 
 35 H       -2.4410    -8.8410     0.1700 H     1 <1>   0.0800 
 36 H       -6.5390    -7.9850     0.6260 H     1 <1>   0.0800 
 37 H       -5.5710    -8.4850     1.9810 H     1 <1>   0.0800 
 38 H       -3.9960   -10.7890    -0.3250 H     1 <1>   0.0800 
 39 H       -4.4510    -9.9740    -1.7910 H     1 <1>   0.0800 
 40 H       -3.7180    -7.5390    -1.5760 H     1 <1>   0.0800 
 41 H       -4.6180    -6.5890    -0.4200 H     1 <1>   0.0800 
 42 H       -7.5240   -10.0670     1.0210 H     1 <1>   0.0800 
 43 H       -6.0180   -10.7500     1.6060 H     1 <1>   0.0800 
 44 H       -6.1480   -11.6710    -0.5960 H     1 <1>   0.0800 
 45 H       -6.7700   -10.1630    -1.2440 H     1 <1>   0.0800 
 46 H       -5.8680    -8.4790    -2.0780 H     1 <1>   0.4000 
@<TRIPOS>BOND
  1   1   2  1   
  2   1   3  1   
  3   2   4  ar  
  4   2   5  ar  
  5   3  23  1   
  6   3  24  1   
  7   3  25  1   
  8   4   6  ar  
  9   4  26  1   
 10   5   7  ar  
 11   5  27  1   
 12   6   8  ar  
 13   6   9  ar  
 14   7   9  ar  
 15   7  28  1   
 16   8  10  ar  
 17   9  11  ar  
 18  10  12  1   
 19  10  13  ar  
 20  11  13  ar  
 21  11  14  1   
 22  12  15  1   
 23  12  29  1   
 24  13  30  1   
 25  14  31  1   
 26  14  32  1   
 27  14  33  1   
 28  15  16  1   
 29  15  34  1   
 30  15  35  1   
 31  16  17  1   
 32  16  18  1   
 33  16  19  1   
 34  17  20  1   
 35  17  36  1   
 36  17  37  1   
 37  18  21  1   
 38  18  38  1   
 39  18  39  1   
 40  19  22  1   
 41  19  40  1   
 42  19  41  1   
 43  20  21  1   
 44  20  42  1   
 45  20  43  1   
 46  21  44  1   
 47  21  45  1   
 48  22  46  1   
@<TRIPOS>SUBSTRUCTURE
  1 ****   8 GROUP 4 **** **** 0

# MOE 2024.06 (io_trps.svl 2023.06)
