@<TRIPOS>MOLECULE
NONAME
48 50 1 0 0 
SMALL
USER_CHARGES


@<TRIPOS>ATOM
  1 S       -0.1490    -0.0830     0.1260 S.o2  1 <1>   1.3330 
  2 O       -0.0360    -0.6690     1.4430 O.2   1 <1>  -0.6500 
  3 O       -0.9480     1.1060    -0.0590 O.2   1 <1>  -0.6500 
  4 N       -0.7270    -1.2840    -0.9260 N.am  1 <1>  -0.8490 
  5 C        1.4870     0.2500    -0.5290 C.3   1 <1>  -0.0550 
  6 C       -0.3120    -2.6400    -0.5480 C.3   1 <1>   0.1160 
  7 C       -2.1840    -1.2340    -1.0810 C.3   1 <1>   0.1160 
  8 C        2.2190     1.3990     0.1930 C.3   1 <1>  -0.0800 
  9 C        3.4990     1.7730    -0.5350 C.3   1 <1>   0.2200 
 10 C        2.7330     0.9810     1.5790 C.3   1 <1>   0.1200 
 11 N        3.8380     3.1790    -0.2200 N.am  1 <1>  -0.7300 
 12 C        4.5130     0.8490     0.1260 C.3   1 <1>   0.1200 
 13 O        4.1040     0.7350     1.4540 O.3   1 <1>  -0.5600 
 14 C        3.9530     4.1900    -1.1300 C.2   1 <1>   0.5440 
 15 O        3.7830     3.9270    -2.3040 O.2   1 <1>  -0.5700 
 16 C        4.2860     5.5400    -0.7070 C.ar  1 <1>   0.0860 
 17 C        4.0060     6.0070     0.5800 C.ar  1 <1>  -0.1500 
 18 C        4.9040     6.4340    -1.5820 C.ar  1 <1>  -0.1500 
 19 C        4.3370     7.2900     0.9730 C.ar  1 <1>  -0.1500 
 20 C        5.2360     7.7190    -1.1960 C.ar  1 <1>  -0.1500 
 21 C        4.9600     8.1660     0.0910 C.ar  1 <1>  -0.0230 
 22 N        5.3030     9.4820     0.4940 N.pl3 1 <1>   0.3260 
 23 C        6.4500    10.1710     0.2490 C.2   1 <1>   0.0360 
 24 C        4.5650    10.3530     1.2190 C.2   1 <1>  -0.3020 
 25 N        6.4840    11.3640     0.7470 N.2   1 <1>  -0.5650 
 26 C        5.2920    11.4810     1.3610 C.2   1 <1>   0.0770 
 27 H        2.0800    -0.6420    -0.4840 H     1 <1>   0.0800 
 28 H        1.3770     0.5170    -1.5630 H     1 <1>   0.0800 
 29 H       -0.6260    -3.3450    -1.2990 H     1 <1>   0.0800 
 30 H       -0.7480    -2.9170     0.3980 H     1 <1>   0.0800 
 31 H        0.7590    -2.6900    -0.4620 H     1 <1>   0.0800 
 32 H       -2.5140    -1.9970    -1.7650 H     1 <1>   0.0800 
 33 H       -2.4800    -0.2770    -1.4790 H     1 <1>   0.0800 
 34 H       -2.6680    -1.3760    -0.1290 H     1 <1>   0.0800 
 35 H        1.5530     2.2430     0.2610 H     1 <1>   0.0800 
 36 H        3.4460     1.6220    -1.6000 H     1 <1>   0.0800 
 37 H        2.2620     0.0920     1.9600 H     1 <1>   0.0800 
 38 H        2.6100     1.7790     2.2910 H     1 <1>   0.0800 
 39 H        4.1230     3.3270     0.7500 H     1 <1>   0.3700 
 40 H        5.5160     1.2360     0.0850 H     1 <1>   0.0800 
 41 H        4.4810    -0.1310    -0.3150 H     1 <1>   0.0800 
 42 H        3.5140     5.3590     1.2830 H     1 <1>   0.1500 
 43 H        5.1230     6.1090    -2.5860 H     1 <1>   0.1500 
 44 H        4.1100     7.6130     1.9750 H     1 <1>   0.1500 
 45 H        5.7080     8.3770    -1.9060 H     1 <1>   0.1500 
 46 H        7.2510     9.7300    -0.3150 H     1 <1>   0.1500 
 47 H        3.5810    10.1200     1.5800 H     1 <1>   0.1500 
 48 H        5.0200    12.3870     1.8790 H     1 <1>   0.1500 
@<TRIPOS>BOND
  1   1   2  2   
  2   1   3  2   
  3   1   4  am  
  4   1   5  1   
  5   4   6  1   
  6   4   7  1   
  7   5   8  1   
  8   5  27  1   
  9   5  28  1   
 10   6  29  1   
 11   6  30  1   
 12   6  31  1   
 13   7  32  1   
 14   7  33  1   
 15   7  34  1   
 16   8   9  1   
 17   8  10  1   
 18   8  35  1   
 19   9  11  1   
 20   9  12  1   
 21   9  36  1   
 22  10  13  1   
 23  10  37  1   
 24  10  38  1   
 25  11  14  am  
 26  11  39  1   
 27  12  13  1   
 28  12  40  1   
 29  12  41  1   
 30  14  15  2   
 31  14  16  1   
 32  16  17  ar  
 33  16  18  ar  
 34  17  19  ar  
 35  17  42  1   
 36  18  20  ar  
 37  18  43  1   
 38  19  21  ar  
 39  19  44  1   
 40  20  21  ar  
 41  20  45  1   
 42  21  22  1   
 43  22  23  1   
 44  22  24  1   
 45  23  25  2   
 46  23  46  1   
 47  24  26  2   
 48  24  47  1   
 49  25  26  1   
 50  26  48  1   
@<TRIPOS>SUBSTRUCTURE
  1 ****  11 GROUP 4 **** **** 0

# MOE 2024.06 (io_trps.svl 2023.06)
