@<TRIPOS>MOLECULE
NONAME
39 41 1 0 0 
SMALL
USER_CHARGES


@<TRIPOS>ATOM
  1 O       -1.3440    -0.7340     0.9420 O.3   1 <1>  -0.5600 
  2 C       -1.8050     0.5290     1.3060 C.3   1 <1>   0.1200 
  3 C       -1.2490    -1.0170    -0.4160 C.3   1 <1>   0.1200 
  4 C       -3.2940     0.7540     0.9670 C.3   1 <1>   0.4230 
  5 C       -2.6330    -1.2900    -1.0240 C.3   1 <1>  -0.0800 
  6 N       -3.4720     1.1100    -0.5040 N.4   1 <1>  -0.9590 
  7 C       -4.1880    -0.4010     1.5110 C.3   1 <1>   0.2090 
  8 C       -3.5320    -2.1780    -0.1380 C.3   1 <1>   0.2090 
  9 C       -3.3570    -0.0200    -1.4990 C.3   1 <1>   0.3430 
 10 C       -4.7920     1.7850    -0.7010 C.3   1 <1>   0.2630 
 11 N       -4.6440    -1.3770     0.4620 N.pl3 1 <1>  -0.8380 
 12 C       -5.9460    -1.4340     0.0040 C.ar  1 <1>   0.7200 
 13 N       -6.8390    -0.6810     0.6290 N.ar  1 <1>  -0.6200 
 14 N       -6.1770    -2.1920    -1.0640 N.ar  1 <1>  -0.6200 
 15 C       -8.0720    -0.7520     0.1940 C.ar  1 <1>   0.4100 
 16 C       -7.4230    -2.2540    -1.4760 C.ar  1 <1>   0.1600 
 17 N       -8.9440     0.0360     0.8820 N.pl3 1 <1>  -0.9000 
 18 C       -8.4390    -1.5540    -0.8780 C.ar  1 <1>   0.0730 
 19 C       -9.7840    -1.6410    -1.3380 C.1   1 <1>   0.4840 
 20 N      -10.8620    -1.7090    -1.7020 N.1   1 <1>  -0.5570 
 21 H       -1.6790     0.5970     2.3730 H     1 <1>   0.0800 
 22 H       -1.1770     1.2770     0.8530 H     1 <1>   0.0800 
 23 H       -0.7310    -0.2160    -0.9160 H     1 <1>   0.0800 
 24 H       -0.6460    -1.9060    -0.4970 H     1 <1>   0.0800 
 25 H       -3.5720     1.6270     1.5340 H     1 <1>   0.0800 
 26 H       -2.4470    -1.8640    -1.9140 H     1 <1>   0.0800 
 27 H       -2.7330     1.7850    -0.7330 H     1 <1>   0.4500 
 28 H       -5.0290     0.0400     2.0140 H     1 <1>   0.0800 
 29 H       -3.6500    -0.9420     2.2700 H     1 <1>   0.0800 
 30 H       -2.9570    -2.6370     0.6490 H     1 <1>   0.0800 
 31 H       -3.9260    -2.9870    -0.7290 H     1 <1>   0.0800 
 32 H       -4.3470    -0.3190    -1.8030 H     1 <1>   0.0800 
 33 H       -2.8590     0.3480    -2.3800 H     1 <1>   0.0800 
 34 H       -5.5960     1.1070    -0.4680 H     1 <1>   0.0800 
 35 H       -4.9020     2.1050    -1.7250 H     1 <1>   0.0800 
 36 H       -4.8760     2.6480    -0.0600 H     1 <1>   0.0800 
 37 H       -7.6380    -2.8880    -2.3220 H     1 <1>   0.1500 
 38 H       -8.6250     0.3940     1.7860 H     1 <1>   0.4000 
 39 H       -9.9580    -0.1070     0.8270 H     1 <1>   0.4000 
@<TRIPOS>BOND
  1   1   2  1   
  2   1   3  1   
  3   2   4  1   
  4   2  21  1   
  5   2  22  1   
  6   3   5  1   
  7   3  23  1   
  8   3  24  1   
  9   4   6  1   
 10   4   7  1   
 11   4  25  1   
 12   5   8  1   
 13   5   9  1   
 14   5  26  1   
 15   6   9  1   
 16   6  10  1   
 17   6  27  1   
 18   7  11  1   
 19   7  28  1   
 20   7  29  1   
 21   8  11  1   
 22   8  30  1   
 23   8  31  1   
 24   9  32  1   
 25   9  33  1   
 26  10  34  1   
 27  10  35  1   
 28  10  36  1   
 29  11  12  1   
 30  12  13  ar  
 31  12  14  ar  
 32  13  15  ar  
 33  14  16  ar  
 34  15  17  1   
 35  15  18  ar  
 36  16  18  ar  
 37  16  37  1   
 38  17  38  1   
 39  17  39  1   
 40  18  19  1   
 41  19  20  3   
@<TRIPOS>SUBSTRUCTURE
  1 ****  12 GROUP 4 **** **** 0

# MOE 2024.06 (io_trps.svl 2023.06)
