@<TRIPOS>MOLECULE
NONAME
55 57 1 0 0 
SMALL
USER_CHARGES


@<TRIPOS>ATOM
  1 F        3.2970     2.3560    -0.2570 F     1 <1>  -0.1900 
  2 C        2.4090     3.2600     0.0630 C.ar  1 <1>   0.1900 
  3 C        1.3740     3.5200    -0.8140 C.ar  1 <1>  -0.1500 
  4 C        2.5340     3.9190     1.2690 C.ar  1 <1>  -0.1500 
  5 C        0.4350     4.4840    -0.4840 C.ar  1 <1>  -0.1440 
  6 C        1.5970     4.8820     1.5930 C.ar  1 <1>  -0.1500 
  7 C        0.5550     5.1950     0.7170 C.ar  1 <1>   0.1170 
  8 C       -0.7320     4.7130    -1.4400 C.3   1 <1>  -0.0160 
  9 N       -0.3520     6.2300     1.0200 N.am  1 <1>  -0.4770 
 10 C       -1.5700     5.9490    -1.0820 C.3   1 <1>  -0.1600 
 11 C        0.0740     7.4000     1.5950 C.2   1 <1>   0.5690 
 12 C       -1.7150     6.0850     0.4370 C.3   1 <1>   0.2200 
 13 O        0.3230     7.5090     2.7720 O.2   1 <1>  -0.5700 
 14 C        0.3870     8.6020     0.6980 C.3   1 <1>   0.4040 
 15 C       -2.6640     7.2300     0.8110 C.3   1 <1>  -0.2400 
 16 N        1.8350     9.0240     0.7780 N.4   1 <1>  -0.9590 
 17 C        2.0720    10.3590     0.1660 C.3   1 <1>   0.3430 
 18 C        2.7400     7.9750     0.2230 C.3   1 <1>   0.3430 
 19 C        3.5170    10.7920     0.4150 C.3   1 <1>  -0.1600 
 20 C        4.1930     8.3680     0.4810 C.3   1 <1>  -0.1600 
 21 C        4.5310     9.7520    -0.0970 C.3   1 <1>  -0.0800 
 22 C        5.9790    10.1240     0.2700 C.3   1 <1>  -0.1600 
 23 C        6.4670    11.4130    -0.3930 C.3   1 <1>   0.1200 
 24 O        7.7910    11.5850    -0.0260 O.3   1 <1>  -0.5600 
 25 C        8.3930    12.7150    -0.5710 C.3   1 <1>   0.0400 
 26 H        1.3100     2.9620    -1.7320 H     1 <1>   0.1500 
 27 H        3.3410     3.6720     1.9360 H     1 <1>   0.1500 
 28 H        1.6740     5.3850     2.5420 H     1 <1>   0.1500 
 29 H       -1.3660     3.8430    -1.3970 H     1 <1>   0.0800 
 30 H       -0.3720     4.8020    -2.4510 H     1 <1>   0.0800 
 31 H       -2.5420     5.8540    -1.5350 H     1 <1>   0.0800 
 32 H       -1.1070     6.8300    -1.4850 H     1 <1>   0.0800 
 33 H       -2.1360     5.1720     0.8260 H     1 <1>   0.0800 
 34 H       -0.2420     9.4150     1.0160 H     1 <1>   0.0800 
 35 H        0.1330     8.3530    -0.3170 H     1 <1>   0.0800 
 36 H       -2.3740     8.1610     0.3600 H     1 <1>   0.0800 
 37 H       -2.7180     7.3380     1.8810 H     1 <1>   0.0800 
 38 H       -3.6540     6.9950     0.4620 H     1 <1>   0.0800 
 39 H        2.0490     9.0900     1.7870 H     1 <1>   0.4500 
 40 H        1.4020    11.0880     0.5940 H     1 <1>   0.0800 
 41 H        1.8900    10.3110    -0.8960 H     1 <1>   0.0800 
 42 H        2.5770     7.8700    -0.8370 H     1 <1>   0.0800 
 43 H        2.5440     7.0250     0.6930 H     1 <1>   0.0800 
 44 H        3.6590    10.9590     1.4690 H     1 <1>   0.0800 
 45 H        3.6750    11.7320    -0.0830 H     1 <1>   0.0800 
 46 H        4.8330     7.6270     0.0340 H     1 <1>   0.0800 
 47 H        4.3790     8.3510     1.5410 H     1 <1>   0.0800 
 48 H        4.4590     9.6960    -1.1720 H     1 <1>   0.0800 
 49 H        6.6350     9.3300    -0.0410 H     1 <1>   0.0800 
 50 H        6.0710    10.2300     1.3380 H     1 <1>   0.0800 
 51 H        5.9070    12.2670    -0.0520 H     1 <1>   0.0800 
 52 H        6.4140    11.3370    -1.4660 H     1 <1>   0.0800 
 53 H        9.4100    12.7510    -0.2240 H     1 <1>   0.0800 
 54 H        7.8660    13.5940    -0.2420 H     1 <1>   0.0800 
 55 H        8.3790    12.6420    -1.6450 H     1 <1>   0.0800 
@<TRIPOS>BOND
  1   1   2  1   
  2   2   3  ar  
  3   2   4  ar  
  4   3   5  ar  
  5   3  26  1   
  6   4   6  ar  
  7   4  27  1   
  8   5   7  ar  
  9   5   8  1   
 10   6   7  ar  
 11   6  28  1   
 12   7   9  1   
 13   8  10  1   
 14   8  29  1   
 15   8  30  1   
 16   9  11  am  
 17   9  12  1   
 18  10  12  1   
 19  10  31  1   
 20  10  32  1   
 21  11  13  2   
 22  11  14  1   
 23  12  15  1   
 24  12  33  1   
 25  14  16  1   
 26  14  34  1   
 27  14  35  1   
 28  15  36  1   
 29  15  37  1   
 30  15  38  1   
 31  16  17  1   
 32  16  18  1   
 33  16  39  1   
 34  17  19  1   
 35  17  40  1   
 36  17  41  1   
 37  18  20  1   
 38  18  42  1   
 39  18  43  1   
 40  19  21  1   
 41  19  44  1   
 42  19  45  1   
 43  20  21  1   
 44  20  46  1   
 45  20  47  1   
 46  21  22  1   
 47  21  48  1   
 48  22  23  1   
 49  22  49  1   
 50  22  50  1   
 51  23  24  1   
 52  23  51  1   
 53  23  52  1   
 54  24  25  1   
 55  25  53  1   
 56  25  54  1   
 57  25  55  1   
@<TRIPOS>SUBSTRUCTURE
  1 ****  18 GROUP 4 **** **** 0

# MOE 2024.06 (io_trps.svl 2023.06)
