@<TRIPOS>MOLECULE
NONAME
45 46 1 0 0 
SMALL
USER_CHARGES


@<TRIPOS>ATOM
  1 O        0.3570     1.3990     0.4530 O.2   1 <1>  -0.5700 
  2 C       -0.8400     1.3060     0.3290 C.2   1 <1>   0.5690 
  3 N       -1.4920     1.7630    -0.7750 N.am  1 <1>  -0.7300 
  4 C       -1.6290     0.6710     1.4520 C.3   1 <1>   0.1570 
  5 C       -0.8670     2.4050    -1.9560 C.3   1 <1>   0.0600 
  6 N       -2.6170    -0.2720     0.9070 N.pl3 1 <1>   0.3140 
  7 N       -3.7860     0.1500     0.3850 N.2   1 <1>  -0.7070 
  8 C       -2.5050    -1.6180     0.8390 C.2   1 <1>  -0.3020 
  9 C       -4.3880    -0.9370     0.0010 C.2   1 <1>   0.1390 
 10 C       -3.6320    -2.0820     0.2590 C.2   1 <1>   0.0630 
 11 N       -3.9340    -3.4400    -0.0100 N.am  1 <1>  -0.4930 
 12 C       -5.0330    -3.9590    -0.6250 C.2   1 <1>   0.5690 
 13 O       -5.9380    -3.2830    -1.0520 O.2   1 <1>  -0.5700 
 14 C       -5.1270    -5.4620    -0.7790 C.3   1 <1>  -0.0990 
 15 C       -6.2800    -6.0330     0.0510 C.3   1 <1>   0.0210 
 16 C       -6.3040    -7.5450    -0.0790 C.2   1 <1>  -0.1810 
 17 C       -5.7050    -8.4660     0.7770 C.2   1 <1>   0.1080 
 18 C       -6.8910    -8.2980    -1.0350 C.2   1 <1>  -0.3320 
 19 N       -5.8960    -9.6870     0.3930 N.2   1 <1>  -0.7070 
 20 C       -4.9170    -8.1390     2.0250 C.3   1 <1>  -0.0590 
 21 N       -6.6310    -9.5880    -0.7240 N.pl3 1 <1>   0.3140 
 22 C       -7.6980    -7.8620    -2.2490 C.3   1 <1>  -0.0600 
 23 C       -7.0580   -10.7860    -1.4570 C.3   1 <1>   0.0160 
 24 H       -2.5040     1.5680    -0.8370 H     1 <1>   0.3700 
 25 H       -2.1450     1.4350     2.0000 H     1 <1>   0.0800 
 26 H       -0.9650     0.1470     2.1120 H     1 <1>   0.0800 
 27 H        0.1910     2.5300    -1.7980 H     1 <1>   0.0800 
 28 H       -1.3120     3.3700    -2.1230 H     1 <1>   0.0800 
 29 H       -1.0190     1.7890    -2.8260 H     1 <1>   0.0800 
 30 H       -1.6460    -2.1540     1.1960 H     1 <1>   0.1500 
 31 H       -5.3610    -0.9480    -0.4630 H     1 <1>   0.1500 
 32 H       -3.2200    -4.1020     0.2880 H     1 <1>   0.3700 
 33 H       -4.2050    -5.9250    -0.4810 H     1 <1>   0.0800 
 34 H       -5.2910    -5.6890    -1.8160 H     1 <1>   0.0800 
 35 H       -7.2140    -5.6270    -0.2960 H     1 <1>   0.0800 
 36 H       -6.1700    -5.7570     1.0840 H     1 <1>   0.0800 
 37 H       -4.1210    -7.4600     1.7890 H     1 <1>   0.0800 
 38 H       -4.4960    -9.0390     2.4350 H     1 <1>   0.0800 
 39 H       -5.5660    -7.6950     2.7560 H     1 <1>   0.0800 
 40 H       -7.7540    -6.7910    -2.3050 H     1 <1>   0.0800 
 41 H       -8.6990    -8.2510    -2.1870 H     1 <1>   0.0800 
 42 H       -7.2360    -8.2250    -3.1500 H     1 <1>   0.0800 
 43 H       -8.1300   -10.8070    -1.5020 H     1 <1>   0.0800 
 44 H       -6.7000   -11.6580    -0.9420 H     1 <1>   0.0800 
 45 H       -6.6450   -10.7570    -2.4480 H     1 <1>   0.0800 
@<TRIPOS>BOND
  1   1   2  2   
  2   2   3  am  
  3   2   4  1   
  4   3   5  1   
  5   3  24  1   
  6   4   6  1   
  7   4  25  1   
  8   4  26  1   
  9   5  27  1   
 10   5  28  1   
 11   5  29  1   
 12   6   7  1   
 13   6   8  1   
 14   7   9  2   
 15   8  10  2   
 16   8  30  1   
 17   9  10  1   
 18   9  31  1   
 19  10  11  1   
 20  11  12  am  
 21  11  32  1   
 22  12  13  2   
 23  12  14  1   
 24  14  15  1   
 25  14  33  1   
 26  14  34  1   
 27  15  16  1   
 28  15  35  1   
 29  15  36  1   
 30  16  17  1   
 31  16  18  2   
 32  17  19  2   
 33  17  20  1   
 34  18  21  1   
 35  18  22  1   
 36  19  21  1   
 37  20  37  1   
 38  20  38  1   
 39  20  39  1   
 40  21  23  1   
 41  22  40  1   
 42  22  41  1   
 43  22  42  1   
 44  23  43  1   
 45  23  44  1   
 46  23  45  1   
@<TRIPOS>SUBSTRUCTURE
  1 ****  11 GROUP 4 **** **** 0

# MOE 2024.06 (io_trps.svl 2023.06)
