@<TRIPOS>MOLECULE
NONAME
30 31 1 0 0 
SMALL
USER_CHARGES


@<TRIPOS>ATOM
  1 O       -0.7390     1.3250    -0.2520 O.co2 1 <1>  -0.9000 
  2 C        0.4930     1.2620    -0.3280 C.2   1 <1>   0.9470 
  3 O        1.0730     0.3910    -0.9860 O.co2 1 <1>  -0.9000 
  4 C        1.3110     2.3080     0.4130 C.3   1 <1>  -0.2470 
  5 C        1.9400     3.4300    -0.3650 C.3   1 <1>  -0.0680 
  6 C        2.8060     2.4150     0.3220 C.3   1 <1>  -0.2000 
  7 C        1.8280     4.8630     0.1460 C.ar  1 <1>  -0.0320 
  8 C        0.6160     5.5540     0.1890 C.ar  1 <1>  -0.1440 
  9 C        2.9890     5.4900     0.5740 C.ar  1 <1>  -0.1500 
 10 C        0.6030     6.8520     0.6880 C.ar  1 <1>  -0.1500 
 11 C       -0.7020     4.9290    -0.2950 C.3   1 <1>   0.0640 
 12 C        2.9640     6.7840     1.0600 C.ar  1 <1>  -0.1500 
 13 C        1.7640     7.4660     1.1200 C.ar  1 <1>  -0.1500 
 14 C       -1.3720     5.7910    -1.3720 C.3   1 <1>  -0.2400 
 15 C       -1.6530     4.6940     0.8810 C.3   1 <1>  -0.2400 
 16 H        0.8520     2.5530     1.3490 H     1 <1>   0.1000 
 17 H        1.8760     3.3690    -1.4380 H     1 <1>   0.1000 
 18 H        3.3190     1.6780    -0.2710 H     1 <1>   0.1000 
 19 H        3.3370     2.6710     1.2210 H     1 <1>   0.1000 
 20 H        3.9240     4.9620     0.5270 H     1 <1>   0.1500 
 21 H       -0.3220     7.3970     0.7440 H     1 <1>   0.1500 
 22 H       -0.5160     3.9730    -0.7480 H     1 <1>   0.0800 
 23 H        3.8720     7.2550     1.3900 H     1 <1>   0.1500 
 24 H        1.7330     8.4710     1.5010 H     1 <1>   0.1500 
 25 H       -1.6960     6.7340    -0.9740 H     1 <1>   0.0800 
 26 H       -2.2270     5.2740    -1.7700 H     1 <1>   0.0800 
 27 H       -0.6780     5.9690    -2.1740 H     1 <1>   0.0800 
 28 H       -1.9350     5.6200     1.3460 H     1 <1>   0.0800 
 29 H       -1.1700     4.0690     1.6110 H     1 <1>   0.0800 
 30 H       -2.5360     4.1830     0.5410 H     1 <1>   0.0800 
@<TRIPOS>BOND
  1   1   2  ar  
  2   2   3  ar  
  3   2   4  1   
  4   4   5  1   
  5   4   6  1   
  6   4  16  1   
  7   5   6  1   
  8   5   7  1   
  9   5  17  1   
 10   6  18  1   
 11   6  19  1   
 12   7   8  ar  
 13   7   9  ar  
 14   8  10  ar  
 15   8  11  1   
 16   9  12  ar  
 17   9  20  1   
 18  10  13  ar  
 19  10  21  1   
 20  11  14  1   
 21  11  15  1   
 22  11  22  1   
 23  12  13  ar  
 24  12  23  1   
 25  13  24  1   
 26  14  25  1   
 27  14  26  1   
 28  14  27  1   
 29  15  28  1   
 30  15  29  1   
 31  15  30  1   
@<TRIPOS>SUBSTRUCTURE
  1 ****   7 GROUP 4 **** **** 0

# MOE 2024.06 (io_trps.svl 2023.06)
