@<TRIPOS>MOLECULE
NONAME
51 54 1 0 0 
SMALL
USER_CHARGES


@<TRIPOS>ATOM
  1 O       -2.5850     0.5550    -2.1730 O.2   1 <1>  -0.5700 
  2 C       -2.2720     0.5860    -1.0090 C.2   1 <1>   0.5690 
  3 N       -2.0200    -0.5440    -0.3080 N.am  1 <1>  -0.7300 
  4 C       -2.1780     1.9210    -0.2990 C.3   1 <1>  -0.0990 
  5 C       -2.0010    -1.9130    -0.8730 C.3   1 <1>   0.2200 
  6 C       -0.7610     2.5170    -0.3580 C.3   1 <1>  -0.0800 
  7 C       -3.2440    -2.6990    -0.4720 C.3   1 <1>  -0.0800 
  8 C       -0.9240    -2.7160    -0.1590 C.3   1 <1>   0.1200 
  9 C        0.2980     1.6940     0.3760 C.3   1 <1>  -0.1600 
 10 C       -0.6670     3.8880     0.3070 C.3   1 <1>  -0.1600 
 11 C       -2.8840    -3.1890     0.9380 C.3   1 <1>   0.1200 
 12 C       -4.5700    -1.9150    -0.5640 C.3   1 <1>  -0.0160 
 13 O       -1.4940    -3.0790     1.0620 O.3   1 <1>  -0.5600 
 14 C        1.4370     2.6750     0.6520 C.3   1 <1>  -0.1600 
 15 C        0.8200     4.0780     0.6120 C.3   1 <1>  -0.1600 
 16 C       -5.8570    -2.6990    -0.2820 C.ar  1 <1>  -0.1440 
 17 C       -7.0880    -2.0050    -0.1810 C.ar  1 <1>   0.0000 
 18 C       -5.8980    -4.0570    -0.1260 C.ar  1 <1>  -0.1500 
 19 C       -8.2540    -2.7560     0.1080 C.ar  1 <1>   0.3100 
 20 C       -7.2330    -0.6080    -0.3560 C.ar  1 <1>  -0.1500 
 21 C       -7.1090    -4.7040     0.1480 C.ar  1 <1>   0.1600 
 22 N       -8.2480    -4.1020     0.2700 N.ar  1 <1>  -0.6200 
 23 C       -9.4840    -2.0880     0.2290 C.ar  1 <1>  -0.1500 
 24 C       -8.4470     0.0120    -0.2350 C.ar  1 <1>  -0.1500 
 25 C       -9.5880    -0.7340     0.0650 C.ar  1 <1>  -0.1500 
 26 H       -1.7680    -0.5000     0.6820 H     1 <1>   0.3700 
 27 H       -2.8630     2.5990    -0.7740 H     1 <1>   0.0800 
 28 H       -2.4890     1.8020     0.7220 H     1 <1>   0.0800 
 29 H       -1.8530    -1.8820    -1.9400 H     1 <1>   0.0800 
 30 H       -0.4630     2.6170    -1.3890 H     1 <1>   0.0800 
 31 H       -3.3020    -3.5520    -1.1230 H     1 <1>   0.0800 
 32 H       -0.0240    -2.1510     0.0110 H     1 <1>   0.0800 
 33 H       -0.6970    -3.6180    -0.7000 H     1 <1>   0.0800 
 34 H       -0.0960     1.3430     1.3140 H     1 <1>   0.0800 
 35 H        0.6300     0.8520    -0.2070 H     1 <1>   0.0800 
 36 H       -1.0490     4.6690    -0.3270 H     1 <1>   0.0800 
 37 H       -1.2170     3.8850     1.2330 H     1 <1>   0.0800 
 38 H       -3.1640    -4.2150     1.0960 H     1 <1>   0.0800 
 39 H       -3.3290    -2.5700     1.6970 H     1 <1>   0.0800 
 40 H       -4.6440    -1.4910    -1.5510 H     1 <1>   0.0800 
 41 H       -4.5250    -1.0990     0.1350 H     1 <1>   0.0800 
 42 H        1.8960     2.4740     1.6050 H     1 <1>   0.0800 
 43 H        2.1860     2.5910    -0.1180 H     1 <1>   0.0800 
 44 H        1.2830     4.6510    -0.1740 H     1 <1>   0.0800 
 45 H        0.9570     4.5960     1.5450 H     1 <1>   0.0800 
 46 H       -5.0290    -4.6790    -0.2040 H     1 <1>   0.1500 
 47 H       -6.3730    -0.0110    -0.5970 H     1 <1>   0.1500 
 48 H       -7.0910    -5.7750     0.2660 H     1 <1>   0.1500 
 49 H      -10.3480    -2.6850     0.4560 H     1 <1>   0.1500 
 50 H       -8.5390     1.0760    -0.3700 H     1 <1>   0.1500 
 51 H      -10.5370    -0.2360     0.1600 H     1 <1>   0.1500 
@<TRIPOS>BOND
  1   1   2  2   
  2   2   3  am  
  3   2   4  1   
  4   3   5  1   
  5   3  26  1   
  6   4   6  1   
  7   4  27  1   
  8   4  28  1   
  9   5   7  1   
 10   5   8  1   
 11   5  29  1   
 12   6   9  1   
 13   6  10  1   
 14   6  30  1   
 15   7  11  1   
 16   7  12  1   
 17   7  31  1   
 18   8  13  1   
 19   8  32  1   
 20   8  33  1   
 21   9  14  1   
 22   9  34  1   
 23   9  35  1   
 24  10  15  1   
 25  10  36  1   
 26  10  37  1   
 27  11  13  1   
 28  11  38  1   
 29  11  39  1   
 30  12  16  1   
 31  12  40  1   
 32  12  41  1   
 33  14  15  1   
 34  14  42  1   
 35  14  43  1   
 36  15  44  1   
 37  15  45  1   
 38  16  17  ar  
 39  16  18  ar  
 40  17  19  ar  
 41  17  20  ar  
 42  18  21  ar  
 43  18  46  1   
 44  19  22  ar  
 45  19  23  ar  
 46  20  24  ar  
 47  20  47  1   
 48  21  22  ar  
 49  21  48  1   
 50  23  25  ar  
 51  23  49  1   
 52  24  25  ar  
 53  24  50  1   
 54  25  51  1   
@<TRIPOS>SUBSTRUCTURE
  1 ****  12 GROUP 4 **** **** 0

# MOE 2024.06 (io_trps.svl 2023.06)
