@<TRIPOS>MOLECULE
NONAME
57 60 1 0 0 
SMALL
USER_CHARGES


@<TRIPOS>ATOM
  1 O       -0.9130    -0.6320    -0.2250 O.3   1 <1>  -0.6800 
  2 C       -1.9550    -1.5460    -0.2160 C.3   1 <1>   0.2000 
  3 C       -1.3920    -2.9790    -0.1720 C.3   1 <1>   0.2090 
  4 C       -2.7860    -1.3170    -1.4820 C.3   1 <1>  -0.1600 
  5 N       -2.5000    -3.9860    -0.2940 N.pl3 1 <1>  -0.8380 
  6 C       -3.8670    -2.4020    -1.6230 C.3   1 <1>  -0.1600 
  7 C       -2.6950    -5.0330     0.5500 C.ar  1 <1>   0.4100 
  8 C       -3.2800    -3.8180    -1.5610 C.3   1 <1>   0.2090 
  9 N       -3.2210    -6.1360     0.0500 N.ar  1 <1>  -0.6200 
 10 C       -2.3520    -4.9470     1.9150 C.ar  1 <1>  -0.1500 
 11 C       -3.3890    -7.1660     0.8520 C.ar  1 <1>   0.7710 
 12 C       -2.5400    -6.0230     2.7160 C.ar  1 <1>   0.2110 
 13 N       -3.0620    -7.1400     2.1550 N.ar  1 <1>  -0.1790 
 14 N       -3.9110    -8.2630     0.2950 N.pl3 1 <1>  -0.8690 
 15 C       -4.2670    -9.6090     0.8030 C.3   1 <1>   0.2090 
 16 C       -5.7380    -9.8680     0.4970 C.3   1 <1>  -0.1600 
 17 C       -6.1500   -11.2820     0.9070 C.3   1 <1>   0.2090 
 18 N       -7.5520   -11.5030     0.4800 N.pl3 1 <1>  -0.8380 
 19 C       -7.8200   -12.3760    -0.5960 C.ar  1 <1>   0.1000 
 20 C       -8.5490   -11.3430     1.5790 C.3   1 <1>   0.2090 
 21 C       -8.9710   -13.1710    -0.6200 C.ar  1 <1>  -0.1430 
 22 C       -6.9520   -12.4630    -1.6850 C.ar  1 <1>  -0.1500 
 23 C       -9.9610   -11.6830     1.1100 C.3   1 <1>  -0.1600 
 24 C       -9.2100   -14.0390    -1.6730 C.ar  1 <1>  -0.1500 
 25 C       -9.9850   -13.0860     0.5070 C.3   1 <1>  -0.0170 
 26 C       -7.1920   -13.3280    -2.7360 C.ar  1 <1>  -0.1500 
 27 C       -8.3220   -14.1240    -2.7290 C.ar  1 <1>  -0.1500 
 28 H       -0.4980    -0.5610     0.6560 H     1 <1>   0.4000 
 29 H       -2.5560    -1.3600     0.6580 H     1 <1>   0.0800 
 30 H       -0.8310    -3.1250     0.7300 H     1 <1>   0.0800 
 31 H       -0.7220    -3.1110    -1.0050 H     1 <1>   0.0800 
 32 H       -2.1390    -1.3530    -2.3430 H     1 <1>   0.0800 
 33 H       -3.2480    -0.3470    -1.4400 H     1 <1>   0.0800 
 34 H       -4.3810    -2.2750    -2.5590 H     1 <1>   0.0800 
 35 H       -4.5940    -2.2950    -0.8360 H     1 <1>   0.0800 
 36 H       -4.0850    -4.5300    -1.6180 H     1 <1>   0.0800 
 37 H       -2.6290    -3.9820    -2.4030 H     1 <1>   0.0800 
 38 H       -1.9610    -4.0260     2.3020 H     1 <1>   0.1500 
 39 H       -2.2980    -6.0210     3.7670 H     1 <1>   0.1500 
 40 H       -3.2360    -7.9910     2.6760 H     1 <1>   0.4570 
 41 H       -4.1190    -8.1410    -0.7040 H     1 <1>   0.4000 
 42 H       -4.0920    -9.6870     1.8610 H     1 <1>   0.0800 
 43 H       -3.6590   -10.3450     0.2990 H     1 <1>   0.0800 
 44 H       -5.9090    -9.7570    -0.5590 H     1 <1>   0.0800 
 45 H       -6.3520    -9.1590     1.0230 H     1 <1>   0.0800 
 46 H       -6.0680   -11.4030     1.9730 H     1 <1>   0.0800 
 47 H       -5.5080   -12.0140     0.4460 H     1 <1>   0.0800 
 48 H       -8.5290   -10.3260     1.9300 H     1 <1>   0.0800 
 49 H       -8.2820   -11.9930     2.3950 H     1 <1>   0.0800 
 50 H       -6.0800   -11.8430    -1.7220 H     1 <1>   0.1500 
 51 H      -10.2660   -10.9640     0.3700 H     1 <1>   0.0800 
 52 H      -10.6430   -11.6270     1.9380 H     1 <1>   0.0800 
 53 H      -10.0930   -14.6530    -1.6780 H     1 <1>   0.1500 
 54 H       -9.7370   -13.8150     1.2570 H     1 <1>   0.0800 
 55 H      -10.9720   -13.2990     0.1360 H     1 <1>   0.0800 
 56 H       -6.5040   -13.3800    -3.5600 H     1 <1>   0.1500 
 57 H       -8.5130   -14.8000    -3.5430 H     1 <1>   0.1500 
@<TRIPOS>BOND
  1   1   2  1   
  2   1  28  1   
  3   2   3  1   
  4   2   4  1   
  5   2  29  1   
  6   3   5  1   
  7   3  30  1   
  8   3  31  1   
  9   4   6  1   
 10   4  32  1   
 11   4  33  1   
 12   5   7  1   
 13   5   8  1   
 14   6   8  1   
 15   6  34  1   
 16   6  35  1   
 17   7   9  ar  
 18   7  10  ar  
 19   8  36  1   
 20   8  37  1   
 21   9  11  ar  
 22  10  12  ar  
 23  10  38  1   
 24  11  13  ar  
 25  11  14  1   
 26  12  13  ar  
 27  12  39  1   
 28  13  40  1   
 29  14  15  1   
 30  14  41  1   
 31  15  16  1   
 32  15  42  1   
 33  15  43  1   
 34  16  17  1   
 35  16  44  1   
 36  16  45  1   
 37  17  18  1   
 38  17  46  1   
 39  17  47  1   
 40  18  19  1   
 41  18  20  1   
 42  19  21  ar  
 43  19  22  ar  
 44  20  23  1   
 45  20  48  1   
 46  20  49  1   
 47  21  24  ar  
 48  21  25  1   
 49  22  26  ar  
 50  22  50  1   
 51  23  25  1   
 52  23  51  1   
 53  23  52  1   
 54  24  27  ar  
 55  24  53  1   
 56  25  54  1   
 57  25  55  1   
 58  26  27  ar  
 59  26  56  1   
 60  27  57  1   
@<TRIPOS>SUBSTRUCTURE
  1 ****  14 GROUP 4 **** **** 0

# MOE 2024.06 (io_trps.svl 2023.06)
