@<TRIPOS>MOLECULE
NONAME
45 47 1 0 0 
SMALL
USER_CHARGES


@<TRIPOS>ATOM
  1 O       -2.4270     1.0090    -2.1150 O.2   1 <1>  -0.5700 
  2 C       -2.2740     1.1670    -0.9290 C.2   1 <1>   0.5690 
  3 N       -2.3240     0.1340    -0.0560 N.am  1 <1>  -0.7300 
  4 C       -2.0080     2.5550    -0.3960 C.3   1 <1>  -0.0990 
  5 C       -2.5440    -1.2800    -0.4310 C.3   1 <1>   0.2200 
  6 C       -0.5160     2.8940    -0.4690 C.3   1 <1>  -0.0170 
  7 C       -3.9360    -1.7020     0.0090 C.3   1 <1>  -0.0800 
  8 C       -1.6640    -2.1760     0.4310 C.3   1 <1>   0.1200 
  9 C       -0.2580     4.2700     0.1210 C.ar  1 <1>  -0.1440 
 10 C       -3.7140    -2.0920     1.4760 C.3   1 <1>   0.1200 
 11 C       -4.4630    -2.8770    -0.8370 C.3   1 <1>  -0.0170 
 12 O       -2.3440    -2.3250     1.6400 O.3   1 <1>  -0.5600 
 13 C       -0.4050     5.4020    -0.6650 C.ar  1 <1>  -0.1500 
 14 C        0.1210     4.4060     1.4480 C.ar  1 <1>  -0.1500 
 15 C       -5.8660    -3.2840    -0.4130 C.ar  1 <1>  -0.1440 
 16 C       -0.1760     6.6590    -0.1300 C.ar  1 <1>  -0.1500 
 17 C        0.3500     5.6620     1.9840 C.ar  1 <1>  -0.1500 
 18 C       -6.9700    -2.5230    -0.7400 C.ar  1 <1>  -0.1500 
 19 C       -6.1100    -4.4310     0.3150 C.ar  1 <1>  -0.1500 
 20 C        0.2010     6.7890     1.1950 C.ar  1 <1>  -0.1500 
 21 C       -8.2280    -2.9310    -0.3290 C.ar  1 <1>   0.1600 
 22 C       -7.4090    -4.7490     0.6760 C.ar  1 <1>   0.1600 
 23 N       -8.4740    -4.0250     0.3730 N.ar  1 <1>  -0.6200 
 24 H       -2.2010     0.2870     0.9470 H     1 <1>   0.3700 
 25 H       -2.5670     3.2620    -0.9810 H     1 <1>   0.0800 
 26 H       -2.3490     2.6230     0.6210 H     1 <1>   0.0800 
 27 H       -2.3670    -1.4220    -1.4850 H     1 <1>   0.0800 
 28 H       -0.1920     2.8720    -1.4960 H     1 <1>   0.0800 
 29 H        0.0530     2.1550     0.0680 H     1 <1>   0.0800 
 30 H       -4.6310    -0.8840    -0.0710 H     1 <1>   0.0800 
 31 H       -0.6910    -1.7540     0.6110 H     1 <1>   0.0800 
 32 H       -1.5620    -3.1510    -0.0110 H     1 <1>   0.0800 
 33 H       -4.2540    -2.9780     1.7630 H     1 <1>   0.0800 
 34 H       -3.9860    -1.2830     2.1310 H     1 <1>   0.0800 
 35 H       -3.8020    -3.7220    -0.7550 H     1 <1>   0.0800 
 36 H       -4.4890    -2.5860    -1.8730 H     1 <1>   0.0800 
 37 H       -0.6980     5.3110    -1.6960 H     1 <1>   0.1500 
 38 H        0.2400     3.5370     2.0700 H     1 <1>   0.1500 
 39 H       -0.2920     7.5330    -0.7450 H     1 <1>   0.1500 
 40 H        0.6440     5.7620     3.0140 H     1 <1>   0.1500 
 41 H       -6.8650    -1.6180    -1.3090 H     1 <1>   0.1500 
 42 H       -5.3050    -5.0810     0.6060 H     1 <1>   0.1500 
 43 H        0.3780     7.7650     1.6110 H     1 <1>   0.1500 
 44 H       -9.0780    -2.3240    -0.5930 H     1 <1>   0.1500 
 45 H       -7.5810    -5.6470     1.2440 H     1 <1>   0.1500 
@<TRIPOS>BOND
  1   1   2  2   
  2   2   3  am  
  3   2   4  1   
  4   3   5  1   
  5   3  24  1   
  6   4   6  1   
  7   4  25  1   
  8   4  26  1   
  9   5   7  1   
 10   5   8  1   
 11   5  27  1   
 12   6   9  1   
 13   6  28  1   
 14   6  29  1   
 15   7  10  1   
 16   7  11  1   
 17   7  30  1   
 18   8  12  1   
 19   8  31  1   
 20   8  32  1   
 21   9  13  ar  
 22   9  14  ar  
 23  10  12  1   
 24  10  33  1   
 25  10  34  1   
 26  11  15  1   
 27  11  35  1   
 28  11  36  1   
 29  13  16  ar  
 30  13  37  1   
 31  14  17  ar  
 32  14  38  1   
 33  15  18  ar  
 34  15  19  ar  
 35  16  20  ar  
 36  16  39  1   
 37  17  20  ar  
 38  17  40  1   
 39  18  21  ar  
 40  18  41  1   
 41  19  22  ar  
 42  19  42  1   
 43  20  43  1   
 44  21  23  ar  
 45  21  44  1   
 46  22  23  ar  
 47  22  45  1   
@<TRIPOS>SUBSTRUCTURE
  1 ****   3 GROUP 4 **** **** 0

# MOE 2024.06 (io_trps.svl 2023.06)
