@<TRIPOS>MOLECULE
NONAME
61 65 1 0 0 
SMALL
USER_CHARGES


@<TRIPOS>ATOM
  1 O       -0.9230    -1.4480     1.8450 O.2   1 <1>  -0.5700 
  2 C       -1.1560    -1.4450     0.6510 C.2   1 <1>   0.5440 
  3 N       -0.4080    -2.2590    -0.1540 N.am  1 <1>  -0.7300 
  4 C       -2.1940    -0.5960     0.0940 C.ar  1 <1>   0.0860 
  5 C        0.6970    -3.1270     0.3140 C.3   1 <1>   0.1400 
  6 C       -2.5850     0.5770     0.7430 C.ar  1 <1>  -0.1500 
  7 C       -2.8450    -0.9090    -1.1020 C.ar  1 <1>  -0.1500 
  8 C        0.1340    -4.4340     0.8920 C.3   1 <1>  -0.0800 
  9 C       -3.5630     1.4060     0.2260 C.ar  1 <1>  -0.1500 
 10 C       -3.8240    -0.0850    -1.6270 C.ar  1 <1>  -0.1500 
 11 C       -0.4860    -5.3170    -0.2010 C.3   1 <1>   0.2000 
 12 C        1.1790    -5.4090     1.4800 C.3   1 <1>  -0.0800 
 13 C       -4.1910     1.0780    -0.9720 C.ar  1 <1>   0.0830 
 14 O        0.6090    -6.0600    -0.5890 O.3   1 <1>  -0.5600 
 15 C       -1.3810    -6.4060     0.4060 C.3   1 <1>  -0.1600 
 16 C        0.9520    -6.6460     0.6160 C.3   1 <1>   0.2800 
 17 C        2.6790    -5.1190     1.3120 C.3   1 <1>   0.1400 
 18 O       -5.1540     1.8300    -1.5500 O.3   1 <1>  -0.3630 
 19 C       -0.3410    -7.3760     0.9780 C.3   1 <1>  -0.1600 
 20 C        2.2770    -7.4060     0.5690 C.3   1 <1>   0.1400 
 21 N        3.3040    -6.4370     1.0360 N.am  1 <1>  -0.6600 
 22 C       -5.6130     3.0270    -0.9630 C.3   1 <1>   0.0400 
 23 C        4.6260    -6.7700     1.1170 C.2   1 <1>   0.5690 
 24 O        5.0140    -7.8890     0.8810 O.2   1 <1>  -0.5700 
 25 C        5.6690    -5.7320     1.4950 C.3   1 <1>  -0.0990 
 26 C        6.0660    -4.8620     0.2910 C.3   1 <1>  -0.1600 
 27 C        7.1660    -3.8580     0.6620 C.3   1 <1>   0.0960 
 28 N        7.4610    -2.9650    -0.4740 N.pl3 1 <1>   0.3140 
 29 N        6.7810    -1.8500    -0.7030 N.2   1 <1>  -0.7070 
 30 C        8.3960    -3.0960    -1.4190 C.2   1 <1>   0.0360 
 31 C        7.3550    -1.3900    -1.7660 C.2   1 <1>   0.3660 
 32 N        8.3650    -2.1220    -2.2540 N.2   1 <1>  -0.5650 
 33 H       -0.5000    -2.1720    -1.1670 H     1 <1>   0.3700 
 34 H        1.3540    -3.3330    -0.5140 H     1 <1>   0.0800 
 35 H        1.2530    -2.6040     1.0760 H     1 <1>   0.0800 
 36 H       -2.1060     0.8370     1.6720 H     1 <1>   0.1500 
 37 H       -2.5930    -1.8120    -1.6280 H     1 <1>   0.1500 
 38 H       -0.5990    -4.1870     1.6400 H     1 <1>   0.0800 
 39 H       -3.8240     2.2970     0.7650 H     1 <1>   0.1500 
 40 H       -4.3160    -0.3380    -2.5490 H     1 <1>   0.1500 
 41 H       -0.9210    -4.7910    -1.0330 H     1 <1>   0.0800 
 42 H        0.9760    -5.6290     2.5130 H     1 <1>   0.0800 
 43 H       -2.0410    -6.0090     1.1580 H     1 <1>   0.0800 
 44 H       -1.9620    -6.8780    -0.3670 H     1 <1>   0.0800 
 45 H        3.0830    -4.6690     2.2020 H     1 <1>   0.0800 
 46 H        2.8690    -4.4860     0.4660 H     1 <1>   0.0800 
 47 H       -0.3840    -8.3280     0.4780 H     1 <1>   0.0800 
 48 H       -0.4400    -7.5180     2.0400 H     1 <1>   0.0800 
 49 H        2.4930    -7.7500    -0.4270 H     1 <1>   0.0800 
 50 H        2.2550    -8.2420     1.2460 H     1 <1>   0.0800 
 51 H       -6.3750     3.4390    -1.5990 H     1 <1>   0.0800 
 52 H       -4.7900     3.7150    -0.8840 H     1 <1>   0.0800 
 53 H       -6.0260     2.8040     0.0050 H     1 <1>   0.0800 
 54 H        5.2970    -5.1220     2.2970 H     1 <1>   0.0800 
 55 H        6.5350    -6.2530     1.8610 H     1 <1>   0.0800 
 56 H        5.2020    -4.3260    -0.0630 H     1 <1>   0.0800 
 57 H        6.4150    -5.5010    -0.5030 H     1 <1>   0.0800 
 58 H        8.0670    -4.3730     0.9410 H     1 <1>   0.0800 
 59 H        6.8470    -3.2480     1.4880 H     1 <1>   0.0800 
 60 H        9.0800    -3.9250    -1.4570 H     1 <1>   0.1500 
 61 H        7.0570    -0.4730    -2.2490 H     1 <1>   0.1500 
@<TRIPOS>BOND
  1   1   2  2   
  2   2   3  am  
  3   2   4  1   
  4   3   5  1   
  5   3  33  1   
  6   4   6  ar  
  7   4   7  ar  
  8   5   8  1   
  9   5  34  1   
 10   5  35  1   
 11   6   9  ar  
 12   6  36  1   
 13   7  10  ar  
 14   7  37  1   
 15   8  11  1   
 16   8  12  1   
 17   8  38  1   
 18   9  13  ar  
 19   9  39  1   
 20  10  13  ar  
 21  10  40  1   
 22  11  14  1   
 23  11  15  1   
 24  11  41  1   
 25  12  16  1   
 26  12  17  1   
 27  12  42  1   
 28  13  18  1   
 29  14  16  1   
 30  15  19  1   
 31  15  43  1   
 32  15  44  1   
 33  16  19  1   
 34  16  20  1   
 35  17  21  1   
 36  17  45  1   
 37  17  46  1   
 38  18  22  1   
 39  19  47  1   
 40  19  48  1   
 41  20  21  1   
 42  20  49  1   
 43  20  50  1   
 44  21  23  am  
 45  22  51  1   
 46  22  52  1   
 47  22  53  1   
 48  23  24  2   
 49  23  25  1   
 50  25  26  1   
 51  25  54  1   
 52  25  55  1   
 53  26  27  1   
 54  26  56  1   
 55  26  57  1   
 56  27  28  1   
 57  27  58  1   
 58  27  59  1   
 59  28  29  1   
 60  28  30  1   
 61  29  31  2   
 62  30  32  2   
 63  30  60  1   
 64  31  32  1   
 65  31  61  1   
@<TRIPOS>SUBSTRUCTURE
  1 ****   5 GROUP 4 **** **** 0

# MOE 2024.06 (io_trps.svl 2023.06)
