@<TRIPOS>MOLECULE
NONAME
53 55 1 0 0 
SMALL
USER_CHARGES


@<TRIPOS>ATOM
  1 O        0.6730    -2.0330     0.4430 O.2   1 <1>  -0.5700 
  2 C        1.4900    -2.0990    -0.4490 C.2   1 <1>   0.5690 
  3 N        2.7350    -1.5320    -0.3090 N.am  1 <1>  -0.6600 
  4 C        1.1120    -2.8220    -1.7420 C.3   1 <1>   0.0440 
  5 C        3.0850    -0.7360     0.9030 C.3   1 <1>   0.1400 
  6 C        3.8810    -1.7330    -1.2420 C.3   1 <1>   0.1400 
  7 C       -0.2710    -3.4750    -1.7400 C.ar  1 <1>  -0.1440 
  8 C        3.6350     0.6410     0.5000 C.3   1 <1>  -0.0800 
  9 C        4.4420    -0.3750    -1.6730 C.3   1 <1>  -0.1600 
 10 C       -0.4410    -4.8140    -1.3990 C.ar  1 <1>   0.0820 
 11 C       -1.3860    -2.7280    -2.0920 C.ar  1 <1>  -0.1500 
 12 C        4.8260     0.4900    -0.4650 C.3   1 <1>  -0.1600 
 13 C        4.0110     1.4320     1.7600 C.3   1 <1>   0.1200 
 14 O        0.6130    -5.5730    -1.0360 O.3   1 <1>  -0.3630 
 15 C       -1.6960    -5.4000    -1.4370 C.ar  1 <1>  -0.1500 
 16 C       -2.6430    -3.3100    -2.1190 C.ar  1 <1>  -0.1500 
 17 O        4.4670     2.6940     1.3900 O.3   1 <1>  -0.5600 
 18 C        1.0160    -5.4790     0.3160 C.3   1 <1>   0.2630 
 19 C       -2.7990    -4.6470    -1.7960 C.ar  1 <1>  -0.1500 
 20 C        4.8190     3.5060     2.4620 C.3   1 <1>   0.0400 
 21 C        2.5340    -5.3620     0.3870 C.ar  1 <1>  -0.1440 
 22 C        3.3510    -6.1380    -0.4220 C.ar  1 <1>  -0.1500 
 23 C        3.1170    -4.4700     1.2760 C.ar  1 <1>  -0.1500 
 24 C        4.7280    -6.0240    -0.3460 C.ar  1 <1>  -0.1500 
 25 C        4.4940    -4.3560     1.3560 C.ar  1 <1>  -0.1500 
 26 C        5.3010    -5.1330     0.5440 C.ar  1 <1>  -0.1500 
 27 H        1.8480    -3.5770    -1.9410 H     1 <1>   0.0800 
 28 H        1.1580    -2.1090    -2.5430 H     1 <1>   0.0800 
 29 H        3.8250    -1.2760     1.4680 H     1 <1>   0.0800 
 30 H        2.2200    -0.6020     1.5300 H     1 <1>   0.0800 
 31 H        3.5910    -2.2870    -2.1150 H     1 <1>   0.0800 
 32 H        4.6450    -2.2970    -0.7350 H     1 <1>   0.0800 
 33 H        2.8420     1.1750     0.0050 H     1 <1>   0.0800 
 34 H        3.7010     0.1380    -2.2630 H     1 <1>   0.0800 
 35 H        5.3060    -0.5280    -2.2950 H     1 <1>   0.0800 
 36 H       -1.2800    -1.6880    -2.3430 H     1 <1>   0.1500 
 37 H        5.6540     0.0360     0.0520 H     1 <1>   0.0800 
 38 H        5.1420     1.4610    -0.8070 H     1 <1>   0.0800 
 39 H        4.7940     0.9310     2.3020 H     1 <1>   0.0800 
 40 H        3.1490     1.5540     2.3950 H     1 <1>   0.0800 
 41 H       -1.8020    -6.4390    -1.1850 H     1 <1>   0.1500 
 42 H       -3.5000    -2.7190    -2.3930 H     1 <1>   0.1500 
 43 H        0.6840    -6.3680     0.8200 H     1 <1>   0.0800 
 44 H        0.5460    -4.6220     0.7680 H     1 <1>   0.0800 
 45 H       -3.7750    -5.0980    -1.8220 H     1 <1>   0.1500 
 46 H        5.1560     4.4500     2.0700 H     1 <1>   0.0800 
 47 H        5.6150     3.0390     3.0160 H     1 <1>   0.0800 
 48 H        3.9580     3.6610     3.0890 H     1 <1>   0.0800 
 49 H        2.9120    -6.8340    -1.1170 H     1 <1>   0.1500 
 50 H        2.4960    -3.8550     1.9060 H     1 <1>   0.1500 
 51 H        5.3520    -6.6310    -0.9790 H     1 <1>   0.1500 
 52 H        4.9350    -3.6630     2.0500 H     1 <1>   0.1500 
 53 H        6.3720    -5.0460     0.6050 H     1 <1>   0.1500 
@<TRIPOS>BOND
  1   1   2  2   
  2   2   3  am  
  3   2   4  1   
  4   3   5  1   
  5   3   6  1   
  6   4   7  1   
  7   4  27  1   
  8   4  28  1   
  9   5   8  1   
 10   5  29  1   
 11   5  30  1   
 12   6   9  1   
 13   6  31  1   
 14   6  32  1   
 15   7  10  ar  
 16   7  11  ar  
 17   8  12  1   
 18   8  13  1   
 19   8  33  1   
 20   9  12  1   
 21   9  34  1   
 22   9  35  1   
 23  10  14  1   
 24  10  15  ar  
 25  11  16  ar  
 26  11  36  1   
 27  12  37  1   
 28  12  38  1   
 29  13  17  1   
 30  13  39  1   
 31  13  40  1   
 32  14  18  1   
 33  15  19  ar  
 34  15  41  1   
 35  16  19  ar  
 36  16  42  1   
 37  17  20  1   
 38  18  21  1   
 39  18  43  1   
 40  18  44  1   
 41  19  45  1   
 42  20  46  1   
 43  20  47  1   
 44  20  48  1   
 45  21  22  ar  
 46  21  23  ar  
 47  22  24  ar  
 48  22  49  1   
 49  23  25  ar  
 50  23  50  1   
 51  24  26  ar  
 52  24  51  1   
 53  25  26  ar  
 54  25  52  1   
 55  26  53  1   
@<TRIPOS>SUBSTRUCTURE
  1 ****   2 GROUP 4 **** **** 0

# MOE 2024.06 (io_trps.svl 2023.06)
