@<TRIPOS>MOLECULE
NONAME
47 49 1 0 0 
SMALL
USER_CHARGES


@<TRIPOS>ATOM
  1 S        0.4420     0.0320    -0.6030 S.o2  1 <1>   1.3330 
  2 O        1.8810     0.0510    -0.4630 O.2   1 <1>  -0.6500 
  3 O       -0.1490     0.0710    -1.9210 O.2   1 <1>  -0.6500 
  4 N       -0.1430    -1.3420     0.2040 N.am  1 <1>  -0.8490 
  5 C       -0.2550     1.3850     0.3410 C.3   1 <1>  -0.0550 
  6 C        0.6370    -1.6930     1.3960 C.3   1 <1>   0.1160 
  7 C       -0.2450    -2.5030    -0.6850 C.3   1 <1>   0.1160 
  8 C        0.0440     2.7690    -0.2700 C.3   1 <1>  -0.0800 
  9 C       -0.6530     3.9320     0.4390 C.3   1 <1>   0.2000 
 10 C        1.5290     3.1560    -0.2640 C.3   1 <1>   0.1400 
 11 O       -0.5100     3.7770     1.8100 O.3   1 <1>  -0.6800 
 12 C        0.1560     5.1520     0.0080 C.3   1 <1>   0.1400 
 13 N        1.5410     4.6380    -0.1530 N.am  1 <1>  -0.6600 
 14 C        2.6910     5.3970    -0.2660 C.2   1 <1>   0.7150 
 15 O        3.7490     4.7890    -0.2670 O.2   1 <1>  -0.5700 
 16 C        2.6890     6.8480    -0.3710 C.2   1 <1>   0.1010 
 17 N        1.6580     7.6140    -0.6340 N.2   1 <1>  -0.3380 
 18 N        3.7850     7.6220    -0.2210 N.pl3 1 <1>   0.0480 
 19 N        2.0690     8.8740    -0.6590 N.2   1 <1>  -0.3380 
 20 C        3.3330     8.8560    -0.4160 C.2   1 <1>   0.0060 
 21 C        5.2030     7.2610     0.0360 C.3   1 <1>   0.0960 
 22 C        4.2240    10.0840    -0.3470 C.3   1 <1>   0.0200 
 23 C        6.0400     8.4970     0.4130 C.3   1 <1>  -0.1600 
 24 C        5.7070     9.7030    -0.4810 C.3   1 <1>  -0.1600 
 25 H       -1.3190     1.2570     0.3860 H     1 <1>   0.0800 
 26 H        0.1190     1.3460     1.3450 H     1 <1>   0.0800 
 27 H        0.1720    -2.5170     1.9110 H     1 <1>   0.0800 
 28 H        0.6850    -0.8560     2.0700 H     1 <1>   0.0800 
 29 H        1.6410    -1.9740     1.1210 H     1 <1>   0.0800 
 30 H       -0.6350    -3.3510    -0.1480 H     1 <1>   0.0800 
 31 H        0.7230    -2.7520    -1.0880 H     1 <1>   0.0800 
 32 H       -0.9140    -2.2850    -1.5010 H     1 <1>   0.0800 
 33 H       -0.2850     2.7670    -1.2960 H     1 <1>   0.0800 
 34 H       -1.7020     4.0130     0.2080 H     1 <1>   0.0800 
 35 H        2.0270     2.8360    -1.1650 H     1 <1>   0.0800 
 36 H        2.0390     2.7360     0.5870 H     1 <1>   0.0800 
 37 H        0.4220     3.9590     2.0490 H     1 <1>   0.4000 
 38 H        0.0990     5.9450     0.7350 H     1 <1>   0.0800 
 39 H       -0.1960     5.5130    -0.9440 H     1 <1>   0.0800 
 40 H        5.2490     6.5340     0.8270 H     1 <1>   0.0800 
 41 H        5.5970     6.8140    -0.8600 H     1 <1>   0.0800 
 42 H        3.9470    10.7750    -1.1240 H     1 <1>   0.0800 
 43 H        4.0590    10.5660     0.6010 H     1 <1>   0.0800 
 44 H        5.8490     8.7490     1.4420 H     1 <1>   0.0800 
 45 H        7.0860     8.2550     0.3280 H     1 <1>   0.0800 
 46 H        5.9160     9.4540    -1.5080 H     1 <1>   0.0800 
 47 H        6.3210    10.5450    -0.2120 H     1 <1>   0.0800 
@<TRIPOS>BOND
  1   1   2  2   
  2   1   3  2   
  3   1   4  am  
  4   1   5  1   
  5   4   6  1   
  6   4   7  1   
  7   5   8  1   
  8   5  25  1   
  9   5  26  1   
 10   6  27  1   
 11   6  28  1   
 12   6  29  1   
 13   7  30  1   
 14   7  31  1   
 15   7  32  1   
 16   8   9  1   
 17   8  10  1   
 18   8  33  1   
 19   9  11  1   
 20   9  12  1   
 21   9  34  1   
 22  10  13  1   
 23  10  35  1   
 24  10  36  1   
 25  11  37  1   
 26  12  13  1   
 27  12  38  1   
 28  12  39  1   
 29  13  14  am  
 30  14  15  2   
 31  14  16  1   
 32  16  17  2   
 33  16  18  1   
 34  17  19  1   
 35  18  20  1   
 36  18  21  1   
 37  19  20  2   
 38  20  22  1   
 39  21  23  1   
 40  21  40  1   
 41  21  41  1   
 42  22  24  1   
 43  22  42  1   
 44  22  43  1   
 45  23  24  1   
 46  23  44  1   
 47  23  45  1   
 48  24  46  1   
 49  24  47  1   
@<TRIPOS>SUBSTRUCTURE
  1 ****  13 GROUP 4 **** **** 0

# MOE 2024.06 (io_trps.svl 2023.06)
