@<TRIPOS>MOLECULE
NONAME
53 56 1 0 0 
SMALL
USER_CHARGES


@<TRIPOS>ATOM
  1 O        0.8010    -0.6230     0.3280 O.2   1 <1>  -0.5700 
  2 C       -0.2200    -0.0710     0.6670 C.2   1 <1>   0.5690 
  3 N       -1.4370    -0.4160     0.1260 N.am  1 <1>  -0.6600 
  4 C       -0.0860     1.0200     1.7230 C.3   1 <1>   0.0820 
  5 C       -2.7420     0.2260     0.4510 C.3   1 <1>   0.1400 
  6 C       -1.5390    -1.4330    -0.9610 C.3   1 <1>   0.1400 
  7 C       -0.4860     2.4070     1.2270 C.2   1 <1>  -0.1810 
  8 C       -3.7430    -0.8490     0.8800 C.3   1 <1>  -0.1600 
  9 C       -2.5310    -2.5230    -0.5500 C.3   1 <1>  -0.1600 
 10 C       -1.2950     3.3200     1.7900 C.2   1 <1>  -0.0400 
 11 C       -0.0800     3.0280     0.0440 C.2   1 <1>   0.1080 
 12 C       -3.9050    -1.9420    -0.1900 C.3   1 <1>   0.4240 
 13 O       -1.3480     4.3550     0.9960 O.3   1 <1>  -0.0190 
 14 C       -2.0880     3.3480     3.0810 C.3   1 <1>  -0.0600 
 15 N       -0.6170     4.1900    -0.0660 N.2   1 <1>  -0.4100 
 16 C        0.8590     2.4500    -0.9940 C.3   1 <1>  -0.0590 
 17 O       -4.3700    -1.3310    -1.3710 O.3   1 <1>  -0.5600 
 18 C       -4.8580    -3.0590     0.2920 C.ar  1 <1>  -0.1440 
 19 C       -5.7420    -1.1140    -1.4890 C.3   1 <1>   0.1200 
 20 C       -6.0640    -3.3060    -0.3570 C.ar  1 <1>  -0.1440 
 21 C       -4.5280    -3.8380     1.3960 C.ar  1 <1>  -0.1500 
 22 C       -6.4500    -2.4630    -1.5560 C.3   1 <1>  -0.0170 
 23 C       -6.9110    -4.3110     0.0810 C.ar  1 <1>  -0.1500 
 24 C       -5.3740    -4.8400     1.8350 C.ar  1 <1>  -0.1500 
 25 C       -6.5680    -5.0860     1.1840 C.ar  1 <1>   0.0820 
 26 O       -7.3400    -6.0880     1.6760 O.3   1 <1>  -0.3630 
 27 C       -8.5660    -6.4340     1.0730 C.3   1 <1>   0.0400 
 28 H        0.9400     1.0600     2.0430 H     1 <1>   0.0800 
 29 H       -0.6750     0.7420     2.5740 H     1 <1>   0.0800 
 30 H       -3.1060     0.7420    -0.4220 H     1 <1>   0.0800 
 31 H       -2.6420     0.9440     1.2420 H     1 <1>   0.0800 
 32 H       -0.5800    -1.8790    -1.1610 H     1 <1>   0.0800 
 33 H       -1.8750    -0.9510    -1.8630 H     1 <1>   0.0800 
 34 H       -4.6940    -0.4020     1.0960 H     1 <1>   0.0800 
 35 H       -3.3900    -1.2910     1.7930 H     1 <1>   0.0800 
 36 H       -2.1170    -3.0520     0.2870 H     1 <1>   0.0800 
 37 H       -2.6480    -3.2300    -1.3510 H     1 <1>   0.0800 
 38 H       -1.9430     2.4430     3.6400 H     1 <1>   0.0800 
 39 H       -3.1340     3.4610     2.8610 H     1 <1>   0.0800 
 40 H       -1.7680     4.1810     3.6810 H     1 <1>   0.0800 
 41 H        1.7120     2.0040    -0.5170 H     1 <1>   0.0800 
 42 H        1.1990     3.2270    -1.6550 H     1 <1>   0.0800 
 43 H        0.3470     1.7030    -1.5720 H     1 <1>   0.0800 
 44 H       -5.9100    -0.5550    -2.3930 H     1 <1>   0.0800 
 45 H       -6.0840    -0.5360    -0.6490 H     1 <1>   0.0800 
 46 H       -3.6070    -3.6750     1.9270 H     1 <1>   0.1500 
 47 H       -6.1690    -2.9700    -2.4610 H     1 <1>   0.0800 
 48 H       -7.5130    -2.3030    -1.5720 H     1 <1>   0.0800 
 49 H       -7.8310    -4.4800    -0.4430 H     1 <1>   0.1500 
 50 H       -5.1120    -5.4400     2.6880 H     1 <1>   0.1500 
 51 H       -8.9910    -7.2520     1.6250 H     1 <1>   0.0800 
 52 H       -8.3820    -6.7340     0.0570 H     1 <1>   0.0800 
 53 H       -9.2260    -5.5850     1.1120 H     1 <1>   0.0800 
@<TRIPOS>BOND
  1   1   2  2   
  2   2   3  am  
  3   2   4  1   
  4   3   5  1   
  5   3   6  1   
  6   4   7  1   
  7   4  28  1   
  8   4  29  1   
  9   5   8  1   
 10   5  30  1   
 11   5  31  1   
 12   6   9  1   
 13   6  32  1   
 14   6  33  1   
 15   7  10  2   
 16   7  11  1   
 17   8  12  1   
 18   8  34  1   
 19   8  35  1   
 20   9  12  1   
 21   9  36  1   
 22   9  37  1   
 23  10  13  1   
 24  10  14  1   
 25  11  15  2   
 26  11  16  1   
 27  12  17  1   
 28  12  18  1   
 29  13  15  1   
 30  14  38  1   
 31  14  39  1   
 32  14  40  1   
 33  16  41  1   
 34  16  42  1   
 35  16  43  1   
 36  17  19  1   
 37  18  20  ar  
 38  18  21  ar  
 39  19  22  1   
 40  19  44  1   
 41  19  45  1   
 42  20  22  1   
 43  20  23  ar  
 44  21  24  ar  
 45  21  46  1   
 46  22  47  1   
 47  22  48  1   
 48  23  25  ar  
 49  23  49  1   
 50  24  25  ar  
 51  24  50  1   
 52  25  26  1   
 53  26  27  1   
 54  27  51  1   
 55  27  52  1   
 56  27  53  1   
@<TRIPOS>SUBSTRUCTURE
  1 ****   8 GROUP 4 **** **** 0

# MOE 2024.06 (io_trps.svl 2023.06)
