@<TRIPOS>MOLECULE
NONAME
50 52 1 0 0 
SMALL
USER_CHARGES


@<TRIPOS>ATOM
  1 S       -0.4300    -0.0080     1.3280 S.3   1 <1>  -0.0800 
  2 C       -1.2160    -1.0180     0.1590 C.2   1 <1>   0.4420 
  3 C       -0.7440     1.3300     0.2780 C.2   1 <1>   0.1980 
  4 N       -1.6290    -0.3520    -0.8560 N.2   1 <1>  -0.3380 
  5 N       -1.2940    -2.3630     0.4590 N.am  1 <1>  -0.4940 
  6 N       -1.3570     0.9860    -0.7820 N.2   1 <1>  -0.3380 
  7 C       -0.2730     2.7010     0.7230 C.3   1 <1>   0.0200 
  8 C       -1.8550    -3.3690    -0.2770 C.2   1 <1>   0.5690 
  9 C       -0.6220     3.7730    -0.3060 C.3   1 <1>   0.1200 
 10 O       -2.3840    -3.2030    -1.3440 O.2   1 <1>  -0.5700 
 11 C       -1.8180    -4.7960     0.2760 C.3   1 <1>  -0.0190 
 12 O       -0.1600     4.9950     0.1710 O.3   1 <1>  -0.5600 
 13 C       -1.0960    -5.7400    -0.7080 C.3   1 <1>  -0.1600 
 14 C       -3.2490    -5.3030     0.5460 C.3   1 <1>  -0.1600 
 15 C       -0.4160     6.0610    -0.6790 C.3   1 <1>   0.1200 
 16 C       -1.1840    -7.2070    -0.2890 C.3   1 <1>   0.3430 
 17 C       -3.2900    -6.7800     0.9330 C.3   1 <1>   0.3430 
 18 C        0.1450     7.3160    -0.0230 C.3   1 <1>  -0.2400 
 19 N       -2.6120    -7.5870    -0.1220 N.4   1 <1>  -0.9590 
 20 C       -2.7680    -9.0540     0.1150 C.3   1 <1>   0.5230 
 21 C       -4.1850    -9.4850    -0.2190 C.2   1 <1>  -0.0400 
 22 O       -5.1780    -9.1010     0.5610 O.3   1 <1>  -0.2800 
 23 C       -4.6520   -10.2460    -1.2340 C.2   1 <1>  -0.1500 
 24 C       -6.2930    -9.6030     0.0680 C.2   1 <1>  -0.0100 
 25 C       -6.0370   -10.3220    -1.0450 C.2   1 <1>  -0.1500 
 26 H       -0.8760    -2.6130     1.3490 H     1 <1>   0.3700 
 27 H        0.7930     2.6760     0.8600 H     1 <1>   0.0800 
 28 H       -0.7420     2.9440     1.6590 H     1 <1>   0.0800 
 29 H       -1.6890     3.8320    -0.4430 H     1 <1>   0.0800 
 30 H       -0.1430     3.5620    -1.2480 H     1 <1>   0.0800 
 31 H       -1.2770    -4.7960     1.2050 H     1 <1>   0.0800 
 32 H       -0.0600    -5.4560    -0.7800 H     1 <1>   0.0800 
 33 H       -1.5180    -5.6380    -1.6930 H     1 <1>   0.0800 
 34 H       -3.8610    -5.1610    -0.3300 H     1 <1>   0.0800 
 35 H       -3.6940    -4.7210     1.3350 H     1 <1>   0.0800 
 36 H       -1.4810     6.1490    -0.8190 H     1 <1>   0.0800 
 37 H        0.0670     5.8780    -1.6250 H     1 <1>   0.0800 
 38 H       -0.6540    -7.3520     0.6390 H     1 <1>   0.0800 
 39 H       -0.7220    -7.8200    -1.0460 H     1 <1>   0.0800 
 40 H       -4.3190    -7.0840     1.0370 H     1 <1>   0.0800 
 41 H       -2.7980    -6.9250     1.8810 H     1 <1>   0.0800 
 42 H       -0.3340     7.4820     0.9250 H     1 <1>   0.0800 
 43 H       -0.0350     8.1680    -0.6530 H     1 <1>   0.0800 
 44 H        1.2050     7.2130     0.1240 H     1 <1>   0.0800 
 45 H       -3.1070    -7.3900    -1.0030 H     1 <1>   0.4500 
 46 H       -2.5450    -9.2990     1.1400 H     1 <1>   0.0800 
 47 H       -2.0900    -9.5990    -0.5210 H     1 <1>   0.0800 
 48 H       -4.1200   -10.7220    -2.0410 H     1 <1>   0.1500 
 49 H       -7.2260    -9.4040     0.5690 H     1 <1>   0.1500 
 50 H       -6.7290   -10.8550    -1.6750 H     1 <1>   0.1500 
@<TRIPOS>BOND
  1   1   2  1   
  2   1   3  1   
  3   2   4  2   
  4   2   5  1   
  5   3   6  2   
  6   3   7  1   
  7   4   6  1   
  8   5   8  am  
  9   5  26  1   
 10   7   9  1   
 11   7  27  1   
 12   7  28  1   
 13   8  10  2   
 14   8  11  1   
 15   9  12  1   
 16   9  29  1   
 17   9  30  1   
 18  11  13  1   
 19  11  14  1   
 20  11  31  1   
 21  12  15  1   
 22  13  16  1   
 23  13  32  1   
 24  13  33  1   
 25  14  17  1   
 26  14  34  1   
 27  14  35  1   
 28  15  18  1   
 29  15  36  1   
 30  15  37  1   
 31  16  19  1   
 32  16  38  1   
 33  16  39  1   
 34  17  19  1   
 35  17  40  1   
 36  17  41  1   
 37  18  42  1   
 38  18  43  1   
 39  18  44  1   
 40  19  20  1   
 41  19  45  1   
 42  20  21  1   
 43  20  46  1   
 44  20  47  1   
 45  21  22  1   
 46  21  23  2   
 47  22  24  1   
 48  23  25  1   
 49  23  48  1   
 50  24  25  2   
 51  24  49  1   
 52  25  50  1   
@<TRIPOS>SUBSTRUCTURE
  1 ****   8 GROUP 4 **** **** 0

# MOE 2024.06 (io_trps.svl 2023.06)
