@<TRIPOS>MOLECULE
NONAME
53 56 1 0 0 
SMALL
USER_CHARGES


@<TRIPOS>ATOM
  1 O       -0.6250    -1.3000    -0.1090 O.3   1 <1>  -0.5600 
  2 C        0.4740    -1.7190     0.6470 C.3   1 <1>   0.2000 
  3 C       -1.7840    -1.0420     0.6190 C.3   1 <1>   0.0400 
  4 C        1.7790    -1.4070    -0.1160 C.3   1 <1>   0.0000 
  5 C        0.4350    -3.2490     0.7460 C.3   1 <1>  -0.1600 
  6 C        2.9620    -1.4560     0.8850 C.3   1 <1>   0.2090 
  7 C        1.7610    -0.0230    -0.8040 C.3   1 <1>  -0.1600 
  8 C        1.8550    -2.5590    -1.1370 C.3   1 <1>  -0.1600 
  9 C        1.2130    -3.7800    -0.4650 C.3   1 <1>  -0.1600 
 10 N        4.2840    -1.0930     0.2640 N.pl3 1 <1>  -0.8380 
 11 C        3.1220     0.3140    -1.4260 C.3   1 <1>  -0.1600 
 12 C        5.3790    -1.9020     0.2610 C.ar  1 <1>   0.1000 
 13 C        4.2510     0.2510    -0.3950 C.3   1 <1>   0.2090 
 14 C        6.7300    -1.4190     0.3360 C.ar  1 <1>   0.0000 
 15 C        5.2170    -3.2830     0.1250 C.ar  1 <1>  -0.1500 
 16 C        7.8000    -2.2820     0.0220 C.ar  1 <1>   0.3610 
 17 C        7.0760    -0.1290     0.7760 C.ar  1 <1>  -0.1500 
 18 C        6.2790    -4.1150    -0.0960 C.ar  1 <1>   0.2110 
 19 N        7.5230    -3.6150    -0.1790 N.ar  1 <1>  -0.1790 
 20 C        9.1320    -1.8140    -0.0280 C.ar  1 <1>  -0.1440 
 21 C        8.3710     0.3110     0.7730 C.ar  1 <1>  -0.1500 
 22 C        9.4120    -0.5170     0.3540 C.ar  1 <1>  -0.1440 
 23 C       10.2510    -2.7580    -0.4910 C.3   1 <1>  -0.0970 
 24 C       10.8180     0.0770     0.3640 C.3   1 <1>  -0.0970 
 25 H        0.4460    -1.2350     1.6090 H     1 <1>   0.0800 
 26 H       -2.5560    -0.7600    -0.0750 H     1 <1>   0.0800 
 27 H       -1.5990    -0.2330     1.3040 H     1 <1>   0.0800 
 28 H       -2.0820    -1.9290     1.1500 H     1 <1>   0.0800 
 29 H        0.9330    -3.5560     1.6480 H     1 <1>   0.0800 
 30 H       -0.5710    -3.6280     0.7680 H     1 <1>   0.0800 
 31 H        3.0200    -2.4210     1.3520 H     1 <1>   0.0800 
 32 H        2.7680    -0.7460     1.6710 H     1 <1>   0.0800 
 33 H        1.0040     0.0040    -1.5700 H     1 <1>   0.0800 
 34 H        1.5080     0.7290    -0.0770 H     1 <1>   0.0800 
 35 H        1.2580    -2.3010    -1.9950 H     1 <1>   0.0800 
 36 H        2.8570    -2.7490    -1.4760 H     1 <1>   0.0800 
 37 H        1.9600    -4.4860    -0.1480 H     1 <1>   0.0800 
 38 H        0.5470    -4.2680    -1.1560 H     1 <1>   0.0800 
 39 H        3.0860     1.3040    -1.8460 H     1 <1>   0.0800 
 40 H        3.3420    -0.3690    -2.2270 H     1 <1>   0.0800 
 41 H        4.1020     1.0110     0.3530 H     1 <1>   0.0800 
 42 H        5.1790     0.4450    -0.9030 H     1 <1>   0.0800 
 43 H        4.2310    -3.7040     0.1540 H     1 <1>   0.1500 
 44 H        6.3050     0.5270     1.1370 H     1 <1>   0.1500 
 45 H        6.1300    -5.1760    -0.2200 H     1 <1>   0.1500 
 46 H        8.3230    -4.2240    -0.3580 H     1 <1>   0.4570 
 47 H        8.5880     1.3140     1.1040 H     1 <1>   0.1500 
 48 H       11.1530    -2.2280    -0.7360 H     1 <1>   0.0800 
 49 H        9.9630    -3.2870    -1.3820 H     1 <1>   0.0800 
 50 H       10.4900    -3.4630     0.2860 H     1 <1>   0.0800 
 51 H       10.8290     1.0470     0.8290 H     1 <1>   0.0800 
 52 H       11.1810     0.1870    -0.6420 H     1 <1>   0.0800 
 53 H       11.4900    -0.5560     0.9160 H     1 <1>   0.0800 
@<TRIPOS>BOND
  1   1   2  1   
  2   1   3  1   
  3   2   4  1   
  4   2   5  1   
  5   2  25  1   
  6   3  26  1   
  7   3  27  1   
  8   3  28  1   
  9   4   6  1   
 10   4   7  1   
 11   4   8  1   
 12   5   9  1   
 13   5  29  1   
 14   5  30  1   
 15   6  10  1   
 16   6  31  1   
 17   6  32  1   
 18   7  11  1   
 19   7  33  1   
 20   7  34  1   
 21   8   9  1   
 22   8  35  1   
 23   8  36  1   
 24   9  37  1   
 25   9  38  1   
 26  10  12  1   
 27  10  13  1   
 28  11  13  1   
 29  11  39  1   
 30  11  40  1   
 31  12  14  ar  
 32  12  15  ar  
 33  13  41  1   
 34  13  42  1   
 35  14  16  ar  
 36  14  17  ar  
 37  15  18  ar  
 38  15  43  1   
 39  16  19  ar  
 40  16  20  ar  
 41  17  21  ar  
 42  17  44  1   
 43  18  19  ar  
 44  18  45  1   
 45  19  46  1   
 46  20  22  ar  
 47  20  23  1   
 48  21  22  ar  
 49  21  47  1   
 50  22  24  1   
 51  23  48  1   
 52  23  49  1   
 53  23  50  1   
 54  24  51  1   
 55  24  52  1   
 56  24  53  1   
@<TRIPOS>SUBSTRUCTURE
  1 ****  10 GROUP 4 **** **** 0

# MOE 2024.06 (io_trps.svl 2023.06)
