@<TRIPOS>MOLECULE
NONAME
51 54 1 0 0 
SMALL
USER_CHARGES


@<TRIPOS>ATOM
  1 O       -0.2970     0.4610    -1.6590 O.2   1 <1>  -0.5700 
  2 C       -0.2540     1.5910    -1.2110 C.2   1 <1>   0.7160 
  3 N       -1.4290     2.2070    -0.8380 N.am  1 <1>  -0.6600 
  4 C        1.0070     2.2580    -1.0740 C.2   1 <1>  -0.0860 
  5 C       -1.4570     3.4010     0.0580 C.3   1 <1>   0.1400 
  6 C       -2.7450     1.6260    -1.2370 C.3   1 <1>   0.1400 
  7 C        2.1780     1.8870    -0.4850 C.2   1 <1>   0.0870 
  8 C        1.2930     3.5240    -1.5820 C.2   1 <1>   0.1390 
  9 C       -2.7620     3.4290     0.8530 C.3   1 <1>  -0.1600 
 10 C       -3.8030     2.7260    -1.3640 C.3   1 <1>  -0.1600 
 11 O        3.0110     2.8850    -0.6600 O.3   1 <1>  -0.0190 
 12 C        2.6040     0.7090     0.2370 C.ar  1 <1>   0.0530 
 13 N        2.4940     3.8800    -1.3150 N.2   1 <1>  -0.4100 
 14 C       -3.9770     3.5810    -0.0830 C.3   1 <1>   0.2800 
 15 C        1.6980    -0.1840     0.8130 C.ar  1 <1>  -0.1500 
 16 C        3.9620     0.4240     0.3950 C.ar  1 <1>  -0.1500 
 17 O       -3.9810     4.9080    -0.5350 O.3   1 <1>  -0.5600 
 18 C       -5.2890     3.2300     0.6670 C.3   1 <1>  -0.1600 
 19 C        2.1240    -1.3020     1.5060 C.ar  1 <1>  -0.1500 
 20 C        4.3950    -0.6910     1.0880 C.ar  1 <1>  -0.1500 
 21 C       -4.6430     5.8850     0.2200 C.3   1 <1>   0.1200 
 22 C       -6.4960     4.0770     0.2380 C.3   1 <1>   0.2800 
 23 C        3.4750    -1.5590     1.6470 C.ar  1 <1>  -0.1500 
 24 C       -6.1490     5.5910     0.3680 C.3   1 <1>   0.2000 
 25 O       -6.7730     3.8020    -1.0870 O.3   1 <1>  -0.6800 
 26 C       -7.7640     3.6560     0.9930 C.3   1 <1>  -0.2400 
 27 O       -6.5410     6.1030     1.6110 O.3   1 <1>  -0.6800 
 28 H       -0.6240     3.3680     0.7400 H     1 <1>   0.0800 
 29 H       -1.3810     4.2960    -0.5370 H     1 <1>   0.0800 
 30 H       -2.6470     1.1160    -2.1810 H     1 <1>   0.0800 
 31 H       -3.0490     0.9050    -0.4980 H     1 <1>   0.0800 
 32 H        0.5940     4.1290    -2.1340 H     1 <1>   0.1500 
 33 H       -2.7350     4.2330     1.5630 H     1 <1>   0.0800 
 34 H       -2.8360     2.5130     1.4120 H     1 <1>   0.0800 
 35 H       -4.7320     2.2670    -1.6420 H     1 <1>   0.0800 
 36 H       -3.5140     3.3570    -2.1860 H     1 <1>   0.0800 
 37 H        0.6430    -0.0110     0.7230 H     1 <1>   0.1500 
 38 H        4.6940     1.0850    -0.0350 H     1 <1>   0.1500 
 39 H       -5.5070     2.1820     0.5670 H     1 <1>   0.0800 
 40 H       -5.1360     3.3990     1.7170 H     1 <1>   0.0800 
 41 H        1.4020    -1.9750     1.9360 H     1 <1>   0.1500 
 42 H        5.4480    -0.8850     1.1930 H     1 <1>   0.1500 
 43 H       -4.1640     5.9400     1.1810 H     1 <1>   0.0800 
 44 H       -4.5110     6.8240    -0.2870 H     1 <1>   0.0800 
 45 H        3.8080    -2.4290     2.1860 H     1 <1>   0.1500 
 46 H       -6.6990     6.1430    -0.3740 H     1 <1>   0.0800 
 47 H       -7.1830     2.9230    -1.1640 H     1 <1>   0.4000 
 48 H       -7.6310     3.7720     2.0530 H     1 <1>   0.0800 
 49 H       -8.0040     2.6260     0.8030 H     1 <1>   0.0800 
 50 H       -8.5920     4.2760     0.6950 H     1 <1>   0.0800 
 51 H       -6.1470     5.5840     2.3350 H     1 <1>   0.4000 
@<TRIPOS>BOND
  1   1   2  2   
  2   2   3  am  
  3   2   4  1   
  4   3   5  1   
  5   3   6  1   
  6   4   7  2   
  7   4   8  1   
  8   5   9  1   
  9   5  28  1   
 10   5  29  1   
 11   6  10  1   
 12   6  30  1   
 13   6  31  1   
 14   7  11  1   
 15   7  12  1   
 16   8  13  2   
 17   8  32  1   
 18   9  14  1   
 19   9  33  1   
 20   9  34  1   
 21  10  14  1   
 22  10  35  1   
 23  10  36  1   
 24  11  13  1   
 25  12  15  ar  
 26  12  16  ar  
 27  14  17  1   
 28  14  18  1   
 29  15  19  ar  
 30  15  37  1   
 31  16  20  ar  
 32  16  38  1   
 33  17  21  1   
 34  18  22  1   
 35  18  39  1   
 36  18  40  1   
 37  19  23  ar  
 38  19  41  1   
 39  20  23  ar  
 40  20  42  1   
 41  21  24  1   
 42  21  43  1   
 43  21  44  1   
 44  22  24  1   
 45  22  25  1   
 46  22  26  1   
 47  23  45  1   
 48  24  27  1   
 49  24  46  1   
 50  25  47  1   
 51  26  48  1   
 52  26  49  1   
 53  26  50  1   
 54  27  51  1   
@<TRIPOS>SUBSTRUCTURE
  1 ****   3 GROUP 4 **** **** 0

# MOE 2024.06 (io_trps.svl 2023.06)
