@<TRIPOS>MOLECULE
NONAME
48 49 1 0 0 
SMALL
USER_CHARGES


@<TRIPOS>ATOM
  1 S        0.0350     0.0150     0.4870 S.o2  1 <1>   1.3330 
  2 O       -0.6250     1.2660     0.7840 O.2   1 <1>  -0.6500 
  3 O        0.2680    -0.9370     1.5490 O.2   1 <1>  -0.6500 
  4 N       -0.8400    -0.7740    -0.7350 N.am  1 <1>  -0.8490 
  5 C        1.5840     0.4020    -0.3320 C.3   1 <1>  -0.0550 
  6 C       -2.2870    -0.5730    -0.6020 C.3   1 <1>   0.1160 
  7 C       -0.5430    -2.2080    -0.8310 C.3   1 <1>   0.1160 
  8 C        2.5590     1.2190     0.5420 C.3   1 <1>  -0.0800 
  9 C        3.7440     1.7090    -0.2730 C.3   1 <1>   0.2200 
 10 C        3.2360     0.3530     1.6120 C.3   1 <1>   0.1200 
 11 N        4.3310     2.8970     0.3860 N.am  1 <1>  -0.7300 
 12 C        4.7080     0.5350    -0.1560 C.3   1 <1>   0.1200 
 13 O        4.4860    -0.0180     1.1060 O.3   1 <1>  -0.5600 
 14 C        4.4130     4.1310    -0.1670 C.2   1 <1>   0.5690 
 15 O        3.9970     4.3590    -1.2760 O.2   1 <1>  -0.5700 
 16 C        5.0490     5.2460     0.6290 C.3   1 <1>  -0.0990 
 17 C        6.1000     5.9730    -0.2060 C.3   1 <1>   0.1200 
 18 O        6.7320     6.9290     0.6150 O.3   1 <1>  -0.3630 
 19 C        7.7210     7.7220     0.1340 C.ar  1 <1>   0.0820 
 20 C        8.1700     7.6890    -1.1850 C.ar  1 <1>  -0.1500 
 21 C        8.3020     8.6070     1.0280 C.ar  1 <1>  -0.1500 
 22 C        9.1890     8.5340    -1.5910 C.ar  1 <1>  -0.1500 
 23 C        9.3200     9.4510     0.6210 C.ar  1 <1>  -0.1500 
 24 C        9.7640     9.4150    -0.6900 C.ar  1 <1>  -0.1500 
 25 H        2.0570    -0.5060    -0.6490 H     1 <1>   0.0800 
 26 H        1.3540     0.9750    -1.2100 H     1 <1>   0.0800 
 27 H       -2.8080    -1.0730    -1.4000 H     1 <1>   0.0800 
 28 H       -2.5190     0.4780    -0.6560 H     1 <1>   0.0800 
 29 H       -2.6330    -0.9550     0.3440 H     1 <1>   0.0800 
 30 H       -1.0520    -2.6350    -1.6780 H     1 <1>   0.0800 
 31 H       -0.8600    -2.7190     0.0630 H     1 <1>   0.0800 
 32 H        0.5150    -2.3600    -0.9580 H     1 <1>   0.0800 
 33 H        2.0230     2.0430     0.9820 H     1 <1>   0.0800 
 34 H        3.4960     1.9310    -1.2980 H     1 <1>   0.0800 
 35 H        2.6880    -0.5390     1.8570 H     1 <1>   0.0800 
 36 H        3.4060     0.9210     2.5100 H     1 <1>   0.0800 
 37 H        4.7260     2.7130     1.3110 H     1 <1>   0.3700 
 38 H        5.7380     0.8330    -0.2460 H     1 <1>   0.0800 
 39 H        4.4810    -0.2190    -0.8880 H     1 <1>   0.0800 
 40 H        4.2800     5.9390     0.9170 H     1 <1>   0.0800 
 41 H        5.5100     4.8440     1.5120 H     1 <1>   0.0800 
 42 H        5.6380     6.4820    -1.0360 H     1 <1>   0.0800 
 43 H        6.8460     5.2840    -0.5620 H     1 <1>   0.0800 
 44 H        7.7420     7.0190    -1.9050 H     1 <1>   0.1500 
 45 H        7.9520     8.6300     2.0440 H     1 <1>   0.1500 
 46 H        9.5350     8.5080    -2.6090 H     1 <1>   0.1500 
 47 H        9.7660    10.1350     1.3220 H     1 <1>   0.1500 
 48 H       10.5560    10.0710    -1.0080 H     1 <1>   0.1500 
@<TRIPOS>BOND
  1   1   2  2   
  2   1   3  2   
  3   1   4  am  
  4   1   5  1   
  5   4   6  1   
  6   4   7  1   
  7   5   8  1   
  8   5  25  1   
  9   5  26  1   
 10   6  27  1   
 11   6  28  1   
 12   6  29  1   
 13   7  30  1   
 14   7  31  1   
 15   7  32  1   
 16   8   9  1   
 17   8  10  1   
 18   8  33  1   
 19   9  11  1   
 20   9  12  1   
 21   9  34  1   
 22  10  13  1   
 23  10  35  1   
 24  10  36  1   
 25  11  14  am  
 26  11  37  1   
 27  12  13  1   
 28  12  38  1   
 29  12  39  1   
 30  14  15  2   
 31  14  16  1   
 32  16  17  1   
 33  16  40  1   
 34  16  41  1   
 35  17  18  1   
 36  17  42  1   
 37  17  43  1   
 38  18  19  1   
 39  19  20  ar  
 40  19  21  ar  
 41  20  22  ar  
 42  20  44  1   
 43  21  23  ar  
 44  21  45  1   
 45  22  24  ar  
 46  22  46  1   
 47  23  24  ar  
 48  23  47  1   
 49  24  48  1   
@<TRIPOS>SUBSTRUCTURE
  1 ****  11 GROUP 4 **** **** 0

# MOE 2024.06 (io_trps.svl 2023.06)
