@<TRIPOS>MOLECULE
NONAME
59 62 1 0 0 
SMALL
USER_CHARGES


@<TRIPOS>ATOM
  1 O       -1.1740     0.1370     0.4180 O.2   1 <1>  -0.5700 
  2 C       -2.0070     0.9330     0.0220 C.2   1 <1>   0.5440 
  3 N       -3.2260     0.4320    -0.3820 N.am  1 <1>  -0.6600 
  4 C       -1.7380     2.3600     0.0390 C.ar  1 <1>   0.0860 
  5 C       -3.3450    -0.9910    -0.7890 C.3   1 <1>   0.1400 
  6 C       -4.4660     0.9700     0.2520 C.3   1 <1>   0.1400 
  7 C       -0.9080     2.9270     1.0070 C.ar  1 <1>  -0.1500 
  8 C       -2.2890     3.2260    -0.9070 C.ar  1 <1>  -0.1500 
  9 C       -4.2010    -1.6570     0.3060 C.3   1 <1>   0.4230 
 10 C       -5.6970     0.0310     0.0290 C.3   1 <1>  -0.1600 
 11 C       -0.6560     4.2850     1.0380 C.ar  1 <1>  -0.1500 
 12 C       -2.0370     4.5850    -0.8760 C.ar  1 <1>  -0.1500 
 13 N       -3.5120    -2.8170     0.9740 N.4   1 <1>  -0.9590 
 14 C       -5.7330    -1.5960    -0.1340 C.3   1 <1>   0.0000 
 15 C       -1.2170     5.1440     0.0990 C.ar  1 <1>   0.0000 
 16 C       -3.4960    -3.9830     0.1130 C.3   1 <1>   0.3430 
 17 C       -2.1470    -2.4680     1.4930 C.3   1 <1>   0.2630 
 18 C       -5.8580    -3.1940    -0.3880 C.3   1 <1>  -0.1600 
 19 C       -7.2940    -1.4600    -0.5150 C.3   1 <1>   0.1200 
 20 C       -0.9530     6.5630     0.1310 C.ar  1 <1>   0.0000 
 21 C       -4.9470    -4.3510     0.0770 C.3   1 <1>  -0.1600 
 22 O       -8.0370    -1.6100     0.6550 O.3   1 <1>  -0.6800 
 23 C        0.3490     7.0510     0.0610 C.ar  1 <1>  -0.1500 
 24 C       -1.9880     7.4870     0.2330 C.ar  1 <1>  -0.1500 
 25 C        0.6070     8.4100     0.0920 C.ar  1 <1>  -0.1500 
 26 C       -1.7350     8.8470     0.2640 C.ar  1 <1>  -0.1500 
 27 C       -0.4340     9.3170     0.1950 C.ar  1 <1>  -0.1430 
 28 C       -0.1540    10.8080     0.2270 C.3   1 <1>  -0.0970 
 29 H       -3.8420    -1.0430    -1.7420 H     1 <1>   0.0800 
 30 H       -2.3770    -1.4460    -0.9000 H     1 <1>   0.0800 
 31 H       -4.2900     1.0840     1.3100 H     1 <1>   0.0800 
 32 H       -4.6780     1.9500    -0.1430 H     1 <1>   0.0800 
 33 H       -0.4540     2.2870     1.7440 H     1 <1>   0.1500 
 34 H       -2.9170     2.8270    -1.6830 H     1 <1>   0.1500 
 35 H       -4.1650    -0.9790     1.1380 H     1 <1>   0.0800 
 36 H       -6.4050     0.3390     0.7830 H     1 <1>   0.0800 
 37 H       -6.0200     0.4610    -0.9070 H     1 <1>   0.0800 
 38 H       -0.0160     4.6930     1.8010 H     1 <1>   0.1500 
 39 H       -2.4720     5.2290    -1.6200 H     1 <1>   0.1500 
 40 H       -4.1040    -3.0550     1.7820 H     1 <1>   0.4500 
 41 H       -3.1210    -3.7410    -0.8690 H     1 <1>   0.0800 
 42 H       -2.9120    -4.7800     0.5450 H     1 <1>   0.0800 
 43 H       -1.4630    -2.2820     0.6800 H     1 <1>   0.0800 
 44 H       -1.7540    -3.2720     2.0930 H     1 <1>   0.0800 
 45 H       -2.1920    -1.5760     2.0980 H     1 <1>   0.0800 
 46 H       -6.8020    -3.5940    -0.0420 H     1 <1>   0.0800 
 47 H       -5.8660    -3.3010    -1.4620 H     1 <1>   0.0800 
 48 H       -7.6640    -2.1820    -1.2280 H     1 <1>   0.0800 
 49 H       -7.6410    -0.5410    -0.9570 H     1 <1>   0.0800 
 50 H       -5.0760    -5.1950    -0.5800 H     1 <1>   0.0800 
 51 H       -5.2480    -4.6780     1.0580 H     1 <1>   0.0800 
 52 H       -8.9980    -1.5480     0.4760 H     1 <1>   0.4000 
 53 H        1.1650     6.3570    -0.0240 H     1 <1>   0.1500 
 54 H       -3.0020     7.1350     0.2930 H     1 <1>   0.1500 
 55 H        1.6230     8.7590     0.0330 H     1 <1>   0.1500 
 56 H       -2.5550     9.5390     0.3420 H     1 <1>   0.1500 
 57 H        0.8050    11.0010     0.6730 H     1 <1>   0.0800 
 58 H       -0.9040    11.3190     0.8040 H     1 <1>   0.0800 
 59 H       -0.1580    11.2000    -0.7740 H     1 <1>   0.0800 
@<TRIPOS>BOND
  1   1   2  2   
  2   2   3  am  
  3   2   4  1   
  4   3   5  1   
  5   3   6  1   
  6   4   7  ar  
  7   4   8  ar  
  8   5   9  1   
  9   5  29  1   
 10   5  30  1   
 11   6  10  1   
 12   6  31  1   
 13   6  32  1   
 14   7  11  ar  
 15   7  33  1   
 16   8  12  ar  
 17   8  34  1   
 18   9  13  1   
 19   9  14  1   
 20   9  35  1   
 21  10  14  1   
 22  10  36  1   
 23  10  37  1   
 24  11  15  ar  
 25  11  38  1   
 26  12  15  ar  
 27  12  39  1   
 28  13  16  1   
 29  13  17  1   
 30  13  40  1   
 31  14  18  1   
 32  14  19  1   
 33  15  20  1   
 34  16  21  1   
 35  16  41  1   
 36  16  42  1   
 37  17  43  1   
 38  17  44  1   
 39  17  45  1   
 40  18  21  1   
 41  18  46  1   
 42  18  47  1   
 43  19  22  1   
 44  19  48  1   
 45  19  49  1   
 46  20  23  ar  
 47  20  24  ar  
 48  21  50  1   
 49  21  51  1   
 50  22  52  1   
 51  23  25  ar  
 52  23  53  1   
 53  24  26  ar  
 54  24  54  1   
 55  25  27  ar  
 56  25  55  1   
 57  26  27  ar  
 58  26  56  1   
 59  27  28  1   
 60  28  57  1   
 61  28  58  1   
 62  28  59  1   
@<TRIPOS>SUBSTRUCTURE
  1 ****   4 GROUP 4 **** **** 0

# MOE 2024.06 (io_trps.svl 2023.06)
