@<TRIPOS>MOLECULE
NONAME
53 57 1 0 0 
SMALL
USER_CHARGES


@<TRIPOS>ATOM
  1 S       -1.1700     0.1870    -1.3810 S.3   1 <1>  -0.0800 
  2 C       -0.8950     1.4990    -0.2330 C.2   1 <1>   0.0410 
  3 C       -1.8620    -0.8570    -0.1550 C.2   1 <1>  -0.1400 
  4 C       -0.2970     2.7240    -0.7010 C.2   1 <1>   0.2880 
  5 C       -1.3270     1.0960     0.9880 C.2   1 <1>  -0.1500 
  6 C       -1.8680    -0.2230     1.0360 C.2   1 <1>  -0.1500 
  7 C       -2.2980    -2.2200    -0.6550 C.3   1 <1>   0.5230 
  8 N        0.0900     2.9440    -1.9350 N.2   1 <1>  -0.7070 
  9 C       -0.0450     3.8450     0.0980 C.2   1 <1>  -0.1500 
 10 N       -3.0640    -2.9310     0.3980 N.4   1 <1>  -0.9590 
 11 N        0.5850     4.1920    -1.9360 N.pl3 1 <1>   0.3000 
 12 C        0.5150     4.7590    -0.7180 C.2   1 <1>  -0.3020 
 13 C       -4.4000    -2.3010     0.6250 C.3   1 <1>   0.3430 
 14 C       -3.3160    -4.3500     0.0450 C.3   1 <1>   0.3430 
 15 C       -5.3830    -3.4400     0.8960 C.3   1 <1>  -0.0800 
 16 C       -4.5490    -4.7350     0.8530 C.3   1 <1>  -0.0800 
 17 C       -6.5370    -3.4080    -0.1260 C.3   1 <1>   0.4240 
 18 C       -5.2890    -5.9550     0.2660 C.3   1 <1>  -0.1600 
 19 O       -5.9650    -3.5100    -1.3850 O.3   1 <1>  -0.6800 
 20 C       -7.2940    -2.0680    -0.0350 C.ar  1 <1>  -0.1430 
 21 C       -7.4690    -4.6330     0.0370 C.3   1 <1>  -0.1600 
 22 C       -6.7850    -5.9000     0.5980 C.3   1 <1>  -0.1600 
 23 C       -7.2750    -1.1160    -1.0530 C.ar  1 <1>  -0.1500 
 24 C       -8.0100    -1.7690     1.1210 C.ar  1 <1>  -0.1500 
 25 C       -7.9480     0.0860    -0.9190 C.ar  1 <1>  -0.1500 
 26 C       -8.6840    -0.5680     1.2560 C.ar  1 <1>  -0.1500 
 27 C       -8.6540     0.3620     0.2350 C.ar  1 <1>  -0.1500 
 28 H       -1.2780     1.7030     1.8760 H     1 <1>   0.1500 
 29 H       -2.2270    -0.6140     1.9720 H     1 <1>   0.1500 
 30 H       -1.4220    -2.7870    -0.9260 H     1 <1>   0.0800 
 31 H       -2.9100    -2.1010    -1.5350 H     1 <1>   0.0800 
 32 H       -0.2660     3.9290     1.1460 H     1 <1>   0.1500 
 33 H       -2.5230    -2.8900     1.2690 H     1 <1>   0.4500 
 34 H        0.9650     4.6290    -2.7860 H     1 <1>   0.2700 
 35 H        0.8600     5.7560    -0.5090 H     1 <1>   0.1500 
 36 H       -4.3670    -1.6130     1.4540 H     1 <1>   0.0800 
 37 H       -4.7090    -1.7600    -0.2560 H     1 <1>   0.0800 
 38 H       -3.5530    -4.4260    -1.0050 H     1 <1>   0.0800 
 39 H       -2.4730    -4.9820     0.2730 H     1 <1>   0.0800 
 40 H       -5.7990    -3.3220     1.8800 H     1 <1>   0.0800 
 41 H       -4.2370    -4.9720     1.8560 H     1 <1>   0.0800 
 42 H       -5.1810    -5.9850    -0.8050 H     1 <1>   0.0800 
 43 H       -4.8630    -6.8630     0.6570 H     1 <1>   0.0800 
 44 H       -6.6910    -3.5250    -2.0400 H     1 <1>   0.4000 
 45 H       -8.2770    -4.3920     0.7040 H     1 <1>   0.0800 
 46 H       -7.9260    -4.8590    -0.9100 H     1 <1>   0.0800 
 47 H       -6.8990    -5.9190     1.6700 H     1 <1>   0.0800 
 48 H       -7.2780    -6.7750     0.2100 H     1 <1>   0.0800 
 49 H       -6.7370    -1.2780    -1.9700 H     1 <1>   0.1500 
 50 H       -8.0570    -2.4670     1.9380 H     1 <1>   0.1500 
 51 H       -7.9250     0.8100    -1.7160 H     1 <1>   0.1500 
 52 H       -9.2360    -0.3560     2.1560 H     1 <1>   0.1500 
 53 H       -9.1800     1.2960     0.3380 H     1 <1>   0.1500 
@<TRIPOS>BOND
  1   1   2  1   
  2   1   3  1   
  3   2   4  1   
  4   2   5  2   
  5   3   6  2   
  6   3   7  1   
  7   4   8  2   
  8   4   9  1   
  9   5   6  1   
 10   5  28  1   
 11   6  29  1   
 12   7  10  1   
 13   7  30  1   
 14   7  31  1   
 15   8  11  1   
 16   9  12  2   
 17   9  32  1   
 18  10  13  1   
 19  10  14  1   
 20  10  33  1   
 21  11  12  1   
 22  11  34  1   
 23  12  35  1   
 24  13  15  1   
 25  13  36  1   
 26  13  37  1   
 27  14  16  1   
 28  14  38  1   
 29  14  39  1   
 30  15  16  1   
 31  15  17  1   
 32  15  40  1   
 33  16  18  1   
 34  16  41  1   
 35  17  19  1   
 36  17  20  1   
 37  17  21  1   
 38  18  22  1   
 39  18  42  1   
 40  18  43  1   
 41  19  44  1   
 42  20  23  ar  
 43  20  24  ar  
 44  21  22  1   
 45  21  45  1   
 46  21  46  1   
 47  22  47  1   
 48  22  48  1   
 49  23  25  ar  
 50  23  49  1   
 51  24  26  ar  
 52  24  50  1   
 53  25  27  ar  
 54  25  51  1   
 55  26  27  ar  
 56  26  52  1   
 57  27  53  1   
@<TRIPOS>SUBSTRUCTURE
  1 ****  13 GROUP 4 **** **** 0

# MOE 2024.06 (io_trps.svl 2023.06)
