@<TRIPOS>MOLECULE
NONAME
59 62 1 0 0 
SMALL
USER_CHARGES


@<TRIPOS>ATOM
  1 S       -2.1500    -2.7830     1.6030 S.o2  1 <1>   1.4470 
  2 O       -1.1830    -3.7770     1.2080 O.2   1 <1>  -0.6500 
  3 O       -1.8610    -1.9100     2.7140 O.2   1 <1>  -0.6500 
  4 N       -3.4000    -3.7130     2.1730 N.am  1 <1>  -0.9780 
  5 C       -2.8700    -1.9530     0.1430 C.ar  1 <1>  -0.0090 
  6 C       -2.8430    -0.5760    -0.1120 C.ar  1 <1>  -0.1430 
  7 C       -3.4920    -2.7700    -0.7870 C.ar  1 <1>  -0.1500 
  8 C       -3.4700    -0.0660    -1.2530 C.ar  1 <1>  -0.1430 
  9 C       -2.1220     0.3580     0.8620 C.3   1 <1>  -0.0970 
 10 C       -4.1400    -2.2930    -1.9170 C.ar  1 <1>   0.0860 
 11 C       -4.1050    -0.9240    -2.1340 C.ar  1 <1>  -0.1500 
 12 C       -3.4950     1.4210    -1.5860 C.3   1 <1>  -0.0970 
 13 C       -4.8120    -3.2130    -2.8130 C.2   1 <1>   0.5440 
 14 O       -4.5370    -3.2170    -3.9970 O.2   1 <1>  -0.5700 
 15 N       -5.7310    -4.1180    -2.3310 N.am  1 <1>  -0.6600 
 16 C       -6.5970    -3.8840    -1.1460 C.3   1 <1>   0.1400 
 17 C       -5.8710    -5.4730    -2.9110 C.3   1 <1>   0.1400 
 18 C       -6.2390    -4.8790    -0.0390 C.3   1 <1>  -0.1600 
 19 C       -5.4210    -6.4830    -1.8530 C.3   1 <1>  -0.1600 
 20 C       -6.2050    -6.3410    -0.5320 C.3   1 <1>   0.4240 
 21 O       -7.5270    -6.6690    -0.8970 O.3   1 <1>  -0.5600 
 22 C       -5.6400    -7.2990     0.5550 C.ar  1 <1>  -0.1430 
 23 C       -8.3910    -7.1140     0.0980 C.3   1 <1>   0.1200 
 24 C       -4.3270    -7.1980     1.0370 C.ar  1 <1>   0.0830 
 25 C       -6.4510    -8.3030     1.0820 C.ar  1 <1>  -0.1430 
 26 C       -7.8830    -8.4530     0.6090 C.3   1 <1>  -0.0170 
 27 O       -3.4900    -6.2360     0.5690 O.3   1 <1>  -0.3620 
 28 C       -3.8620    -8.0750     2.0110 C.ar  1 <1>  -0.1500 
 29 C       -5.9750    -9.1800     2.0430 C.ar  1 <1>  -0.1500 
 30 C       -2.1590    -6.5870     0.2420 C.3   1 <1>   0.0400 
 31 C       -4.6810    -9.0670     2.5100 C.ar  1 <1>  -0.1500 
 32 H       -3.1570    -3.8730     3.1450 H     1 <1>   0.4200 
 33 H       -3.2950    -4.6180     1.7080 H     1 <1>   0.4200 
 34 H       -3.4790    -3.8340    -0.6390 H     1 <1>   0.1500 
 35 H       -1.1430    -0.0240     1.0900 H     1 <1>   0.0800 
 36 H       -2.6840     0.4390     1.7750 H     1 <1>   0.0800 
 37 H       -1.9800     1.3480     0.4730 H     1 <1>   0.0800 
 38 H       -4.5890    -0.5460    -3.0180 H     1 <1>   0.1500 
 39 H       -3.9050     1.9800    -0.7640 H     1 <1>   0.0800 
 40 H       -4.1010     1.6160    -2.4530 H     1 <1>   0.0800 
 41 H       -2.4990     1.7690    -1.7910 H     1 <1>   0.0800 
 42 H       -7.6240    -4.0240    -1.4380 H     1 <1>   0.0800 
 43 H       -6.4850    -2.8750    -0.7900 H     1 <1>   0.0800 
 44 H       -5.2630    -5.5700    -3.7940 H     1 <1>   0.0800 
 45 H       -6.8980    -5.6430    -3.1860 H     1 <1>   0.0800 
 46 H       -6.9330    -4.7800     0.7720 H     1 <1>   0.0800 
 47 H       -5.2890    -4.6020     0.3560 H     1 <1>   0.0800 
 48 H       -4.3730    -6.3370    -1.6960 H     1 <1>   0.0800 
 49 H       -5.5490    -7.4820    -2.2270 H     1 <1>   0.0800 
 50 H       -9.3690    -7.2220    -0.3380 H     1 <1>   0.0800 
 51 H       -8.4330    -6.3860     0.8890 H     1 <1>   0.0800 
 52 H       -7.9320    -9.1820    -0.1810 H     1 <1>   0.0800 
 53 H       -8.5120    -8.7840     1.4160 H     1 <1>   0.0800 
 54 H       -2.8620    -7.9910     2.3920 H     1 <1>   0.1500 
 55 H       -6.6110    -9.9550     2.4350 H     1 <1>   0.1500 
 56 H       -1.7600    -5.8310    -0.4110 H     1 <1>   0.0800 
 57 H       -2.1570    -7.5390    -0.2600 H     1 <1>   0.0800 
 58 H       -1.5710    -6.6290     1.1420 H     1 <1>   0.0800 
 59 H       -4.3170    -9.7470     3.2600 H     1 <1>   0.1500 
@<TRIPOS>BOND
  1   1   2  2   
  2   1   3  2   
  3   1   4  am  
  4   1   5  1   
  5   4  32  1   
  6   4  33  1   
  7   5   6  ar  
  8   5   7  ar  
  9   6   8  ar  
 10   6   9  1   
 11   7  10  ar  
 12   7  34  1   
 13   8  11  ar  
 14   8  12  1   
 15   9  35  1   
 16   9  36  1   
 17   9  37  1   
 18  10  11  ar  
 19  10  13  1   
 20  11  38  1   
 21  12  39  1   
 22  12  40  1   
 23  12  41  1   
 24  13  14  2   
 25  13  15  am  
 26  15  16  1   
 27  15  17  1   
 28  16  18  1   
 29  16  42  1   
 30  16  43  1   
 31  17  19  1   
 32  17  44  1   
 33  17  45  1   
 34  18  20  1   
 35  18  46  1   
 36  18  47  1   
 37  19  20  1   
 38  19  48  1   
 39  19  49  1   
 40  20  21  1   
 41  20  22  1   
 42  21  23  1   
 43  22  24  ar  
 44  22  25  ar  
 45  23  26  1   
 46  23  50  1   
 47  23  51  1   
 48  24  27  1   
 49  24  28  ar  
 50  25  26  1   
 51  25  29  ar  
 52  26  52  1   
 53  26  53  1   
 54  27  30  1   
 55  28  31  ar  
 56  28  54  1   
 57  29  31  ar  
 58  29  55  1   
 59  30  56  1   
 60  30  57  1   
 61  30  58  1   
 62  31  59  1   
@<TRIPOS>SUBSTRUCTURE
  1 ****  18 GROUP 4 **** **** 0

# MOE 2024.06 (io_trps.svl 2023.06)
