@<TRIPOS>MOLECULE
NONAME
64 68 1 0 0 
SMALL
USER_CHARGES


@<TRIPOS>ATOM
  1 O       -0.3930     0.4820     1.5080 O.2   1 <1>  -0.5700 
  2 C       -1.2240     0.7910     0.6830 C.2   1 <1>   0.5690 
  3 N       -2.1970    -0.1200     0.3330 N.am  1 <1>  -0.6600 
  4 C       -1.0920     2.1900     0.0330 C.3   1 <1>   0.0610 
  5 C       -2.9550    -0.1860    -0.9590 C.3   1 <1>   0.1400 
  6 C       -2.4490    -1.3240     1.1910 C.3   1 <1>   0.1400 
  7 C       -0.4690     3.2190     1.0250 C.3   1 <1>   0.2200 
  8 C       -2.4520     2.9000    -0.2690 C.3   1 <1>  -0.1600 
  9 C       -0.2110     1.9920    -1.2420 C.3   1 <1>  -0.1600 
 10 C       -4.4610    -0.3940    -0.7210 C.3   1 <1>   0.2090 
 11 C       -3.9540    -1.5360     1.4300 C.3   1 <1>   0.2090 
 12 N       -0.9650     4.4830     0.4860 N.am  1 <1>  -0.6600 
 13 C       -1.2100     3.2660     2.3790 C.3   1 <1>  -0.1600 
 14 C       -2.3870     4.2130     0.5220 C.3   1 <1>   0.2200 
 15 C        0.1800     3.2240    -2.0750 C.3   1 <1>  -0.2400 
 16 N       -4.7120    -1.5850     0.1390 N.pl3 1 <1>  -0.8380 
 17 C       -0.2500     5.6310     0.3020 C.2   1 <1>   0.5690 
 18 C       -2.5610     3.9060     2.0130 C.3   1 <1>  -0.1600 
 19 C       -6.0120    -2.0620     0.1700 C.ar  1 <1>   0.4100 
 20 O        0.9440     5.6550     0.4900 O.2   1 <1>  -0.5700 
 21 C       -0.9680     6.9040    -0.1570 C.3   1 <1>  -0.0190 
 22 N       -6.7380    -1.7560     1.2390 N.ar  1 <1>  -0.6200 
 23 C       -6.5280    -2.8180    -0.8960 C.ar  1 <1>   0.1600 
 24 C       -1.3110     6.8440    -1.6560 C.3   1 <1>  -0.1600 
 25 C       -0.1690     8.1920     0.1170 C.3   1 <1>  -0.1600 
 26 C       -7.9680    -2.2360     1.1690 C.ar  1 <1>   0.1600 
 27 N       -7.7580    -3.2920    -0.9720 N.ar  1 <1>  -0.6200 
 28 C       -1.9710     8.1480    -2.1160 C.3   1 <1>   0.1200 
 29 C       -0.8960     9.4160    -0.4480 C.3   1 <1>   0.1200 
 30 C       -8.4640    -2.9760     0.1040 C.ar  1 <1>   0.1600 
 31 O       -1.1420     9.2240    -1.8070 O.3   1 <1>  -0.5600 
 32 H       -2.8080     0.6970    -1.5480 H     1 <1>   0.0800 
 33 H       -2.5830    -1.0180    -1.5310 H     1 <1>   0.0800 
 34 H       -2.0420    -2.1950     0.7080 H     1 <1>   0.0800 
 35 H       -1.9620    -1.2180     2.1450 H     1 <1>   0.0800 
 36 H        0.6040     3.1670     1.1100 H     1 <1>   0.0800 
 37 H       -3.3010     2.3310     0.0600 H     1 <1>   0.0800 
 38 H       -2.5690     3.1110    -1.3150 H     1 <1>   0.0800 
 39 H        0.7040     1.5130    -0.9350 H     1 <1>   0.0800 
 40 H       -0.7050     1.3020    -1.9010 H     1 <1>   0.0800 
 41 H       -4.9570    -0.5210    -1.6670 H     1 <1>   0.0800 
 42 H       -4.8750     0.4770    -0.2430 H     1 <1>   0.0800 
 43 H       -4.3330    -0.7320     2.0370 H     1 <1>   0.0800 
 44 H       -4.1050    -2.4560     1.9670 H     1 <1>   0.0800 
 45 H       -1.3260     2.3110     2.8550 H     1 <1>   0.0800 
 46 H       -0.6640     3.9070     3.0500 H     1 <1>   0.0800 
 47 H       -3.0160     5.0020     0.1450 H     1 <1>   0.0800 
 48 H        0.8480     3.8570    -1.5190 H     1 <1>   0.0800 
 49 H       -0.6780     3.7960    -2.3710 H     1 <1>   0.0800 
 50 H        0.6990     2.9110    -2.9640 H     1 <1>   0.0800 
 51 H       -2.7100     4.8170     2.5660 H     1 <1>   0.0800 
 52 H       -3.3900     3.2440     2.1950 H     1 <1>   0.0800 
 53 H       -1.8840     6.9780     0.4000 H     1 <1>   0.0800 
 54 H       -5.8630    -3.0250    -1.7130 H     1 <1>   0.1500 
 55 H       -1.9710     6.0200    -1.8540 H     1 <1>   0.0800 
 56 H       -0.4110     6.6900    -2.2260 H     1 <1>   0.0800 
 57 H        0.8020     8.1280    -0.3440 H     1 <1>   0.0800 
 58 H       -0.0220     8.3120     1.1750 H     1 <1>   0.0800 
 59 H       -8.6190    -2.0320     2.0000 H     1 <1>   0.1500 
 60 H       -2.9230     8.3000    -1.6350 H     1 <1>   0.0800 
 61 H       -2.1140     8.1420    -3.1830 H     1 <1>   0.0800 
 62 H       -0.2850    10.2960    -0.3470 H     1 <1>   0.0800 
 63 H       -1.8350     9.5830     0.0510 H     1 <1>   0.0800 
 64 H       -9.4820    -3.3220     0.1400 H     1 <1>   0.1500 
@<TRIPOS>BOND
  1   1   2  2   
  2   2   3  am  
  3   2   4  1   
  4   3   5  1   
  5   3   6  1   
  6   4   7  1   
  7   4   8  1   
  8   4   9  1   
  9   5  10  1   
 10   5  32  1   
 11   5  33  1   
 12   6  11  1   
 13   6  34  1   
 14   6  35  1   
 15   7  12  1   
 16   7  13  1   
 17   7  36  1   
 18   8  14  1   
 19   8  37  1   
 20   8  38  1   
 21   9  15  1   
 22   9  39  1   
 23   9  40  1   
 24  10  16  1   
 25  10  41  1   
 26  10  42  1   
 27  11  16  1   
 28  11  43  1   
 29  11  44  1   
 30  12  14  1   
 31  12  17  am  
 32  13  18  1   
 33  13  45  1   
 34  13  46  1   
 35  14  18  1   
 36  14  47  1   
 37  15  48  1   
 38  15  49  1   
 39  15  50  1   
 40  16  19  1   
 41  17  20  2   
 42  17  21  1   
 43  18  51  1   
 44  18  52  1   
 45  19  22  ar  
 46  19  23  ar  
 47  21  24  1   
 48  21  25  1   
 49  21  53  1   
 50  22  26  ar  
 51  23  27  ar  
 52  23  54  1   
 53  24  28  1   
 54  24  55  1   
 55  24  56  1   
 56  25  29  1   
 57  25  57  1   
 58  25  58  1   
 59  26  30  ar  
 60  26  59  1   
 61  27  30  ar  
 62  28  31  1   
 63  28  60  1   
 64  28  61  1   
 65  29  31  1   
 66  29  62  1   
 67  29  63  1   
 68  30  64  1   
@<TRIPOS>SUBSTRUCTURE
  1 ****   8 GROUP 4 **** **** 0

# MOE 2024.06 (io_trps.svl 2023.06)
