@<TRIPOS>MOLECULE
NONAME
56 58 1 0 0 
SMALL
USER_CHARGES


@<TRIPOS>ATOM
  1 O       -0.9770    -0.9240     2.9460 O.2   1 <1>  -0.5700 
  2 C       -1.3180     0.0670     2.3440 C.2   1 <1>   0.5690 
  3 N       -2.0410    -0.0430     1.1780 N.am  1 <1>  -0.6600 
  4 C       -0.9170     1.4170     2.9320 C.3   1 <1>   0.0440 
  5 C       -2.1950    -1.3620     0.5040 C.3   1 <1>   0.1400 
  6 C       -2.6740     1.0970     0.4540 C.3   1 <1>   0.1400 
  7 C       -0.1050     2.2710     1.9620 C.ar  1 <1>  -0.1440 
  8 C       -3.6900    -1.6800     0.2810 C.3   1 <1>   0.4230 
  9 C       -4.1630     0.7890     0.2510 C.3   1 <1>  -0.1600 
 10 C        0.9850     1.7270     1.3000 C.ar  1 <1>  -0.1500 
 11 C       -0.4500     3.5940     1.7260 C.ar  1 <1>  -0.1500 
 12 N       -3.9430    -3.0780    -0.2720 N.4   1 <1>  -0.9590 
 13 C       -4.4260    -0.5490    -0.4970 C.3   1 <1>   0.0000 
 14 C        1.7080     2.4890     0.4000 C.ar  1 <1>  -0.1500 
 15 C        0.2710     4.3590     0.8260 C.ar  1 <1>  -0.1500 
 16 C       -5.3020    -3.2600    -0.8810 C.3   1 <1>   0.3430 
 17 C       -2.8930    -3.6040    -1.2060 C.3   1 <1>   0.2630 
 18 C       -5.9580    -0.8320    -0.4860 C.3   1 <1>  -0.1600 
 19 C       -3.8970    -0.4650    -1.9570 C.3   1 <1>   0.1200 
 20 C        1.3560     3.8050     0.1520 C.ar  1 <1>   0.0830 
 21 C       -6.3170    -2.3110    -0.2470 C.3   1 <1>  -0.1600 
 22 O       -4.3820     0.6540    -2.6130 O.3   1 <1>  -0.6800 
 23 O        2.1100     4.4780    -0.7520 O.3   1 <1>  -0.3630 
 24 C        1.8350     5.8180    -1.0840 C.3   1 <1>   0.1200 
 25 C        2.8570     6.2660    -2.1240 C.3   1 <1>  -0.2400 
 26 H       -1.8060     1.9320     3.2410 H     1 <1>   0.0800 
 27 H       -0.3230     1.2460     3.8120 H     1 <1>   0.0800 
 28 H       -1.6630    -1.3240    -0.4280 H     1 <1>   0.0800 
 29 H       -1.7590    -2.1400     1.1060 H     1 <1>   0.0800 
 30 H       -2.5860     2.0090     1.0150 H     1 <1>   0.0800 
 31 H       -2.1790     1.2460    -0.4920 H     1 <1>   0.0800 
 32 H       -4.1230    -1.6660     1.2680 H     1 <1>   0.0800 
 33 H       -4.6200     0.7620     1.2250 H     1 <1>   0.0800 
 34 H       -4.6140     1.6120    -0.2770 H     1 <1>   0.0800 
 35 H        1.2790     0.7060     1.4800 H     1 <1>   0.1500 
 36 H       -1.2840     4.0400     2.2400 H     1 <1>   0.1500 
 37 H       -3.9250    -3.6870     0.5600 H     1 <1>   0.4500 
 38 H        2.5510     2.0680    -0.1160 H     1 <1>   0.1500 
 39 H       -0.0230     5.3780     0.6640 H     1 <1>   0.1500 
 40 H       -5.2580    -3.0550    -1.9380 H     1 <1>   0.0800 
 41 H       -5.6260    -4.2810    -0.7550 H     1 <1>   0.0800 
 42 H       -2.8230    -2.9850    -2.0850 H     1 <1>   0.0800 
 43 H       -3.1360    -4.6090    -1.5130 H     1 <1>   0.0800 
 44 H       -1.9300    -3.6250    -0.7210 H     1 <1>   0.0800 
 45 H       -6.4440    -0.2570     0.2850 H     1 <1>   0.0800 
 46 H       -6.3990    -0.5120    -1.4140 H     1 <1>   0.0800 
 47 H       -4.1860    -1.3240    -2.5340 H     1 <1>   0.0800 
 48 H       -2.8250    -0.3850    -1.9820 H     1 <1>   0.0800 
 49 H       -7.2920    -2.5080    -0.6600 H     1 <1>   0.0800 
 50 H       -6.3780    -2.5140     0.8090 H     1 <1>   0.0800 
 51 H       -5.3540     0.6340    -2.7160 H     1 <1>   0.4000 
 52 H        0.8370     5.8720    -1.4830 H     1 <1>   0.0800 
 53 H        1.9150     6.4130    -0.1900 H     1 <1>   0.0800 
 54 H        2.7790     5.6540    -3.0050 H     1 <1>   0.0800 
 55 H        3.8510     6.1900    -1.7210 H     1 <1>   0.0800 
 56 H        2.6740     7.2890    -2.3980 H     1 <1>   0.0800 
@<TRIPOS>BOND
  1   1   2  2   
  2   2   3  am  
  3   2   4  1   
  4   3   5  1   
  5   3   6  1   
  6   4   7  1   
  7   4  26  1   
  8   4  27  1   
  9   5   8  1   
 10   5  28  1   
 11   5  29  1   
 12   6   9  1   
 13   6  30  1   
 14   6  31  1   
 15   7  10  ar  
 16   7  11  ar  
 17   8  12  1   
 18   8  13  1   
 19   8  32  1   
 20   9  13  1   
 21   9  33  1   
 22   9  34  1   
 23  10  14  ar  
 24  10  35  1   
 25  11  15  ar  
 26  11  36  1   
 27  12  16  1   
 28  12  17  1   
 29  12  37  1   
 30  13  18  1   
 31  13  19  1   
 32  14  20  ar  
 33  14  38  1   
 34  15  20  ar  
 35  15  39  1   
 36  16  21  1   
 37  16  40  1   
 38  16  41  1   
 39  17  42  1   
 40  17  43  1   
 41  17  44  1   
 42  18  21  1   
 43  18  45  1   
 44  18  46  1   
 45  19  22  1   
 46  19  47  1   
 47  19  48  1   
 48  20  23  1   
 49  21  49  1   
 50  21  50  1   
 51  22  51  1   
 52  23  24  1   
 53  24  25  1   
 54  24  52  1   
 55  24  53  1   
 56  25  54  1   
 57  25  55  1   
 58  25  56  1   
@<TRIPOS>SUBSTRUCTURE
  1 ****   6 GROUP 4 **** **** 0

# MOE 2024.06 (io_trps.svl 2023.06)
