@<TRIPOS>MOLECULE
NONAME
55 57 1 0 0 
SMALL
USER_CHARGES


@<TRIPOS>ATOM
  1 F        0.4690     1.3000     0.5190 F     1 <1>  -0.1900 
  2 C        1.6070     1.9300     0.3930 C.ar  1 <1>   0.1900 
  3 C        2.7760     1.2620     0.7040 C.ar  1 <1>  -0.1500 
  4 C        1.5970     3.2400    -0.0470 C.ar  1 <1>  -0.1500 
  5 C        3.9770     1.9370     0.5670 C.ar  1 <1>  -0.1500 
  6 C        2.8040     3.9080    -0.1810 C.ar  1 <1>  -0.1500 
  7 C        3.9990     3.2550     0.1270 C.ar  1 <1>   0.0830 
  8 O        5.2210     3.8360     0.0230 O.3   1 <1>  -0.3630 
  9 C        5.3700     5.1660    -0.4020 C.3   1 <1>   0.1200 
 10 C        6.8680     5.4720    -0.4050 C.3   1 <1>  -0.1600 
 11 C        7.1320     6.9040    -0.8640 C.3   1 <1>   0.3430 
 12 N        8.5920     7.2160    -0.7850 N.4   1 <1>  -0.9590 
 13 C        8.8710     8.6830    -0.8820 C.3   1 <1>   0.3430 
 14 C        9.3790     6.4880    -1.8320 C.3   1 <1>   0.2630 
 15 C        8.4240     9.4620     0.3680 C.3   1 <1>  -0.0800 
 16 C        8.9180    10.9100     0.2100 C.3   1 <1>   0.1400 
 17 C        9.1610     8.9760     1.6340 C.3   1 <1>  -0.0990 
 18 N       10.2770    10.8500     0.7810 N.am  1 <1>  -0.6600 
 19 C       10.4330     9.7730     1.5830 C.2   1 <1>   0.5690 
 20 C       11.2870    11.9350     0.6510 C.3   1 <1>   0.2200 
 21 O       11.4390     9.4310     2.1490 O.2   1 <1>  -0.5700 
 22 C       10.7890    13.2300     1.3090 C.3   1 <1>  -0.1600 
 23 C       11.5480    12.2820    -0.8170 C.3   1 <1>  -0.1600 
 24 C       10.6730    14.2870     0.2040 C.3   1 <1>  -0.1600 
 25 C       10.7090    13.5230    -1.1170 C.3   1 <1>  -0.1600 
 26 H        2.7430     0.2430     1.0430 H     1 <1>   0.1500 
 27 H        0.6630     3.7200    -0.2780 H     1 <1>   0.1500 
 28 H        4.9040     1.4450     0.8010 H     1 <1>   0.1500 
 29 H        2.7870     4.9240    -0.5230 H     1 <1>   0.1500 
 30 H        4.8400     5.8010     0.2880 H     1 <1>   0.0800 
 31 H        4.9520     5.2510    -1.3910 H     1 <1>   0.0800 
 32 H        7.3470     4.7730    -1.0660 H     1 <1>   0.0800 
 33 H        7.2430     5.3370     0.5940 H     1 <1>   0.0800 
 34 H        6.5820     7.5750    -0.2250 H     1 <1>   0.0800 
 35 H        6.7800     7.0390    -1.8750 H     1 <1>   0.0800 
 36 H        8.9350     6.8960     0.1330 H     1 <1>   0.4500 
 37 H        8.3850     9.0890    -1.7550 H     1 <1>   0.0800 
 38 H        9.9340     8.8320    -1.0020 H     1 <1>   0.0800 
 39 H        9.0420     6.7660    -2.8180 H     1 <1>   0.0800 
 40 H        9.2670     5.4220    -1.7180 H     1 <1>   0.0800 
 41 H       10.4270     6.7280    -1.7460 H     1 <1>   0.0800 
 42 H        7.3550     9.4410     0.4770 H     1 <1>   0.0800 
 43 H        8.3170    11.5910     0.7910 H     1 <1>   0.0800 
 44 H        8.9330    11.2270    -0.8180 H     1 <1>   0.0800 
 45 H        9.3680     7.9250     1.6660 H     1 <1>   0.0800 
 46 H        8.6260     9.2610     2.5220 H     1 <1>   0.0800 
 47 H       12.2060    11.6170     1.1160 H     1 <1>   0.0800 
 48 H       11.5000    13.5580     2.0480 H     1 <1>   0.0800 
 49 H        9.8420    13.0850     1.7960 H     1 <1>   0.0800 
 50 H       11.3420    11.4640    -1.4830 H     1 <1>   0.0800 
 51 H       12.5870    12.5460    -0.9150 H     1 <1>   0.0800 
 52 H       11.5260    14.9430     0.2530 H     1 <1>   0.0800 
 53 H        9.7780    14.8760     0.3020 H     1 <1>   0.0800 
 54 H        9.7100    13.2420    -1.3950 H     1 <1>   0.0800 
 55 H       11.1360    14.1150    -1.9080 H     1 <1>   0.0800 
@<TRIPOS>BOND
  1   1   2  1   
  2   2   3  ar  
  3   2   4  ar  
  4   3   5  ar  
  5   3  26  1   
  6   4   6  ar  
  7   4  27  1   
  8   5   7  ar  
  9   5  28  1   
 10   6   7  ar  
 11   6  29  1   
 12   7   8  1   
 13   8   9  1   
 14   9  10  1   
 15   9  30  1   
 16   9  31  1   
 17  10  11  1   
 18  10  32  1   
 19  10  33  1   
 20  11  12  1   
 21  11  34  1   
 22  11  35  1   
 23  12  13  1   
 24  12  14  1   
 25  12  36  1   
 26  13  15  1   
 27  13  37  1   
 28  13  38  1   
 29  14  39  1   
 30  14  40  1   
 31  14  41  1   
 32  15  16  1   
 33  15  17  1   
 34  15  42  1   
 35  16  18  1   
 36  16  43  1   
 37  16  44  1   
 38  17  19  1   
 39  17  45  1   
 40  17  46  1   
 41  18  19  am  
 42  18  20  1   
 43  19  21  2   
 44  20  22  1   
 45  20  23  1   
 46  20  47  1   
 47  22  24  1   
 48  22  48  1   
 49  22  49  1   
 50  23  25  1   
 51  23  50  1   
 52  23  51  1   
 53  24  25  1   
 54  24  52  1   
 55  24  53  1   
 56  25  54  1   
 57  25  55  1   
@<TRIPOS>SUBSTRUCTURE
  1 ****  11 GROUP 4 **** **** 0

# MOE 2024.06 (io_trps.svl 2023.06)
