@<TRIPOS>MOLECULE
NONAME
46 48 1 0 0 
SMALL
USER_CHARGES


@<TRIPOS>ATOM
  1 S        0.0230     0.2720    -2.3310 S.3   1 <1>  -0.0800 
  2 C        1.2460    -0.0180    -1.0920 C.ar  1 <1>   0.0400 
  3 C       -0.2610    -1.4490    -2.5170 C.2   1 <1>  -0.1100 
  4 C        1.3930    -1.3800    -0.8720 C.ar  1 <1>   0.0000 
  5 C        1.9760     0.9490    -0.4260 C.ar  1 <1>  -0.1500 
  6 C        0.5040    -2.1890    -1.6810 C.2   1 <1>  -0.0860 
  7 C        2.3540    -1.7760     0.0590 C.ar  1 <1>  -0.1500 
  8 C        2.9110     0.5310     0.5020 C.ar  1 <1>  -0.1500 
  9 C        0.4620    -3.6310    -1.5880 C.2   1 <1>   0.7160 
 10 C        3.0980    -0.8280     0.7390 C.ar  1 <1>  -0.1500 
 11 O        0.5470    -4.2990    -2.6020 O.2   1 <1>  -0.5700 
 12 N        0.2740    -4.2800    -0.3850 N.am  1 <1>  -0.6600 
 13 C        0.4890    -5.7500    -0.2470 C.3   1 <1>   0.1400 
 14 C       -0.3490    -3.6480     0.8090 C.3   1 <1>   0.1400 
 15 C       -0.8580    -6.4850    -0.0770 C.3   1 <1>   0.0000 
 16 C       -1.6920    -4.3250     1.1010 C.3   1 <1>  -0.1600 
 17 C       -1.5570    -5.8540     1.1640 C.3   1 <1>   0.2000 
 18 C       -1.7370    -6.2900    -1.3430 C.3   1 <1>   0.1200 
 19 C       -0.6310    -8.0150     0.1200 C.3   1 <1>  -0.1600 
 20 O       -2.8270    -6.3770     1.3490 O.3   1 <1>  -0.6800 
 21 O       -1.0470    -6.6130    -2.5040 O.3   1 <1>  -0.6800 
 22 C        0.3390    -8.4610     1.2370 C.3   1 <1>  -0.1600 
 23 C        1.7620    -8.7240     0.7250 C.3   1 <1>  -0.2400 
 24 H       -0.9930    -1.7500    -3.2470 H     1 <1>   0.1500 
 25 H        1.8170     1.9930    -0.6340 H     1 <1>   0.1500 
 26 H        2.5200    -2.8220     0.2460 H     1 <1>   0.1500 
 27 H        3.4990     1.2550     1.0400 H     1 <1>   0.1500 
 28 H        3.8360    -1.1410     1.4580 H     1 <1>   0.1500 
 29 H        1.0240    -6.1410    -1.0960 H     1 <1>   0.0800 
 30 H        1.1030    -5.9120     0.6200 H     1 <1>   0.0800 
 31 H        0.3120    -3.7650     1.6510 H     1 <1>   0.0800 
 32 H       -0.5070    -2.5950     0.6540 H     1 <1>   0.0800 
 33 H       -2.3960    -4.0330     0.3440 H     1 <1>   0.0800 
 34 H       -2.0580    -3.9650     2.0460 H     1 <1>   0.0800 
 35 H       -0.9970    -6.0980     2.0500 H     1 <1>   0.0800 
 36 H       -2.0640    -5.2710    -1.4490 H     1 <1>   0.0800 
 37 H       -2.6040    -6.9260    -1.2990 H     1 <1>   0.0800 
 38 H       -1.5880    -8.4620     0.3270 H     1 <1>   0.0800 
 39 H       -0.3020    -8.4490    -0.8090 H     1 <1>   0.0800 
 40 H       -3.4010    -6.1610     0.5910 H     1 <1>   0.4000 
 41 H       -0.3940    -5.8960    -2.7100 H     1 <1>   0.4000 
 42 H        0.3650    -7.7550     2.0460 H     1 <1>   0.0800 
 43 H       -0.0310    -9.3870     1.6450 H     1 <1>   0.0800 
 44 H        2.2090    -7.8400     0.3110 H     1 <1>   0.0800 
 45 H        1.7490    -9.4860    -0.0340 H     1 <1>   0.0800 
 46 H        2.3820    -9.0670     1.5340 H     1 <1>   0.0800 
@<TRIPOS>BOND
  1   1   2  1   
  2   1   3  1   
  3   2   4  ar  
  4   2   5  ar  
  5   3   6  2   
  6   3  24  1   
  7   4   6  1   
  8   4   7  ar  
  9   5   8  ar  
 10   5  25  1   
 11   6   9  1   
 12   7  10  ar  
 13   7  26  1   
 14   8  10  ar  
 15   8  27  1   
 16   9  11  2   
 17   9  12  am  
 18  10  28  1   
 19  12  13  1   
 20  12  14  1   
 21  13  15  1   
 22  13  29  1   
 23  13  30  1   
 24  14  16  1   
 25  14  31  1   
 26  14  32  1   
 27  15  17  1   
 28  15  18  1   
 29  15  19  1   
 30  16  17  1   
 31  16  33  1   
 32  16  34  1   
 33  17  20  1   
 34  17  35  1   
 35  18  21  1   
 36  18  36  1   
 37  18  37  1   
 38  19  22  1   
 39  19  38  1   
 40  19  39  1   
 41  20  40  1   
 42  21  41  1   
 43  22  23  1   
 44  22  42  1   
 45  22  43  1   
 46  23  44  1   
 47  23  45  1   
 48  23  46  1   
@<TRIPOS>SUBSTRUCTURE
  1 ****  12 GROUP 4 **** **** 0

# MOE 2024.06 (io_trps.svl 2023.06)
