@<TRIPOS>MOLECULE
NONAME
52 56 1 0 0 
SMALL
USER_CHARGES


@<TRIPOS>ATOM
  1 O       -3.8950     2.6950     2.1120 O.2   1 <1>  -0.5700 
  2 C       -3.1000     2.8620     1.2200 C.2   1 <1>   0.5690 
  3 N       -3.3320     2.4270    -0.0440 N.am  1 <1>  -0.7300 
  4 C       -1.7680     3.5120     1.5260 C.3   1 <1>   0.1570 
  5 C       -4.2560     1.3300    -0.3840 C.3   1 <1>   0.2200 
  6 N       -0.6940     2.5890     1.1060 N.pl3 1 <1>   0.0480 
  7 C       -3.4560     0.0360    -0.3750 C.3   1 <1>  -0.0800 
  8 C       -4.6410     1.4380    -1.8540 C.3   1 <1>   0.1200 
  9 C       -0.4480     1.3750     1.6710 C.ar  1 <1>  -0.1520 
 10 C        0.0070     2.5920    -0.0640 C.2   1 <1>   0.1010 
 11 C       -2.8090     0.0400    -1.7650 C.3   1 <1>   0.1200 
 12 C       -4.3500    -1.1960    -0.1480 C.3   1 <1>  -0.0170 
 13 O       -3.5680     0.9010    -2.5680 O.3   1 <1>  -0.5600 
 14 C        0.4040     0.7260     0.8000 C.ar  1 <1>   0.2270 
 15 C       -0.8930     0.7550     2.8420 C.ar  1 <1>  -0.1500 
 16 N        0.6720     1.5110    -0.2770 N.2   1 <1>  -0.5650 
 17 C       -0.0170     3.7720    -1.0270 C.3   1 <1>  -0.0150 
 18 C       -3.5220    -2.4720    -0.1160 C.ar  1 <1>  -0.1440 
 19 C        0.8460    -0.5640     1.0870 C.ar  1 <1>  -0.1500 
 20 C       -0.4490    -0.5190     3.1210 C.ar  1 <1>  -0.1500 
 21 C       -1.0320     3.8270    -2.1310 C.3   1 <1>  -0.2000 
 22 C        0.4160     3.6220    -2.4530 C.3   1 <1>  -0.2000 
 23 C       -2.6320    -2.7310     0.9070 C.ar  1 <1>  -0.1500 
 24 C       -3.6100    -3.4330    -1.1030 C.ar  1 <1>  -0.1500 
 25 C        0.4210    -1.1800     2.2450 C.ar  1 <1>  -0.1500 
 26 C       -1.8920    -3.9000     0.8920 C.ar  1 <1>   0.1600 
 27 C       -2.8240    -4.5710    -1.0220 C.ar  1 <1>   0.1600 
 28 N       -1.9660    -4.8290    -0.0480 N.ar  1 <1>  -0.6200 
 29 H       -2.6020     2.5410    -0.7540 H     1 <1>   0.3700 
 30 H       -1.6860     3.6920     2.5810 H     1 <1>   0.0800 
 31 H       -1.6880     4.4430     1.0000 H     1 <1>   0.0800 
 32 H       -5.1060     1.3260     0.2780 H     1 <1>   0.0800 
 33 H       -2.7010     0.0510     0.3910 H     1 <1>   0.0800 
 34 H       -4.8130     2.4530    -2.1650 H     1 <1>   0.0800 
 35 H       -5.5090     0.8390    -2.0670 H     1 <1>   0.0800 
 36 H       -2.7840    -0.9340    -2.2220 H     1 <1>   0.0800 
 37 H       -1.8070     0.4340    -1.7170 H     1 <1>   0.0800 
 38 H       -5.0950    -1.2650    -0.9210 H     1 <1>   0.0800 
 39 H       -4.8620    -1.0970     0.7930 H     1 <1>   0.0800 
 40 H       -1.5670     1.2650     3.5080 H     1 <1>   0.1500 
 41 H        0.2780     4.6900    -0.5500 H     1 <1>   0.1000 
 42 H        1.5090    -1.0480     0.3940 H     1 <1>   0.1500 
 43 H       -0.7680    -1.0190     4.0190 H     1 <1>   0.1500 
 44 H       -1.6780     2.9940    -2.3420 H     1 <1>   0.1000 
 45 H       -1.4820     4.7720    -2.3810 H     1 <1>   0.1000 
 46 H        0.9690     4.4230    -2.9100 H     1 <1>   0.1000 
 47 H        0.7450     2.6520    -2.7860 H     1 <1>   0.1000 
 48 H       -2.5040    -2.0310     1.7130 H     1 <1>   0.1500 
 49 H       -4.2780    -3.3080    -1.9360 H     1 <1>   0.1500 
 50 H        0.7580    -2.1730     2.4830 H     1 <1>   0.1500 
 51 H       -1.2010    -4.0810     1.6980 H     1 <1>   0.1500 
 52 H       -2.9060    -5.3100    -1.8010 H     1 <1>   0.1500 
@<TRIPOS>BOND
  1   1   2  2   
  2   2   3  am  
  3   2   4  1   
  4   3   5  1   
  5   3  29  1   
  6   4   6  1   
  7   4  30  1   
  8   4  31  1   
  9   5   7  1   
 10   5   8  1   
 11   5  32  1   
 12   6   9  1   
 13   6  10  1   
 14   7  11  1   
 15   7  12  1   
 16   7  33  1   
 17   8  13  1   
 18   8  34  1   
 19   8  35  1   
 20   9  14  ar  
 21   9  15  ar  
 22  10  16  2   
 23  10  17  1   
 24  11  13  1   
 25  11  36  1   
 26  11  37  1   
 27  12  18  1   
 28  12  38  1   
 29  12  39  1   
 30  14  16  1   
 31  14  19  ar  
 32  15  20  ar  
 33  15  40  1   
 34  17  21  1   
 35  17  22  1   
 36  17  41  1   
 37  18  23  ar  
 38  18  24  ar  
 39  19  25  ar  
 40  19  42  1   
 41  20  25  ar  
 42  20  43  1   
 43  21  22  1   
 44  21  44  1   
 45  21  45  1   
 46  22  46  1   
 47  22  47  1   
 48  23  26  ar  
 49  23  48  1   
 50  24  27  ar  
 51  24  49  1   
 52  25  50  1   
 53  26  28  ar  
 54  26  51  1   
 55  27  28  ar  
 56  27  52  1   
@<TRIPOS>SUBSTRUCTURE
  1 ****   7 GROUP 4 **** **** 0

# MOE 2024.06 (io_trps.svl 2023.06)
