@<TRIPOS>MOLECULE
NONAME
58 60 1 0 0 
SMALL
USER_CHARGES


@<TRIPOS>ATOM
  1 O       -0.0080    -1.4080    -1.2250 O.2   1 <1>  -0.5700 
  2 C        0.0480    -1.2820    -0.0230 C.2   1 <1>   0.5690 
  3 N        1.2300    -1.1080     0.6320 N.am  1 <1>  -0.7300 
  4 C       -1.2820    -1.3120     0.7500 C.3   1 <1>   0.4040 
  5 C        2.5630    -1.1030    -0.0260 C.3   1 <1>   0.1400 
  6 N       -2.4750    -0.9820    -0.1140 N.4   1 <1>  -0.9590 
  7 C        3.4880    -2.1520     0.6100 C.3   1 <1>  -0.0800 
  8 C       -3.7660    -1.3980     0.5180 C.3   1 <1>   0.3430 
  9 C       -2.4810     0.4500    -0.5270 C.3   1 <1>   0.3430 
 10 C        4.8960    -2.0440    -0.0040 C.3   1 <1>  -0.1600 
 11 C        2.9400    -3.5840     0.4360 C.3   1 <1>  -0.1600 
 12 C       -4.9610    -1.1860    -0.4370 C.3   1 <1>   0.0000 
 13 C       -3.6290     0.7020    -1.5070 C.3   1 <1>  -0.1600 
 14 C        5.8530    -3.0880     0.5880 C.3   1 <1>  -0.1600 
 15 C        3.8970    -4.6300     1.0230 C.3   1 <1>  -0.1600 
 16 C       -6.2600    -1.5670     0.2890 C.3   1 <1>   0.2000 
 17 C       -4.9860     0.2780    -0.9240 C.3   1 <1>  -0.1600 
 18 C       -4.9190    -2.1930    -1.5980 C.3   1 <1>  -0.1600 
 19 C        5.2990    -4.5070     0.4140 C.3   1 <1>  -0.1600 
 20 O       -6.1700    -1.2220     1.6380 O.3   1 <1>  -0.5600 
 21 C       -6.4130    -3.0850     0.1200 C.3   1 <1>  -0.1600 
 22 C       -5.4650    -3.4970    -1.0140 C.3   1 <1>  -0.1600 
 23 C       -7.3890    -1.1950     2.3160 C.3   1 <1>   0.0400 
 24 H        1.2790    -1.0270     1.6510 H     1 <1>   0.3700 
 25 H       -1.2260    -0.6220     1.5730 H     1 <1>   0.0800 
 26 H       -1.3990    -2.3040     1.1510 H     1 <1>   0.0800 
 27 H        2.4590    -1.3060    -1.0800 H     1 <1>   0.0800 
 28 H        3.0000    -0.1240     0.0800 H     1 <1>   0.0800 
 29 H       -2.3410    -1.5230    -0.9830 H     1 <1>   0.4500 
 30 H        3.5730    -1.9380     1.6610 H     1 <1>   0.0800 
 31 H       -3.7260    -2.4360     0.8020 H     1 <1>   0.0800 
 32 H       -3.9300    -0.8170     1.4110 H     1 <1>   0.0800 
 33 H       -2.6050     1.0800     0.3390 H     1 <1>   0.0800 
 34 H       -1.5450     0.7010    -1.0030 H     1 <1>   0.0800 
 35 H        4.8370    -2.1900    -1.0700 H     1 <1>   0.0800 
 36 H        5.2970    -1.0610     0.1720 H     1 <1>   0.0800 
 37 H        1.9850    -3.6790     0.9200 H     1 <1>   0.0800 
 38 H        2.7980    -3.7870    -0.6120 H     1 <1>   0.0800 
 39 H       -3.6580     1.7520    -1.7450 H     1 <1>   0.0800 
 40 H       -3.4360     0.1750    -2.4250 H     1 <1>   0.0800 
 41 H        6.8110    -3.0140     0.1030 H     1 <1>   0.0800 
 42 H        5.9980    -2.8870     1.6360 H     1 <1>   0.0800 
 43 H        3.9620    -4.4990     2.0900 H     1 <1>   0.0800 
 44 H        3.5120    -5.6180     0.8360 H     1 <1>   0.0800 
 45 H       -7.0960    -1.0540    -0.1600 H     1 <1>   0.0800 
 46 H       -5.7580     0.4140    -1.6620 H     1 <1>   0.0800 
 47 H       -5.2240     0.9190    -0.0900 H     1 <1>   0.0800 
 48 H       -5.5840    -1.8680    -2.3810 H     1 <1>   0.0800 
 49 H       -3.9400    -2.3270    -2.0240 H     1 <1>   0.0800 
 50 H        5.9610    -5.2130     0.8840 H     1 <1>   0.0800 
 51 H        5.2530    -4.7450    -0.6350 H     1 <1>   0.0800 
 52 H       -6.1510    -3.6060     1.0250 H     1 <1>   0.0800 
 53 H       -7.4300    -3.3200    -0.1410 H     1 <1>   0.0800 
 54 H       -4.6600    -4.0910    -0.6150 H     1 <1>   0.0800 
 55 H       -5.9770    -4.0770    -1.7650 H     1 <1>   0.0800 
 56 H       -7.2000    -0.9170     3.3380 H     1 <1>   0.0800 
 57 H       -7.8410    -2.1720     2.2880 H     1 <1>   0.0800 
 58 H       -8.0370    -0.4670     1.8590 H     1 <1>   0.0800 
@<TRIPOS>BOND
  1   1   2  2   
  2   2   3  am  
  3   2   4  1   
  4   3   5  1   
  5   3  24  1   
  6   4   6  1   
  7   4  25  1   
  8   4  26  1   
  9   5   7  1   
 10   5  27  1   
 11   5  28  1   
 12   6   8  1   
 13   6   9  1   
 14   6  29  1   
 15   7  10  1   
 16   7  11  1   
 17   7  30  1   
 18   8  12  1   
 19   8  31  1   
 20   8  32  1   
 21   9  13  1   
 22   9  33  1   
 23   9  34  1   
 24  10  14  1   
 25  10  35  1   
 26  10  36  1   
 27  11  15  1   
 28  11  37  1   
 29  11  38  1   
 30  12  16  1   
 31  12  17  1   
 32  12  18  1   
 33  13  17  1   
 34  13  39  1   
 35  13  40  1   
 36  14  19  1   
 37  14  41  1   
 38  14  42  1   
 39  15  19  1   
 40  15  43  1   
 41  15  44  1   
 42  16  20  1   
 43  16  21  1   
 44  16  45  1   
 45  17  46  1   
 46  17  47  1   
 47  18  22  1   
 48  18  48  1   
 49  18  49  1   
 50  19  50  1   
 51  19  51  1   
 52  20  23  1   
 53  21  22  1   
 54  21  52  1   
 55  21  53  1   
 56  22  54  1   
 57  22  55  1   
 58  23  56  1   
 59  23  57  1   
 60  23  58  1   
@<TRIPOS>SUBSTRUCTURE
  1 ****   4 GROUP 4 **** **** 0

# MOE 2024.06 (io_trps.svl 2023.06)
