@<TRIPOS>MOLECULE
NONAME
44 47 1 0 0 
SMALL
USER_CHARGES


@<TRIPOS>ATOM
  1 S       -0.4010    -1.5160    -1.8450 S.3   1 <1>  -0.0800 
  2 C       -2.0340    -1.6370    -1.1790 C.2   1 <1>  -0.0450 
  3 C        0.3100    -1.8800    -0.2760 C.2   1 <1>  -0.1100 
  4 C       -3.2690    -1.4650    -1.8460 C.2   1 <1>   0.8660 
  5 C       -1.9700    -1.9320     0.1400 C.2   1 <1>   0.0830 
  6 C       -0.6460    -2.0720     0.6550 C.2   1 <1>  -0.1500 
  7 O       -3.3690    -1.1840    -3.0290 O.2   1 <1>  -0.5700 
  8 N       -4.4310    -1.6110    -1.1220 N.2   1 <1>  -0.6610 
  9 N       -3.1660    -2.0600     0.8070 N.pl3 1 <1>  -0.5330 
 10 C       -4.3540    -1.8910     0.1360 C.2   1 <1>   0.4390 
 11 C       -5.6730    -2.0490     0.9210 C.3   1 <1>   0.4040 
 12 N       -6.8620    -1.5380     0.1530 N.4   1 <1>  -0.9590 
 13 C       -8.1420    -2.1830     0.5840 C.3   1 <1>   0.3430 
 14 C       -6.9490    -0.0500     0.1690 C.3   1 <1>   0.3430 
 15 C       -9.3220    -1.7710    -0.3240 C.3   1 <1>   0.0000 
 16 C       -8.0800     0.4120    -0.7520 C.3   1 <1>  -0.1600 
 17 C      -10.6240    -2.4110     0.1900 C.3   1 <1>   0.2000 
 18 C       -9.4250    -0.2320    -0.3770 C.3   1 <1>  -0.1600 
 19 C       -9.1770    -2.3980    -1.7210 C.3   1 <1>  -0.1600 
 20 O      -10.6180    -2.5120     1.5710 O.3   1 <1>  -0.6800 
 21 C      -10.7070    -3.8060    -0.4360 C.3   1 <1>  -0.1600 
 22 C       -9.6640    -3.8390    -1.5610 C.3   1 <1>  -0.1600 
 23 H        1.3850    -1.9120    -0.2200 H     1 <1>   0.1500 
 24 H       -0.4640    -2.3070     1.6890 H     1 <1>   0.1500 
 25 H       -3.1270    -2.2930     1.8040 H     1 <1>   0.4000 
 26 H       -5.5980    -1.5290     1.8600 H     1 <1>   0.0800 
 27 H       -5.8070    -3.0970     1.1260 H     1 <1>   0.0800 
 28 H       -6.6830    -1.7940    -0.8320 H     1 <1>   0.4500 
 29 H       -8.0450    -3.2560     0.5630 H     1 <1>   0.0800 
 30 H       -8.3660    -1.8910     1.5970 H     1 <1>   0.0800 
 31 H       -7.1420     0.2950     1.1730 H     1 <1>   0.0800 
 32 H       -6.0180     0.3790    -0.1690 H     1 <1>   0.0800 
 33 H       -8.1700     1.4820    -0.6830 H     1 <1>   0.0800 
 34 H       -7.8260     0.1800    -1.7720 H     1 <1>   0.0800 
 35 H      -11.4770    -1.8220    -0.1090 H     1 <1>   0.0800 
 36 H      -10.1800     0.0690    -1.0830 H     1 <1>   0.0800 
 37 H       -9.7290     0.1310     0.5910 H     1 <1>   0.0800 
 38 H       -9.8320    -1.8940    -2.4130 H     1 <1>   0.0800 
 39 H       -8.1770    -2.3580    -2.1170 H     1 <1>   0.0800 
 40 H      -11.4730    -2.8750     1.8840 H     1 <1>   0.4000 
 41 H      -10.5000    -4.5820     0.2810 H     1 <1>   0.0800 
 42 H      -11.6910    -3.9580    -0.8450 H     1 <1>   0.0800 
 43 H       -8.8440    -4.4770    -1.2750 H     1 <1>   0.0800 
 44 H      -10.0840    -4.2150    -2.4800 H     1 <1>   0.0800 
@<TRIPOS>BOND
  1   1   2  1   
  2   1   3  1   
  3   2   4  1   
  4   2   5  2   
  5   3   6  2   
  6   3  23  1   
  7   4   7  2   
  8   4   8  1   
  9   5   6  1   
 10   5   9  1   
 11   6  24  1   
 12   8  10  2   
 13   9  10  1   
 14   9  25  1   
 15  10  11  1   
 16  11  12  1   
 17  11  26  1   
 18  11  27  1   
 19  12  13  1   
 20  12  14  1   
 21  12  28  1   
 22  13  15  1   
 23  13  29  1   
 24  13  30  1   
 25  14  16  1   
 26  14  31  1   
 27  14  32  1   
 28  15  17  1   
 29  15  18  1   
 30  15  19  1   
 31  16  18  1   
 32  16  33  1   
 33  16  34  1   
 34  17  20  1   
 35  17  21  1   
 36  17  35  1   
 37  18  36  1   
 38  18  37  1   
 39  19  22  1   
 40  19  38  1   
 41  19  39  1   
 42  20  40  1   
 43  21  22  1   
 44  21  41  1   
 45  21  42  1   
 46  22  43  1   
 47  22  44  1   
@<TRIPOS>SUBSTRUCTURE
  1 ****  12 GROUP 4 **** **** 0

# MOE 2024.06 (io_trps.svl 2023.06)
