@<TRIPOS>MOLECULE
NONAME
48 50 1 0 0 
SMALL
USER_CHARGES


@<TRIPOS>ATOM
  1 S        0.7640     0.3760     0.3750 S.o2  1 <1>   1.0900 
  2 O        2.0360    -0.1610     0.7990 O.2   1 <1>  -0.6500 
  3 O       -0.4870    -0.2340     0.7580 O.2   1 <1>  -0.6500 
  4 C        0.6980     2.1120     0.7480 C.3   1 <1>  -0.0550 
  5 C        0.7590     0.5890    -1.3970 C.3   1 <1>  -0.0550 
  6 C        0.1670     2.8010    -0.5080 C.3   1 <1>   0.1900 
  7 C        0.8710     2.0910    -1.6800 C.3   1 <1>  -0.1600 
  8 N        0.3890     4.2620    -0.4010 N.3   1 <1>  -0.8100 
  9 C        0.9930     4.9350    -1.6040 C.3   1 <1>   0.2530 
 10 C       -0.8350     4.9890     0.0280 C.3   1 <1>   0.1100 
 11 C        1.3410     6.4230    -1.4420 C.ar  1 <1>   0.4770 
 12 C       -1.2710     4.6390     1.4560 C.3   1 <1>   0.1200 
 13 N        2.4120     6.7070    -0.7220 N.ar  1 <1>  -0.6200 
 14 N        0.5350     7.2830    -2.0510 N.ar  1 <1>  -0.6200 
 15 O       -2.2760     5.5080     1.8520 O.3   1 <1>  -0.6800 
 16 C        2.7100     7.9880    -0.5690 C.ar  1 <1>   0.3100 
 17 C        0.8410     8.5500    -1.9100 C.ar  1 <1>   0.1670 
 18 C        3.8620     8.3520     0.2310 C.ar  1 <1>   0.0000 
 19 C        1.9260     8.9510    -1.1730 C.ar  1 <1>  -0.1500 
 20 C       -0.0590     9.5520    -2.6010 C.3   1 <1>  -0.0970 
 21 C        3.7990     9.3790     1.1740 C.ar  1 <1>  -0.1500 
 22 C        5.0780     7.6860     0.0850 C.ar  1 <1>  -0.1500 
 23 C        4.9030     9.7320     1.9270 C.ar  1 <1>  -0.1500 
 24 C        6.1860     8.0340     0.8350 C.ar  1 <1>  -0.1500 
 25 C        6.1010     9.0610     1.7580 C.ar  1 <1>  -0.1500 
 26 H        1.6890     2.4740     0.9460 H     1 <1>   0.0800 
 27 H        0.0780     2.2920     1.6010 H     1 <1>   0.0800 
 28 H       -0.1700     0.2220    -1.7920 H     1 <1>   0.0800 
 29 H        1.5650     0.0490    -1.8570 H     1 <1>   0.0800 
 30 H       -0.8900     2.5990    -0.5940 H     1 <1>   0.0800 
 31 H        0.4240     2.3350    -2.6280 H     1 <1>   0.0800 
 32 H        1.9190     2.3380    -1.6890 H     1 <1>   0.0800 
 33 H        0.3250     4.8330    -2.4410 H     1 <1>   0.0800 
 34 H        1.9180     4.4550    -1.8550 H     1 <1>   0.0800 
 35 H       -1.6410     4.7870    -0.6580 H     1 <1>   0.0800 
 36 H       -0.6460     6.0480     0.0160 H     1 <1>   0.0800 
 37 H       -0.4470     4.7440     2.1410 H     1 <1>   0.0800 
 38 H       -1.6720     3.6430     1.5040 H     1 <1>   0.0800 
 39 H       -1.9320     6.4210     1.9140 H     1 <1>   0.4000 
 40 H        2.1720     9.9890    -1.0670 H     1 <1>   0.1500 
 41 H       -1.0630     9.4480    -2.2310 H     1 <1>   0.0800 
 42 H       -0.0600     9.3650    -3.6590 H     1 <1>   0.0800 
 43 H        0.2740    10.5580    -2.4260 H     1 <1>   0.0800 
 44 H        2.8720     9.9030     1.3260 H     1 <1>   0.1500 
 45 H        5.1490     6.8830    -0.6280 H     1 <1>   0.1500 
 46 H        4.8320    10.5280     2.6490 H     1 <1>   0.1500 
 47 H        7.1130     7.5050     0.7030 H     1 <1>   0.1500 
 48 H        6.9620     9.3330     2.3440 H     1 <1>   0.1500 
@<TRIPOS>BOND
  1   1   2  2   
  2   1   3  2   
  3   1   4  1   
  4   1   5  1   
  5   4   6  1   
  6   4  26  1   
  7   4  27  1   
  8   5   7  1   
  9   5  28  1   
 10   5  29  1   
 11   6   7  1   
 12   6   8  1   
 13   6  30  1   
 14   7  31  1   
 15   7  32  1   
 16   8   9  1   
 17   8  10  1   
 18   9  11  1   
 19   9  33  1   
 20   9  34  1   
 21  10  12  1   
 22  10  35  1   
 23  10  36  1   
 24  11  13  ar  
 25  11  14  ar  
 26  12  15  1   
 27  12  37  1   
 28  12  38  1   
 29  13  16  ar  
 30  14  17  ar  
 31  15  39  1   
 32  16  18  1   
 33  16  19  ar  
 34  17  19  ar  
 35  17  20  1   
 36  18  21  ar  
 37  18  22  ar  
 38  19  40  1   
 39  20  41  1   
 40  20  42  1   
 41  20  43  1   
 42  21  23  ar  
 43  21  44  1   
 44  22  24  ar  
 45  22  45  1   
 46  23  25  ar  
 47  23  46  1   
 48  24  25  ar  
 49  24  47  1   
 50  25  48  1   
@<TRIPOS>SUBSTRUCTURE
  1 ****  13 GROUP 4 **** **** 0

# MOE 2024.06 (io_trps.svl 2023.06)
