@<TRIPOS>MOLECULE
NONAME
47 48 1 0 0 
SMALL
USER_CHARGES


@<TRIPOS>ATOM
  1 O        0.1780     2.5170    -1.1370 O.2   1 <1>  -0.5700 
  2 C       -0.4310     3.5240    -0.8610 C.2   1 <1>   0.5690 
  3 N       -1.2910     3.6160     0.2060 N.am  1 <1>  -0.6600 
  4 C       -0.1750     4.7410    -1.7570 C.3   1 <1>   0.1810 
  5 C       -2.0010     4.9000     0.4960 C.3   1 <1>   0.3640 
  6 C       -1.6120     2.5060     1.1430 C.3   1 <1>   0.2200 
  7 O       -1.0690     5.8210    -1.5750 O.3   1 <1>  -0.5600 
  8 C       -3.4830     4.7580     0.1450 C.ar  1 <1>  -0.1440 
  9 C       -1.3790     6.1220    -0.2220 C.3   1 <1>   0.2610 
 10 C       -0.3670     2.1020     1.9310 C.3   1 <1>  -0.2400 
 11 C       -2.2380     1.3250     0.4010 C.3   1 <1>  -0.2400 
 12 C       -4.4470     5.0340     1.1060 C.ar  1 <1>  -0.1500 
 13 C       -3.8930     4.3620    -1.1220 C.ar  1 <1>  -0.1500 
 14 C       -0.1720     6.6980     0.5350 C.2   1 <1>   0.5690 
 15 C       -5.7930     4.9150     0.8070 C.ar  1 <1>  -0.1500 
 16 C       -5.2380     4.2430    -1.4220 C.ar  1 <1>  -0.1500 
 17 O       -0.0860     6.5610     1.7330 O.2   1 <1>  -0.5700 
 18 N        0.7800     7.3770    -0.1620 N.am  1 <1>  -0.7300 
 19 C       -6.1900     4.5200    -0.4580 C.ar  1 <1>  -0.1500 
 20 C        1.9980     7.9920     0.4240 C.3   1 <1>   0.1400 
 21 C        3.0300     6.9160     0.7620 C.3   1 <1>   0.1200 
 22 O        4.2190     7.5450     1.1220 O.3   1 <1>  -0.5600 
 23 C        5.2170     6.6650     1.5290 C.3   1 <1>   0.0400 
 24 H       -0.2470     4.4350    -2.7840 H     1 <1>   0.0800 
 25 H        0.8250     5.0920    -1.5810 H     1 <1>   0.0800 
 26 H       -1.9440     5.0750     1.5560 H     1 <1>   0.0800 
 27 H       -2.3430     2.8550     1.8530 H     1 <1>   0.0800 
 28 H       -2.1190     6.9000    -0.2450 H     1 <1>   0.0800 
 29 H        0.3740     1.6700     1.2830 H     1 <1>   0.0800 
 30 H       -0.6280     1.3730     2.6750 H     1 <1>   0.0800 
 31 H        0.0510     2.9600     2.4260 H     1 <1>   0.0800 
 32 H       -1.5330     0.8670    -0.2680 H     1 <1>   0.0800 
 33 H       -3.0960     1.6530    -0.1570 H     1 <1>   0.0800 
 34 H       -2.5590     0.5820     1.1080 H     1 <1>   0.0800 
 35 H       -4.1590     5.3420     2.0960 H     1 <1>   0.1500 
 36 H       -3.1630     4.1420    -1.8810 H     1 <1>   0.1500 
 37 H       -6.5330     5.1300     1.5580 H     1 <1>   0.1500 
 38 H       -5.5420     3.9350    -2.4070 H     1 <1>   0.1500 
 39 H        0.6560     7.4810    -1.1740 H     1 <1>   0.3700 
 40 H       -7.2360     4.4280    -0.6920 H     1 <1>   0.1500 
 41 H        2.4180     8.6880    -0.2810 H     1 <1>   0.0800 
 42 H        1.7330     8.5220     1.3240 H     1 <1>   0.0800 
 43 H        3.2220     6.2950    -0.0960 H     1 <1>   0.0800 
 44 H        2.6840     6.3200     1.5890 H     1 <1>   0.0800 
 45 H        6.0900     7.2420     1.7800 H     1 <1>   0.0800 
 46 H        5.4480     5.9900     0.7230 H     1 <1>   0.0800 
 47 H        4.8810     6.1220     2.3950 H     1 <1>   0.0800 
@<TRIPOS>BOND
  1   1   2  2   
  2   2   3  am  
  3   2   4  1   
  4   3   5  1   
  5   3   6  1   
  6   4   7  1   
  7   4  24  1   
  8   4  25  1   
  9   5   8  1   
 10   5   9  1   
 11   5  26  1   
 12   6  10  1   
 13   6  11  1   
 14   6  27  1   
 15   7   9  1   
 16   8  12  ar  
 17   8  13  ar  
 18   9  14  1   
 19   9  28  1   
 20  10  29  1   
 21  10  30  1   
 22  10  31  1   
 23  11  32  1   
 24  11  33  1   
 25  11  34  1   
 26  12  15  ar  
 27  12  35  1   
 28  13  16  ar  
 29  13  36  1   
 30  14  17  2   
 31  14  18  am  
 32  15  19  ar  
 33  15  37  1   
 34  16  19  ar  
 35  16  38  1   
 36  18  20  1   
 37  18  39  1   
 38  19  40  1   
 39  20  21  1   
 40  20  41  1   
 41  20  42  1   
 42  21  22  1   
 43  21  43  1   
 44  21  44  1   
 45  22  23  1   
 46  23  45  1   
 47  23  46  1   
 48  23  47  1   
@<TRIPOS>SUBSTRUCTURE
  1 ****   5 GROUP 4 **** **** 0

# MOE 2024.06 (io_trps.svl 2023.06)
