@<TRIPOS>MOLECULE
NONAME
46 47 1 0 0 
SMALL
USER_CHARGES


@<TRIPOS>ATOM
  1 F        0.6880    -1.0260    -0.8920 F     1 <1>  -0.1900 
  2 C        0.4620    -2.2860    -0.6300 C.ar  1 <1>   0.1900 
  3 C        0.3650    -2.7010     0.6890 C.ar  1 <1>  -0.1440 
  4 C        0.3300    -3.1560    -1.6940 C.ar  1 <1>  -0.1500 
  5 C        0.1180    -4.0440     0.9290 C.ar  1 <1>  -0.1500 
  6 C        0.5270    -1.7170     1.8390 C.3   1 <1>  -0.0960 
  7 C        0.0840    -4.4930    -1.4360 C.ar  1 <1>  -0.1500 
  8 C       -0.0330    -4.9410    -0.1240 C.ar  1 <1>  -0.1440 
  9 C       -0.3180    -6.4080     0.1630 C.3   1 <1>   0.4870 
 10 N       -1.7750    -6.6630     0.1690 N.4   1 <1>  -0.9590 
 11 C       -2.4540    -6.5080    -1.1550 C.3   1 <1>   0.3430 
 12 C       -2.5260    -5.9780     1.2740 C.3   1 <1>   0.3430 
 13 C       -3.8530    -7.1750    -1.1550 C.3   1 <1>   0.2000 
 14 C       -4.0520    -6.0590     1.0560 C.3   1 <1>  -0.1600 
 15 O       -3.7600    -8.4030    -1.7860 O.3   1 <1>  -0.6800 
 16 C       -4.4410    -7.3480     0.2820 C.3   1 <1>  -0.1060 
 17 C       -3.7710    -8.5180     1.0440 C.2   1 <1>   0.9060 
 18 C       -5.9790    -7.5680     0.2560 C.3   1 <1>  -0.1600 
 19 O       -4.0000    -8.6530     2.2430 O.co2 1 <1>  -0.9000 
 20 O       -2.8340    -9.1330     0.5060 O.co2 1 <1>  -0.9000 
 21 C       -6.8290    -6.4140    -0.3090 C.3   1 <1>  -0.1600 
 22 C       -8.3170    -6.7660    -0.2530 C.3   1 <1>  -0.2400 
 23 H        0.4220    -2.7880    -2.7010 H     1 <1>   0.1500 
 24 H        0.0460    -4.3900     1.9460 H     1 <1>   0.1500 
 25 H        0.4630    -2.2130     2.7900 H     1 <1>   0.0800 
 26 H       -0.2420    -0.9660     1.7900 H     1 <1>   0.0800 
 27 H        1.4840    -1.2300     1.7720 H     1 <1>   0.0800 
 28 H       -0.0110    -5.1760    -2.2630 H     1 <1>   0.1500 
 29 H        0.0980    -6.6770     1.1200 H     1 <1>   0.0800 
 30 H        0.1530    -7.0220    -0.5880 H     1 <1>   0.0800 
 31 H       -1.8930    -7.6910     0.3720 H     1 <1>   0.4500 
 32 H       -2.5680    -5.4580    -1.3620 H     1 <1>   0.0800 
 33 H       -1.8620    -6.9490    -1.9390 H     1 <1>   0.0800 
 34 H       -2.2880    -6.4670     2.2070 H     1 <1>   0.0800 
 35 H       -2.2350    -4.9440     1.3460 H     1 <1>   0.0800 
 36 H       -4.4970    -6.5710    -1.7670 H     1 <1>   0.0800 
 37 H       -4.5330    -6.0520     2.0200 H     1 <1>   0.0800 
 38 H       -4.3800    -5.1820     0.5290 H     1 <1>   0.0800 
 39 H       -3.3820    -9.0400    -1.1120 H     1 <1>   0.4000 
 40 H       -6.1810    -8.4610    -0.3130 H     1 <1>   0.0800 
 41 H       -6.3060    -7.7660     1.2640 H     1 <1>   0.0800 
 42 H       -6.6700    -5.5190     0.2660 H     1 <1>   0.0800 
 43 H       -6.5670    -6.2150    -1.3320 H     1 <1>   0.0800 
 44 H       -8.6230    -6.9490     0.7620 H     1 <1>   0.0800 
 45 H       -8.5160    -7.6480    -0.8380 H     1 <1>   0.0800 
 46 H       -8.9050    -5.9550    -0.6470 H     1 <1>   0.0800 
@<TRIPOS>BOND
  1   1   2  1   
  2   2   3  ar  
  3   2   4  ar  
  4   3   5  ar  
  5   3   6  1   
  6   4   7  ar  
  7   4  23  1   
  8   5   8  ar  
  9   5  24  1   
 10   6  25  1   
 11   6  26  1   
 12   6  27  1   
 13   7   8  ar  
 14   7  28  1   
 15   8   9  1   
 16   9  10  1   
 17   9  29  1   
 18   9  30  1   
 19  10  11  1   
 20  10  12  1   
 21  10  31  1   
 22  11  13  1   
 23  11  32  1   
 24  11  33  1   
 25  12  14  1   
 26  12  34  1   
 27  12  35  1   
 28  13  15  1   
 29  13  16  1   
 30  13  36  1   
 31  14  16  1   
 32  14  37  1   
 33  14  38  1   
 34  15  39  1   
 35  16  17  1   
 36  16  18  1   
 37  17  19  ar  
 38  17  20  ar  
 39  18  21  1   
 40  18  40  1   
 41  18  41  1   
 42  21  22  1   
 43  21  42  1   
 44  21  43  1   
 45  22  44  1   
 46  22  45  1   
 47  22  46  1   
@<TRIPOS>SUBSTRUCTURE
  1 ****  10 GROUP 4 **** **** 0

# MOE 2024.06 (io_trps.svl 2023.06)
