@<TRIPOS>MOLECULE
NONAME
49 50 1 0 0 
SMALL
USER_CHARGES


@<TRIPOS>ATOM
  1 O        1.1090     0.9970     0.6780 O.co2 1 <1>  -0.9000 
  2 C        0.1230     1.2470    -0.0200 C.2   1 <1>   0.9060 
  3 O        0.0350     0.8770    -1.2000 O.co2 1 <1>  -0.9000 
  4 C       -1.1110     1.8970     0.6640 C.3   1 <1>   0.4600 
  5 N       -2.4080     1.0930     0.5590 N.4   1 <1>  -0.9590 
  6 C       -1.3720     3.3530     0.2480 C.ar  1 <1>  -0.1430 
  7 C       -2.8190     0.9320    -0.8670 C.3   1 <1>   0.5240 
  8 C       -3.4970     1.6370     1.4210 C.3   1 <1>   0.2630 
  9 C       -1.2950     3.7640    -1.0780 C.ar  1 <1>  -0.1500 
 10 C       -1.6910     4.2920     1.2210 C.ar  1 <1>  -0.1500 
 11 C       -4.0660     0.0750    -0.9110 C.2   1 <1>  -0.1810 
 12 C       -1.5620     5.0770    -1.4210 C.ar  1 <1>  -0.1500 
 13 C       -1.9560     5.6070     0.8790 C.ar  1 <1>  -0.1500 
 14 C       -5.3550     0.5330    -1.1520 C.2   1 <1>   0.1390 
 15 C       -4.2050    -1.2570    -0.7280 C.2   1 <1>  -0.3020 
 16 C       -1.8980     6.0070    -0.4520 C.ar  1 <1>   0.0830 
 17 N       -6.2270    -0.4230    -1.1060 N.2   1 <1>  -0.7070 
 18 N       -5.5180    -1.5380    -0.8540 N.pl3 1 <1>   0.3140 
 19 O       -2.1440     7.2700    -0.8850 O.3   1 <1>  -0.3620 
 20 C       -6.1560    -2.8680    -0.7560 C.3   1 <1>   0.0960 
 21 C       -2.4050     8.3510    -0.0180 C.3   1 <1>   0.2000 
 22 C       -6.3670    -3.2770     0.7070 C.3   1 <1>  -0.2400 
 23 C       -3.8930     8.3490     0.3400 C.3   1 <1>  -0.2400 
 24 C       -2.0230     9.6260    -0.7670 C.3   1 <1>  -0.2400 
 25 H       -0.8350     1.9250     1.7020 H     1 <1>   0.0800 
 26 H       -2.1630     0.1420     0.8600 H     1 <1>   0.4500 
 27 H       -2.0450     0.4430    -1.4340 H     1 <1>   0.0800 
 28 H       -3.0140     1.8930    -1.3130 H     1 <1>   0.0800 
 29 H       -3.7930     2.6120     1.0720 H     1 <1>   0.0800 
 30 H       -3.1570     1.7210     2.4400 H     1 <1>   0.0800 
 31 H       -4.3550     0.9850     1.3970 H     1 <1>   0.0800 
 32 H       -1.0170     3.0730    -1.8570 H     1 <1>   0.1500 
 33 H       -1.7300     4.0080     2.2580 H     1 <1>   0.1500 
 34 H       -1.5020     5.3920    -2.4470 H     1 <1>   0.1500 
 35 H       -2.2020     6.3020     1.6580 H     1 <1>   0.1500 
 36 H       -5.6220     1.5580    -1.3530 H     1 <1>   0.1500 
 37 H       -3.4650    -2.0110    -0.5250 H     1 <1>   0.1500 
 38 H       -5.5330    -3.5840    -1.2590 H     1 <1>   0.0800 
 39 H       -7.1030    -2.8230    -1.2630 H     1 <1>   0.0800 
 40 H       -1.7840     8.2580     0.8560 H     1 <1>   0.0800 
 41 H       -5.4240    -3.3450     1.2210 H     1 <1>   0.0800 
 42 H       -6.8490    -4.2370     0.7500 H     1 <1>   0.0800 
 43 H       -6.9950    -2.5580     1.2040 H     1 <1>   0.0800 
 44 H       -4.4890     8.4440    -0.5500 H     1 <1>   0.0800 
 45 H       -4.1140     9.1760     0.9900 H     1 <1>   0.0800 
 46 H       -4.1610     7.4410     0.8470 H     1 <1>   0.0800 
 47 H       -2.6080     9.7250    -1.6640 H     1 <1>   0.0800 
 48 H       -0.9800     9.5990    -1.0240 H     1 <1>   0.0800 
 49 H       -2.1980    10.4850    -0.1450 H     1 <1>   0.0800 
@<TRIPOS>BOND
  1   1   2  ar  
  2   2   3  ar  
  3   2   4  1   
  4   4   5  1   
  5   4   6  1   
  6   4  25  1   
  7   5   7  1   
  8   5   8  1   
  9   5  26  1   
 10   6   9  ar  
 11   6  10  ar  
 12   7  11  1   
 13   7  27  1   
 14   7  28  1   
 15   8  29  1   
 16   8  30  1   
 17   8  31  1   
 18   9  12  ar  
 19   9  32  1   
 20  10  13  ar  
 21  10  33  1   
 22  11  14  1   
 23  11  15  2   
 24  12  16  ar  
 25  12  34  1   
 26  13  16  ar  
 27  13  35  1   
 28  14  17  2   
 29  14  36  1   
 30  15  18  1   
 31  15  37  1   
 32  16  19  1   
 33  17  18  1   
 34  18  20  1   
 35  19  21  1   
 36  20  22  1   
 37  20  38  1   
 38  20  39  1   
 39  21  23  1   
 40  21  24  1   
 41  21  40  1   
 42  22  41  1   
 43  22  42  1   
 44  22  43  1   
 45  23  44  1   
 46  23  45  1   
 47  23  46  1   
 48  24  47  1   
 49  24  48  1   
 50  24  49  1   
@<TRIPOS>SUBSTRUCTURE
  1 ****   6 GROUP 4 **** **** 0

# MOE 2024.06 (io_trps.svl 2023.06)
