@<TRIPOS>MOLECULE
NONAME
53 58 1 0 0 
SMALL
USER_CHARGES


@<TRIPOS>ATOM
  1 O       -0.9270     0.3410    -1.9120 O.2   1 <1>  -0.5700 
  2 C       -1.8740     1.0000    -1.5330 C.2   1 <1>   0.5440 
  3 N       -3.1460     0.4870    -1.6700 N.am  1 <1>  -0.6600 
  4 C       -1.6310     2.2890    -0.9350 C.ar  1 <1>   0.0860 
  5 C       -4.2730     0.8020    -0.7480 C.3   1 <1>   0.1400 
  6 C       -3.4310    -0.6470    -2.5940 C.3   1 <1>   0.1400 
  7 C       -0.6060     2.4950    -0.0340 C.ar  1 <1>   0.1600 
  8 C       -2.3930     3.4040    -1.2240 C.ar  1 <1>   0.1600 
  9 C       -4.5830    -0.4360     0.0950 C.3   1 <1>  -0.1600 
 10 C       -3.7410    -1.9000    -1.7740 C.3   1 <1>  -0.1600 
 11 N       -0.3780     3.6540     0.5460 N.ar  1 <1>  -0.6200 
 12 N       -2.1960     4.5780    -0.6650 N.ar  1 <1>  -0.6200 
 13 C       -4.8840    -1.6570    -0.7840 C.3   1 <1>   0.4600 
 14 C       -1.1930     4.6390     0.1990 C.ar  1 <1>   0.5880 
 15 O       -6.0330    -1.3900    -1.5610 O.3   1 <1>  -0.5600 
 16 C       -5.1230    -2.9000     0.0620 C.2   1 <1>  -0.3320 
 17 C       -0.9450     5.9900     0.8560 C.3   1 <1>  -0.0680 
 18 C       -7.2960    -1.5720    -0.9640 C.3   1 <1>   0.1200 
 19 N       -4.1970    -3.5520     0.8300 N.pl3 1 <1>   0.0330 
 20 C       -6.3070    -3.5350     0.1600 C.2   1 <1>  -0.1810 
 21 C       -0.8920     6.1320     2.3510 C.3   1 <1>  -0.2000 
 22 C       -2.0410     6.7120     1.5880 C.3   1 <1>  -0.2000 
 23 C       -7.5250    -3.0430    -0.5800 C.3   1 <1>   0.0210 
 24 C       -4.8170    -4.6250     1.4230 C.ar  1 <1>  -0.1520 
 25 C       -6.1500    -4.6440     1.0180 C.ar  1 <1>   0.0000 
 26 C       -4.3200    -5.5990     2.2920 C.ar  1 <1>  -0.1500 
 27 C       -7.0010    -5.6500     1.4850 C.ar  1 <1>  -0.1500 
 28 C       -5.1690    -6.5830     2.7440 C.ar  1 <1>  -0.1500 
 29 C       -6.5100    -6.6080     2.3410 C.ar  1 <1>  -0.1500 
 30 H       -5.1380     1.0790    -1.3270 H     1 <1>   0.0800 
 31 H       -4.0260     1.6200    -0.0940 H     1 <1>   0.0800 
 32 H       -2.5900    -0.8320    -3.2410 H     1 <1>   0.0800 
 33 H       -4.2760    -0.3960    -3.2120 H     1 <1>   0.0800 
 34 H        0.0420     1.6690     0.2130 H     1 <1>   0.1500 
 35 H       -3.1910     3.3180    -1.9420 H     1 <1>   0.1500 
 36 H       -5.4100    -0.2420     0.7510 H     1 <1>   0.0800 
 37 H       -3.7320    -0.6490     0.7150 H     1 <1>   0.0800 
 38 H       -2.8510    -2.1860    -1.2460 H     1 <1>   0.0800 
 39 H       -4.0080    -2.7100    -2.4280 H     1 <1>   0.0800 
 40 H       -0.2610     6.5840     0.2790 H     1 <1>   0.1000 
 41 H       -8.0410    -1.2530    -1.6710 H     1 <1>   0.0800 
 42 H       -7.3560    -0.9460    -0.0920 H     1 <1>   0.0800 
 43 H       -3.2080    -3.3100     0.9380 H     1 <1>   0.2700 
 44 H       -0.1560     6.7930     2.7740 H     1 <1>   0.1000 
 45 H       -1.0550     5.2560     2.9540 H     1 <1>   0.1000 
 46 H       -3.0060     6.2400     1.6600 H     1 <1>   0.1000 
 47 H       -2.1120     7.7800     1.4760 H     1 <1>   0.1000 
 48 H       -7.6770    -3.6350    -1.4640 H     1 <1>   0.0800 
 49 H       -8.3960    -3.1240     0.0440 H     1 <1>   0.0800 
 50 H       -3.2890    -5.5740     2.5960 H     1 <1>   0.1500 
 51 H       -8.0260    -5.6570     1.1660 H     1 <1>   0.1500 
 52 H       -4.8100    -7.3450     3.4140 H     1 <1>   0.1500 
 53 H       -7.1520    -7.3890     2.7080 H     1 <1>   0.1500 
@<TRIPOS>BOND
  1   1   2  2   
  2   2   3  am  
  3   2   4  1   
  4   3   5  1   
  5   3   6  1   
  6   4   7  ar  
  7   4   8  ar  
  8   5   9  1   
  9   5  30  1   
 10   5  31  1   
 11   6  10  1   
 12   6  32  1   
 13   6  33  1   
 14   7  11  ar  
 15   7  34  1   
 16   8  12  ar  
 17   8  35  1   
 18   9  13  1   
 19   9  36  1   
 20   9  37  1   
 21  10  13  1   
 22  10  38  1   
 23  10  39  1   
 24  11  14  ar  
 25  12  14  ar  
 26  13  15  1   
 27  13  16  1   
 28  14  17  1   
 29  15  18  1   
 30  16  19  1   
 31  16  20  2   
 32  17  21  1   
 33  17  22  1   
 34  17  40  1   
 35  18  23  1   
 36  18  41  1   
 37  18  42  1   
 38  19  24  1   
 39  19  43  1   
 40  20  23  1   
 41  20  25  1   
 42  21  22  1   
 43  21  44  1   
 44  21  45  1   
 45  22  46  1   
 46  22  47  1   
 47  23  48  1   
 48  23  49  1   
 49  24  25  ar  
 50  24  26  ar  
 51  25  27  ar  
 52  26  28  ar  
 53  26  50  1   
 54  27  29  ar  
 55  27  51  1   
 56  28  29  ar  
 57  28  52  1   
 58  29  53  1   
@<TRIPOS>SUBSTRUCTURE
  1 ****   9 GROUP 4 **** **** 0

# MOE 2024.06 (io_trps.svl 2023.06)
