@<TRIPOS>MOLECULE
NONAME
42 45 1 0 0 
SMALL
USER_CHARGES


@<TRIPOS>ATOM
  1 S        0.2150     0.9200     2.4660 S.3   1 <1>  -0.0800 
  2 C        0.1180     2.1420     1.2160 C.2   1 <1>  -0.1400 
  3 C        1.8700     1.3910     2.8250 C.2   1 <1>  -0.1100 
  4 C        1.2630     2.8260     1.0950 C.2   1 <1>  -0.1810 
  5 C       -1.1240     2.3730     0.4000 C.3   1 <1>   0.0200 
  6 C        2.2700     2.3990     2.0250 C.2   1 <1>  -0.1500 
  7 C        1.4140     3.9340     0.0490 C.3   1 <1>   0.4610 
  8 C       -0.9920     3.7610    -0.2470 C.3   1 <1>   0.1200 
  9 O        0.2860     3.9400    -0.8110 O.3   1 <1>  -0.5600 
 10 C        2.6250     3.6580    -0.8510 C.3   1 <1>  -0.1600 
 11 C        1.5410     5.3120     0.7170 C.3   1 <1>  -0.1600 
 12 C        2.8600     4.7890    -1.8550 C.3   1 <1>   0.1400 
 13 C        1.7740     6.4120    -0.3190 C.3   1 <1>   0.1400 
 14 N        2.9890     6.0710    -1.1070 N.am  1 <1>  -0.6600 
 15 C        4.1600     6.8160    -1.1090 C.2   1 <1>   0.5440 
 16 O        4.9960     6.5560    -1.9600 O.2   1 <1>  -0.5700 
 17 C        4.4310     7.9060    -0.1670 C.ar  1 <1>   0.3960 
 18 N        4.1660     7.7530     1.1440 N.ar  1 <1>  -0.6200 
 19 C        4.9780     9.0890    -0.6680 C.ar  1 <1>  -0.1500 
 20 C        4.4290     8.7770     1.9240 C.ar  1 <1>   0.4100 
 21 C        5.2530    10.1550     0.1620 C.ar  1 <1>  -0.1500 
 22 N        4.1420     8.5650     3.2310 N.pl3 1 <1>  -0.9000 
 23 C        4.9640     9.9840     1.4930 C.ar  1 <1>  -0.1500 
 24 H        2.3750     0.8550     3.6080 H     1 <1>   0.1500 
 25 H       -1.9970     2.3430     1.0260 H     1 <1>   0.0800 
 26 H       -1.2130     1.6140    -0.3570 H     1 <1>   0.0800 
 27 H        3.2400     2.8650     2.0500 H     1 <1>   0.1500 
 28 H       -1.1540     4.5320     0.4850 H     1 <1>   0.0800 
 29 H       -1.7170     3.8750    -1.0330 H     1 <1>   0.0800 
 30 H        2.4750     2.7310    -1.3720 H     1 <1>   0.0800 
 31 H        3.5090     3.5550    -0.2510 H     1 <1>   0.0800 
 32 H        2.3760     5.3030     1.3930 H     1 <1>   0.0800 
 33 H        0.6660     5.5280     1.2980 H     1 <1>   0.0800 
 34 H        2.0310     4.8590    -2.5380 H     1 <1>   0.0800 
 35 H        3.7490     4.5850    -2.4270 H     1 <1>   0.0800 
 36 H        1.8740     7.3660     0.1650 H     1 <1>   0.0800 
 37 H        0.9300     6.4710    -0.9860 H     1 <1>   0.0800 
 38 H        5.1870     9.1600    -1.7200 H     1 <1>   0.1500 
 39 H        5.6720    11.0720    -0.2160 H     1 <1>   0.1500 
 40 H        4.7780     8.9690     3.9170 H     1 <1>   0.4000 
 41 H        3.9140     7.5890     3.4270 H     1 <1>   0.4000 
 42 H        5.1420    10.7680     2.2040 H     1 <1>   0.1500 
@<TRIPOS>BOND
  1   1   2  1   
  2   1   3  1   
  3   2   4  2   
  4   2   5  1   
  5   3   6  2   
  6   3  24  1   
  7   4   6  1   
  8   4   7  1   
  9   5   8  1   
 10   5  25  1   
 11   5  26  1   
 12   6  27  1   
 13   7   9  1   
 14   7  10  1   
 15   7  11  1   
 16   8   9  1   
 17   8  28  1   
 18   8  29  1   
 19  10  12  1   
 20  10  30  1   
 21  10  31  1   
 22  11  13  1   
 23  11  32  1   
 24  11  33  1   
 25  12  14  1   
 26  12  34  1   
 27  12  35  1   
 28  13  14  1   
 29  13  36  1   
 30  13  37  1   
 31  14  15  am  
 32  15  16  2   
 33  15  17  1   
 34  17  18  ar  
 35  17  19  ar  
 36  18  20  ar  
 37  19  21  ar  
 38  19  38  1   
 39  20  22  1   
 40  20  23  ar  
 41  21  23  ar  
 42  21  39  1   
 43  22  40  1   
 44  22  41  1   
 45  23  42  1   
@<TRIPOS>SUBSTRUCTURE
  1 ****  11 GROUP 4 **** **** 0

# MOE 2024.06 (io_trps.svl 2023.06)
