@<TRIPOS>MOLECULE
NONAME
43 45 1 0 0 
SMALL
USER_CHARGES


@<TRIPOS>ATOM
  1 O       -2.5080     0.9090    -1.9250 O.2   1 <1>  -0.5700 
  2 C       -2.2310     0.8090    -0.7480 C.2   1 <1>   0.5440 
  3 N       -2.0460    -0.4340    -0.2210 N.am  1 <1>  -0.7300 
  4 C       -2.1120     1.9740     0.0920 C.ar  1 <1>   0.0860 
  5 C       -2.1510    -1.7110    -0.9680 C.3   1 <1>   0.2200 
  6 C       -0.8770     2.4550     0.5050 C.ar  1 <1>   0.1660 
  7 C       -3.2210     2.6670     0.5610 C.ar  1 <1>   0.1660 
  8 C       -3.4500    -2.4350    -0.6390 C.3   1 <1>  -0.0800 
  9 C       -1.1350    -2.6920    -0.4030 C.3   1 <1>   0.1200 
 10 N       -0.7540     3.4800     1.3190 N.ar  1 <1>  -0.6200 
 11 C        0.4280     1.8230     0.0460 C.3   1 <1>  -0.0960 
 12 N       -3.1170     3.6930     1.3770 N.ar  1 <1>  -0.6200 
 13 C       -4.6450     2.2870     0.1830 C.3   1 <1>  -0.0970 
 14 C       -3.1050    -3.2060     0.6410 C.3   1 <1>   0.1200 
 15 C       -4.7020    -1.5460    -0.5250 C.3   1 <1>  -0.0170 
 16 O       -1.7130    -3.1660     0.7740 O.3   1 <1>  -0.5600 
 17 C       -1.8850     4.0400     1.7090 C.ar  1 <1>   0.4700 
 18 C       -5.9490    -2.3810    -0.2800 C.ar  1 <1>  -0.1430 
 19 C       -6.4890    -2.5390     0.9800 C.ar  1 <1>  -0.1500 
 20 C       -6.6050    -3.0240    -1.3100 C.ar  1 <1>  -0.1500 
 21 C       -7.6250    -3.3140     1.1450 C.ar  1 <1>   0.1600 
 22 C       -7.7350    -3.7760    -1.0370 C.ar  1 <1>   0.1600 
 23 N       -8.2600    -3.9370     0.1670 N.ar  1 <1>  -0.6200 
 24 H       -1.8480    -0.5580     0.7760 H     1 <1>   0.3700 
 25 H       -2.0190    -1.5480    -2.0250 H     1 <1>   0.0800 
 26 H       -3.6250    -3.1620    -1.4130 H     1 <1>   0.0800 
 27 H       -0.1860    -2.2340    -0.1850 H     1 <1>   0.0800 
 28 H       -0.9980    -3.5280    -1.0660 H     1 <1>   0.0800 
 29 H        0.3440     1.4350    -0.9530 H     1 <1>   0.0800 
 30 H        0.7010     1.0280     0.7140 H     1 <1>   0.0800 
 31 H        1.2130     2.5590     0.0500 H     1 <1>   0.0800 
 32 H       -4.6900     1.8020    -0.7740 H     1 <1>   0.0800 
 33 H       -5.2530     3.1720     0.1300 H     1 <1>   0.0800 
 34 H       -5.0560     1.6360     0.9310 H     1 <1>   0.0800 
 35 H       -3.4210    -4.2340     0.5830 H     1 <1>   0.0800 
 36 H       -3.5290    -2.7450     1.5150 H     1 <1>   0.0800 
 37 H       -4.8240    -0.9830    -1.4340 H     1 <1>   0.0800 
 38 H       -4.5890    -0.8420     0.2790 H     1 <1>   0.0800 
 39 H       -1.7930     4.8810     2.3760 H     1 <1>   0.1500 
 40 H       -6.0420    -2.0680     1.8360 H     1 <1>   0.1500 
 41 H       -6.2490    -2.9460    -2.3210 H     1 <1>   0.1500 
 42 H       -8.0330    -3.4260     2.1350 H     1 <1>   0.1500 
 43 H       -8.2350    -4.2710    -1.8530 H     1 <1>   0.1500 
@<TRIPOS>BOND
  1   1   2  2   
  2   2   3  am  
  3   2   4  1   
  4   3   5  1   
  5   3  24  1   
  6   4   6  ar  
  7   4   7  ar  
  8   5   8  1   
  9   5   9  1   
 10   5  25  1   
 11   6  10  ar  
 12   6  11  1   
 13   7  12  ar  
 14   7  13  1   
 15   8  14  1   
 16   8  15  1   
 17   8  26  1   
 18   9  16  1   
 19   9  27  1   
 20   9  28  1   
 21  10  17  ar  
 22  11  29  1   
 23  11  30  1   
 24  11  31  1   
 25  12  17  ar  
 26  13  32  1   
 27  13  33  1   
 28  13  34  1   
 29  14  16  1   
 30  14  35  1   
 31  14  36  1   
 32  15  18  1   
 33  15  37  1   
 34  15  38  1   
 35  17  39  1   
 36  18  19  ar  
 37  18  20  ar  
 38  19  21  ar  
 39  19  40  1   
 40  20  22  ar  
 41  20  41  1   
 42  21  23  ar  
 43  21  42  1   
 44  22  23  ar  
 45  22  43  1   
@<TRIPOS>SUBSTRUCTURE
  1 ****   3 GROUP 4 **** **** 0

# MOE 2024.06 (io_trps.svl 2023.06)
