@<TRIPOS>MOLECULE
NONAME
53 56 1 0 0 
SMALL
USER_CHARGES


@<TRIPOS>ATOM
  1 O        0.2000    -0.5590     1.8410 O.2   1 <1>  -0.5700 
  2 C        1.0910    -1.0980     1.2110 C.2   1 <1>   0.6900 
  3 N        2.3130    -0.4980     1.0410 N.am  1 <1>  -0.6600 
  4 N        0.8630    -2.3070     0.6540 N.am  1 <1>  -0.7300 
  5 C        2.5550     0.9030     1.4840 C.3   1 <1>   0.0600 
  6 C        3.4970    -1.1850     0.4570 C.3   1 <1>   0.0600 
  7 C       -0.4790    -2.9430     0.5670 C.3   1 <1>   0.2010 
  8 C       -0.5820    -3.9900    -0.5510 C.2   1 <1>   0.5690 
  9 O        0.4110    -4.2210    -1.2090 O.2   1 <1>  -0.5700 
 10 N       -1.7670    -4.6480    -0.7850 N.am  1 <1>  -0.6600 
 11 C       -1.8980    -5.6560    -1.8750 C.3   1 <1>   0.1400 
 12 C       -3.0220    -4.4640    -0.0020 C.3   1 <1>   0.1400 
 13 C       -2.2750    -7.0070    -1.2640 C.3   1 <1>  -0.1600 
 14 C       -3.3990    -5.7980     0.6430 C.3   1 <1>  -0.1600 
 15 C       -3.5430    -6.9060    -0.4100 C.3   1 <1>   0.4600 
 16 O       -4.5890    -6.5650    -1.2940 O.3   1 <1>  -0.5600 
 17 C       -3.8500    -8.2490     0.2410 C.2   1 <1>  -0.3320 
 18 C       -5.9120    -6.8410    -0.9000 C.3   1 <1>   0.1200 
 19 N       -3.0140    -8.9750     1.0450 N.pl3 1 <1>   0.0330 
 20 C       -5.0150    -8.9110     0.1010 C.2   1 <1>  -0.1810 
 21 C       -6.1410    -8.3520    -0.7320 C.3   1 <1>   0.0210 
 22 C       -3.6710   -10.1240     1.4140 C.ar  1 <1>  -0.1520 
 23 C       -4.9360   -10.1140     0.8330 C.ar  1 <1>   0.0000 
 24 C       -3.2610   -11.1890     2.2190 C.ar  1 <1>  -0.1500 
 25 C       -5.8080   -11.1850     1.0550 C.ar  1 <1>  -0.1500 
 26 C       -4.1290   -12.2360     2.4300 C.ar  1 <1>  -0.1500 
 27 C       -5.4030   -12.2330     1.8480 C.ar  1 <1>  -0.1500 
 28 H        1.5150    -2.6430    -0.0570 H     1 <1>   0.3700 
 29 H        1.6300     1.3860     1.7480 H     1 <1>   0.0800 
 30 H        3.0170     1.4620     0.6900 H     1 <1>   0.0800 
 31 H        3.2010     0.9020     2.3440 H     1 <1>   0.0800 
 32 H        3.4380    -2.2470     0.6210 H     1 <1>   0.0800 
 33 H        4.3980    -0.8240     0.9210 H     1 <1>   0.0800 
 34 H        3.5430    -0.9900    -0.6000 H     1 <1>   0.0800 
 35 H       -1.2140    -2.1780     0.3920 H     1 <1>   0.0800 
 36 H       -0.6930    -3.4150     1.5080 H     1 <1>   0.0800 
 37 H       -0.9770    -5.7520    -2.4240 H     1 <1>   0.0800 
 38 H       -2.6630    -5.3370    -2.5620 H     1 <1>   0.0800 
 39 H       -3.8070    -4.1450    -0.6680 H     1 <1>   0.0800 
 40 H       -2.9090    -3.7140     0.7600 H     1 <1>   0.0800 
 41 H       -1.4540    -7.3480    -0.6630 H     1 <1>   0.0800 
 42 H       -2.4320    -7.7300    -2.0430 H     1 <1>   0.0800 
 43 H       -4.3110    -5.6980     1.1980 H     1 <1>   0.0800 
 44 H       -2.6310    -6.0710     1.3420 H     1 <1>   0.0800 
 45 H       -6.5680    -6.4490    -1.6560 H     1 <1>   0.0800 
 46 H       -6.1080    -6.3290     0.0260 H     1 <1>   0.0800 
 47 H       -2.0570    -8.7320     1.3180 H     1 <1>   0.2700 
 48 H       -6.1550    -8.8310    -1.6930 H     1 <1>   0.0800 
 49 H       -7.0840    -8.5250    -0.2460 H     1 <1>   0.0800 
 50 H       -2.2810   -11.1840     2.6620 H     1 <1>   0.1500 
 51 H       -6.7810   -11.1700     0.6000 H     1 <1>   0.1500 
 52 H       -3.8380   -13.0680     3.0460 H     1 <1>   0.1500 
 53 H       -6.0620   -13.0640     2.0280 H     1 <1>   0.1500 
@<TRIPOS>BOND
  1   1   2  2   
  2   2   3  am  
  3   2   4  am  
  4   3   5  1   
  5   3   6  1   
  6   4   7  1   
  7   4  28  1   
  8   5  29  1   
  9   5  30  1   
 10   5  31  1   
 11   6  32  1   
 12   6  33  1   
 13   6  34  1   
 14   7   8  1   
 15   7  35  1   
 16   7  36  1   
 17   8   9  2   
 18   8  10  am  
 19  10  11  1   
 20  10  12  1   
 21  11  13  1   
 22  11  37  1   
 23  11  38  1   
 24  12  14  1   
 25  12  39  1   
 26  12  40  1   
 27  13  15  1   
 28  13  41  1   
 29  13  42  1   
 30  14  15  1   
 31  14  43  1   
 32  14  44  1   
 33  15  16  1   
 34  15  17  1   
 35  16  18  1   
 36  17  19  1   
 37  17  20  2   
 38  18  21  1   
 39  18  45  1   
 40  18  46  1   
 41  19  22  1   
 42  19  47  1   
 43  20  21  1   
 44  20  23  1   
 45  21  48  1   
 46  21  49  1   
 47  22  23  ar  
 48  22  24  ar  
 49  23  25  ar  
 50  24  26  ar  
 51  24  50  1   
 52  25  27  ar  
 53  25  51  1   
 54  26  27  ar  
 55  26  52  1   
 56  27  53  1   
@<TRIPOS>SUBSTRUCTURE
  1 ****  14 GROUP 4 **** **** 0

# MOE 2024.06 (io_trps.svl 2023.06)
