@<TRIPOS>MOLECULE
NONAME
52 54 1 0 0 
SMALL
USER_CHARGES


@<TRIPOS>ATOM
  1 F        0.3830    -0.8210     0.1060 F     1 <1>  -0.1900 
  2 C       -0.8350    -1.2660    -0.0490 C.ar  1 <1>   0.1900 
  3 C       -1.8440    -0.7330     0.7300 C.ar  1 <1>  -0.1500 
  4 C       -1.0700    -2.2530    -0.9870 C.ar  1 <1>  -0.1500 
  5 C       -3.1330    -1.2080     0.5600 C.ar  1 <1>  -0.1500 
  6 C       -2.3650    -2.7200    -1.1460 C.ar  1 <1>  -0.1500 
  7 C       -3.3980    -2.1990    -0.3770 C.ar  1 <1>  -0.1430 
  8 C       -4.8160    -2.7160    -0.5590 C.3   1 <1>  -0.0160 
  9 C       -5.0720    -3.9200     0.3560 C.3   1 <1>  -0.1600 
 10 C       -6.5060    -4.4630     0.2020 C.3   1 <1>  -0.0990 
 11 C       -6.8330    -5.6530     1.1020 C.2   1 <1>   0.5690 
 12 O       -5.9190    -6.2040     1.6700 O.2   1 <1>  -0.5700 
 13 N       -8.1320    -6.0820     1.2560 N.am  1 <1>  -0.6600 
 14 C       -9.2790    -5.5280     0.4720 C.3   1 <1>   0.2200 
 15 C       -8.4260    -7.1630     2.2490 C.3   1 <1>   0.0600 
 16 C      -10.2520    -6.5760    -0.0680 C.3   1 <1>  -0.1600 
 17 C      -10.1520    -4.5970     1.3040 C.3   1 <1>  -0.1600 
 18 C      -11.5300    -5.7840    -0.3720 C.3   1 <1>  -0.0800 
 19 C      -11.4880    -4.5420     0.5500 C.3   1 <1>  -0.0800 
 20 C      -12.8060    -6.6420    -0.2590 C.3   1 <1>   0.1400 
 21 C      -12.7050    -4.4270     1.4850 C.3   1 <1>  -0.0990 
 22 N      -14.0010    -5.7710    -0.1270 N.am  1 <1>  -0.6600 
 23 C      -13.9840    -4.6970     0.7200 C.2   1 <1>   0.5690 
 24 C      -15.2070    -6.1610    -0.9050 C.3   1 <1>   0.0600 
 25 O      -14.9300    -3.9650     0.8850 O.2   1 <1>  -0.5700 
 26 H       -1.6210     0.0330     1.4500 H     1 <1>   0.1500 
 27 H       -0.2600    -2.6450    -1.5730 H     1 <1>   0.1500 
 28 H       -3.9300    -0.8060     1.1620 H     1 <1>   0.1500 
 29 H       -2.5650    -3.4910    -1.8700 H     1 <1>   0.1500 
 30 H       -5.5150    -1.9300    -0.3330 H     1 <1>   0.0800 
 31 H       -4.9640    -3.0010    -1.5860 H     1 <1>   0.0800 
 32 H       -4.9080    -3.6310     1.3810 H     1 <1>   0.0800 
 33 H       -4.3660    -4.7000     0.1220 H     1 <1>   0.0800 
 34 H       -6.6550    -4.7680    -0.8170 H     1 <1>   0.0800 
 35 H       -7.1930    -3.6700     0.4280 H     1 <1>   0.0800 
 36 H       -8.9180    -4.9750    -0.3770 H     1 <1>   0.0800 
 37 H       -9.3640    -6.9850     2.7410 H     1 <1>   0.0800 
 38 H       -7.6580    -7.2040     3.0030 H     1 <1>   0.0800 
 39 H       -8.4600    -8.1140     1.7470 H     1 <1>   0.0800 
 40 H       -9.8620    -7.0560    -0.9490 H     1 <1>   0.0800 
 41 H      -10.4690    -7.3180     0.6770 H     1 <1>   0.0800 
 42 H      -10.2990    -5.0090     2.2860 H     1 <1>   0.0800 
 43 H       -9.7110    -3.6200     1.3940 H     1 <1>   0.0800 
 44 H      -11.4670    -5.4330    -1.3890 H     1 <1>   0.0800 
 45 H      -11.4850    -3.6720    -0.0870 H     1 <1>   0.0800 
 46 H      -12.7560    -7.2730     0.6120 H     1 <1>   0.0800 
 47 H      -12.8980    -7.2710    -1.1280 H     1 <1>   0.0800 
 48 H      -12.7470    -3.4450     1.9200 H     1 <1>   0.0800 
 49 H      -12.6430    -5.1470     2.2800 H     1 <1>   0.0800 
 50 H      -15.5170    -7.1520    -0.6250 H     1 <1>   0.0800 
 51 H      -14.9850    -6.1390    -1.9570 H     1 <1>   0.0800 
 52 H      -16.0180    -5.4790    -0.7110 H     1 <1>   0.0800 
@<TRIPOS>BOND
  1   1   2  1   
  2   2   3  ar  
  3   2   4  ar  
  4   3   5  ar  
  5   3  26  1   
  6   4   6  ar  
  7   4  27  1   
  8   5   7  ar  
  9   5  28  1   
 10   6   7  ar  
 11   6  29  1   
 12   7   8  1   
 13   8   9  1   
 14   8  30  1   
 15   8  31  1   
 16   9  10  1   
 17   9  32  1   
 18   9  33  1   
 19  10  11  1   
 20  10  34  1   
 21  10  35  1   
 22  11  12  2   
 23  11  13  am  
 24  13  14  1   
 25  13  15  1   
 26  14  16  1   
 27  14  17  1   
 28  14  36  1   
 29  15  37  1   
 30  15  38  1   
 31  15  39  1   
 32  16  18  1   
 33  16  40  1   
 34  16  41  1   
 35  17  19  1   
 36  17  42  1   
 37  17  43  1   
 38  18  19  1   
 39  18  20  1   
 40  18  44  1   
 41  19  21  1   
 42  19  45  1   
 43  20  22  1   
 44  20  46  1   
 45  20  47  1   
 46  21  23  1   
 47  21  48  1   
 48  21  49  1   
 49  22  23  am  
 50  22  24  1   
 51  23  25  2   
 52  24  50  1   
 53  24  51  1   
 54  24  52  1   
@<TRIPOS>SUBSTRUCTURE
  1 ****  10 GROUP 4 **** **** 0

# MOE 2024.06 (io_trps.svl 2023.06)
