@<TRIPOS>MOLECULE
NONAME
58 60 1 0 0 
SMALL
USER_CHARGES


@<TRIPOS>ATOM
  1 O       -0.8450     1.0790    -1.9850 O.2   1 <1>  -0.5700 
  2 C       -1.7430     1.2300    -1.1850 C.2   1 <1>   0.5690 
  3 N       -2.9460     0.5780    -1.3440 N.am  1 <1>  -0.6600 
  4 C       -1.4990     2.1700     0.0230 C.3   1 <1>   0.2610 
  5 C       -3.1720    -0.3960    -2.4480 C.3   1 <1>   0.1400 
  6 C       -4.1510     0.7820    -0.4940 C.3   1 <1>   0.1400 
  7 O       -2.1930     3.3740    -0.1320 O.3   1 <1>  -0.6800 
  8 C       -0.0130     2.5000     0.2730 C.3   1 <1>  -0.1600 
  9 C       -3.5470    -1.7510    -1.8440 C.3   1 <1>  -0.1600 
 10 C       -4.5280    -0.5530     0.1500 C.3   1 <1>  -0.1600 
 11 C        0.2690     3.3870     1.5040 C.3   1 <1>  -0.0800 
 12 C       -4.7620    -1.6490    -0.9070 C.3   1 <1>   0.4240 
 13 C        1.7670     3.7050     1.5780 C.3   1 <1>  -0.2400 
 14 C       -0.1770     2.7200     2.8120 C.3   1 <1>  -0.2400 
 15 O       -5.8270    -1.2380    -1.7310 O.3   1 <1>  -0.5600 
 16 C       -5.0430    -3.0140    -0.2410 C.ar  1 <1>  -0.1430 
 17 C       -7.1240    -1.4920    -1.2890 C.3   1 <1>   0.1200 
 18 C       -6.2670    -3.6500    -0.4020 C.ar  1 <1>  -0.1430 
 19 C       -4.0740    -3.6310     0.5430 C.ar  1 <1>  -0.1500 
 20 C       -7.3440    -3.0010    -1.2460 C.3   1 <1>  -0.0170 
 21 C       -6.5070    -4.8700     0.2080 C.ar  1 <1>  -0.1500 
 22 C       -4.2980    -4.8620     1.1520 C.ar  1 <1>   0.0830 
 23 C       -5.5470    -5.4820     0.9920 C.ar  1 <1>   0.0830 
 24 O       -3.3160    -5.4650     1.8820 O.3   1 <1>  -0.3630 
 25 O       -5.9270    -6.6710     1.5430 O.3   1 <1>  -0.3620 
 26 C       -1.9530    -5.2170     1.6120 C.3   1 <1>   0.0400 
 27 C       -5.4120    -7.1010     2.7830 C.3   1 <1>   0.0400 
 28 H       -1.8940     1.6860     0.8960 H     1 <1>   0.0800 
 29 H       -2.2890    -0.5020    -3.0550 H     1 <1>   0.0800 
 30 H       -3.9680    -0.0370    -3.0790 H     1 <1>   0.0800 
 31 H       -4.9600     1.1320    -1.1130 H     1 <1>   0.0800 
 32 H       -3.9810     1.5200     0.2690 H     1 <1>   0.0800 
 33 H       -1.8900     3.8080    -0.9540 H     1 <1>   0.4000 
 34 H        0.3820     2.9770    -0.6070 H     1 <1>   0.0800 
 35 H        0.5190     1.5720     0.3870 H     1 <1>   0.0800 
 36 H       -2.6930    -2.1220    -1.3120 H     1 <1>   0.0800 
 37 H       -3.7680    -2.4510    -2.6290 H     1 <1>   0.0800 
 38 H       -5.4050    -0.4350     0.7570 H     1 <1>   0.0800 
 39 H       -3.7300    -0.8470     0.8050 H     1 <1>   0.0800 
 40 H       -0.2630     4.3190     1.3960 H     1 <1>   0.0800 
 41 H        2.3420     2.8030     1.6950 H     1 <1>   0.0800 
 42 H        1.9710     4.3530     2.4120 H     1 <1>   0.0800 
 43 H        2.0880     4.2030     0.6800 H     1 <1>   0.0800 
 44 H        0.2870     1.7560     2.9250 H     1 <1>   0.0800 
 45 H       -1.2450     2.6000     2.8330 H     1 <1>   0.0800 
 46 H        0.0990     3.3330     3.6520 H     1 <1>   0.0800 
 47 H       -7.8060    -1.0330    -1.9830 H     1 <1>   0.0800 
 48 H       -7.2620    -1.0530    -0.3170 H     1 <1>   0.0800 
 49 H       -3.1330    -3.1360     0.6810 H     1 <1>   0.1500 
 50 H       -7.3100    -3.3970    -2.2450 H     1 <1>   0.0800 
 51 H       -8.3150    -3.2070    -0.8330 H     1 <1>   0.0800 
 52 H       -7.4540    -5.3630     0.0820 H     1 <1>   0.1500 
 53 H       -1.3710    -5.9630     2.1230 H     1 <1>   0.0800 
 54 H       -1.6940    -4.2400     1.9780 H     1 <1>   0.0800 
 55 H       -1.7880    -5.2890     0.5510 H     1 <1>   0.0800 
 56 H       -6.0770    -7.8460     3.1810 H     1 <1>   0.0800 
 57 H       -5.3550    -6.2600     3.4510 H     1 <1>   0.0800 
 58 H       -4.4390    -7.5310     2.6240 H     1 <1>   0.0800 
@<TRIPOS>BOND
  1   1   2  2   
  2   2   3  am  
  3   2   4  1   
  4   3   5  1   
  5   3   6  1   
  6   4   7  1   
  7   4   8  1   
  8   4  28  1   
  9   5   9  1   
 10   5  29  1   
 11   5  30  1   
 12   6  10  1   
 13   6  31  1   
 14   6  32  1   
 15   7  33  1   
 16   8  11  1   
 17   8  34  1   
 18   8  35  1   
 19   9  12  1   
 20   9  36  1   
 21   9  37  1   
 22  10  12  1   
 23  10  38  1   
 24  10  39  1   
 25  11  13  1   
 26  11  14  1   
 27  11  40  1   
 28  12  15  1   
 29  12  16  1   
 30  13  41  1   
 31  13  42  1   
 32  13  43  1   
 33  14  44  1   
 34  14  45  1   
 35  14  46  1   
 36  15  17  1   
 37  16  18  ar  
 38  16  19  ar  
 39  17  20  1   
 40  17  47  1   
 41  17  48  1   
 42  18  20  1   
 43  18  21  ar  
 44  19  22  ar  
 45  19  49  1   
 46  20  50  1   
 47  20  51  1   
 48  21  23  ar  
 49  21  52  1   
 50  22  23  ar  
 51  22  24  1   
 52  23  25  1   
 53  24  26  1   
 54  25  27  1   
 55  26  53  1   
 56  26  54  1   
 57  26  55  1   
 58  27  56  1   
 59  27  57  1   
 60  27  58  1   
@<TRIPOS>SUBSTRUCTURE
  1 ****  10 GROUP 4 **** **** 0

# MOE 2024.06 (io_trps.svl 2023.06)
