@<TRIPOS>MOLECULE
NONAME
51 53 1 0 0 
SMALL
USER_CHARGES


@<TRIPOS>ATOM
  1 O       -1.0570     0.5560    -2.2140 O.2   1 <1>  -0.5700 
  2 C       -1.8080     1.0440    -1.3910 C.2   1 <1>   0.5440 
  3 N       -2.7640     0.2400    -0.7960 N.am  1 <1>  -0.6600 
  4 C       -1.6800     2.4430    -1.0760 C.ar  1 <1>   0.0860 
  5 C       -2.8290    -1.2400    -1.0400 C.3   1 <1>   0.1400 
  6 C       -3.8960     0.7930    -0.0010 C.3   1 <1>   0.1400 
  7 C       -1.2070     2.8640     0.1810 C.ar  1 <1>   0.4100 
  8 C       -2.0270     3.4130    -2.0040 C.ar  1 <1>  -0.1500 
  9 C       -2.9020    -2.0370     0.2860 C.3   1 <1>   0.0000 
 10 C       -3.9980     0.0590     1.3340 C.3   1 <1>  -0.1600 
 11 N       -1.1260     4.1420     0.5450 N.ar  1 <1>  -0.6200 
 12 N       -0.7890     1.9430     1.1200 N.pl3 1 <1>  -0.8690 
 13 C       -1.9220     4.7330    -1.6310 C.ar  1 <1>  -0.1500 
 14 C       -4.0900    -1.4500     1.0970 C.3   1 <1>   0.2000 
 15 C       -3.2520    -3.5150    -0.0180 C.3   1 <1>   0.1200 
 16 C       -1.5630    -1.9220     1.0820 C.3   1 <1>  -0.0170 
 17 C       -1.4750     5.0380    -0.3580 C.ar  1 <1>   0.1600 
 18 C       -0.0500     2.3130     2.3550 C.3   1 <1>   0.1290 
 19 O       -4.2180    -2.0690     2.3290 O.3   1 <1>  -0.6800 
 20 O       -2.4480    -4.0420    -1.0200 O.3   1 <1>  -0.6800 
 21 C       -0.3820    -2.6930     0.5010 C.ar  1 <1>  -0.1440 
 22 C       -0.0840    -3.9640     0.9690 C.ar  1 <1>  -0.1500 
 23 C        0.4090    -2.1400    -0.4950 C.ar  1 <1>  -0.1500 
 24 C        0.9760    -4.6790     0.4400 C.ar  1 <1>  -0.1500 
 25 C        1.4690    -2.8520    -1.0270 C.ar  1 <1>  -0.1500 
 26 C        1.7530    -4.1230    -0.5610 C.ar  1 <1>  -0.1500 
 27 H       -3.7050    -1.4470    -1.6300 H     1 <1>   0.0800 
 28 H       -1.9820    -1.5650    -1.6180 H     1 <1>   0.0800 
 29 H       -3.7720     1.8460     0.1830 H     1 <1>   0.0800 
 30 H       -4.8070     0.6610    -0.5590 H     1 <1>   0.0800 
 31 H       -2.3680     3.1280    -2.9840 H     1 <1>   0.1500 
 32 H       -4.8820     0.3970     1.8440 H     1 <1>   0.0800 
 33 H       -3.1430     0.3100     1.9360 H     1 <1>   0.0800 
 34 H       -0.5620     1.0140     0.7510 H     1 <1>   0.4000 
 35 H       -2.1810     5.5210    -2.3160 H     1 <1>   0.1500 
 36 H       -5.0030    -1.6500     0.5610 H     1 <1>   0.0800 
 37 H       -4.2700    -3.6020    -0.3580 H     1 <1>   0.0800 
 38 H       -3.1370    -4.1240     0.8620 H     1 <1>   0.0800 
 39 H       -1.2800    -0.8900     1.1690 H     1 <1>   0.0800 
 40 H       -1.7100    -2.2810     2.0830 H     1 <1>   0.0800 
 41 H       -1.4020     6.0730    -0.0700 H     1 <1>   0.1500 
 42 H       -0.6000     3.0610     2.9000 H     1 <1>   0.0800 
 43 H        0.9160     2.7120     2.0940 H     1 <1>   0.0800 
 44 H        0.0790     1.4480     2.9800 H     1 <1>   0.0800 
 45 H       -3.5520    -1.7230     2.9520 H     1 <1>   0.4000 
 46 H       -1.4990    -3.9240    -0.7820 H     1 <1>   0.4000 
 47 H       -0.6790    -4.4110     1.7480 H     1 <1>   0.1500 
 48 H        0.2060    -1.1520    -0.8700 H     1 <1>   0.1500 
 49 H        1.1970    -5.6670     0.8050 H     1 <1>   0.1500 
 50 H        2.0700    -2.4140    -1.8040 H     1 <1>   0.1500 
 51 H        2.5760    -4.6780    -0.9760 H     1 <1>   0.1500 
@<TRIPOS>BOND
  1   1   2  2   
  2   2   3  am  
  3   2   4  1   
  4   3   5  1   
  5   3   6  1   
  6   4   7  ar  
  7   4   8  ar  
  8   5   9  1   
  9   5  27  1   
 10   5  28  1   
 11   6  10  1   
 12   6  29  1   
 13   6  30  1   
 14   7  11  ar  
 15   7  12  1   
 16   8  13  ar  
 17   8  31  1   
 18   9  14  1   
 19   9  15  1   
 20   9  16  1   
 21  10  14  1   
 22  10  32  1   
 23  10  33  1   
 24  11  17  ar  
 25  12  18  1   
 26  12  34  1   
 27  13  17  ar  
 28  13  35  1   
 29  14  19  1   
 30  14  36  1   
 31  15  20  1   
 32  15  37  1   
 33  15  38  1   
 34  16  21  1   
 35  16  39  1   
 36  16  40  1   
 37  17  41  1   
 38  18  42  1   
 39  18  43  1   
 40  18  44  1   
 41  19  45  1   
 42  20  46  1   
 43  21  22  ar  
 44  21  23  ar  
 45  22  24  ar  
 46  22  47  1   
 47  23  25  ar  
 48  23  48  1   
 49  24  26  ar  
 50  24  49  1   
 51  25  26  ar  
 52  25  50  1   
 53  26  51  1   
@<TRIPOS>SUBSTRUCTURE
  1 ****   3 GROUP 4 **** **** 0

# MOE 2024.06 (io_trps.svl 2023.06)
