@<TRIPOS>MOLECULE
NONAME
49 51 1 0 0 
SMALL
USER_CHARGES


@<TRIPOS>ATOM
  1 O       -0.4430     0.1940     0.8820 O.2   1 <1>  -0.5700 
  2 C       -1.4020     0.7720     0.4300 C.2   1 <1>   0.5690 
  3 N       -2.4890     0.0860    -0.0320 N.am  1 <1>  -0.6600 
  4 C       -1.4030     2.2920     0.3840 C.3   1 <1>  -0.0990 
  5 C       -3.7940     0.6540    -0.4610 C.3   1 <1>   0.1400 
  6 C       -2.5510    -1.3980    -0.0490 C.3   1 <1>   0.1400 
  7 C       -0.0150     2.9160     0.5830 C.3   1 <1>  -0.0160 
  8 C       -4.7890    -0.4780    -0.2190 C.3   1 <1>   0.2000 
  9 C       -3.9700    -1.7370    -0.5190 C.3   1 <1>  -0.0800 
 10 C       -0.1000     4.4300     0.4730 C.ar  1 <1>  -0.1440 
 11 O       -5.1380    -0.4590     1.1230 O.3   1 <1>  -0.6800 
 12 C       -4.5220    -3.0490     0.0680 C.3   1 <1>   0.0210 
 13 C       -0.3690     5.1990     1.5930 C.ar  1 <1>  -0.1500 
 14 C        0.0830     5.0560    -0.7500 C.ar  1 <1>  -0.1500 
 15 C       -3.6200    -4.2160    -0.2830 C.2   1 <1>   0.1080 
 16 C       -0.4550     6.5770     1.4920 C.ar  1 <1>  -0.1500 
 17 C       -0.0020     6.4340    -0.8510 C.ar  1 <1>  -0.1500 
 18 N       -3.3640    -4.5660    -1.5060 N.2   1 <1>  -0.7070 
 19 C       -2.9660    -5.0220     0.6420 C.2   1 <1>  -0.1500 
 20 C       -0.2700     7.2030     0.2700 C.ar  1 <1>  -0.1440 
 21 N       -2.5310    -5.6180    -1.3910 N.pl3 1 <1>   0.3000 
 22 C       -2.2740    -5.9120    -0.0990 C.2   1 <1>  -0.3320 
 23 C       -0.3640     8.7140     0.1590 C.3   1 <1>  -0.0970 
 24 C       -1.3670    -7.0420     0.3530 C.3   1 <1>  -0.0600 
 25 H       -1.7850     2.6090    -0.5680 H     1 <1>   0.0800 
 26 H       -2.0630     2.6540     1.1500 H     1 <1>   0.0800 
 27 H       -4.0590     1.5390     0.0920 H     1 <1>   0.0800 
 28 H       -3.7460     0.8820    -1.5120 H     1 <1>   0.0800 
 29 H       -1.8100    -1.8040    -0.7170 H     1 <1>   0.0800 
 30 H       -2.3700    -1.7710     0.9450 H     1 <1>   0.0800 
 31 H        0.6640     2.5330    -0.1600 H     1 <1>   0.0800 
 32 H        0.3740     2.6430     1.5490 H     1 <1>   0.0800 
 33 H       -5.6840    -0.3950    -0.8110 H     1 <1>   0.0800 
 34 H       -3.9280    -1.8490    -1.5890 H     1 <1>   0.0800 
 35 H       -4.3160    -0.4120     1.6540 H     1 <1>   0.4000 
 36 H       -5.5010    -3.2380    -0.3320 H     1 <1>   0.0800 
 37 H       -4.6070    -2.9810     1.1370 H     1 <1>   0.0800 
 38 H       -0.5140     4.7290     2.5490 H     1 <1>   0.1500 
 39 H        0.2940     4.4730    -1.6290 H     1 <1>   0.1500 
 40 H       -0.6650     7.1610     2.3700 H     1 <1>   0.1500 
 41 H        0.1430     6.9050    -1.8070 H     1 <1>   0.1500 
 42 H       -3.0170    -4.9320     1.7120 H     1 <1>   0.1500 
 43 H       -2.1570    -6.1100    -2.2110 H     1 <1>   0.2700 
 44 H       -0.0550     9.1780     1.0780 H     1 <1>   0.0800 
 45 H       -1.3790     9.0000    -0.0520 H     1 <1>   0.0800 
 46 H        0.2700     9.0730    -0.6310 H     1 <1>   0.0800 
 47 H       -1.3230    -7.0720     1.4280 H     1 <1>   0.0800 
 48 H       -0.3720    -6.8950    -0.0260 H     1 <1>   0.0800 
 49 H       -1.7440    -7.9850    -0.0010 H     1 <1>   0.0800 
@<TRIPOS>BOND
  1   1   2  2   
  2   2   3  am  
  3   2   4  1   
  4   3   5  1   
  5   3   6  1   
  6   4   7  1   
  7   4  25  1   
  8   4  26  1   
  9   5   8  1   
 10   5  27  1   
 11   5  28  1   
 12   6   9  1   
 13   6  29  1   
 14   6  30  1   
 15   7  10  1   
 16   7  31  1   
 17   7  32  1   
 18   8   9  1   
 19   8  11  1   
 20   8  33  1   
 21   9  12  1   
 22   9  34  1   
 23  10  13  ar  
 24  10  14  ar  
 25  11  35  1   
 26  12  15  1   
 27  12  36  1   
 28  12  37  1   
 29  13  16  ar  
 30  13  38  1   
 31  14  17  ar  
 32  14  39  1   
 33  15  18  2   
 34  15  19  1   
 35  16  20  ar  
 36  16  40  1   
 37  17  20  ar  
 38  17  41  1   
 39  18  21  1   
 40  19  22  2   
 41  19  42  1   
 42  20  23  1   
 43  21  22  1   
 44  21  43  1   
 45  22  24  1   
 46  23  44  1   
 47  23  45  1   
 48  23  46  1   
 49  24  47  1   
 50  24  48  1   
 51  24  49  1   
@<TRIPOS>SUBSTRUCTURE
  1 ****   3 GROUP 4 **** **** 0

# MOE 2024.06 (io_trps.svl 2023.06)
