@<TRIPOS>MOLECULE
NONAME
45 47 1 0 0 
SMALL
USER_CHARGES


@<TRIPOS>ATOM
  1 O       -2.4840     0.3440     3.4360 O.2   1 <1>  -0.5700 
  2 C       -2.3900     0.9570     2.3970 C.2   1 <1>   0.5690 
  3 N       -2.9280     0.4590     1.2370 N.am  1 <1>  -0.6600 
  4 C       -1.6910     2.3210     2.4500 C.3   1 <1>   0.1810 
  5 C       -2.8920     1.1050    -0.0980 C.3   1 <1>   0.1400 
  6 C       -3.5170    -0.9000     1.1390 C.3   1 <1>   0.1400 
  7 O       -0.8480     2.5520     1.3490 O.3   1 <1>  -0.5600 
  8 C       -3.8750     0.2920    -0.9370 C.3   1 <1>   0.2000 
  9 C       -3.7950    -1.1240    -0.3580 C.3   1 <1>  -0.0800 
 10 C       -0.1460     3.7520     1.3960 C.3   1 <1>   0.2640 
 11 O       -5.1520     0.7740    -0.7050 O.3   1 <1>  -0.6800 
 12 C       -2.6730    -1.9330    -1.0400 C.3   1 <1>  -0.0170 
 13 C        0.5560     3.9490     0.0610 C.ar  1 <1>  -0.1440 
 14 C       -2.7000    -3.3980    -0.6310 C.ar  1 <1>   0.1670 
 15 C        1.4330     2.9860    -0.4130 C.ar  1 <1>  -0.1500 
 16 C        0.3300     5.0910    -0.6940 C.ar  1 <1>  -0.1500 
 17 N       -1.9110    -3.7520     0.3700 N.ar  1 <1>  -0.6200 
 18 C       -3.5290    -4.2920    -1.3070 C.ar  1 <1>   0.1600 
 19 C        2.0800     3.1600    -1.6250 C.ar  1 <1>  -0.1500 
 20 C        0.9760     5.2670    -1.9060 C.ar  1 <1>  -0.1500 
 21 C       -2.0070    -5.0410     0.6500 C.ar  1 <1>   0.1600 
 22 N       -3.6280    -5.5820    -1.0300 N.ar  1 <1>  -0.6200 
 23 C        1.8510     4.3020    -2.3720 C.ar  1 <1>  -0.1500 
 24 C       -2.8380    -5.9260    -0.0270 C.ar  1 <1>   0.1600 
 25 H       -1.0980     2.3690     3.3460 H     1 <1>   0.0800 
 26 H       -2.4390     3.0920     2.4750 H     1 <1>   0.0800 
 27 H       -3.1670     2.1450    -0.0520 H     1 <1>   0.0800 
 28 H       -1.8980     1.0150    -0.5010 H     1 <1>   0.0800 
 29 H       -2.8410    -1.6300     1.5510 H     1 <1>   0.0800 
 30 H       -4.4350    -0.9230     1.7000 H     1 <1>   0.0800 
 31 H       -3.6790     0.3500    -1.9940 H     1 <1>   0.0800 
 32 H       -4.7260    -1.6450    -0.4990 H     1 <1>   0.0800 
 33 H       -0.8380     4.5550     1.5820 H     1 <1>   0.0800 
 34 H        0.5750     3.6980     2.1930 H     1 <1>   0.0800 
 35 H       -5.2840     0.8510     0.2620 H     1 <1>   0.4000 
 36 H       -1.7110    -1.5140    -0.8000 H     1 <1>   0.0800 
 37 H       -2.7910    -1.8780    -2.1070 H     1 <1>   0.0800 
 38 H        1.6080     2.0930     0.1630 H     1 <1>   0.1500 
 39 H       -0.3480     5.8490    -0.3450 H     1 <1>   0.1500 
 40 H       -4.1400    -3.9240    -2.1120 H     1 <1>   0.1500 
 41 H        2.7580     2.4070    -1.9850 H     1 <1>   0.1500 
 42 H        0.7970     6.1550    -2.4870 H     1 <1>   0.1500 
 43 H       -1.4000    -5.4150     1.4550 H     1 <1>   0.1500 
 44 H        2.3530     4.4390    -3.3140 H     1 <1>   0.1500 
 45 H       -2.8470    -6.9580     0.2750 H     1 <1>   0.1500 
@<TRIPOS>BOND
  1   1   2  2   
  2   2   3  am  
  3   2   4  1   
  4   3   5  1   
  5   3   6  1   
  6   4   7  1   
  7   4  25  1   
  8   4  26  1   
  9   5   8  1   
 10   5  27  1   
 11   5  28  1   
 12   6   9  1   
 13   6  29  1   
 14   6  30  1   
 15   7  10  1   
 16   8   9  1   
 17   8  11  1   
 18   8  31  1   
 19   9  12  1   
 20   9  32  1   
 21  10  13  1   
 22  10  33  1   
 23  10  34  1   
 24  11  35  1   
 25  12  14  1   
 26  12  36  1   
 27  12  37  1   
 28  13  15  ar  
 29  13  16  ar  
 30  14  17  ar  
 31  14  18  ar  
 32  15  19  ar  
 33  15  38  1   
 34  16  20  ar  
 35  16  39  1   
 36  17  21  ar  
 37  18  22  ar  
 38  18  40  1   
 39  19  23  ar  
 40  19  41  1   
 41  20  23  ar  
 42  20  42  1   
 43  21  24  ar  
 44  21  43  1   
 45  22  24  ar  
 46  23  44  1   
 47  24  45  1   
@<TRIPOS>SUBSTRUCTURE
  1 ****   5 GROUP 4 **** **** 0

# MOE 2024.06 (io_trps.svl 2023.06)
