@<TRIPOS>MOLECULE
NONAME
48 49 1 0 0 
SMALL
USER_CHARGES


@<TRIPOS>ATOM
  1 S        0.0790    -0.0930    -1.2560 S.o2  1 <1>   1.3330 
  2 O       -0.6240    -1.2610    -1.7260 O.2   1 <1>  -0.6500 
  3 O        1.2090     0.4390    -1.9860 O.2   1 <1>  -0.6500 
  4 N        0.5950    -0.3720     0.3370 N.am  1 <1>  -0.8490 
  5 C       -1.0710     1.2730    -1.0690 C.3   1 <1>  -0.0550 
  6 C        1.8710    -1.0990     0.3660 C.3   1 <1>   0.1160 
  7 C       -0.3890    -1.1250     1.1290 C.3   1 <1>   0.1160 
  8 C       -0.4460     2.5040    -0.3760 C.3   1 <1>  -0.0800 
  9 C       -1.4040     3.6830    -0.2870 C.3   1 <1>   0.2000 
 10 C        0.7630     3.0890    -1.1060 C.3   1 <1>   0.3430 
 11 O       -2.2460     3.5250     0.8010 O.3   1 <1>  -0.6800 
 12 C       -0.5090     4.9200    -0.1600 C.3   1 <1>   0.3430 
 13 N        0.8360     4.5230    -0.7040 N.4   1 <1>  -0.9590 
 14 C        1.9420     4.7790     0.2600 C.3   1 <1>   0.4860 
 15 C        2.0490     6.2760     0.4710 C.ar  1 <1>  -0.1440 
 16 C        1.4990     6.8550     1.6050 C.ar  1 <1>  -0.1500 
 17 C        2.6890     7.0800    -0.4630 C.ar  1 <1>  -0.1500 
 18 C        1.5750     8.2220     1.7850 C.ar  1 <1>   0.0820 
 19 C        2.7690     8.4520    -0.2770 C.ar  1 <1>  -0.1500 
 20 O        1.0250     8.7680     2.8800 O.3   1 <1>  -0.5330 
 21 C        2.2080     9.0380     0.8530 C.ar  1 <1>   0.0820 
 22 O        2.2380    10.3770     1.1120 O.3   1 <1>  -0.3630 
 23 C        2.9170    11.2700     0.2550 C.3   1 <1>   0.0400 
 24 H       -1.4340     1.5510    -2.0400 H     1 <1>   0.0800 
 25 H       -1.9170     0.9450    -0.4960 H     1 <1>   0.0800 
 26 H        2.1880    -1.2600     1.3830 H     1 <1>   0.0800 
 27 H        2.6360    -0.5330    -0.1390 H     1 <1>   0.0800 
 28 H        1.7710    -2.0540    -0.1260 H     1 <1>   0.0800 
 29 H       -0.0430    -1.2340     2.1440 H     1 <1>   0.0800 
 30 H       -0.5430    -2.1070     0.7090 H     1 <1>   0.0800 
 31 H       -1.3330    -0.6090     1.1490 H     1 <1>   0.0800 
 32 H       -0.1200     2.2280     0.6120 H     1 <1>   0.0800 
 33 H       -2.0140     3.7680    -1.1710 H     1 <1>   0.0800 
 34 H        0.6050     3.0200    -2.1710 H     1 <1>   0.0800 
 35 H        1.6670     2.5520    -0.8610 H     1 <1>   0.0800 
 36 H       -1.7710     3.3450     1.6370 H     1 <1>   0.4000 
 37 H       -0.4270     5.2020     0.8760 H     1 <1>   0.0800 
 38 H       -0.9210     5.7440    -0.7200 H     1 <1>   0.0800 
 39 H        1.0370     5.1040    -1.5300 H     1 <1>   0.4500 
 40 H        1.7460     4.2860     1.1990 H     1 <1>   0.0800 
 41 H        2.8740     4.4080    -0.1340 H     1 <1>   0.0800 
 42 H        1.0090     6.2720     2.3650 H     1 <1>   0.1500 
 43 H        3.1370     6.6540    -1.3450 H     1 <1>   0.1500 
 44 H        3.2720     9.0460    -1.0180 H     1 <1>   0.1500 
 45 H        1.1750     9.7360     2.8740 H     1 <1>   0.4500 
 46 H        2.8300    12.2600     0.6670 H     1 <1>   0.0800 
 47 H        2.4600    11.2400    -0.7180 H     1 <1>   0.0800 
 48 H        3.9540    10.9880     0.2040 H     1 <1>   0.0800 
@<TRIPOS>BOND
  1   1   2  2   
  2   1   3  2   
  3   1   4  am  
  4   1   5  1   
  5   4   6  1   
  6   4   7  1   
  7   5   8  1   
  8   5  24  1   
  9   5  25  1   
 10   6  26  1   
 11   6  27  1   
 12   6  28  1   
 13   7  29  1   
 14   7  30  1   
 15   7  31  1   
 16   8   9  1   
 17   8  10  1   
 18   8  32  1   
 19   9  11  1   
 20   9  12  1   
 21   9  33  1   
 22  10  13  1   
 23  10  34  1   
 24  10  35  1   
 25  11  36  1   
 26  12  13  1   
 27  12  37  1   
 28  12  38  1   
 29  13  14  1   
 30  13  39  1   
 31  14  15  1   
 32  14  40  1   
 33  14  41  1   
 34  15  16  ar  
 35  15  17  ar  
 36  16  18  ar  
 37  16  42  1   
 38  17  19  ar  
 39  17  43  1   
 40  18  20  1   
 41  18  21  ar  
 42  19  21  ar  
 43  19  44  1   
 44  20  45  1   
 45  21  22  1   
 46  22  23  1   
 47  23  46  1   
 48  23  47  1   
 49  23  48  1   
@<TRIPOS>SUBSTRUCTURE
  1 ****  13 GROUP 4 **** **** 0

# MOE 2024.06 (io_trps.svl 2023.06)
