@<TRIPOS>MOLECULE
NONAME
39 41 1 0 0 
SMALL
USER_CHARGES


@<TRIPOS>ATOM
  1 O       -0.1460     0.7780    -0.6090 O.2   1 <1>  -0.5700 
  2 C       -0.0590     1.9270    -0.1830 C.2   1 <1>   0.5440 
  3 N       -1.2130     2.4620     0.3860 N.am  1 <1>  -0.6600 
  4 C        1.1880     2.6490    -0.3260 C.ar  1 <1>   0.3960 
  5 C       -2.3280     1.6070     0.8780 C.3   1 <1>   0.1400 
  6 C       -1.4800     3.9240     0.4910 C.3   1 <1>   0.1400 
  7 N        1.5800     3.5660     0.6010 N.ar  1 <1>  -0.6200 
  8 C        1.9860     2.3850    -1.4500 C.ar  1 <1>   0.1600 
  9 C       -3.5970     1.9250     0.0870 C.3   1 <1>  -0.1600 
 10 C       -2.7470     4.2590    -0.2980 C.3   1 <1>  -0.1600 
 11 C        2.7080     4.1520     0.3040 C.ar  1 <1>   0.1600 
 12 N        3.1160     2.9710    -1.7600 N.ar  1 <1>  -0.6200 
 13 C       -3.9460     3.4150     0.1540 C.3   1 <1>   0.4180 
 14 C        3.4810     3.8940    -0.8530 C.ar  1 <1>   0.1390 
 15 O       -4.2340     3.6920     1.5040 O.3   1 <1>  -0.5600 
 16 C       -5.1680     3.6950    -0.7170 C.2   1 <1>  -0.2880 
 17 O        4.5280     4.5290    -1.0570 O.3   1 <1>  -0.8290 
 18 C       -4.9790     4.8450     1.7820 C.3   1 <1>   0.1200 
 19 C       -6.2830     4.2830    -0.2790 C.2   1 <1>  -0.2760 
 20 C       -6.3790     4.7460     1.1630 C.3   1 <1>  -0.0220 
 21 C       -7.5180     4.5290    -1.1270 C.3   1 <1>  -0.1020 
 22 H       -2.4870     1.8090     1.9240 H     1 <1>   0.0800 
 23 H       -2.0840     0.5640     0.7760 H     1 <1>   0.0800 
 24 H       -0.6640     4.4990     0.0920 H     1 <1>   0.0800 
 25 H       -1.6040     4.1860     1.5280 H     1 <1>   0.0800 
 26 H        1.6400     1.6330    -2.1330 H     1 <1>   0.1500 
 27 H       -4.4210     1.3520     0.4710 H     1 <1>   0.0800 
 28 H       -3.4420     1.6340    -0.9350 H     1 <1>   0.0800 
 29 H       -2.5560     4.0660    -1.3380 H     1 <1>   0.0800 
 30 H       -2.9710     5.3050    -0.2080 H     1 <1>   0.0800 
 31 H        3.1090     4.8950     0.9650 H     1 <1>   0.1500 
 32 H       -5.0410     3.3580    -1.7300 H     1 <1>   0.1500 
 33 H       -4.4530     5.6980     1.3920 H     1 <1>   0.0800 
 34 H       -5.0490     4.9410     2.8510 H     1 <1>   0.0800 
 35 H       -6.8440     5.7140     1.2140 H     1 <1>   0.0800 
 36 H       -6.9780     4.0550     1.7290 H     1 <1>   0.0800 
 37 H       -8.3660     4.0260    -0.6990 H     1 <1>   0.0800 
 38 H       -7.3690     4.1570    -2.1250 H     1 <1>   0.0800 
 39 H       -7.7280     5.5820    -1.1830 H     1 <1>   0.0800 
@<TRIPOS>BOND
  1   1   2  2   
  2   2   3  am  
  3   2   4  1   
  4   3   5  1   
  5   3   6  1   
  6   4   7  ar  
  7   4   8  ar  
  8   5   9  1   
  9   5  22  1   
 10   5  23  1   
 11   6  10  1   
 12   6  24  1   
 13   6  25  1   
 14   7  11  ar  
 15   8  12  ar  
 16   8  26  1   
 17   9  13  1   
 18   9  27  1   
 19   9  28  1   
 20  10  13  1   
 21  10  29  1   
 22  10  30  1   
 23  11  14  ar  
 24  11  31  1   
 25  12  14  ar  
 26  13  15  1   
 27  13  16  1   
 28  14  17  1   
 29  15  18  1   
 30  16  19  2   
 31  16  32  1   
 32  18  20  1   
 33  18  33  1   
 34  18  34  1   
 35  19  20  1   
 36  19  21  1   
 37  20  35  1   
 38  20  36  1   
 39  21  37  1   
 40  21  38  1   
 41  21  39  1   
@<TRIPOS>SUBSTRUCTURE
  1 ****   6 GROUP 4 **** **** 0

# MOE 2024.06 (io_trps.svl 2023.06)
