@<TRIPOS>MOLECULE
NONAME
50 53 1 0 0 
SMALL
USER_CHARGES


@<TRIPOS>ATOM
  1 O       -2.4740     0.7900    -1.6380 O.2   1 <1>  -0.5700 
  2 C       -1.9600     0.5090    -0.5690 C.2   1 <1>   0.7160 
  3 N       -2.0280    -0.7840    -0.1400 N.am  1 <1>  -0.7300 
  4 C       -1.3110     1.5170     0.2480 C.2   1 <1>   0.2030 
  5 C       -2.6900    -1.9080    -0.8390 C.3   1 <1>   0.2200 
  6 N       -0.7940     1.3320     1.4270 N.2   1 <1>  -0.4100 
  7 C       -1.1420     2.8490    -0.0950 C.2   1 <1>  -0.1500 
  8 C       -4.0160    -2.2630    -0.1780 C.3   1 <1>  -0.0800 
  9 C       -1.9000    -3.1850    -0.5900 C.3   1 <1>   0.1200 
 10 O       -0.2940     2.4540     1.8840 O.3   1 <1>  -0.0190 
 11 C       -0.5070     3.3680     0.9600 C.2   1 <1>  -0.0400 
 12 C       -3.6010    -3.2170     0.9470 C.3   1 <1>   0.1200 
 13 C       -4.8750    -1.0720     0.2950 C.3   1 <1>  -0.0160 
 14 O       -2.2870    -3.6140     0.6790 O.3   1 <1>  -0.5600 
 15 C       -0.0190     4.7800     1.2390 C.3   1 <1>   0.0200 
 16 C       -6.2180    -1.5480     0.8370 C.ar  1 <1>  -0.1440 
 17 C       -0.3270     5.7520     0.0910 C.3   1 <1>  -0.1600 
 18 C       -7.2850    -1.9320    -0.0100 C.ar  1 <1>   0.0000 
 19 C       -6.4250    -1.6200     2.1830 C.ar  1 <1>  -0.1500 
 20 C        0.1760     7.1660     0.4010 C.3   1 <1>  -0.2400 
 21 C       -8.4790    -2.3860     0.6020 C.ar  1 <1>   0.3100 
 22 C       -7.2390    -1.8910    -1.4240 C.ar  1 <1>  -0.1500 
 23 C       -7.6490    -2.0760     2.6860 C.ar  1 <1>   0.1600 
 24 N       -8.6440    -2.4520     1.9470 N.ar  1 <1>  -0.6200 
 25 C       -9.5490    -2.7890    -0.2130 C.ar  1 <1>  -0.1500 
 26 C       -8.3010    -2.2890    -2.1890 C.ar  1 <1>  -0.1500 
 27 C       -9.4710    -2.7460    -1.5780 C.ar  1 <1>  -0.1500 
 28 H       -1.6110    -1.0160     0.7670 H     1 <1>   0.3700 
 29 H       -2.7940    -1.6950    -1.8900 H     1 <1>   0.0800 
 30 H       -1.4680     3.3020    -1.0140 H     1 <1>   0.1500 
 31 H       -4.5870    -2.8380    -0.8840 H     1 <1>   0.0800 
 32 H       -0.8350    -3.0310    -0.6140 H     1 <1>   0.0800 
 33 H       -2.1770    -3.9500    -1.2950 H     1 <1>   0.0800 
 34 H       -4.2300    -4.0900     0.9820 H     1 <1>   0.0800 
 35 H       -3.6020    -2.7300     1.9060 H     1 <1>   0.0800 
 36 H       -5.0280    -0.3800    -0.5150 H     1 <1>   0.0800 
 37 H       -4.3550    -0.5330     1.0680 H     1 <1>   0.0800 
 38 H       -0.4870     5.1320     2.1420 H     1 <1>   0.0800 
 39 H        1.0430     4.7490     1.4080 H     1 <1>   0.0800 
 40 H        0.1440     5.4010    -0.8110 H     1 <1>   0.0800 
 41 H       -1.3900     5.7840    -0.0750 H     1 <1>   0.0800 
 42 H       -5.6640    -1.3370     2.8870 H     1 <1>   0.1500 
 43 H        1.2410     7.1650     0.5500 H     1 <1>   0.0800 
 44 H       -0.2980     7.5500     1.2880 H     1 <1>   0.0800 
 45 H       -0.0530     7.8250    -0.4180 H     1 <1>   0.0800 
 46 H       -6.3520    -1.5370    -1.9140 H     1 <1>   0.1500 
 47 H       -7.7700    -2.1170     3.7550 H     1 <1>   0.1500 
 48 H      -10.4390    -3.1340     0.2780 H     1 <1>   0.1500 
 49 H       -8.2530    -2.2540    -3.2640 H     1 <1>   0.1500 
 50 H      -10.3000    -3.0580    -2.1900 H     1 <1>   0.1500 
@<TRIPOS>BOND
  1   1   2  2   
  2   2   3  am  
  3   2   4  1   
  4   3   5  1   
  5   3  28  1   
  6   4   6  2   
  7   4   7  1   
  8   5   8  1   
  9   5   9  1   
 10   5  29  1   
 11   6  10  1   
 12   7  11  2   
 13   7  30  1   
 14   8  12  1   
 15   8  13  1   
 16   8  31  1   
 17   9  14  1   
 18   9  32  1   
 19   9  33  1   
 20  10  11  1   
 21  11  15  1   
 22  12  14  1   
 23  12  34  1   
 24  12  35  1   
 25  13  16  1   
 26  13  36  1   
 27  13  37  1   
 28  15  17  1   
 29  15  38  1   
 30  15  39  1   
 31  16  18  ar  
 32  16  19  ar  
 33  17  20  1   
 34  17  40  1   
 35  17  41  1   
 36  18  21  ar  
 37  18  22  ar  
 38  19  23  ar  
 39  19  42  1   
 40  20  43  1   
 41  20  44  1   
 42  20  45  1   
 43  21  24  ar  
 44  21  25  ar  
 45  22  26  ar  
 46  22  46  1   
 47  23  24  ar  
 48  23  47  1   
 49  25  27  ar  
 50  25  48  1   
 51  26  27  ar  
 52  26  49  1   
 53  27  50  1   
@<TRIPOS>SUBSTRUCTURE
  1 ****  13 GROUP 4 **** **** 0

# MOE 2024.06 (io_trps.svl 2023.06)
