@<TRIPOS>MOLECULE
NONAME
45 46 1 0 0 
SMALL
USER_CHARGES


@<TRIPOS>ATOM
  1 S        0.1570    -0.1340     0.8940 S.o2  1 <1>   1.3330 
  2 O        1.1550     0.1680     1.8950 O.2   1 <1>  -0.6500 
  3 O       -0.8620    -1.1190     1.1750 O.2   1 <1>  -0.6500 
  4 N        0.9660    -0.6230    -0.5190 N.am  1 <1>  -0.8490 
  5 C       -0.6290     1.4020     0.4030 C.3   1 <1>  -0.0550 
  6 C        2.1530    -1.4310    -0.2250 C.3   1 <1>   0.1160 
  7 C        0.1010    -1.3360    -1.4650 C.3   1 <1>   0.1160 
  8 C        0.3480     2.4740    -0.1280 C.3   1 <1>  -0.0800 
  9 C       -0.3390     3.6890    -0.7590 C.3   1 <1>   0.2000 
 10 C        1.2750     3.0720     0.9410 C.3   1 <1>   0.1400 
 11 O       -1.3930     4.0880     0.0490 O.3   1 <1>  -0.6800 
 12 C        0.7310     4.7760    -0.7150 C.3   1 <1>   0.1400 
 13 N        1.4850     4.4820     0.5270 N.am  1 <1>  -0.6600 
 14 C        2.1670     5.3960     1.2950 C.2   1 <1>   0.5440 
 15 O        2.6310     5.0370     2.3590 O.2   1 <1>  -0.5700 
 16 C        2.3340     6.7570     0.8670 C.ar  1 <1>   0.0860 
 17 C        1.3860     7.7420     1.1280 C.ar  1 <1>   0.1900 
 18 C        3.4540     7.1870     0.1620 C.ar  1 <1>   0.1900 
 19 F        0.2950     7.4160     1.7650 F     1 <1>  -0.1900 
 20 C        1.5320     9.0590     0.7350 C.ar  1 <1>  -0.1500 
 21 F        4.3790     6.3190    -0.1440 F     1 <1>  -0.1900 
 22 C        3.6440     8.4930    -0.2500 C.ar  1 <1>  -0.1500 
 23 C        2.6690     9.4440     0.0420 C.ar  1 <1>   0.0820 
 24 O        2.7580    10.7440    -0.3160 O.3   1 <1>  -0.3630 
 25 C        3.8870    11.2570    -0.9880 C.3   1 <1>   0.0400 
 26 H       -1.3470     1.1890    -0.3650 H     1 <1>   0.0800 
 27 H       -1.1700     1.7970     1.2400 H     1 <1>   0.0800 
 28 H        2.6470    -1.7160    -1.1380 H     1 <1>   0.0800 
 29 H        1.8770    -2.3170     0.3220 H     1 <1>   0.0800 
 30 H        2.8490    -0.8620     0.3690 H     1 <1>   0.0800 
 31 H        0.6380    -1.5410    -2.3750 H     1 <1>   0.0800 
 32 H       -0.7610    -0.7380    -1.7060 H     1 <1>   0.0800 
 33 H       -0.2350    -2.2680    -1.0390 H     1 <1>   0.0800 
 34 H        0.9730     2.0320    -0.8830 H     1 <1>   0.0800 
 35 H       -0.7170     3.5030    -1.7500 H     1 <1>   0.0800 
 36 H        2.2150     2.5470     0.9900 H     1 <1>   0.0800 
 37 H        0.8150     3.0550     1.9150 H     1 <1>   0.0800 
 38 H       -1.0280     4.4350     0.8910 H     1 <1>   0.4000 
 39 H        0.2950     5.7600    -0.7100 H     1 <1>   0.0800 
 40 H        1.3930     4.6740    -1.5580 H     1 <1>   0.0800 
 41 H        0.7710     9.7830     0.9640 H     1 <1>   0.1500 
 42 H        4.5390     8.7420    -0.7870 H     1 <1>   0.1500 
 43 H        3.7310    12.3090    -1.1470 H     1 <1>   0.0800 
 44 H        3.9890    10.7570    -1.9350 H     1 <1>   0.0800 
 45 H        4.7590    11.1060    -0.3750 H     1 <1>   0.0800 
@<TRIPOS>BOND
  1   1   2  2   
  2   1   3  2   
  3   1   4  am  
  4   1   5  1   
  5   4   6  1   
  6   4   7  1   
  7   5   8  1   
  8   5  26  1   
  9   5  27  1   
 10   6  28  1   
 11   6  29  1   
 12   6  30  1   
 13   7  31  1   
 14   7  32  1   
 15   7  33  1   
 16   8   9  1   
 17   8  10  1   
 18   8  34  1   
 19   9  11  1   
 20   9  12  1   
 21   9  35  1   
 22  10  13  1   
 23  10  36  1   
 24  10  37  1   
 25  11  38  1   
 26  12  13  1   
 27  12  39  1   
 28  12  40  1   
 29  13  14  am  
 30  14  15  2   
 31  14  16  1   
 32  16  17  ar  
 33  16  18  ar  
 34  17  19  1   
 35  17  20  ar  
 36  18  21  1   
 37  18  22  ar  
 38  20  23  ar  
 39  20  41  1   
 40  22  23  ar  
 41  22  42  1   
 42  23  24  1   
 43  24  25  1   
 44  25  43  1   
 45  25  44  1   
 46  25  45  1   
@<TRIPOS>SUBSTRUCTURE
  1 ****  13 GROUP 4 **** **** 0

# MOE 2024.06 (io_trps.svl 2023.06)
