@<TRIPOS>MOLECULE
NONAME
53 55 1 0 0 
SMALL
USER_CHARGES


@<TRIPOS>ATOM
  1 O       -0.3090     0.8240     1.3600 O.2   1 <1>  -0.5700 
  2 C       -0.2170     2.0240     1.2920 C.2   1 <1>   0.5690 
  3 N       -1.3240     2.7990     1.2970 N.am  1 <1>  -0.7300 
  4 C        1.1590     2.6840     1.1610 C.3   1 <1>   0.1810 
  5 C       -1.2890     4.2800     1.2210 C.3   1 <1>   0.3640 
  6 O        1.1440     4.0650     1.4540 O.3   1 <1>  -0.5600 
  7 C       -2.3400     4.7450     0.2140 C.ar  1 <1>  -0.1440 
  8 C        0.1150     4.8020     0.8140 C.3   1 <1>   0.2610 
  9 C       -3.1430     5.8370     0.5150 C.ar  1 <1>  -0.1500 
 10 C       -2.5040     4.1080    -1.0100 C.ar  1 <1>  -0.1500 
 11 C        0.2630     6.3130     1.0870 C.2   1 <1>   0.5690 
 12 C       -4.0910     6.2840    -0.3890 C.ar  1 <1>  -0.1500 
 13 C       -3.4520     4.5540    -1.9140 C.ar  1 <1>  -0.1500 
 14 O       -0.4460     6.7990     1.9440 O.2   1 <1>  -0.5700 
 15 N        1.1460     7.1000     0.3730 N.am  1 <1>  -0.6600 
 16 C       -4.2460     5.6430    -1.6040 C.ar  1 <1>  -0.1500 
 17 C        1.0080     8.5910     0.4230 C.3   1 <1>   0.2200 
 18 C        2.2100     6.5320    -0.5250 C.3   1 <1>   0.2840 
 19 C        0.3660     9.0900    -0.8710 C.3   1 <1>  -0.2400 
 20 C        2.3350     9.3000     0.6940 C.3   1 <1>  -0.2400 
 21 C        3.6040     6.5160     0.1110 C.ar  1 <1>  -0.1430 
 22 C        4.7470     6.8360    -0.6240 C.ar  1 <1>  -0.1430 
 23 C        3.7430     6.1660     1.4480 C.ar  1 <1>  -0.1500 
 24 C        5.9890     6.8100    -0.0070 C.ar  1 <1>  -0.1500 
 25 C        4.6870     7.2170    -2.0980 C.3   1 <1>  -0.0970 
 26 C        4.9850     6.1410     2.0550 C.ar  1 <1>  -0.1500 
 27 C        6.1110     6.4660     1.3260 C.ar  1 <1>  -0.1500 
 28 H       -2.2400     2.3590     1.3850 H     1 <1>   0.3700 
 29 H        1.5230     2.5550     0.1580 H     1 <1>   0.0800 
 30 H        1.8450     2.2140     1.8410 H     1 <1>   0.0800 
 31 H       -1.5390     4.6590     2.1980 H     1 <1>   0.0800 
 32 H        0.2130     4.6440    -0.2420 H     1 <1>   0.0800 
 33 H       -3.0310     6.3520     1.4550 H     1 <1>   0.1500 
 34 H       -1.8970     3.2580    -1.2690 H     1 <1>   0.1500 
 35 H       -4.7060     7.1330    -0.1440 H     1 <1>   0.1500 
 36 H       -3.5740     4.0530    -2.8590 H     1 <1>   0.1500 
 37 H       -4.9840     5.9910    -2.3060 H     1 <1>   0.1500 
 38 H        0.3480     8.8590     1.2310 H     1 <1>   0.0800 
 39 H        1.9780     5.5240    -0.8050 H     1 <1>   0.0800 
 40 H        2.2210     7.1030    -1.4320 H     1 <1>   0.0800 
 41 H        1.0140     8.9450    -1.7140 H     1 <1>   0.0800 
 42 H        0.1570    10.1410    -0.7870 H     1 <1>   0.0800 
 43 H       -0.5650     8.5770    -1.0390 H     1 <1>   0.0800 
 44 H        3.0140     9.1980    -0.1310 H     1 <1>   0.0800 
 45 H        2.7880     8.9030     1.5850 H     1 <1>   0.0800 
 46 H        2.1570    10.3480     0.8510 H     1 <1>   0.0800 
 47 H        2.8780     5.9120     2.0360 H     1 <1>   0.1500 
 48 H        6.8770     7.0600    -0.5610 H     1 <1>   0.1500 
 49 H        5.6750     7.3350    -2.5060 H     1 <1>   0.0800 
 50 H        4.1630     8.1470    -2.2180 H     1 <1>   0.0800 
 51 H        4.1860     6.4500    -2.6600 H     1 <1>   0.0800 
 52 H        5.0700     5.8700     3.0920 H     1 <1>   0.1500 
 53 H        7.0800     6.4500     1.7940 H     1 <1>   0.1500 
@<TRIPOS>BOND
  1   1   2  2   
  2   2   3  am  
  3   2   4  1   
  4   3   5  1   
  5   3  28  1   
  6   4   6  1   
  7   4  29  1   
  8   4  30  1   
  9   5   7  1   
 10   5   8  1   
 11   5  31  1   
 12   6   8  1   
 13   7   9  ar  
 14   7  10  ar  
 15   8  11  1   
 16   8  32  1   
 17   9  12  ar  
 18   9  33  1   
 19  10  13  ar  
 20  10  34  1   
 21  11  14  2   
 22  11  15  am  
 23  12  16  ar  
 24  12  35  1   
 25  13  16  ar  
 26  13  36  1   
 27  15  17  1   
 28  15  18  1   
 29  16  37  1   
 30  17  19  1   
 31  17  20  1   
 32  17  38  1   
 33  18  21  1   
 34  18  39  1   
 35  18  40  1   
 36  19  41  1   
 37  19  42  1   
 38  19  43  1   
 39  20  44  1   
 40  20  45  1   
 41  20  46  1   
 42  21  22  ar  
 43  21  23  ar  
 44  22  24  ar  
 45  22  25  1   
 46  23  26  ar  
 47  23  47  1   
 48  24  27  ar  
 49  24  48  1   
 50  25  49  1   
 51  25  50  1   
 52  25  51  1   
 53  26  27  ar  
 54  26  52  1   
 55  27  53  1   
@<TRIPOS>SUBSTRUCTURE
  1 ****  11 GROUP 4 **** **** 0

# MOE 2024.06 (io_trps.svl 2023.06)
