@<TRIPOS>MOLECULE
NONAME
50 52 1 0 0 
SMALL
USER_CHARGES


@<TRIPOS>ATOM
  1 O       -0.5370     0.5960    -0.4890 O.2   1 <1>  -0.5700 
  2 C       -1.5310     1.2900    -0.3920 C.2   1 <1>   0.5440 
  3 N       -2.7260     0.6990    -0.0370 N.am  1 <1>  -0.6600 
  4 C       -1.4270     2.7160    -0.6360 C.ar  1 <1>   0.0860 
  5 C       -2.8950    -0.7860     0.0140 C.3   1 <1>   0.1400 
  6 C       -3.8840     1.4400     0.5500 C.3   1 <1>   0.1400 
  7 C       -0.4400     3.4820    -0.0190 C.ar  1 <1>  -0.1500 
  8 C       -2.3010     3.3810    -1.4940 C.ar  1 <1>  -0.1500 
  9 C       -3.3260    -1.2340     1.4190 C.3   1 <1>   0.1200 
 10 C       -4.2600     0.8570     1.9230 C.3   1 <1>   0.1200 
 11 C       -0.3470     4.8450    -0.2270 C.ar  1 <1>  -0.1500 
 12 C       -2.2080     4.7440    -1.7020 C.ar  1 <1>  -0.1500 
 13 O       -4.4590    -0.5250     1.8380 O.3   1 <1>  -0.5600 
 14 C       -1.2320     5.5180    -1.0730 C.ar  1 <1>   0.0860 
 15 C       -1.1580     6.9520    -1.2980 C.2   1 <1>   0.5440 
 16 O       -2.1090     7.5680    -1.7400 O.2   1 <1>  -0.5700 
 17 N       -0.0270     7.6520    -1.0180 N.am  1 <1>  -0.7300 
 18 C        0.0880     9.1160    -1.0030 C.3   1 <1>   0.3200 
 19 C        1.2290     9.5110    -0.0690 C.2   1 <1>   0.0060 
 20 N        2.0910     8.6720     0.4270 N.2   1 <1>  -0.5650 
 21 N        1.4360    10.7930     0.3230 N.pl3 1 <1>   0.0480 
 22 C        2.8970     9.4440     1.1780 C.2   1 <1>   0.0770 
 23 C        2.5130    10.7360     1.1270 C.2   1 <1>  -0.3020 
 24 C        0.6730    12.0120    -0.0220 C.3   1 <1>   0.0960 
 25 C       -0.4690    12.2340     0.9770 C.3   1 <1>  -0.1600 
 26 C       -1.2810    13.4840     0.6240 C.3   1 <1>  -0.2400 
 27 H       -1.9800    -1.2860    -0.2530 H     1 <1>   0.0800 
 28 H       -3.6480    -1.0790    -0.6960 H     1 <1>   0.0800 
 29 H       -4.7290     1.3580    -0.1110 H     1 <1>   0.0800 
 30 H       -3.6510     2.4820     0.6710 H     1 <1>   0.0800 
 31 H        0.2600     2.9880     0.6340 H     1 <1>   0.1500 
 32 H       -3.0620     2.8150    -2.0030 H     1 <1>   0.1500 
 33 H       -2.5320    -1.0710     2.1270 H     1 <1>   0.0800 
 34 H       -3.5760    -2.2800     1.4140 H     1 <1>   0.0800 
 35 H       -5.1740     1.2990     2.2770 H     1 <1>   0.0800 
 36 H       -3.4820     1.0500     2.6420 H     1 <1>   0.0800 
 37 H        0.4260     5.3940     0.2830 H     1 <1>   0.1500 
 38 H       -2.9030     5.2290    -2.3670 H     1 <1>   0.1500 
 39 H        0.7910     7.2200    -0.5740 H     1 <1>   0.3700 
 40 H       -0.8390     9.5440    -0.6620 H     1 <1>   0.0800 
 41 H        0.2920     9.4650    -1.9990 H     1 <1>   0.0800 
 42 H        3.7240     9.0230     1.7260 H     1 <1>   0.1500 
 43 H        2.9390    11.5960     1.6110 H     1 <1>   0.1500 
 44 H        0.2830    11.9120    -1.0190 H     1 <1>   0.0800 
 45 H        1.3440    12.8520    -0.0050 H     1 <1>   0.0800 
 46 H       -0.0610    12.3460     1.9670 H     1 <1>   0.0800 
 47 H       -1.1240    11.3790     0.9760 H     1 <1>   0.0800 
 48 H       -0.6550    14.3600     0.6400 H     1 <1>   0.0800 
 49 H       -2.0730    13.6210     1.3400 H     1 <1>   0.0800 
 50 H       -1.7220    13.3880    -0.3530 H     1 <1>   0.0800 
@<TRIPOS>BOND
  1   1   2  2   
  2   2   3  am  
  3   2   4  1   
  4   3   5  1   
  5   3   6  1   
  6   4   7  ar  
  7   4   8  ar  
  8   5   9  1   
  9   5  27  1   
 10   5  28  1   
 11   6  10  1   
 12   6  29  1   
 13   6  30  1   
 14   7  11  ar  
 15   7  31  1   
 16   8  12  ar  
 17   8  32  1   
 18   9  13  1   
 19   9  33  1   
 20   9  34  1   
 21  10  13  1   
 22  10  35  1   
 23  10  36  1   
 24  11  14  ar  
 25  11  37  1   
 26  12  14  ar  
 27  12  38  1   
 28  14  15  1   
 29  15  16  2   
 30  15  17  am  
 31  17  18  1   
 32  17  39  1   
 33  18  19  1   
 34  18  40  1   
 35  18  41  1   
 36  19  20  2   
 37  19  21  1   
 38  20  22  1   
 39  21  23  1   
 40  21  24  1   
 41  22  23  2   
 42  22  42  1   
 43  23  43  1   
 44  24  25  1   
 45  24  44  1   
 46  24  45  1   
 47  25  26  1   
 48  25  46  1   
 49  25  47  1   
 50  26  48  1   
 51  26  49  1   
 52  26  50  1   
@<TRIPOS>SUBSTRUCTURE
  1 ****  11 GROUP 4 **** **** 0

# MOE 2024.06 (io_trps.svl 2023.06)
