@<TRIPOS>MOLECULE
NONAME
32 33 1 0 0 
SMALL
USER_CHARGES


@<TRIPOS>ATOM
  1 O       -0.5820     0.8170     1.5510 O.2   1 <1>  -0.5700 
  2 C       -1.0420     1.6290     0.7680 C.2   1 <1>   0.7800 
  3 O       -0.2510     2.4670     0.0960 O.3   1 <1>  -0.4300 
  4 N       -2.3680     1.7130     0.5180 N.am  1 <1>  -0.5100 
  5 C        1.1440     2.6130     0.1930 C.3   1 <1>   0.2800 
  6 C       -2.9520     2.1270    -0.8270 C.3   1 <1>   0.2300 
  7 C       -3.3210     0.5620     0.5970 C.3   1 <1>   0.3010 
  8 C        1.4900     3.7370    -0.7830 C.3   1 <1>  -0.2400 
  9 C        1.5320     3.0350     1.6150 C.3   1 <1>  -0.2400 
 10 C        1.8430     1.3220    -0.2480 C.3   1 <1>  -0.2400 
 11 C       -3.1230     3.6380    -1.1250 C.2   1 <1>   0.8710 
 12 C       -4.2110     1.3230    -0.4080 C.3   1 <1>  -0.1520 
 13 O       -3.4110     4.4390    -0.2210 O.co2 1 <1>  -0.9000 
 14 O       -2.9890     4.0220    -2.2970 O.co2 1 <1>  -0.9000 
 15 C       -5.5420     1.9040    -0.0500 C.3   1 <1>  -0.2000 
 16 C       -5.4200     0.9050    -1.1780 C.3   1 <1>  -0.2000 
 17 H       -2.4170     1.6250    -1.6150 H     1 <1>   0.0000 
 18 H       -3.7560     0.4510     1.5750 H     1 <1>   0.0000 
 19 H       -2.8840    -0.3350     0.1950 H     1 <1>   0.0000 
 20 H        0.9730     4.6390    -0.5040 H     1 <1>   0.0800 
 21 H        1.1920     3.4670    -1.7800 H     1 <1>   0.0800 
 22 H        2.5470     3.9310    -0.7800 H     1 <1>   0.0800 
 23 H        0.9630     3.8990     1.9100 H     1 <1>   0.0800 
 24 H        2.5770     3.2830     1.6530 H     1 <1>   0.0800 
 25 H        1.3570     2.2400     2.3160 H     1 <1>   0.0800 
 26 H        1.4890     1.0220    -1.2180 H     1 <1>   0.0800 
 27 H        1.6660     0.5280     0.4540 H     1 <1>   0.0800 
 28 H        2.9040     1.4800    -0.3030 H     1 <1>   0.0800 
 29 H       -5.7180     2.9420    -0.2780 H     1 <1>   0.1000 
 30 H       -5.9980     1.6050     0.8770 H     1 <1>   0.1000 
 31 H       -5.8070    -0.0880    -1.0380 H     1 <1>   0.1000 
 32 H       -5.5300     1.2620    -2.1870 H     1 <1>   0.1000 
@<TRIPOS>BOND
  1   1   2  2   
  2   2   3  1   
  3   2   4  am  
  4   3   5  1   
  5   4   6  1   
  6   4   7  1   
  7   5   8  1   
  8   5   9  1   
  9   5  10  1   
 10   6  11  1   
 11   6  12  1   
 12   6  17  1   
 13   7  12  1   
 14   7  18  1   
 15   7  19  1   
 16   8  20  1   
 17   8  21  1   
 18   8  22  1   
 19   9  23  1   
 20   9  24  1   
 21   9  25  1   
 22  10  26  1   
 23  10  27  1   
 24  10  28  1   
 25  11  13  ar  
 26  11  14  ar  
 27  12  15  1   
 28  12  16  1   
 29  15  16  1   
 30  15  29  1   
 31  15  30  1   
 32  16  31  1   
 33  16  32  1   
@<TRIPOS>SUBSTRUCTURE
  1 ****   4 GROUP 4 **** **** 0

# MOE 2024.06 (io_trps.svl 2023.06)
