@<TRIPOS>MOLECULE
NONAME
64 68 1 0 0 
SMALL
USER_CHARGES


@<TRIPOS>ATOM
  1 O        0.1440    -1.3180    -2.3770 O.2   1 <1>  -0.5700 
  2 C        0.6170    -2.0050    -1.5030 C.2   1 <1>   0.5690 
  3 N        1.7890    -1.6410    -0.8820 N.am  1 <1>  -0.6600 
  4 C       -0.1920    -3.2440    -1.1530 C.3   1 <1>  -0.0990 
  5 C        2.4380    -2.4030     0.2280 C.3   1 <1>   0.1400 
  6 C        2.4940    -0.3910    -1.2960 C.3   1 <1>   0.1400 
  7 C        0.4180    -4.2760    -0.2060 C.3   1 <1>   0.1200 
  8 C        2.7870    -3.8810    -0.1080 C.3   1 <1>   0.2800 
  9 C        2.0450     0.8000    -0.4410 C.3   1 <1>   0.0000 
 10 O        1.7020    -4.5960    -0.6370 O.3   1 <1>  -0.5600 
 11 C        3.2280    -4.6140     1.1780 C.3   1 <1>  -0.1600 
 12 C        3.8730    -3.9530    -1.2040 C.3   1 <1>  -0.1600 
 13 C        2.8520     2.1010    -0.6890 C.3   1 <1>   0.0000 
 14 C        2.5790     0.8410     1.0170 C.3   1 <1>   0.0000 
 15 C        4.2800    -5.6840     0.8970 C.3   1 <1>   0.1400 
 16 C        5.2930    -3.9230    -0.6340 C.3   1 <1>   0.1400 
 17 C        2.7260     2.3730     0.8330 C.3   1 <1>   0.0000 
 18 N        5.5040    -5.0270     0.3480 N.am  1 <1>  -0.6600 
 19 C        6.7740    -5.4630     0.7100 C.2   1 <1>   0.7160 
 20 O        6.8470    -6.5160     1.3260 O.2   1 <1>  -0.5700 
 21 C        8.0120    -4.7430     0.3980 C.2   1 <1>   0.2030 
 22 N        8.1530    -3.4950    -0.0280 N.2   1 <1>  -0.7070 
 23 C        9.2740    -5.3280     0.5370 C.2   1 <1>  -0.1500 
 24 N        9.4700    -3.3020    -0.1540 N.pl3 1 <1>   0.3140 
 25 C       10.1900    -4.3970     0.1840 C.2   1 <1>  -0.2050 
 26 C       10.0130    -2.0270    -0.6420 C.3   1 <1>   0.0160 
 27 C       11.6260    -4.4930     0.1470 C.ar  1 <1>   0.0530 
 28 C       12.4250    -3.7030     0.9680 C.ar  1 <1>  -0.1500 
 29 C       12.2540    -5.3830    -0.7180 C.ar  1 <1>  -0.1500 
 30 C       13.8050    -3.7880     0.9180 C.ar  1 <1>  -0.1500 
 31 C       13.6330    -5.4730    -0.7740 C.ar  1 <1>  -0.1500 
 32 C       14.4120    -4.6730     0.0440 C.ar  1 <1>  -0.1500 
 33 H       -0.4170    -3.7450    -2.0760 H     1 <1>   0.0800 
 34 H       -1.1280    -2.9160    -0.7420 H     1 <1>   0.0800 
 35 H        1.8050    -2.3570     1.0960 H     1 <1>   0.0800 
 36 H        3.3530    -1.9120     0.5050 H     1 <1>   0.0800 
 37 H        2.2750    -0.1780    -2.3290 H     1 <1>   0.0800 
 38 H        3.5590    -0.5290    -1.2180 H     1 <1>   0.0800 
 39 H       -0.1640    -5.1800    -0.2460 H     1 <1>   0.0800 
 40 H        0.4330    -3.9390     0.8150 H     1 <1>   0.0800 
 41 H        0.9850     0.9840    -0.4970 H     1 <1>   0.0000 
 42 H        2.3810    -5.0610     1.6650 H     1 <1>   0.0800 
 43 H        3.6650    -3.9180     1.8720 H     1 <1>   0.0800 
 44 H        3.7540    -3.1450    -1.9020 H     1 <1>   0.0800 
 45 H        3.7670    -4.8670    -1.7610 H     1 <1>   0.0800 
 46 H        2.3420     2.8200    -1.3040 H     1 <1>   0.0000 
 47 H        3.8700     1.9200    -0.9910 H     1 <1>   0.0000 
 48 H        3.5310     0.3530     1.1380 H     1 <1>   0.0000 
 49 H        1.8510     0.5580     1.7560 H     1 <1>   0.0000 
 50 H        3.9060    -6.4010     0.1860 H     1 <1>   0.0800 
 51 H        4.5120    -6.2050     1.8120 H     1 <1>   0.0800 
 52 H        5.4740    -2.9810    -0.1450 H     1 <1>   0.0800 
 53 H        5.9980    -4.0230    -1.4420 H     1 <1>   0.0800 
 54 H        1.8270     2.9110     1.0860 H     1 <1>   0.0000 
 55 H        3.6150     2.7830     1.2780 H     1 <1>   0.0000 
 56 H        9.4530    -6.3350     0.8700 H     1 <1>   0.1500 
 57 H        9.2210    -1.4500    -1.0810 H     1 <1>   0.0800 
 58 H       10.7690    -2.2220    -1.3790 H     1 <1>   0.0800 
 59 H       10.4380    -1.4870     0.1830 H     1 <1>   0.0800 
 60 H       11.9570    -3.0230     1.6570 H     1 <1>   0.1500 
 61 H       11.6490    -6.0060    -1.3530 H     1 <1>   0.1500 
 62 H       14.4080    -3.1690     1.5590 H     1 <1>   0.1500 
 63 H       14.1000    -6.1660    -1.4510 H     1 <1>   0.1500 
 64 H       15.4850    -4.7420     0.0020 H     1 <1>   0.1500 
@<TRIPOS>BOND
  1   1   2  2   
  2   2   3  am  
  3   2   4  1   
  4   3   5  1   
  5   3   6  1   
  6   4   7  1   
  7   4  33  1   
  8   4  34  1   
  9   5   8  1   
 10   5  35  1   
 11   5  36  1   
 12   6   9  1   
 13   6  37  1   
 14   6  38  1   
 15   7  10  1   
 16   7  39  1   
 17   7  40  1   
 18   8  10  1   
 19   8  11  1   
 20   8  12  1   
 21   9  13  1   
 22   9  14  1   
 23   9  41  1   
 24  11  15  1   
 25  11  42  1   
 26  11  43  1   
 27  12  16  1   
 28  12  44  1   
 29  12  45  1   
 30  13  17  1   
 31  13  46  1   
 32  13  47  1   
 33  14  17  1   
 34  14  48  1   
 35  14  49  1   
 36  15  18  1   
 37  15  50  1   
 38  15  51  1   
 39  16  18  1   
 40  16  52  1   
 41  16  53  1   
 42  17  54  1   
 43  17  55  1   
 44  18  19  am  
 45  19  20  2   
 46  19  21  1   
 47  21  22  2   
 48  21  23  1   
 49  22  24  1   
 50  23  25  2   
 51  23  56  1   
 52  24  25  1   
 53  24  26  1   
 54  25  27  1   
 55  26  57  1   
 56  26  58  1   
 57  26  59  1   
 58  27  28  ar  
 59  27  29  ar  
 60  28  30  ar  
 61  28  60  1   
 62  29  31  ar  
 63  29  61  1   
 64  30  32  ar  
 65  30  62  1   
 66  31  32  ar  
 67  31  63  1   
 68  32  64  1   
@<TRIPOS>SUBSTRUCTURE
  1 ****  16 GROUP 4 **** **** 0

# MOE 2024.06 (io_trps.svl 2023.06)
