@<TRIPOS>MOLECULE
NONAME
25 25 1 0 0 
SMALL
USER_CHARGES


@<TRIPOS>ATOM
  1 CL       0.9400    -0.0480     1.9190 Cl    1 <1>  -0.1770 
  2 C        2.1520     0.8180     1.0060 C.ar  1 <1>   0.1770 
  3 C        3.2890     0.1650     0.5490 C.ar  1 <1>   0.0830 
  4 C        1.9510     2.1630     0.7570 C.ar  1 <1>  -0.1500 
  5 O        3.4820    -1.1500     0.8020 O.3   1 <1>  -0.3630 
  6 C        4.2410     0.8850    -0.1550 C.ar  1 <1>  -0.1500 
  7 C        2.9040     2.8890     0.0450 C.ar  1 <1>  -0.1430 
  8 C        3.1290    -2.0730    -0.2100 C.3   1 <1>   1.3000 
  9 C        4.0460     2.2340    -0.4060 C.ar  1 <1>  -0.1500 
 10 C        2.7390     4.3730    -0.2460 C.3   1 <1>   0.5660 
 11 F        1.8920    -1.8710    -0.6460 F     1 <1>  -0.3400 
 12 F        3.9520    -1.9720    -1.2470 F     1 <1>  -0.3400 
 13 F        3.2060    -3.3120     0.2510 F     1 <1>  -0.3400 
 14 N        2.8470     5.0850     1.0250 N.4   1 <1>  -0.8530 
 15 C        1.3970     4.7100    -0.8860 C.3   1 <1>  -0.2400 
 16 H        1.0450     2.6080     1.1270 H     1 <1>   0.1500 
 17 H        5.1330     0.3920    -0.5060 H     1 <1>   0.1500 
 18 H        4.8040     2.7620    -0.9640 H     1 <1>   0.1500 
 19 H        3.5310     4.6890    -0.9080 H     1 <1>   0.0800 
 20 H        2.0900     4.7900     1.6460 H     1 <1>   0.4500 
 21 H        2.7970     6.0990     0.8880 H     1 <1>   0.4500 
 22 H        3.7350     4.8420     1.4750 H     1 <1>   0.4500 
 23 H        0.5710     4.4650    -0.2430 H     1 <1>   0.0800 
 24 H        1.2880     4.1430    -1.7950 H     1 <1>   0.0800 
 25 H        1.3510     5.7520    -1.1450 H     1 <1>   0.0800 
@<TRIPOS>BOND
  1   1   2  1   
  2   2   3  ar  
  3   2   4  ar  
  4   3   5  1   
  5   3   6  ar  
  6   4   7  ar  
  7   4  16  1   
  8   5   8  1   
  9   6   9  ar  
 10   6  17  1   
 11   7   9  ar  
 12   7  10  1   
 13   8  11  1   
 14   8  12  1   
 15   8  13  1   
 16   9  18  1   
 17  10  14  1   
 18  10  15  1   
 19  10  19  1   
 20  14  20  1   
 21  14  21  1   
 22  14  22  1   
 23  15  23  1   
 24  15  24  1   
 25  15  25  1   
@<TRIPOS>SUBSTRUCTURE
  1 ****   3 GROUP 4 **** **** 0

# MOE 2024.06 (io_trps.svl 2023.06)
