@<TRIPOS>MOLECULE
NONAME
42 44 1 0 0 
SMALL
USER_CHARGES


@<TRIPOS>ATOM
  1 S       -2.0640    -0.7570     1.6680 S.3   1 <1>  -0.4600 
  2 C       -1.2250    -1.2130     0.1070 C.3   1 <1>   0.1310 
  3 C       -1.5300     0.9520     1.9470 C.3   1 <1>  -0.0100 
  4 C       -1.3390    -2.7050    -0.1960 C.2   1 <1>   0.5690 
  5 O       -0.3170    -3.3510    -0.2200 O.2   1 <1>  -0.5700 
  6 N       -2.5480    -3.2850    -0.4770 N.am  1 <1>  -0.6600 
  7 C       -3.8720    -2.6130    -0.4810 C.3   1 <1>   0.1400 
  8 C       -2.6930    -4.7390    -0.7140 C.3   1 <1>   0.1400 
  9 C       -4.8590    -3.6980    -0.9080 C.3   1 <1>   0.2000 
 10 C       -4.1880    -5.0240    -0.5560 C.3   1 <1>  -0.0800 
 11 O       -6.0660    -3.5840    -0.2360 O.3   1 <1>  -0.6800 
 12 C       -4.6850    -6.1950    -1.4190 C.3   1 <1>  -0.0170 
 13 C       -4.0160    -7.5030    -1.0100 C.ar  1 <1>  -0.1440 
 14 C       -4.4130    -8.2290     0.1380 C.ar  1 <1>   0.0000 
 15 C       -2.9900    -8.0100    -1.7540 C.ar  1 <1>  -0.1500 
 16 C       -3.7070    -9.4200     0.4390 C.ar  1 <1>   0.3100 
 17 C       -5.4660    -7.8470     1.0020 C.ar  1 <1>  -0.1500 
 18 C       -2.3640    -9.2020    -1.3700 C.ar  1 <1>   0.1600 
 19 N       -2.6890    -9.8920    -0.3240 N.ar  1 <1>  -0.6200 
 20 C       -4.0710   -10.1560     1.5780 C.ar  1 <1>  -0.1500 
 21 C       -5.7960    -8.5890     2.1040 C.ar  1 <1>  -0.1500 
 22 C       -5.0910    -9.7570     2.3990 C.ar  1 <1>  -0.1500 
 23 H       -1.6680    -0.6330    -0.6800 H     1 <1>   0.0800 
 24 H       -0.1910    -0.9440     0.2180 H     1 <1>   0.0800 
 25 H       -1.9930     1.2950     2.8560 H     1 <1>   0.0800 
 26 H       -1.8500     1.5450     1.1090 H     1 <1>   0.0800 
 27 H       -0.4590     0.9560     2.0400 H     1 <1>   0.0800 
 28 H       -4.0990    -2.2680     0.5130 H     1 <1>   0.0800 
 29 H       -3.8790    -1.7910    -1.1740 H     1 <1>   0.0800 
 30 H       -2.3570    -4.9620    -1.7110 H     1 <1>   0.0800 
 31 H       -2.1080    -5.3050    -0.0070 H     1 <1>   0.0800 
 32 H       -5.0500    -3.6230    -1.9660 H     1 <1>   0.0800 
 33 H       -4.3550    -5.2390     0.4840 H     1 <1>   0.0800 
 34 H       -5.9170    -3.6100     0.7300 H     1 <1>   0.4000 
 35 H       -4.4750    -5.9890    -2.4540 H     1 <1>   0.0800 
 36 H       -5.7540    -6.2880    -1.3340 H     1 <1>   0.0800 
 37 H       -2.6360    -7.5160    -2.6400 H     1 <1>   0.1500 
 38 H       -6.0250    -6.9550     0.7920 H     1 <1>   0.1500 
 39 H       -1.5580    -9.5660    -1.9850 H     1 <1>   0.1500 
 40 H       -3.5150   -11.0520     1.7840 H     1 <1>   0.1500 
 41 H       -6.5990    -8.2850     2.7530 H     1 <1>   0.1500 
 42 H       -5.3580   -10.3320     3.2690 H     1 <1>   0.1500 
@<TRIPOS>BOND
  1   1   2  1   
  2   1   3  1   
  3   2   4  1   
  4   2  23  1   
  5   2  24  1   
  6   3  25  1   
  7   3  26  1   
  8   3  27  1   
  9   4   5  2   
 10   4   6  am  
 11   6   7  1   
 12   6   8  1   
 13   7   9  1   
 14   7  28  1   
 15   7  29  1   
 16   8  10  1   
 17   8  30  1   
 18   8  31  1   
 19   9  10  1   
 20   9  11  1   
 21   9  32  1   
 22  10  12  1   
 23  10  33  1   
 24  11  34  1   
 25  12  13  1   
 26  12  35  1   
 27  12  36  1   
 28  13  14  ar  
 29  13  15  ar  
 30  14  16  ar  
 31  14  17  ar  
 32  15  18  ar  
 33  15  37  1   
 34  16  19  ar  
 35  16  20  ar  
 36  17  21  ar  
 37  17  38  1   
 38  18  19  ar  
 39  18  39  1   
 40  20  22  ar  
 41  20  40  1   
 42  21  22  ar  
 43  21  41  1   
 44  22  42  1   
@<TRIPOS>SUBSTRUCTURE
  1 ****  10 GROUP 4 **** **** 0

# MOE 2024.06 (io_trps.svl 2023.06)
