@<TRIPOS>MOLECULE
NONAME
46 48 1 0 0 
SMALL
USER_CHARGES


@<TRIPOS>ATOM
  1 F        0.7940     1.4080    -0.6560 F     1 <1>  -0.1900 
  2 C       -0.5020     1.2790    -0.5540 C.ar  1 <1>   0.1900 
  3 C       -1.2780     2.3580    -0.1270 C.ar  1 <1>   0.0540 
  4 C       -1.0340     0.0520    -0.9020 C.ar  1 <1>  -0.1500 
  5 C       -0.7210     3.6420     0.2490 C.2   1 <1>   0.4620 
  6 C       -2.6570     2.1370    -0.0790 C.ar  1 <1>  -0.1500 
  7 C       -2.4040    -0.1320    -0.8350 C.ar  1 <1>  -0.1500 
  8 N        0.4090     3.8540     0.8270 N.2   1 <1>  -0.4100 
  9 N       -1.3830     4.7840     0.0320 N.2   1 <1>  -0.5650 
 10 C       -3.2120     0.9150    -0.4240 C.ar  1 <1>  -0.1500 
 11 O        0.5340     5.1310     1.0030 O.3   1 <1>  -0.0190 
 12 C       -0.5670     5.6290     0.5070 C.2   1 <1>   0.2980 
 13 C       -0.7630     7.1310     0.5380 C.3   1 <1>   0.0200 
 14 C        0.1810     7.8280    -0.4500 C.3   1 <1>  -0.0990 
 15 C        0.0360     9.3300    -0.3710 C.2   1 <1>   0.5690 
 16 O       -1.0340     9.8300    -0.6130 O.2   1 <1>  -0.5700 
 17 N        1.1110    10.0730    -0.0280 N.am  1 <1>  -0.7300 
 18 C        1.1370    11.5430    -0.0190 C.3   1 <1>   0.3210 
 19 C        2.5230    11.9700    -0.4430 C.2   1 <1>  -0.1810 
 20 C        3.0680    11.8020    -1.7100 C.2   1 <1>   0.1390 
 21 C        3.5010    12.5670     0.2710 C.2   1 <1>  -0.3020 
 22 N        4.2840    12.2480    -1.7840 N.2   1 <1>  -0.7070 
 23 N        4.5540    12.7270    -0.5560 N.pl3 1 <1>   0.3140 
 24 C        5.8560    13.3370    -0.2230 C.3   1 <1>   0.0960 
 25 C        6.7690    12.3260     0.4860 C.3   1 <1>  -0.1600 
 26 C        8.1250    12.9480     0.8360 C.3   1 <1>  -0.2400 
 27 H       -0.3850    -0.7440    -1.2210 H     1 <1>   0.1500 
 28 H       -3.3040     2.9380     0.2370 H     1 <1>   0.1500 
 29 H       -2.8380    -1.0800    -1.1010 H     1 <1>   0.1500 
 30 H       -4.2790     0.7780    -0.3740 H     1 <1>   0.1500 
 31 H       -0.5830     7.4870     1.5370 H     1 <1>   0.0800 
 32 H       -1.7840     7.3570     0.2820 H     1 <1>   0.0800 
 33 H       -0.0550     7.5150    -1.4510 H     1 <1>   0.0800 
 34 H        1.1980     7.5500    -0.2420 H     1 <1>   0.0800 
 35 H        2.0240     9.6460     0.1330 H     1 <1>   0.3700 
 36 H        0.9240    11.9000     0.9730 H     1 <1>   0.0800 
 37 H        0.3990    11.9370    -0.6990 H     1 <1>   0.0800 
 38 H        2.5520    11.3510    -2.5420 H     1 <1>   0.1500 
 39 H        3.5130    12.8810     1.2990 H     1 <1>   0.1500 
 40 H        5.6820    14.1900     0.4050 H     1 <1>   0.0800 
 41 H        6.3130    13.6690    -1.1370 H     1 <1>   0.0800 
 42 H        6.9260    11.4790    -0.1620 H     1 <1>   0.0800 
 43 H        6.2940    11.9810     1.3880 H     1 <1>   0.0800 
 44 H        8.6280    13.2800    -0.0550 H     1 <1>   0.0800 
 45 H        8.7470    12.2200     1.3260 H     1 <1>   0.0800 
 46 H        7.9980    13.7880     1.4970 H     1 <1>   0.0800 
@<TRIPOS>BOND
  1   1   2  1   
  2   2   3  ar  
  3   2   4  ar  
  4   3   5  1   
  5   3   6  ar  
  6   4   7  ar  
  7   4  27  1   
  8   5   8  2   
  9   5   9  1   
 10   6  10  ar  
 11   6  28  1   
 12   7  10  ar  
 13   7  29  1   
 14   8  11  1   
 15   9  12  2   
 16  10  30  1   
 17  11  12  1   
 18  12  13  1   
 19  13  14  1   
 20  13  31  1   
 21  13  32  1   
 22  14  15  1   
 23  14  33  1   
 24  14  34  1   
 25  15  16  2   
 26  15  17  am  
 27  17  18  1   
 28  17  35  1   
 29  18  19  1   
 30  18  36  1   
 31  18  37  1   
 32  19  20  1   
 33  19  21  2   
 34  20  22  2   
 35  20  38  1   
 36  21  23  1   
 37  21  39  1   
 38  22  23  1   
 39  23  24  1   
 40  24  25  1   
 41  24  40  1   
 42  24  41  1   
 43  25  26  1   
 44  25  42  1   
 45  25  43  1   
 46  26  44  1   
 47  26  45  1   
 48  26  46  1   
@<TRIPOS>SUBSTRUCTURE
  1 ****  14 GROUP 4 **** **** 0

# MOE 2024.06 (io_trps.svl 2023.06)
