@<TRIPOS>MOLECULE
NONAME
45 47 1 0 0 
SMALL
USER_CHARGES


@<TRIPOS>ATOM
  1 F       -1.1190    -0.2620    -0.6080 F     1 <1>  -0.3400 
  2 C       -1.4490    -0.7070     0.6000 C.3   1 <1>   1.1640 
  3 F       -0.4010    -0.4440     1.3780 F     1 <1>  -0.3400 
  4 F       -2.4260     0.0820     1.0370 F     1 <1>  -0.3400 
  5 C       -1.8370    -2.2120     0.6050 C.ar  1 <1>   0.1660 
  6 N       -2.9100    -2.6160    -0.0580 N.ar  1 <1>  -0.6200 
  7 C       -1.0730    -3.1330     1.2970 C.ar  1 <1>  -0.1500 
  8 C       -3.2000    -3.9080    -0.0280 C.ar  1 <1>   0.7200 
  9 C       -1.4640    -4.4490     1.2740 C.ar  1 <1>   0.1600 
 10 N       -2.5270    -4.8530     0.6230 N.ar  1 <1>  -0.6200 
 11 N       -4.3220    -4.3060    -0.7150 N.pl3 1 <1>  -0.8380 
 12 C       -4.5270    -5.7330    -1.0630 C.3   1 <1>   0.2090 
 13 C       -5.5840    -3.5310    -0.5720 C.3   1 <1>   0.2090 
 14 C       -5.3360    -6.4110     0.0690 C.3   1 <1>   0.4230 
 15 C       -6.4050    -4.1730     0.5540 C.3   1 <1>  -0.1600 
 16 N       -5.4540    -7.9260    -0.0620 N.4   1 <1>  -0.9590 
 17 C       -6.6940    -5.6880     0.3320 C.3   1 <1>   0.0000 
 18 C       -6.5450    -8.5280     0.7710 C.3   1 <1>   0.3430 
 19 C       -5.5330    -8.4470    -1.4660 C.3   1 <1>   0.2630 
 20 C       -7.3400    -6.2650     1.6260 C.3   1 <1>  -0.1600 
 21 C       -7.6460    -5.8800    -0.8830 C.3   1 <1>   0.1200 
 22 C       -6.8320    -7.6710     2.0020 C.3   1 <1>  -0.1600 
 23 O       -8.7770    -5.0890    -0.7790 O.3   1 <1>  -0.6800 
 24 H       -0.1920    -2.8490     1.8450 H     1 <1>   0.1500 
 25 H       -0.8840    -5.1860     1.8070 H     1 <1>   0.1500 
 26 H       -5.0440    -5.7850    -2.0030 H     1 <1>   0.0800 
 27 H       -3.5740    -6.2190    -1.1790 H     1 <1>   0.0800 
 28 H       -5.3800    -2.5010    -0.3300 H     1 <1>   0.0800 
 29 H       -6.1290    -3.5430    -1.5010 H     1 <1>   0.0800 
 30 H       -4.7520    -6.2330     0.9570 H     1 <1>   0.0800 
 31 H       -5.8490    -4.0360     1.4650 H     1 <1>   0.0800 
 32 H       -7.3210    -3.6200     0.6690 H     1 <1>   0.0800 
 33 H       -4.5690    -8.2770     0.3350 H     1 <1>   0.4500 
 34 H       -7.4490    -8.6010     0.1890 H     1 <1>   0.0800 
 35 H       -6.2660    -9.5240     1.0760 H     1 <1>   0.0800 
 36 H       -6.4170    -8.0760    -1.9580 H     1 <1>   0.0800 
 37 H       -5.5690    -9.5240    -1.4620 H     1 <1>   0.0800 
 38 H       -4.6680    -8.1420    -2.0340 H     1 <1>   0.0800 
 39 H       -7.1440    -5.6200     2.4670 H     1 <1>   0.0800 
 40 H       -8.4100    -6.2990     1.5220 H     1 <1>   0.0800 
 41 H       -7.9760    -6.8990    -0.9690 H     1 <1>   0.0800 
 42 H       -7.1690    -5.5990    -1.8050 H     1 <1>   0.0800 
 43 H       -7.5720    -8.1610     2.6110 H     1 <1>   0.0800 
 44 H       -5.9360    -7.5960     2.5960 H     1 <1>   0.0800 
 45 H       -9.2950    -5.2870     0.0270 H     1 <1>   0.4000 
@<TRIPOS>BOND
  1   1   2  1   
  2   2   3  1   
  3   2   4  1   
  4   2   5  1   
  5   5   6  ar  
  6   5   7  ar  
  7   6   8  ar  
  8   7   9  ar  
  9   7  24  1   
 10   8  10  ar  
 11   8  11  1   
 12   9  10  ar  
 13   9  25  1   
 14  11  12  1   
 15  11  13  1   
 16  12  14  1   
 17  12  26  1   
 18  12  27  1   
 19  13  15  1   
 20  13  28  1   
 21  13  29  1   
 22  14  16  1   
 23  14  17  1   
 24  14  30  1   
 25  15  17  1   
 26  15  31  1   
 27  15  32  1   
 28  16  18  1   
 29  16  19  1   
 30  16  33  1   
 31  17  20  1   
 32  17  21  1   
 33  18  22  1   
 34  18  34  1   
 35  18  35  1   
 36  19  36  1   
 37  19  37  1   
 38  19  38  1   
 39  20  22  1   
 40  20  39  1   
 41  20  40  1   
 42  21  23  1   
 43  21  41  1   
 44  21  42  1   
 45  22  43  1   
 46  22  44  1   
 47  23  45  1   
@<TRIPOS>SUBSTRUCTURE
  1 ****  11 GROUP 4 **** **** 0

# MOE 2024.06 (io_trps.svl 2023.06)
