@<TRIPOS>MOLECULE
NONAME
46 49 1 0 0 
SMALL
USER_CHARGES


@<TRIPOS>ATOM
  1 O        2.3110    -0.4790     2.5240 O.2   1 <1>  -0.5700 
  2 C        2.2660    -0.8740     1.3730 C.2   1 <1>   0.5440 
  3 N        2.6000     0.0100     0.3580 N.am  1 <1>  -0.6600 
  4 C        1.8930    -2.2490     1.1100 C.ar  1 <1>   0.0860 
  5 C        2.8740     1.4410     0.7110 C.3   1 <1>   0.1400 
  6 C        3.0250    -0.4800    -0.9930 C.3   1 <1>   0.1400 
  7 C        0.8300    -2.5640     0.2620 C.ar  1 <1>  -0.1500 
  8 C        2.5990    -3.3020     1.6930 C.ar  1 <1>  -0.1500 
  9 C        4.3840     1.7800     0.8400 C.3   1 <1>   0.4230 
 10 C        4.4440    -0.0480    -1.4250 C.3   1 <1>  -0.0800 
 11 C        0.5000    -3.8780    -0.0070 C.ar  1 <1>   0.0830 
 12 C        2.2770    -4.6220     1.4280 C.ar  1 <1>  -0.1500 
 13 N        5.0040     2.2260    -0.4620 N.4   1 <1>  -0.9590 
 14 C        5.2520     0.6670     1.4900 C.3   1 <1>   0.1200 
 15 C        5.5980    -0.6080    -0.5650 C.3   1 <1>   0.1200 
 16 C        4.5330     1.4620    -1.6570 C.3   1 <1>   0.3430 
 17 O       -0.5450    -4.1340    -0.8340 O.3   1 <1>  -0.3630 
 18 C        1.2340    -4.9170     0.5690 C.ar  1 <1>   0.0830 
 19 C        4.8370     3.6960    -0.6770 C.3   1 <1>   0.2630 
 20 O        5.3230    -0.5560     0.7980 O.3   1 <1>  -0.5600 
 21 C       -1.0690    -5.4490    -0.8070 C.3   1 <1>   0.1200 
 22 O        0.9470    -6.2120     0.3000 O.3   1 <1>  -0.3630 
 23 C        0.0710    -6.4760    -0.7800 C.3   1 <1>   0.1200 
 24 H        2.4030     2.0840    -0.0090 H     1 <1>   0.0800 
 25 H        2.4090     1.6670     1.6550 H     1 <1>   0.0800 
 26 H        2.9980    -1.5550    -1.0180 H     1 <1>   0.0800 
 27 H        2.3070    -0.1340    -1.7170 H     1 <1>   0.0800 
 28 H        0.2530    -1.7770    -0.1850 H     1 <1>   0.1500 
 29 H        3.4110    -3.0730     2.3620 H     1 <1>   0.1500 
 30 H        4.4370     2.6170     1.5140 H     1 <1>   0.0800 
 31 H        4.5780    -0.4800    -2.4010 H     1 <1>   0.0800 
 32 H        2.8310    -5.4250     1.8810 H     1 <1>   0.1500 
 33 H        6.0090     2.0270    -0.3620 H     1 <1>   0.4500 
 34 H        4.8450     0.4390     2.4600 H     1 <1>   0.0800 
 35 H        6.2570     1.0200     1.6370 H     1 <1>   0.0800 
 36 H        6.5330    -0.1080    -0.7540 H     1 <1>   0.0800 
 37 H        5.7310    -1.6510    -0.7990 H     1 <1>   0.0800 
 38 H        3.5630     1.8210    -1.9600 H     1 <1>   0.0800 
 39 H        5.2140     1.6460    -2.4720 H     1 <1>   0.0800 
 40 H        3.7920     3.9450    -0.7780 H     1 <1>   0.0800 
 41 H        5.3520     4.0060    -1.5720 H     1 <1>   0.0800 
 42 H        5.2420     4.2460     0.1580 H     1 <1>   0.0800 
 43 H       -1.6810    -5.5470     0.0720 H     1 <1>   0.0800 
 44 H       -1.6820    -5.5790    -1.6810 H     1 <1>   0.0800 
 45 H        0.6410    -6.4260    -1.6910 H     1 <1>   0.0800 
 46 H       -0.3140    -7.4720    -0.6580 H     1 <1>   0.0800 
@<TRIPOS>BOND
  1   1   2  2   
  2   2   3  am  
  3   2   4  1   
  4   3   5  1   
  5   3   6  1   
  6   4   7  ar  
  7   4   8  ar  
  8   5   9  1   
  9   5  24  1   
 10   5  25  1   
 11   6  10  1   
 12   6  26  1   
 13   6  27  1   
 14   7  11  ar  
 15   7  28  1   
 16   8  12  ar  
 17   8  29  1   
 18   9  13  1   
 19   9  14  1   
 20   9  30  1   
 21  10  15  1   
 22  10  16  1   
 23  10  31  1   
 24  11  17  1   
 25  11  18  ar  
 26  12  18  ar  
 27  12  32  1   
 28  13  16  1   
 29  13  19  1   
 30  13  33  1   
 31  14  20  1   
 32  14  34  1   
 33  14  35  1   
 34  15  20  1   
 35  15  36  1   
 36  15  37  1   
 37  16  38  1   
 38  16  39  1   
 39  17  21  1   
 40  18  22  1   
 41  19  40  1   
 42  19  41  1   
 43  19  42  1   
 44  21  23  1   
 45  21  43  1   
 46  21  44  1   
 47  22  23  1   
 48  23  45  1   
 49  23  46  1   
@<TRIPOS>SUBSTRUCTURE
  1 ****   4 GROUP 4 **** **** 0

# MOE 2024.06 (io_trps.svl 2023.06)
