@<TRIPOS>MOLECULE
NONAME
29 30 1 0 0 
SMALL
USER_CHARGES


@<TRIPOS>ATOM
  1 CL       0.8470     0.2190    -0.3960 Cl    1 <1>  -0.1770 
  2 C        0.2340    -1.4130    -0.4400 C.ar  1 <1>   0.1770 
  3 C        1.0620    -2.4540    -0.0630 C.ar  1 <1>  -0.1500 
  4 C       -1.0630    -1.6410    -0.8490 C.ar  1 <1>  -0.1500 
  5 C        0.6000    -3.7680    -0.0870 C.ar  1 <1>  -0.1440 
  6 C       -1.5360    -2.9400    -0.8800 C.ar  1 <1>  -0.1500 
  7 C       -0.7130    -3.9900    -0.5040 C.ar  1 <1>  -0.1500 
  8 C        1.5450    -4.9020     0.3330 C.3   1 <1>   0.4240 
  9 O        2.1040    -4.5360     1.5350 O.3   1 <1>  -0.6800 
 10 C        0.8750    -6.2600     0.5760 C.3   1 <1>  -0.1600 
 11 C        2.6950    -5.0680    -0.6630 C.3   1 <1>  -0.1600 
 12 C        1.8950    -7.2950     1.0480 C.3   1 <1>   0.3430 
 13 C        3.6910    -6.1220    -0.1840 C.3   1 <1>   0.3430 
 14 N        2.9910    -7.4180     0.0460 N.4   1 <1>  -0.9060 
 15 H        2.0650    -2.2170     0.2460 H     1 <1>   0.1500 
 16 H       -1.6890    -0.8140    -1.1370 H     1 <1>   0.1500 
 17 H       -2.5470    -3.1320    -1.1970 H     1 <1>   0.1500 
 18 H       -1.1330    -4.9780    -0.5480 H     1 <1>   0.1500 
 19 H        1.5070    -3.8860     1.9620 H     1 <1>   0.4000 
 20 H        0.4130    -6.6140    -0.3280 H     1 <1>   0.0800 
 21 H        0.1030    -6.1530     1.3170 H     1 <1>   0.0800 
 22 H        3.2090    -4.1310    -0.7830 H     1 <1>   0.0800 
 23 H        2.3060    -5.3410    -1.6270 H     1 <1>   0.0800 
 24 H        1.4090    -8.2480     1.1890 H     1 <1>   0.0800 
 25 H        2.3030    -6.9800     1.9960 H     1 <1>   0.0800 
 26 H        4.1400    -5.7850     0.7380 H     1 <1>   0.0800 
 27 H        4.4730    -6.2450    -0.9160 H     1 <1>   0.0800 
 28 H        2.6140    -7.7690    -0.8420 H     1 <1>   0.4500 
 29 H        3.6730    -8.1130     0.3770 H     1 <1>   0.4500 
@<TRIPOS>BOND
  1   1   2  1   
  2   2   3  ar  
  3   2   4  ar  
  4   3   5  ar  
  5   3  15  1   
  6   4   6  ar  
  7   4  16  1   
  8   5   7  ar  
  9   5   8  1   
 10   6   7  ar  
 11   6  17  1   
 12   7  18  1   
 13   8   9  1   
 14   8  10  1   
 15   8  11  1   
 16   9  19  1   
 17  10  12  1   
 18  10  20  1   
 19  10  21  1   
 20  11  13  1   
 21  11  22  1   
 22  11  23  1   
 23  12  14  1   
 24  12  24  1   
 25  12  25  1   
 26  13  14  1   
 27  13  26  1   
 28  13  27  1   
 29  14  28  1   
 30  14  29  1   
@<TRIPOS>SUBSTRUCTURE
  1 ****   5 GROUP 4 **** **** 0

# MOE 2024.06 (io_trps.svl 2023.06)
