@<TRIPOS>MOLECULE
NONAME
54 57 1 0 0 
SMALL
USER_CHARGES


@<TRIPOS>ATOM
  1 O       -0.6210    -1.2020     0.8590 O.3   1 <1>  -0.3630 
  2 C       -1.7020    -1.3180     0.0500 C.ar  1 <1>   0.0820 
  3 C       -0.0630     0.0930     0.9950 C.3   1 <1>   0.1200 
  4 C       -2.4250    -0.1980    -0.3590 C.ar  1 <1>   0.0820 
  5 C       -2.0800    -2.5790    -0.3730 C.ar  1 <1>  -0.1500 
  6 C       -1.1750     1.1420     1.1390 C.3   1 <1>   0.1200 
  7 O       -2.0880     1.0470     0.0600 O.3   1 <1>  -0.3630 
  8 C       -3.5080    -0.3500    -1.2050 C.ar  1 <1>  -0.1500 
  9 C       -3.1800    -2.7350    -1.2070 C.ar  1 <1>  -0.1430 
 10 C       -3.8850    -1.6140    -1.6290 C.ar  1 <1>  -0.1500 
 11 C       -3.6060    -4.1210    -1.6410 C.3   1 <1>   0.4860 
 12 N       -4.2620    -4.7780    -0.4700 N.4   1 <1>  -0.9590 
 13 C       -4.3610    -6.2760    -0.6320 C.3   1 <1>   0.3430 
 14 C       -5.5750    -4.1180    -0.1830 C.3   1 <1>   0.3430 
 15 C       -5.1460    -6.9990     0.5160 C.3   1 <1>   0.4230 
 16 C       -6.2160    -4.7930     1.0280 C.3   1 <1>  -0.1600 
 17 N       -5.2650    -8.5200     0.3690 N.4   1 <1>  -0.9590 
 18 C       -6.5090    -6.3000     0.7840 C.3   1 <1>   0.0000 
 19 C       -6.3720    -9.1350     1.1850 C.3   1 <1>   0.3430 
 20 C       -5.3500    -9.0630    -1.0310 C.3   1 <1>   0.2630 
 21 C       -7.1560    -6.8790     2.0720 C.3   1 <1>  -0.1600 
 22 C       -7.4590    -6.5100    -0.4350 C.3   1 <1>   0.1200 
 23 C       -6.6700    -8.2970     2.4260 C.3   1 <1>  -0.1600 
 24 O       -8.3910    -5.4950    -0.5280 O.3   1 <1>  -0.6800 
 25 H        0.5750     0.0920     1.8610 H     1 <1>   0.0800 
 26 H        0.5300     0.2960     0.1210 H     1 <1>   0.0800 
 27 H       -1.4910    -3.4150    -0.0410 H     1 <1>   0.1500 
 28 H       -0.7650     2.1360     1.1380 H     1 <1>   0.0800 
 29 H       -1.7190     0.9880     2.0530 H     1 <1>   0.0800 
 30 H       -4.0480     0.5250    -1.5240 H     1 <1>   0.1500 
 31 H       -4.7310    -1.7010    -2.2910 H     1 <1>   0.1500 
 32 H       -2.7320    -4.6750    -1.9450 H     1 <1>   0.0800 
 33 H       -4.2850    -4.0590    -2.4760 H     1 <1>   0.0800 
 34 H       -3.6470    -4.5390     0.3240 H     1 <1>   0.4500 
 35 H       -4.8580    -6.4800    -1.5650 H     1 <1>   0.0800 
 36 H       -3.3670    -6.6880    -0.6850 H     1 <1>   0.0800 
 37 H       -5.4260    -3.0690     0.0290 H     1 <1>   0.0800 
 38 H       -6.2350    -4.1970    -1.0330 H     1 <1>   0.0800 
 39 H       -4.5670    -6.8330     1.4090 H     1 <1>   0.0800 
 40 H       -5.5720    -4.6610     1.8800 H     1 <1>   0.0800 
 41 H       -7.1290    -4.2700     1.2600 H     1 <1>   0.0800 
 42 H       -4.4020    -8.9140     0.7810 H     1 <1>   0.4500 
 43 H       -7.2720    -9.2000     0.5940 H     1 <1>   0.0800 
 44 H       -6.1000   -10.1370     1.4790 H     1 <1>   0.0800 
 45 H       -6.2410    -8.7080    -1.5250 H     1 <1>   0.0800 
 46 H       -5.3870   -10.1420    -1.0090 H     1 <1>   0.0800 
 47 H       -4.4890    -8.7730    -1.6110 H     1 <1>   0.0800 
 48 H       -6.9520    -6.2490     2.9230 H     1 <1>   0.0800 
 49 H       -8.2290    -6.8880     1.9650 H     1 <1>   0.0800 
 50 H       -7.9920    -7.4440    -0.3780 H     1 <1>   0.0800 
 51 H       -6.9170    -6.4920    -1.3630 H     1 <1>   0.0800 
 52 H       -7.4280    -8.7910     3.0110 H     1 <1>   0.0800 
 53 H       -5.7880    -8.2480     3.0410 H     1 <1>   0.0800 
 54 H       -9.1830    -5.6630     0.0280 H     1 <1>   0.4000 
@<TRIPOS>BOND
  1   1   2  1   
  2   1   3  1   
  3   2   4  ar  
  4   2   5  ar  
  5   3   6  1   
  6   3  25  1   
  7   3  26  1   
  8   4   7  1   
  9   4   8  ar  
 10   5   9  ar  
 11   5  27  1   
 12   6   7  1   
 13   6  28  1   
 14   6  29  1   
 15   8  10  ar  
 16   8  30  1   
 17   9  10  ar  
 18   9  11  1   
 19  10  31  1   
 20  11  12  1   
 21  11  32  1   
 22  11  33  1   
 23  12  13  1   
 24  12  14  1   
 25  12  34  1   
 26  13  15  1   
 27  13  35  1   
 28  13  36  1   
 29  14  16  1   
 30  14  37  1   
 31  14  38  1   
 32  15  17  1   
 33  15  18  1   
 34  15  39  1   
 35  16  18  1   
 36  16  40  1   
 37  16  41  1   
 38  17  19  1   
 39  17  20  1   
 40  17  42  1   
 41  18  21  1   
 42  18  22  1   
 43  19  23  1   
 44  19  43  1   
 45  19  44  1   
 46  20  45  1   
 47  20  46  1   
 48  20  47  1   
 49  21  23  1   
 50  21  48  1   
 51  21  49  1   
 52  22  24  1   
 53  22  50  1   
 54  22  51  1   
 55  23  52  1   
 56  23  53  1   
 57  24  54  1   
@<TRIPOS>SUBSTRUCTURE
  1 ****  12 GROUP 4 **** **** 0

# MOE 2024.06 (io_trps.svl 2023.06)
