@<TRIPOS>MOLECULE
NONAME
52 54 1 0 0 
SMALL
USER_CHARGES


@<TRIPOS>ATOM
  1 F       -0.3230     0.0110     0.4440 F     1 <1>  -0.1900 
  2 C       -1.5160     0.3910     0.0710 C.ar  1 <1>   0.1900 
  3 C       -2.6030     0.0270     0.8400 C.ar  1 <1>  -0.1500 
  4 C       -1.6470     1.1420    -1.0780 C.ar  1 <1>  -0.1500 
  5 C       -3.8750     0.4280     0.4550 C.ar  1 <1>  -0.1440 
  6 C       -2.9160     1.5360    -1.4630 C.ar  1 <1>  -0.1500 
  7 C       -4.0300     1.1840    -0.7090 C.ar  1 <1>  -0.1430 
  8 C       -5.0510     0.0100     1.3380 C.3   1 <1>   0.0440 
  9 C       -5.3980     1.6450    -1.1950 C.3   1 <1>  -0.0960 
 10 C       -5.5810    -1.3640     0.9480 C.2   1 <1>   0.5690 
 11 O       -5.0130    -2.3470     1.3720 O.2   1 <1>  -0.5700 
 12 N       -6.6920    -1.5120     0.1570 N.am  1 <1>  -0.6600 
 13 C       -6.9010    -2.7920    -0.5430 C.3   1 <1>   0.1400 
 14 C       -7.9850    -0.8340     0.4280 C.3   1 <1>   0.1400 
 15 C       -7.8140    -3.6030     0.3920 C.3   1 <1>   0.4230 
 16 C       -8.9760    -1.8200     1.1050 C.3   1 <1>  -0.1600 
 17 N       -7.4790    -5.0740     0.4780 N.4   1 <1>  -0.9590 
 18 C       -9.3350    -3.1310     0.2110 C.3   1 <1>   0.0000 
 19 C       -7.5320    -5.7410    -0.8350 C.3   1 <1>   0.3430 
 20 C       -6.1520    -5.2750     1.1480 C.3   1 <1>   0.2630 
 21 C       -9.7160    -4.3820    -0.7430 C.3   1 <1>  -0.1600 
 22 C      -10.8590    -2.6460     0.1220 C.3   1 <1>   0.1200 
 23 C       -8.6840    -5.1370    -1.6180 C.3   1 <1>  -0.1600 
 24 O      -10.9650    -1.6460    -0.8430 O.3   1 <1>  -0.6800 
 25 H       -2.4460    -0.5660     1.7230 H     1 <1>   0.1500 
 26 H       -0.7790     1.4080    -1.6520 H     1 <1>   0.1500 
 27 H       -3.0290     2.1200    -2.3600 H     1 <1>   0.1500 
 28 H       -5.8250     0.7470     1.2970 H     1 <1>   0.0800 
 29 H       -4.7250    -0.0380     2.3600 H     1 <1>   0.0800 
 30 H       -5.3200     2.1570    -2.1370 H     1 <1>   0.0800 
 31 H       -5.8350     2.3230    -0.4840 H     1 <1>   0.0800 
 32 H       -6.0470     0.8010    -1.3300 H     1 <1>   0.0800 
 33 H       -7.3730    -2.6050    -1.4920 H     1 <1>   0.0800 
 34 H       -5.9550    -3.2770    -0.7090 H     1 <1>   0.0800 
 35 H       -7.8390     0.0180     1.0680 H     1 <1>   0.0800 
 36 H       -8.4020    -0.4810    -0.5020 H     1 <1>   0.0800 
 37 H       -7.4890    -3.2830     1.3650 H     1 <1>   0.0800 
 38 H       -8.6160    -2.0830     2.0870 H     1 <1>   0.0800 
 39 H       -9.7680    -1.1380     1.3670 H     1 <1>   0.0800 
 40 H       -8.2080    -5.4950     1.0680 H     1 <1>   0.4500 
 41 H       -6.6100    -5.5920    -1.3750 H     1 <1>   0.0800 
 42 H       -7.6860    -6.8000    -0.7000 H     1 <1>   0.0800 
 43 H       -5.3600    -4.8390     0.5600 H     1 <1>   0.0800 
 44 H       -5.9480    -6.3260     1.2770 H     1 <1>   0.0800 
 45 H       -6.1440    -4.8000     2.1160 H     1 <1>   0.0800 
 46 H      -10.2220    -5.1220    -0.1420 H     1 <1>   0.0800 
 47 H      -10.4030    -4.0960    -1.5290 H     1 <1>   0.0800 
 48 H      -11.2650    -2.2780     1.0500 H     1 <1>   0.0800 
 49 H      -11.5990    -3.3940    -0.1230 H     1 <1>   0.0800 
 50 H       -8.2900    -4.4740    -2.3680 H     1 <1>   0.0800 
 51 H       -9.1780    -5.9300    -2.1550 H     1 <1>   0.0800 
 52 H      -11.8930    -1.3500    -0.9460 H     1 <1>   0.4000 
@<TRIPOS>BOND
  1   1   2  1   
  2   2   3  ar  
  3   2   4  ar  
  4   3   5  ar  
  5   3  25  1   
  6   4   6  ar  
  7   4  26  1   
  8   5   7  ar  
  9   5   8  1   
 10   6   7  ar  
 11   6  27  1   
 12   7   9  1   
 13   8  10  1   
 14   8  28  1   
 15   8  29  1   
 16   9  30  1   
 17   9  31  1   
 18   9  32  1   
 19  10  11  2   
 20  10  12  am  
 21  12  13  1   
 22  12  14  1   
 23  13  15  1   
 24  13  33  1   
 25  13  34  1   
 26  14  16  1   
 27  14  35  1   
 28  14  36  1   
 29  15  17  1   
 30  15  18  1   
 31  15  37  1   
 32  16  18  1   
 33  16  38  1   
 34  16  39  1   
 35  17  19  1   
 36  17  20  1   
 37  17  40  1   
 38  18  21  1   
 39  18  22  1   
 40  19  23  1   
 41  19  41  1   
 42  19  42  1   
 43  20  43  1   
 44  20  44  1   
 45  20  45  1   
 46  21  23  1   
 47  21  46  1   
 48  21  47  1   
 49  22  24  1   
 50  22  48  1   
 51  22  49  1   
 52  23  50  1   
 53  23  51  1   
 54  24  52  1   
@<TRIPOS>SUBSTRUCTURE
  1 ****  12 GROUP 4 **** **** 0

# MOE 2024.06 (io_trps.svl 2023.06)
