@<TRIPOS>MOLECULE
NONAME
54 57 1 0 0 
SMALL
USER_CHARGES


@<TRIPOS>ATOM
  1 O        1.3500     1.6910    -1.5220 O.3   1 <1>  -0.0190 
  2 N        2.1860     0.6980    -1.5560 N.2   1 <1>  -0.4100 
  3 C        0.9080     1.9140    -0.3130 C.2   1 <1>  -0.0400 
  4 C        2.2650     0.2530    -0.3530 C.2   1 <1>   0.1080 
  5 C        1.4620     1.0040     0.5020 C.2   1 <1>  -0.1500 
  6 C       -0.0400     3.0690    -0.0600 C.3   1 <1>   0.0200 
  7 C        3.1170    -0.9250     0.0630 C.3   1 <1>  -0.0590 
  8 C        0.4590     4.3360    -0.7850 C.3   1 <1>  -0.0800 
  9 C       -0.2500     5.6470    -0.4520 C.3   1 <1>   0.2000 
 10 C        1.9460     4.6270    -0.5410 C.3   1 <1>   0.3430 
 11 O       -0.3860     5.7760     0.9290 O.3   1 <1>  -0.6800 
 12 C        0.7690     6.6810    -0.9350 C.3   1 <1>   0.3430 
 13 N        2.1160     6.1160    -0.5780 N.4   1 <1>  -0.9590 
 14 C        2.5870     6.6110     0.7520 C.3   1 <1>   0.4860 
 15 C        2.7050     8.1150     0.7250 C.ar  1 <1>  -0.1430 
 16 C        1.7720     8.9100     1.3470 C.ar  1 <1>   0.1600 
 17 C        3.7330     8.7570     0.0760 C.ar  1 <1>   0.1600 
 18 N        1.8310    10.2140     1.3010 N.ar  1 <1>  -0.6200 
 19 N        3.8120    10.0590     0.0200 N.ar  1 <1>  -0.6200 
 20 C        2.8520    10.7530     0.6340 C.ar  1 <1>   0.7200 
 21 N        2.9190    12.1290     0.5710 N.pl3 1 <1>  -0.8380 
 22 C        1.8370    13.0200     1.0840 C.3   1 <1>   0.2090 
 23 C        4.1420    12.8610     0.1260 C.3   1 <1>   0.2090 
 24 C        1.4530    14.0380     0.0050 C.3   1 <1>  -0.1600 
 25 C        3.7700    13.8700    -0.9640 C.3   1 <1>  -0.1600 
 26 C        2.6680    14.8310    -0.4960 C.3   1 <1>  -0.1600 
 27 H        1.3470     0.8520     1.5600 H     1 <1>   0.1500 
 28 H       -1.0190     2.8060    -0.4220 H     1 <1>   0.0800 
 29 H       -0.1060     3.2250     1.0030 H     1 <1>   0.0800 
 30 H        3.7870    -0.6360     0.8520 H     1 <1>   0.0800 
 31 H        3.6950    -1.2750    -0.7730 H     1 <1>   0.0800 
 32 H        2.4880    -1.7260     0.4080 H     1 <1>   0.0800 
 33 H        0.3480     4.1660    -1.8430 H     1 <1>   0.0800 
 34 H       -1.2140     5.7620    -0.9200 H     1 <1>   0.0800 
 35 H        2.5490     4.1430    -1.2940 H     1 <1>   0.0800 
 36 H        2.2310     4.2440     0.4260 H     1 <1>   0.0800 
 37 H       -1.2430     5.4050     1.2350 H     1 <1>   0.4000 
 38 H        0.5870     7.6470    -0.4960 H     1 <1>   0.0800 
 39 H        0.6920     6.7690    -2.0070 H     1 <1>   0.0800 
 40 H        2.8000     6.3870    -1.2960 H     1 <1>   0.4500 
 41 H        1.8880     6.3200     1.5200 H     1 <1>   0.0800 
 42 H        3.5470     6.1800     0.9880 H     1 <1>   0.0800 
 43 H        0.9490     8.4720     1.8900 H     1 <1>   0.1500 
 44 H        4.5130     8.1990    -0.4140 H     1 <1>   0.1500 
 45 H        0.9600    12.4620     1.3610 H     1 <1>   0.0800 
 46 H        2.1940    13.5320     1.9610 H     1 <1>   0.0800 
 47 H        4.5620    13.3780     0.9720 H     1 <1>   0.0800 
 48 H        4.8930    12.1920    -0.2530 H     1 <1>   0.0800 
 49 H        1.0010    13.5100    -0.8160 H     1 <1>   0.0800 
 50 H        0.7180    14.7150     0.4030 H     1 <1>   0.0800 
 51 H        4.6450    14.4300    -1.2410 H     1 <1>   0.0800 
 52 H        3.4370    13.3280    -1.8320 H     1 <1>   0.0800 
 53 H        3.0460    15.4480     0.3010 H     1 <1>   0.0800 
 54 H        2.3750    15.4740    -1.3080 H     1 <1>   0.0800 
@<TRIPOS>BOND
  1   1   2  1   
  2   1   3  1   
  3   2   4  2   
  4   3   5  2   
  5   3   6  1   
  6   4   5  1   
  7   4   7  1   
  8   5  27  1   
  9   6   8  1   
 10   6  28  1   
 11   6  29  1   
 12   7  30  1   
 13   7  31  1   
 14   7  32  1   
 15   8   9  1   
 16   8  10  1   
 17   8  33  1   
 18   9  11  1   
 19   9  12  1   
 20   9  34  1   
 21  10  13  1   
 22  10  35  1   
 23  10  36  1   
 24  11  37  1   
 25  12  13  1   
 26  12  38  1   
 27  12  39  1   
 28  13  14  1   
 29  13  40  1   
 30  14  15  1   
 31  14  41  1   
 32  14  42  1   
 33  15  16  ar  
 34  15  17  ar  
 35  16  18  ar  
 36  16  43  1   
 37  17  19  ar  
 38  17  44  1   
 39  18  20  ar  
 40  19  20  ar  
 41  20  21  1   
 42  21  22  1   
 43  21  23  1   
 44  22  24  1   
 45  22  45  1   
 46  22  46  1   
 47  23  25  1   
 48  23  47  1   
 49  23  48  1   
 50  24  26  1   
 51  24  49  1   
 52  24  50  1   
 53  25  26  1   
 54  25  51  1   
 55  25  52  1   
 56  26  53  1   
 57  26  54  1   
@<TRIPOS>SUBSTRUCTURE
  1 ****  14 GROUP 4 **** **** 0

# MOE 2024.06 (io_trps.svl 2023.06)
