@<TRIPOS>MOLECULE
NONAME
53 53 1 0 0 
SMALL
USER_CHARGES


@<TRIPOS>ATOM
  1 O       -0.6900     0.2840     1.5400 O.2   1 <1>  -0.5700 
  2 C       -1.6670     0.2900     0.8360 C.2   1 <1>   0.5690 
  3 N       -2.3640     1.3620     0.3800 N.am  1 <1>  -0.6600 
  4 C       -2.2770    -0.9970     0.3660 C.3   1 <1>  -0.0990 
  5 C       -2.0700     2.7930     0.6980 C.3   1 <1>   0.3000 
  6 C       -3.4910     0.9550    -0.4840 C.3   1 <1>   0.1400 
  7 C       -3.3040    -0.5580    -0.6930 C.3   1 <1>  -0.0800 
  8 C       -0.6780     3.1450     0.1660 C.3   1 <1>  -0.2400 
  9 C       -3.0900     3.7380     0.0450 C.3   1 <1>  -0.2400 
 10 C       -2.1350     2.9970     2.2140 C.3   1 <1>  -0.2400 
 11 C       -4.6380    -1.3110    -0.6020 C.3   1 <1>   0.3430 
 12 N       -4.4450    -2.7900    -0.7080 N.4   1 <1>  -0.9590 
 13 C       -5.6820    -3.4950    -0.2400 C.3   1 <1>   0.3430 
 14 C       -4.0660    -3.2070    -2.0990 C.3   1 <1>   0.2630 
 15 C       -5.4370    -4.9850     0.0100 C.3   1 <1>  -0.0220 
 16 C       -6.7000    -5.5980     0.5870 C.2   1 <1>  -0.2880 
 17 C       -7.6190    -6.3430    -0.0390 C.2   1 <1>  -0.2760 
 18 C       -8.8270    -6.8930     0.7140 C.3   1 <1>  -0.0220 
 19 C       -7.6100    -6.7310    -1.5160 C.3   1 <1>  -0.1020 
 20 C       -8.7350    -8.4100     0.8980 C.3   1 <1>  -0.2400 
 21 H       -1.5150    -1.6330    -0.0470 H     1 <1>   0.0800 
 22 H       -2.7340    -1.4690     1.2160 H     1 <1>   0.0800 
 23 H       -4.4170     1.1790     0.0200 H     1 <1>   0.0800 
 24 H       -3.4530     1.4740    -1.4270 H     1 <1>   0.0800 
 25 H       -2.8780    -0.6840    -1.6720 H     1 <1>   0.0800 
 26 H       -0.4620     4.1830     0.3450 H     1 <1>   0.0800 
 27 H       -0.6220     2.9630    -0.8910 H     1 <1>   0.0800 
 28 H        0.0800     2.5650     0.6610 H     1 <1>   0.0800 
 29 H       -2.8630     4.7560     0.3080 H     1 <1>   0.0800 
 30 H       -4.0850     3.5300     0.3920 H     1 <1>   0.0800 
 31 H       -3.0520     3.6680    -1.0260 H     1 <1>   0.0800 
 32 H       -1.9760     4.0310     2.4580 H     1 <1>   0.0800 
 33 H       -1.3720     2.4270     2.7130 H     1 <1>   0.0800 
 34 H       -3.0960     2.7010     2.5920 H     1 <1>   0.0800 
 35 H       -5.3040    -0.9700    -1.3780 H     1 <1>   0.0800 
 36 H       -5.0930    -1.0790     0.3490 H     1 <1>   0.0800 
 37 H       -3.6810    -3.0520    -0.0670 H     1 <1>   0.4500 
 38 H       -6.0210    -3.0540     0.6830 H     1 <1>   0.0800 
 39 H       -6.4710    -3.3840    -0.9670 H     1 <1>   0.0800 
 40 H       -4.8520    -2.9560    -2.7940 H     1 <1>   0.0800 
 41 H       -3.8960    -4.2710    -2.1420 H     1 <1>   0.0800 
 42 H       -3.1610    -2.7110    -2.4090 H     1 <1>   0.0800 
 43 H       -5.1680    -5.4830    -0.9010 H     1 <1>   0.0800 
 44 H       -4.6380    -5.1220     0.7170 H     1 <1>   0.0800 
 45 H       -6.8030    -5.3690     1.6370 H     1 <1>   0.1500 
 46 H       -8.8850    -6.4380     1.6880 H     1 <1>   0.0800 
 47 H       -9.7340    -6.6430     0.1900 H     1 <1>   0.0800 
 48 H       -8.5600    -6.4950    -1.9630 H     1 <1>   0.0800 
 49 H       -7.4380    -7.7870    -1.6220 H     1 <1>   0.0800 
 50 H       -6.8530    -6.2140    -2.0720 H     1 <1>   0.0800 
 51 H       -7.8110    -8.6680     1.3840 H     1 <1>   0.0800 
 52 H       -8.7820    -8.9150    -0.0490 H     1 <1>   0.0800 
 53 H       -9.5520    -8.7550     1.5070 H     1 <1>   0.0800 
@<TRIPOS>BOND
  1   1   2  2   
  2   2   3  am  
  3   2   4  1   
  4   3   5  1   
  5   3   6  1   
  6   4   7  1   
  7   4  21  1   
  8   4  22  1   
  9   5   8  1   
 10   5   9  1   
 11   5  10  1   
 12   6   7  1   
 13   6  23  1   
 14   6  24  1   
 15   7  11  1   
 16   7  25  1   
 17   8  26  1   
 18   8  27  1   
 19   8  28  1   
 20   9  29  1   
 21   9  30  1   
 22   9  31  1   
 23  10  32  1   
 24  10  33  1   
 25  10  34  1   
 26  11  12  1   
 27  11  35  1   
 28  11  36  1   
 29  12  13  1   
 30  12  14  1   
 31  12  37  1   
 32  13  15  1   
 33  13  38  1   
 34  13  39  1   
 35  14  40  1   
 36  14  41  1   
 37  14  42  1   
 38  15  16  1   
 39  15  43  1   
 40  15  44  1   
 41  16  17  2   
 42  16  45  1   
 43  17  18  1   
 44  17  19  1   
 45  18  20  1   
 46  18  46  1   
 47  18  47  1   
 48  19  48  1   
 49  19  49  1   
 50  19  50  1   
 51  20  51  1   
 52  20  52  1   
 53  20  53  1   
@<TRIPOS>SUBSTRUCTURE
  1 ****  11 GROUP 4 **** **** 0

# MOE 2024.06 (io_trps.svl 2023.06)
