@<TRIPOS>MOLECULE
NONAME
43 45 1 0 0 
SMALL
USER_CHARGES


@<TRIPOS>ATOM
  1 O        0.0740     0.6660    -0.2840 O.2   1 <1>  -0.5700 
  2 C       -0.0340     1.8790    -0.1730 C.2   1 <1>   0.7160 
  3 N       -1.3140     2.3810     0.0260 N.am  1 <1>  -0.6600 
  4 C        1.1760     2.7030    -0.2640 C.2   1 <1>   0.2030 
  5 C       -2.4270     1.4730     0.4320 C.3   1 <1>   0.1400 
  6 C       -1.6500     3.8270    -0.1200 C.3   1 <1>   0.1400 
  7 N        1.3160     3.9930     0.0050 N.2   1 <1>  -0.7070 
  8 C        2.4130     2.1680    -0.6610 C.2   1 <1>  -0.1500 
  9 C       -3.4380     2.2330     1.2920 C.3   1 <1>  -0.1600 
 10 C       -3.1180     3.9890    -0.5190 C.3   1 <1>  -0.1600 
 11 N        2.6200     4.2630    -0.2130 N.pl3 1 <1>   0.3000 
 12 C        3.3070     3.1760    -0.6300 C.2   1 <1>  -0.0680 
 13 C       -4.0900     3.4220     0.5470 C.3   1 <1>   0.2800 
 14 N        4.6710     3.1420    -0.9440 N.pl3 1 <1>  -0.8840 
 15 O       -4.3100     4.3850     1.5430 O.3   1 <1>  -0.5600 
 16 C       -5.4480     2.9880    -0.0560 C.3   1 <1>  -0.1600 
 17 C       -5.0820     5.5200     1.2650 C.3   1 <1>   0.1200 
 18 C       -6.3940     4.1420    -0.4000 C.3   1 <1>   0.2800 
 19 C       -6.4720     5.1130     0.7750 C.3   1 <1>  -0.1600 
 20 O       -5.8970     4.8160    -1.4880 O.3   1 <1>  -0.6800 
 21 C       -7.7770     3.6390    -0.8080 C.3   1 <1>  -0.2400 
 22 H       -2.0330     0.6450     0.9970 H     1 <1>   0.0800 
 23 H       -2.9040     1.0820    -0.4510 H     1 <1>   0.0800 
 24 H       -1.0340     4.2690    -0.8840 H     1 <1>   0.0800 
 25 H       -1.4600     4.3340     0.8110 H     1 <1>   0.0800 
 26 H        2.5780     1.1400    -0.9290 H     1 <1>   0.1500 
 27 H       -2.9110     2.5950     2.1580 H     1 <1>   0.0800 
 28 H       -4.1820     1.5440     1.6450 H     1 <1>   0.0800 
 29 H       -3.2540     3.4620    -1.4470 H     1 <1>   0.0800 
 30 H       -3.3010     5.0240    -0.7210 H     1 <1>   0.0800 
 31 H        3.0360     5.1850    -0.0460 H     1 <1>   0.2700 
 32 H        5.0040     3.8810    -1.5720 H     1 <1>   0.4000 
 33 H        4.9960     2.2300    -1.2880 H     1 <1>   0.4000 
 34 H       -5.9560     2.3800     0.6690 H     1 <1>   0.0800 
 35 H       -5.2950     2.3680    -0.9210 H     1 <1>   0.0800 
 36 H       -4.5730     6.1340     0.5450 H     1 <1>   0.0800 
 37 H       -5.1660     6.0810     2.1790 H     1 <1>   0.0800 
 38 H       -7.0350     5.9850     0.4960 H     1 <1>   0.0800 
 39 H       -6.9880     4.6430     1.5930 H     1 <1>   0.0800 
 40 H       -4.9950     5.1190    -1.2870 H     1 <1>   0.4000 
 41 H       -8.2350     3.1050     0.0050 H     1 <1>   0.0800 
 42 H       -7.6990     2.9760    -1.6500 H     1 <1>   0.0800 
 43 H       -8.4110     4.4670    -1.0700 H     1 <1>   0.0800 
@<TRIPOS>BOND
  1   1   2  2   
  2   2   3  am  
  3   2   4  1   
  4   3   5  1   
  5   3   6  1   
  6   4   7  2   
  7   4   8  1   
  8   5   9  1   
  9   5  22  1   
 10   5  23  1   
 11   6  10  1   
 12   6  24  1   
 13   6  25  1   
 14   7  11  1   
 15   8  12  2   
 16   8  26  1   
 17   9  13  1   
 18   9  27  1   
 19   9  28  1   
 20  10  13  1   
 21  10  29  1   
 22  10  30  1   
 23  11  12  1   
 24  11  31  1   
 25  12  14  1   
 26  13  15  1   
 27  13  16  1   
 28  14  32  1   
 29  14  33  1   
 30  15  17  1   
 31  16  18  1   
 32  16  34  1   
 33  16  35  1   
 34  17  19  1   
 35  17  36  1   
 36  17  37  1   
 37  18  19  1   
 38  18  20  1   
 39  18  21  1   
 40  19  38  1   
 41  19  39  1   
 42  20  40  1   
 43  21  41  1   
 44  21  42  1   
 45  21  43  1   
@<TRIPOS>SUBSTRUCTURE
  1 ****   6 GROUP 4 **** **** 0

# MOE 2024.06 (io_trps.svl 2023.06)
