@<TRIPOS>MOLECULE
NONAME
48 51 1 0 0 
SMALL
USER_CHARGES


@<TRIPOS>ATOM
  1 O       -2.8320    -0.3720    -2.6160 O.2   1 <1>  -0.5700 
  2 C       -2.8460    -0.8320    -1.4980 C.2   1 <1>   0.5690 
  3 N       -2.5670    -0.0730    -0.3990 N.am  1 <1>  -0.6600 
  4 C       -3.1790    -2.2980    -1.3460 C.3   1 <1>  -0.0190 
  5 C       -2.6600    -0.6280     0.9820 C.3   1 <1>   0.2200 
  6 C       -2.2070     1.3700    -0.5050 C.3   1 <1>   0.0600 
  7 C       -1.9870    -3.0710    -0.7500 C.3   1 <1>   0.1200 
  8 C       -4.5590    -2.4930    -0.6880 C.3   1 <1>   0.1400 
  9 C       -1.6050    -1.7400     1.2180 C.3   1 <1>   0.1200 
 10 C       -4.1210    -0.9950     1.3320 C.3   1 <1>   0.1400 
 11 O       -1.8900    -2.9860     0.6390 O.3   1 <1>  -0.5600 
 12 N       -4.5880    -2.3170     0.7990 N.am  1 <1>  -0.6600 
 13 C       -4.8430    -3.3640     1.6670 C.2   1 <1>   0.5440 
 14 O       -4.9240    -3.1460     2.8610 O.2   1 <1>  -0.5700 
 15 C       -5.0070    -4.7220     1.1910 C.ar  1 <1>   0.0860 
 16 C       -6.2380    -5.1880     0.7430 C.ar  1 <1>  -0.1500 
 17 C       -3.9250    -5.5960     1.1540 C.ar  1 <1>  -0.1500 
 18 C       -6.4170    -6.4790     0.2510 C.ar  1 <1>   0.0530 
 19 C       -4.0700    -6.8840     0.6770 C.ar  1 <1>  -0.1500 
 20 C       -7.7070    -6.9320    -0.2220 C.2   1 <1>   0.0870 
 21 C       -5.3030    -7.3170     0.2290 C.ar  1 <1>  -0.1500 
 22 O       -8.7050    -6.0710    -0.3710 O.3   1 <1>  -0.2800 
 23 C       -8.1480    -8.1680    -0.5810 C.2   1 <1>  -0.1500 
 24 C       -9.7630    -6.7160    -0.8110 C.2   1 <1>  -0.0400 
 25 C       -9.4830    -8.0260    -0.9630 C.2   1 <1>  -0.1500 
 26 C      -11.0380    -5.9400    -1.0570 C.3   1 <1>  -0.0600 
 27 H       -3.2840    -2.6660    -2.3510 H     1 <1>   0.0800 
 28 H       -2.3940     0.1710     1.6510 H     1 <1>   0.0800 
 29 H       -1.2470     1.5410    -0.0500 H     1 <1>   0.0800 
 30 H       -2.9500     1.9680    -0.0070 H     1 <1>   0.0800 
 31 H       -2.1540     1.6780    -1.5350 H     1 <1>   0.0800 
 32 H       -1.0600    -2.7290    -1.1780 H     1 <1>   0.0800 
 33 H       -2.0980    -4.1150    -0.9820 H     1 <1>   0.0800 
 34 H       -4.9120    -3.4740    -0.9490 H     1 <1>   0.0800 
 35 H       -5.2520    -1.7930    -1.1240 H     1 <1>   0.0800 
 36 H       -1.5330    -1.9170     2.2770 H     1 <1>   0.0800 
 37 H       -0.6410    -1.4160     0.8690 H     1 <1>   0.0800 
 38 H       -4.7750    -0.2220     0.9710 H     1 <1>   0.0800 
 39 H       -4.2030    -0.9900     2.4040 H     1 <1>   0.0800 
 40 H       -7.0800    -4.5200     0.7820 H     1 <1>   0.1500 
 41 H       -2.9670    -5.2490     1.5060 H     1 <1>   0.1500 
 42 H       -3.2220    -7.5470     0.6560 H     1 <1>   0.1500 
 43 H       -5.4010    -8.3200    -0.1440 H     1 <1>   0.1500 
 44 H       -7.6040    -9.0950    -0.5800 H     1 <1>   0.1500 
 45 H      -10.1280    -8.8170    -1.3020 H     1 <1>   0.1500 
 46 H      -11.8120    -6.5970    -1.4080 H     1 <1>   0.0800 
 47 H      -10.8630    -5.1780    -1.7930 H     1 <1>   0.0800 
 48 H      -11.3610    -5.4750    -0.1430 H     1 <1>   0.0800 
@<TRIPOS>BOND
  1   1   2  2   
  2   2   3  am  
  3   2   4  1   
  4   3   5  1   
  5   3   6  1   
  6   4   7  1   
  7   4   8  1   
  8   4  27  1   
  9   5   9  1   
 10   5  10  1   
 11   5  28  1   
 12   6  29  1   
 13   6  30  1   
 14   6  31  1   
 15   7  11  1   
 16   7  32  1   
 17   7  33  1   
 18   8  12  1   
 19   8  34  1   
 20   8  35  1   
 21   9  11  1   
 22   9  36  1   
 23   9  37  1   
 24  10  12  1   
 25  10  38  1   
 26  10  39  1   
 27  12  13  am  
 28  13  14  2   
 29  13  15  1   
 30  15  16  ar  
 31  15  17  ar  
 32  16  18  ar  
 33  16  40  1   
 34  17  19  ar  
 35  17  41  1   
 36  18  20  1   
 37  18  21  ar  
 38  19  21  ar  
 39  19  42  1   
 40  20  22  1   
 41  20  23  2   
 42  21  43  1   
 43  22  24  1   
 44  23  25  1   
 45  23  44  1   
 46  24  25  2   
 47  24  26  1   
 48  25  45  1   
 49  26  46  1   
 50  26  47  1   
 51  26  48  1   
@<TRIPOS>SUBSTRUCTURE
  1 ****  15 GROUP 4 **** **** 0

# MOE 2024.06 (io_trps.svl 2023.06)
