@<TRIPOS>MOLECULE
NONAME
39 41 1 0 0 
SMALL
USER_CHARGES


@<TRIPOS>ATOM
  1 F        2.3410     0.9140     2.8980 F     1 <1>  -0.1900 
  2 C        2.8960     0.0570     2.0810 C.ar  1 <1>   0.1900 
  3 C        3.7640     0.5280     1.1140 C.ar  1 <1>  -0.1500 
  4 C        2.5960    -1.2830     2.2210 C.ar  1 <1>  -0.1500 
  5 C        4.3660    -0.3780     0.2480 C.ar  1 <1>  -0.1440 
  6 C        3.1870    -2.1830     1.3530 C.ar  1 <1>  -0.1500 
  7 C        4.0610    -1.7370     0.3660 C.ar  1 <1>   0.1170 
  8 C        5.3820     0.0480    -0.8270 C.3   1 <1>   0.1250 
  9 N        4.6340    -2.6440    -0.5270 N.am  1 <1>  -0.5470 
 10 C        5.3260     1.5370    -1.1800 C.2   1 <1>   0.5690 
 11 C        5.2480    -0.8400    -2.0790 C.3   1 <1>  -0.0990 
 12 C        5.2410    -2.3000    -1.6870 C.2   1 <1>   0.5690 
 13 O        4.5770     1.9060    -2.0500 O.2   1 <1>  -0.5700 
 14 N        6.1310     2.3910    -0.4730 N.am  1 <1>  -0.4940 
 15 O        5.7640    -3.1250    -2.3890 O.2   1 <1>  -0.5700 
 16 C        6.3000     3.7730    -0.6210 C.2   1 <1>   0.2040 
 17 O        5.8150     4.4350    -1.6440 O.3   1 <1>  -0.0190 
 18 C        6.9500     4.6550     0.1650 C.2   1 <1>  -0.1810 
 19 N        6.1100     5.7090    -1.5840 N.2   1 <1>  -0.4100 
 20 C        6.7900     5.8670    -0.5070 C.2   1 <1>   0.1080 
 21 C        7.6850     4.4220     1.4740 C.3   1 <1>   0.0210 
 22 C        7.3260     7.2100    -0.0590 C.3   1 <1>  -0.0590 
 23 C        9.1870     4.2660     1.2310 C.3   1 <1>  -0.2400 
 24 H        3.9430     1.5870     1.0640 H     1 <1>   0.1500 
 25 H        1.9160    -1.6070     2.9890 H     1 <1>   0.1500 
 26 H        2.9630    -3.2320     1.4370 H     1 <1>   0.1500 
 27 H        6.3580    -0.1450    -0.4200 H     1 <1>   0.0800 
 28 H        4.5840    -3.6460    -0.3400 H     1 <1>   0.3700 
 29 H        6.0580    -0.6520    -2.7600 H     1 <1>   0.0800 
 30 H        4.3240    -0.6280    -2.5860 H     1 <1>   0.0800 
 31 H        6.6780     1.9800     0.2780 H     1 <1>   0.3700 
 32 H        7.3050     3.5340     1.9490 H     1 <1>   0.0800 
 33 H        7.5060     5.2470     2.1410 H     1 <1>   0.0800 
 34 H        8.3990     7.1930    -0.0520 H     1 <1>   0.0800 
 35 H        6.9640     7.4410     0.9260 H     1 <1>   0.0800 
 36 H        6.9970     7.9790    -0.7360 H     1 <1>   0.0800 
 37 H        9.3750     3.4390     0.5700 H     1 <1>   0.0800 
 38 H        9.6970     4.0890     2.1620 H     1 <1>   0.0800 
 39 H        9.5900     5.1580     0.7850 H     1 <1>   0.0800 
@<TRIPOS>BOND
  1   1   2  1   
  2   2   3  ar  
  3   2   4  ar  
  4   3   5  ar  
  5   3  24  1   
  6   4   6  ar  
  7   4  25  1   
  8   5   7  ar  
  9   5   8  1   
 10   6   7  ar  
 11   6  26  1   
 12   7   9  1   
 13   8  10  1   
 14   8  11  1   
 15   8  27  1   
 16   9  12  am  
 17   9  28  1   
 18  10  13  2   
 19  10  14  am  
 20  11  12  1   
 21  11  29  1   
 22  11  30  1   
 23  12  15  2   
 24  14  16  1   
 25  14  31  1   
 26  16  17  1   
 27  16  18  2   
 28  17  19  1   
 29  18  20  1   
 30  18  21  1   
 31  19  20  2   
 32  20  22  1   
 33  21  23  1   
 34  21  32  1   
 35  21  33  1   
 36  22  34  1   
 37  22  35  1   
 38  22  36  1   
 39  23  37  1   
 40  23  38  1   
 41  23  39  1   
@<TRIPOS>SUBSTRUCTURE
  1 ****  10 GROUP 4 **** **** 0

# MOE 2024.06 (io_trps.svl 2023.06)
