@<TRIPOS>MOLECULE
NONAME
47 49 1 0 0 
SMALL
USER_CHARGES


@<TRIPOS>ATOM
  1 S       -0.0410     0.5030     1.2450 S.o2  1 <1>   1.2040 
  2 O       -0.8090     0.5730     2.4680 O.2   1 <1>  -0.6500 
  3 O        1.2540    -0.1390     1.2390 O.2   1 <1>  -0.6500 
  4 C        0.1230     2.1620     0.5420 C.ar  1 <1>  -0.0090 
  5 C       -1.0510    -0.3230     0.0310 C.3   1 <1>  -0.1350 
  6 C        1.1060     2.4460    -0.3980 C.ar  1 <1>  -0.1500 
  7 C       -0.7410     3.1880     0.9050 C.ar  1 <1>  -0.1500 
  8 C        1.2300     3.7090    -0.9480 C.ar  1 <1>  -0.1500 
  9 C       -0.6240     4.4540     0.3590 C.ar  1 <1>  -0.1500 
 10 C        0.3700     4.7260    -0.5680 C.ar  1 <1>  -0.1430 
 11 C        0.5280     6.1230    -1.1510 C.3   1 <1>   0.2530 
 12 N        1.8440     6.6840    -0.7820 N.3   1 <1>  -0.8100 
 13 C        2.0280     6.8450     0.7040 C.3   1 <1>   0.1900 
 14 C        2.1840     7.8530    -1.6200 C.3   1 <1>   0.1100 
 15 C        1.5720     8.2060     1.2620 C.3   1 <1>   0.1200 
 16 C        3.5000     6.5660     1.0920 C.3   1 <1>   0.3430 
 17 C        3.3260     8.7410    -1.0780 C.3   1 <1>  -0.0800 
 18 O        2.6110     9.1380     1.2010 O.3   1 <1>  -0.5600 
 19 N        4.3810     6.6240    -0.1180 N.4   1 <1>  -0.9590 
 20 C        2.8120     9.7430    -0.0310 C.3   1 <1>   0.1200 
 21 C        4.6080     8.0160    -0.6110 C.3   1 <1>   0.3430 
 22 C        5.6420     5.8540     0.0570 C.3   1 <1>   0.2630 
 23 H       -1.9990     0.1690    -0.0650 H     1 <1>   0.0800 
 24 H       -1.2230    -1.3390     0.3300 H     1 <1>   0.0800 
 25 H       -0.5620    -0.3260    -0.9230 H     1 <1>   0.0800 
 26 H        1.7890     1.6680    -0.6990 H     1 <1>   0.1500 
 27 H       -1.5150     2.9940     1.6300 H     1 <1>   0.1500 
 28 H        2.0010     3.9020    -1.6740 H     1 <1>   0.1500 
 29 H       -1.3110     5.2250     0.6660 H     1 <1>   0.1500 
 30 H       -0.2600     6.7690    -0.8020 H     1 <1>   0.0800 
 31 H        0.4510     6.0530    -2.2240 H     1 <1>   0.0800 
 32 H        1.4390     6.1040     1.2140 H     1 <1>   0.0800 
 33 H        2.4610     7.4900    -2.5960 H     1 <1>   0.0800 
 34 H        1.3080     8.4670    -1.7510 H     1 <1>   0.0800 
 35 H        1.3280     8.0930     2.3040 H     1 <1>   0.0800 
 36 H        0.7010     8.5830     0.7530 H     1 <1>   0.0800 
 37 H        3.5460     5.5790     1.5200 H     1 <1>   0.0800 
 38 H        3.8320     7.2670     1.8410 H     1 <1>   0.0800 
 39 H        3.6250     9.3590    -1.9050 H     1 <1>   0.0800 
 40 H        3.7630     6.1860    -0.8300 H     1 <1>   0.4500 
 41 H        1.8920    10.2100    -0.3430 H     1 <1>   0.0800 
 42 H        3.5420    10.5210     0.1210 H     1 <1>   0.0800 
 43 H        5.0850     8.6010     0.1590 H     1 <1>   0.0800 
 44 H        5.2840     7.9700    -1.4490 H     1 <1>   0.0800 
 45 H        6.2510     6.3040     0.8250 H     1 <1>   0.0800 
 46 H        6.2020     5.8380    -0.8640 H     1 <1>   0.0800 
 47 H        5.4210     4.8380     0.3420 H     1 <1>   0.0800 
@<TRIPOS>BOND
  1   1   2  2   
  2   1   3  2   
  3   1   4  1   
  4   1   5  1   
  5   4   6  ar  
  6   4   7  ar  
  7   5  23  1   
  8   5  24  1   
  9   5  25  1   
 10   6   8  ar  
 11   6  26  1   
 12   7   9  ar  
 13   7  27  1   
 14   8  10  ar  
 15   8  28  1   
 16   9  10  ar  
 17   9  29  1   
 18  10  11  1   
 19  11  12  1   
 20  11  30  1   
 21  11  31  1   
 22  12  13  1   
 23  12  14  1   
 24  13  15  1   
 25  13  16  1   
 26  13  32  1   
 27  14  17  1   
 28  14  33  1   
 29  14  34  1   
 30  15  18  1   
 31  15  35  1   
 32  15  36  1   
 33  16  19  1   
 34  16  37  1   
 35  16  38  1   
 36  17  20  1   
 37  17  21  1   
 38  17  39  1   
 39  18  20  1   
 40  19  21  1   
 41  19  22  1   
 42  19  40  1   
 43  20  41  1   
 44  20  42  1   
 45  21  43  1   
 46  21  44  1   
 47  22  45  1   
 48  22  46  1   
 49  22  47  1   
@<TRIPOS>SUBSTRUCTURE
  1 ****  10 GROUP 4 **** **** 0

# MOE 2024.06 (io_trps.svl 2023.06)
