@<TRIPOS>MOLECULE
NONAME
46 48 1 0 0 
SMALL
USER_CHARGES


@<TRIPOS>ATOM
  1 O       -0.3000     0.3140    -2.1380 O.3   1 <1>  -0.0190 
  2 N       -0.3900     1.5840    -1.8770 N.2   1 <1>  -0.4100 
  3 C        0.6300    -0.1110    -1.3190 C.2   1 <1>   0.2980 
  4 C        0.4520     1.8350    -0.9580 C.2   1 <1>   0.3350 
  5 N        1.1400     0.7780    -0.5590 N.2   1 <1>  -0.5650 
  6 C        1.0150    -1.5870    -1.3490 C.3   1 <1>   0.2900 
  7 C        0.6860     3.1940    -0.3430 C.3   1 <1>  -0.0590 
  8 N       -0.0840    -2.5000    -0.9480 N.3   1 <1>  -0.8100 
  9 C        0.2880    -3.9140    -1.1990 C.3   1 <1>   0.1100 
 10 C       -0.5530    -2.2590     0.4200 C.3   1 <1>   0.1100 
 11 C       -0.6660    -4.9620    -0.5520 C.3   1 <1>   0.0000 
 12 C       -1.8630    -3.0230     0.6600 C.3   1 <1>  -0.1600 
 13 C       -2.0100    -4.2460    -0.2590 C.3   1 <1>   0.2000 
 14 C       -0.9540    -6.0820    -1.5820 C.3   1 <1>   0.1200 
 15 C       -0.0740    -5.5600     0.7660 C.3   1 <1>  -0.0160 
 16 O       -2.9390    -5.1100     0.3050 O.3   1 <1>  -0.6800 
 17 O        0.2190    -6.5860    -2.1330 O.3   1 <1>  -0.6800 
 18 C        1.2090    -6.3770     0.6320 C.ar  1 <1>  -0.1440 
 19 C        2.4520    -5.7680     0.7250 C.ar  1 <1>  -0.1500 
 20 C        1.1440    -7.7490     0.4380 C.ar  1 <1>  -0.1500 
 21 C        3.6110    -6.5130     0.5970 C.ar  1 <1>  -0.1500 
 22 C        2.3020    -8.4960     0.3090 C.ar  1 <1>  -0.1500 
 23 C        3.5360    -7.8780     0.3850 C.ar  1 <1>  -0.1500 
 24 H        1.8590    -1.7350    -0.6990 H     1 <1>   0.0800 
 25 H        1.3210    -1.8250    -2.3520 H     1 <1>   0.0800 
 26 H        1.7070     3.4880    -0.4990 H     1 <1>   0.0800 
 27 H        0.4880     3.1500     0.7120 H     1 <1>   0.0800 
 28 H        0.0360     3.9200    -0.7940 H     1 <1>   0.0800 
 29 H        0.2830    -4.0500    -2.2680 H     1 <1>   0.0800 
 30 H        1.2970    -4.0890    -0.8760 H     1 <1>   0.0800 
 31 H        0.2040    -2.5700     1.1190 H     1 <1>   0.0800 
 32 H       -0.7360    -1.2080     0.5780 H     1 <1>   0.0800 
 33 H       -2.6840    -2.3570     0.4660 H     1 <1>   0.0800 
 34 H       -1.9040    -3.3040     1.6960 H     1 <1>   0.0800 
 35 H       -2.4230    -3.9120    -1.1970 H     1 <1>   0.0800 
 36 H       -1.5460    -5.7010    -2.3960 H     1 <1>   0.0800 
 37 H       -1.4900    -6.8960    -1.1250 H     1 <1>   0.0800 
 38 H        0.1140    -4.7740     1.4730 H     1 <1>   0.0800 
 39 H       -0.8080    -6.2000     1.2200 H     1 <1>   0.0800 
 40 H       -2.7640    -5.2200     1.2580 H     1 <1>   0.4000 
 41 H        0.8320    -6.8680    -1.4160 H     1 <1>   0.4000 
 42 H        2.5280    -4.7090     0.9000 H     1 <1>   0.1500 
 43 H        0.1910    -8.2480     0.3820 H     1 <1>   0.1500 
 44 H        4.5710    -6.0330     0.6650 H     1 <1>   0.1500 
 45 H        2.2420    -9.5590     0.1510 H     1 <1>   0.1500 
 46 H        4.4370    -8.4580     0.2840 H     1 <1>   0.1500 
@<TRIPOS>BOND
  1   1   2  1   
  2   1   3  1   
  3   2   4  2   
  4   3   5  2   
  5   3   6  1   
  6   4   5  1   
  7   4   7  1   
  8   6   8  1   
  9   6  24  1   
 10   6  25  1   
 11   7  26  1   
 12   7  27  1   
 13   7  28  1   
 14   8   9  1   
 15   8  10  1   
 16   9  11  1   
 17   9  29  1   
 18   9  30  1   
 19  10  12  1   
 20  10  31  1   
 21  10  32  1   
 22  11  13  1   
 23  11  14  1   
 24  11  15  1   
 25  12  13  1   
 26  12  33  1   
 27  12  34  1   
 28  13  16  1   
 29  13  35  1   
 30  14  17  1   
 31  14  36  1   
 32  14  37  1   
 33  15  18  1   
 34  15  38  1   
 35  15  39  1   
 36  16  40  1   
 37  17  41  1   
 38  18  19  ar  
 39  18  20  ar  
 40  19  21  ar  
 41  19  42  1   
 42  20  22  ar  
 43  20  43  1   
 44  21  23  ar  
 45  21  44  1   
 46  22  23  ar  
 47  22  45  1   
 48  23  46  1   
@<TRIPOS>SUBSTRUCTURE
  1 ****   9 GROUP 4 **** **** 0

# MOE 2024.06 (io_trps.svl 2023.06)
