@<TRIPOS>MOLECULE
NONAME
49 51 1 0 0 
SMALL
USER_CHARGES


@<TRIPOS>ATOM
  1 F        1.0350     1.0590    -0.9260 F     1 <1>  -0.3400 
  2 C        0.7970     1.7510     0.1800 C.3   1 <1>   1.1640 
  3 F        1.8410     2.5530     0.3540 F     1 <1>  -0.3400 
  4 F        0.8180     0.8830     1.1800 F     1 <1>  -0.3400 
  5 C       -0.5460     2.5070     0.1060 C.ar  1 <1>  -0.1440 
  6 C       -0.6350     3.8680     0.3110 C.ar  1 <1>  -0.1500 
  7 C       -1.7200     1.7970    -0.1760 C.ar  1 <1>  -0.1500 
  8 C       -1.8560     4.5680     0.2420 C.ar  1 <1>   0.0000 
  9 C       -2.9270     2.4450    -0.2530 C.ar  1 <1>  -0.1500 
 10 C       -3.0180     3.8290    -0.0510 C.ar  1 <1>   0.3610 
 11 C       -1.9660     5.9800     0.4440 C.ar  1 <1>   0.1000 
 12 N       -4.2270     4.4810    -0.1410 N.ar  1 <1>  -0.1790 
 13 N       -0.8680     6.7080     0.7370 N.pl3 1 <1>  -0.8690 
 14 C       -3.2330     6.5560     0.3310 C.ar  1 <1>  -0.1500 
 15 C       -4.3450     5.8080     0.0410 C.ar  1 <1>   0.2180 
 16 C       -0.6770     8.1750     0.8780 C.3   1 <1>   0.2090 
 17 C       -5.7240     6.4370    -0.0790 C.3   1 <1>  -0.0970 
 18 C        0.5120     8.6250     0.0150 C.3   1 <1>  -0.0800 
 19 C        1.8250     7.9060     0.3990 C.3   1 <1>  -0.1600 
 20 C        0.6960    10.1510     0.1220 C.3   1 <1>  -0.1600 
 21 C        3.0190     8.4290    -0.4030 C.3   1 <1>   0.1400 
 22 C        1.9070    10.6370    -0.6810 C.3   1 <1>   0.1400 
 23 N        3.1180     9.9010    -0.2300 N.am  1 <1>  -0.6600 
 24 C        4.2340    10.4730     0.3260 C.2   1 <1>   0.5690 
 25 O        5.1840     9.8200     0.6850 O.2   1 <1>  -0.5700 
 26 C        4.3180    11.9700     0.5170 C.3   1 <1>  -0.1790 
 27 H        0.2600     4.4240     0.5300 H     1 <1>   0.1500 
 28 H       -1.6660     0.7290    -0.3350 H     1 <1>   0.1500 
 29 H       -3.8130     1.8740    -0.4730 H     1 <1>   0.1500 
 30 H       -5.0530     3.9200    -0.3560 H     1 <1>   0.4570 
 31 H        0.0250     6.2250     0.8820 H     1 <1>   0.4000 
 32 H       -3.3390     7.6130     0.4830 H     1 <1>   0.1500 
 33 H       -0.4860     8.4070     1.9130 H     1 <1>   0.0800 
 34 H       -1.5570     8.7080     0.5700 H     1 <1>   0.0800 
 35 H       -6.3950     6.0170     0.6490 H     1 <1>   0.0800 
 36 H       -6.1270     6.2750    -1.0640 H     1 <1>   0.0800 
 37 H       -5.6730     7.4990     0.0890 H     1 <1>   0.0800 
 38 H        0.2820     8.3910    -1.0110 H     1 <1>   0.0800 
 39 H        1.7440     6.8500     0.2160 H     1 <1>   0.0800 
 40 H        2.0310     8.0460     1.4460 H     1 <1>   0.0800 
 41 H        0.8350    10.4340     1.1510 H     1 <1>   0.0800 
 42 H       -0.1840    10.6510    -0.2420 H     1 <1>   0.0800 
 43 H        2.8910     8.2060    -1.4480 H     1 <1>   0.0800 
 44 H        3.9200     7.9420    -0.0680 H     1 <1>   0.0800 
 45 H        2.0210    11.6980    -0.5530 H     1 <1>   0.0800 
 46 H        1.7530    10.4450    -1.7290 H     1 <1>   0.0800 
 47 H        3.5270    12.3010     1.1620 H     1 <1>   0.0800 
 48 H        4.2510    12.4630    -0.4330 H     1 <1>   0.0800 
 49 H        5.2590    12.2230     0.9700 H     1 <1>   0.0800 
@<TRIPOS>BOND
  1   1   2  1   
  2   2   3  1   
  3   2   4  1   
  4   2   5  1   
  5   5   6  ar  
  6   5   7  ar  
  7   6   8  ar  
  8   6  27  1   
  9   7   9  ar  
 10   7  28  1   
 11   8  10  ar  
 12   8  11  ar  
 13   9  10  ar  
 14   9  29  1   
 15  10  12  ar  
 16  11  13  1   
 17  11  14  ar  
 18  12  15  ar  
 19  12  30  1   
 20  13  16  1   
 21  13  31  1   
 22  14  15  ar  
 23  14  32  1   
 24  15  17  1   
 25  16  18  1   
 26  16  33  1   
 27  16  34  1   
 28  17  35  1   
 29  17  36  1   
 30  17  37  1   
 31  18  19  1   
 32  18  20  1   
 33  18  38  1   
 34  19  21  1   
 35  19  39  1   
 36  19  40  1   
 37  20  22  1   
 38  20  41  1   
 39  20  42  1   
 40  21  23  1   
 41  21  43  1   
 42  21  44  1   
 43  22  23  1   
 44  22  45  1   
 45  22  46  1   
 46  23  24  am  
 47  24  25  2   
 48  24  26  1   
 49  26  47  1   
 50  26  48  1   
 51  26  49  1   
@<TRIPOS>SUBSTRUCTURE
  1 ****  13 GROUP 4 **** **** 0

# MOE 2024.06 (io_trps.svl 2023.06)
