@<TRIPOS>MOLECULE
NONAME
49 52 1 0 0 
SMALL
USER_CHARGES


@<TRIPOS>ATOM
  1 O       -0.3990    -0.2000    -1.9300 O.2   1 <1>  -0.5700 
  2 C       -1.2530     0.5480    -1.4880 C.2   1 <1>   0.5440 
  3 N       -2.4350     0.0040    -1.0410 N.am  1 <1>  -0.6600 
  4 C       -1.0260     1.9750    -1.4970 C.ar  1 <1>   0.0860 
  5 C       -3.5780     0.7540    -0.4820 C.3   1 <1>   0.1400 
  6 C       -2.6520    -1.4520    -0.9190 C.3   1 <1>   0.1400 
  7 C       -0.8050     2.7040    -0.3250 C.ar  1 <1>   0.0830 
  8 C       -1.0220     2.6690    -2.7080 C.ar  1 <1>  -0.1500 
  9 C       -4.2740    -0.2430     0.4510 C.3   1 <1>  -0.0800 
 10 C       -3.9890    -1.6180    -0.1860 C.3   1 <1>  -0.0800 
 11 O       -0.8130     2.0650     0.8740 O.3   1 <1>  -0.3630 
 12 C       -0.5810     4.0830    -0.3830 C.ar  1 <1>   0.0830 
 13 C       -0.8160     4.0350    -2.7630 C.ar  1 <1>  -0.1500 
 14 C       -5.7740     0.0420     0.7690 C.3   1 <1>   0.2800 
 15 C       -5.1290    -2.0330    -1.1290 C.3   1 <1>  -0.1600 
 16 C       -0.8540     2.8470     2.0510 C.3   1 <1>   0.1200 
 17 O       -0.3350     4.8050     0.7400 O.3   1 <1>  -0.3630 
 18 C       -0.5960     4.7460    -1.5950 C.ar  1 <1>  -0.1500 
 19 O       -6.3580     0.7510    -0.2640 O.3   1 <1>  -0.6800 
 20 C       -6.5520    -1.2820     0.8860 C.3   1 <1>  -0.1600 
 21 C       -5.9620     0.8800     2.0530 C.3   1 <1>  -0.1600 
 22 C       -6.4680    -2.1630    -0.3800 C.3   1 <1>  -0.1600 
 23 C        0.0400     4.0820     1.8960 C.3   1 <1>   0.1200 
 24 C       -5.2950     2.2670     2.0480 C.3   1 <1>  -0.2400 
 25 H       -3.2600     1.6330     0.0470 H     1 <1>   0.0800 
 26 H       -4.2150     1.0430    -1.3000 H     1 <1>   0.0800 
 27 H       -2.6660    -1.9070    -1.8940 H     1 <1>   0.0800 
 28 H       -1.8480    -1.8760    -0.3420 H     1 <1>   0.0800 
 29 H       -1.1840     2.1140    -3.6170 H     1 <1>   0.1500 
 30 H       -3.7310    -0.2310     1.3790 H     1 <1>   0.0800 
 31 H       -3.8830    -2.3720     0.5740 H     1 <1>   0.0800 
 32 H       -0.8230     4.5460    -3.7100 H     1 <1>   0.1500 
 33 H       -5.2300    -1.2840    -1.8960 H     1 <1>   0.0800 
 34 H       -4.8940    -2.9650    -1.6140 H     1 <1>   0.0800 
 35 H       -1.8730     3.1420     2.2220 H     1 <1>   0.0800 
 36 H       -0.5210     2.2320     2.8680 H     1 <1>   0.0800 
 37 H       -0.4300     5.8080    -1.6220 H     1 <1>   0.1500 
 38 H       -7.3100     0.8460    -0.0900 H     1 <1>   0.4000 
 39 H       -6.1340    -1.8370     1.7080 H     1 <1>   0.0800 
 40 H       -7.5830    -1.0960     1.1300 H     1 <1>   0.0800 
 41 H       -7.0150     1.0080     2.2330 H     1 <1>   0.0800 
 42 H       -5.5720     0.3240     2.8870 H     1 <1>   0.0800 
 43 H       -6.6240    -3.1890    -0.0950 H     1 <1>   0.0800 
 44 H       -7.2610    -1.8930    -1.0570 H     1 <1>   0.0800 
 45 H        1.0690     3.7880     1.7880 H     1 <1>   0.0800 
 46 H       -0.0560     4.7350     2.7430 H     1 <1>   0.0800 
 47 H       -5.6130     2.8400     1.1940 H     1 <1>   0.0800 
 48 H       -4.2250     2.1760     2.0270 H     1 <1>   0.0800 
 49 H       -5.5680     2.8060     2.9380 H     1 <1>   0.0800 
@<TRIPOS>BOND
  1   1   2  2   
  2   2   3  am  
  3   2   4  1   
  4   3   5  1   
  5   3   6  1   
  6   4   7  ar  
  7   4   8  ar  
  8   5   9  1   
  9   5  25  1   
 10   5  26  1   
 11   6  10  1   
 12   6  27  1   
 13   6  28  1   
 14   7  11  1   
 15   7  12  ar  
 16   8  13  ar  
 17   8  29  1   
 18   9  10  1   
 19   9  14  1   
 20   9  30  1   
 21  10  15  1   
 22  10  31  1   
 23  11  16  1   
 24  12  17  1   
 25  12  18  ar  
 26  13  18  ar  
 27  13  32  1   
 28  14  19  1   
 29  14  20  1   
 30  14  21  1   
 31  15  22  1   
 32  15  33  1   
 33  15  34  1   
 34  16  23  1   
 35  16  35  1   
 36  16  36  1   
 37  17  23  1   
 38  18  37  1   
 39  19  38  1   
 40  20  22  1   
 41  20  39  1   
 42  20  40  1   
 43  21  24  1   
 44  21  41  1   
 45  21  42  1   
 46  22  43  1   
 47  22  44  1   
 48  23  45  1   
 49  23  46  1   
 50  24  47  1   
 51  24  48  1   
 52  24  49  1   
@<TRIPOS>SUBSTRUCTURE
  1 ****   5 GROUP 4 **** **** 0

# MOE 2024.06 (io_trps.svl 2023.06)
