@<TRIPOS>MOLECULE
NONAME
43 45 1 0 0 
SMALL
USER_CHARGES


@<TRIPOS>ATOM
  1 S        0.1310    -0.0610    -1.0140 S.o2  1 <1>   1.3330 
  2 O       -0.6690    -1.2480    -0.8180 O.2   1 <1>  -0.6500 
  3 O        0.7410     0.1910    -2.3010 O.2   1 <1>  -0.6500 
  4 N        1.3710    -0.0860     0.1490 N.am  1 <1>  -0.8490 
  5 C       -0.8350     1.3860    -0.5740 C.3   1 <1>  -0.0550 
  6 C        0.9530    -0.6820     1.4250 C.3   1 <1>   0.1160 
  7 C        2.5700    -0.7740    -0.3420 C.3   1 <1>   0.1160 
  8 C       -0.1250     2.7310    -0.8500 C.3   1 <1>  -0.0800 
  9 C       -0.9890     3.9620    -0.5730 C.3   1 <1>   0.2000 
 10 C        1.1470     2.9700    -0.0240 C.3   1 <1>   0.2090 
 11 O       -1.6070     3.8070     0.6600 O.3   1 <1>  -0.6800 
 12 C        0.0360     5.0860    -0.4510 C.3   1 <1>   0.2090 
 13 N        1.2120     4.4410     0.1980 N.pl3 1 <1>  -0.8380 
 14 C        2.4120     5.1240     0.3490 C.ar  1 <1>   0.4100 
 15 N        2.4530     6.3620    -0.0630 N.ar  1 <1>  -0.6200 
 16 C        3.5460     4.4920     0.9420 C.ar  1 <1>   0.1600 
 17 C        3.6510     6.9740     0.1050 C.ar  1 <1>   0.3100 
 18 N        4.7070     5.0370     1.1180 N.ar  1 <1>  -0.6200 
 19 C        4.7710     6.3240     0.6840 C.ar  1 <1>   0.3100 
 20 C        3.7960     8.3070    -0.3140 C.ar  1 <1>  -0.1500 
 21 C        5.9740     7.0320     0.8150 C.ar  1 <1>  -0.1500 
 22 C        4.9850     8.9770    -0.1750 C.ar  1 <1>  -0.1500 
 23 C        6.0850     8.3330     0.3950 C.ar  1 <1>  -0.1500 
 24 H       -1.7420     1.3700    -1.1460 H     1 <1>   0.0800 
 25 H       -1.1130     1.3250     0.4590 H     1 <1>   0.0800 
 26 H        1.7440    -0.5980     2.1500 H     1 <1>   0.0800 
 27 H        0.7090    -1.7240     1.2930 H     1 <1>   0.0800 
 28 H        0.0860    -0.1720     1.8090 H     1 <1>   0.0800 
 29 H        3.3400    -0.7680     0.4100 H     1 <1>   0.0800 
 30 H        2.9510    -0.2730    -1.2170 H     1 <1>   0.0800 
 31 H        2.3360    -1.7930    -0.6040 H     1 <1>   0.0800 
 32 H        0.1590     2.7600    -1.8880 H     1 <1>   0.0800 
 33 H       -1.7400     4.1440    -1.3220 H     1 <1>   0.0800 
 34 H        2.0180     2.6140    -0.5490 H     1 <1>   0.0800 
 35 H        1.0770     2.4790     0.9320 H     1 <1>   0.0800 
 36 H       -0.9320     3.9820     1.3500 H     1 <1>   0.4000 
 37 H       -0.3350     5.9120     0.1320 H     1 <1>   0.0800 
 38 H        0.3190     5.4380    -1.4290 H     1 <1>   0.0800 
 39 H        3.4130     3.4800     1.2730 H     1 <1>   0.1500 
 40 H        2.9390     8.7860    -0.7500 H     1 <1>   0.1500 
 41 H        6.8080     6.5180     1.2560 H     1 <1>   0.1500 
 42 H        5.0820     9.9990    -0.5010 H     1 <1>   0.1500 
 43 H        7.0150     8.8680     0.5000 H     1 <1>   0.1500 
@<TRIPOS>BOND
  1   1   2  2   
  2   1   3  2   
  3   1   4  am  
  4   1   5  1   
  5   4   6  1   
  6   4   7  1   
  7   5   8  1   
  8   5  24  1   
  9   5  25  1   
 10   6  26  1   
 11   6  27  1   
 12   6  28  1   
 13   7  29  1   
 14   7  30  1   
 15   7  31  1   
 16   8   9  1   
 17   8  10  1   
 18   8  32  1   
 19   9  11  1   
 20   9  12  1   
 21   9  33  1   
 22  10  13  1   
 23  10  34  1   
 24  10  35  1   
 25  11  36  1   
 26  12  13  1   
 27  12  37  1   
 28  12  38  1   
 29  13  14  1   
 30  14  15  ar  
 31  14  16  ar  
 32  15  17  ar  
 33  16  18  ar  
 34  16  39  1   
 35  17  19  ar  
 36  17  20  ar  
 37  18  19  ar  
 38  19  21  ar  
 39  20  22  ar  
 40  20  40  1   
 41  21  23  ar  
 42  21  41  1   
 43  22  23  ar  
 44  22  42  1   
 45  23  43  1   
@<TRIPOS>SUBSTRUCTURE
  1 ****  13 GROUP 4 **** **** 0

# MOE 2024.06 (io_trps.svl 2023.06)
