@<TRIPOS>MOLECULE
NONAME
31 32 1 0 0 
SMALL
USER_CHARGES


@<TRIPOS>ATOM
  1 N        0.1440     0.4370    -1.0610 N.2   1 <1>  -0.7070 
  2 N       -1.1910     0.3300    -0.9480 N.pl3 1 <1>   0.3000 
  3 C        0.3910     1.6820    -0.7970 C.2   1 <1>   0.1390 
  4 C       -1.7550     1.5040    -0.6170 C.2   1 <1>  -0.3020 
  5 C       -0.7600     2.4230    -0.5090 C.2   1 <1>  -0.0540 
  6 C       -0.8420     3.8280    -0.1760 C.ar  1 <1>   0.0540 
  7 C       -1.8380     4.3070     0.6690 C.ar  1 <1>  -0.1500 
  8 C        0.0690     4.7490    -0.6880 C.ar  1 <1>  -0.1500 
  9 C       -1.9210     5.6490     0.9940 C.ar  1 <1>  -0.1500 
 10 C       -0.0100     6.0920    -0.3650 C.ar  1 <1>  -0.1500 
 11 C       -1.0070     6.5530     0.4790 C.ar  1 <1>  -0.1430 
 12 C       -1.0890     8.0320     0.8340 C.3   1 <1>  -0.0170 
 13 C       -1.6800     8.8810    -0.3070 C.3   1 <1>  -0.0800 
 14 C       -1.6260    10.3700     0.0550 C.3   1 <1>  -0.2400 
 15 C       -3.1280     8.4810    -0.6270 C.3   1 <1>  -0.2400 
 16 H       -1.6820    -0.5590    -1.1060 H     1 <1>   0.2700 
 17 H        1.3840     2.0970    -0.7960 H     1 <1>   0.1500 
 18 H       -2.8120     1.6340    -0.4810 H     1 <1>   0.1500 
 19 H       -2.5530     3.6190     1.0810 H     1 <1>   0.1500 
 20 H        0.8440     4.4130    -1.3510 H     1 <1>   0.1500 
 21 H       -2.7040     5.9890     1.6500 H     1 <1>   0.1500 
 22 H        0.7070     6.7800    -0.7760 H     1 <1>   0.1500 
 23 H       -0.0970     8.3820     1.0600 H     1 <1>   0.0800 
 24 H       -1.6820     8.1600     1.7220 H     1 <1>   0.0800 
 25 H       -1.0840     8.7270    -1.1910 H     1 <1>   0.0800 
 26 H       -2.2160    10.5700     0.9320 H     1 <1>   0.0800 
 27 H       -2.0080    10.9650    -0.7570 H     1 <1>   0.0800 
 28 H       -0.6120    10.6740     0.2450 H     1 <1>   0.0800 
 29 H       -3.7530     8.5900     0.2410 H     1 <1>   0.0800 
 30 H       -3.1710     7.4570    -0.9550 H     1 <1>   0.0800 
 31 H       -3.5210     9.0980    -1.4150 H     1 <1>   0.0800 
@<TRIPOS>BOND
  1   1   2  1   
  2   1   3  2   
  3   2   4  1   
  4   2  16  1   
  5   3   5  1   
  6   3  17  1   
  7   4   5  2   
  8   4  18  1   
  9   5   6  1   
 10   6   7  ar  
 11   6   8  ar  
 12   7   9  ar  
 13   7  19  1   
 14   8  10  ar  
 15   8  20  1   
 16   9  11  ar  
 17   9  21  1   
 18  10  11  ar  
 19  10  22  1   
 20  11  12  1   
 21  12  13  1   
 22  12  23  1   
 23  12  24  1   
 24  13  14  1   
 25  13  15  1   
 26  13  25  1   
 27  14  26  1   
 28  14  27  1   
 29  14  28  1   
 30  15  29  1   
 31  15  30  1   
 32  15  31  1   
@<TRIPOS>SUBSTRUCTURE
  1 ****   6 GROUP 4 **** **** 0

# MOE 2024.06 (io_trps.svl 2023.06)
