@<TRIPOS>MOLECULE
NONAME
47 49 1 0 0 
SMALL
USER_CHARGES


@<TRIPOS>ATOM
  1 S        0.3170    -0.0970     1.3210 S.o2  1 <1>   1.4470 
  2 O        0.9440    -1.2410     1.9460 O.2   1 <1>  -0.6500 
  3 O       -0.2970     0.8930     2.1790 O.2   1 <1>  -0.6500 
  4 N        1.5540     0.7490     0.5140 N.am  1 <1>  -0.8490 
  5 C       -0.8850    -0.5460     0.0370 C.ar  1 <1>  -0.0090 
  6 C        2.4760     1.3640     1.5180 C.3   1 <1>   0.1960 
  7 C        2.2840    -0.1140    -0.4460 C.3   1 <1>   0.1960 
  8 C       -0.7580    -1.7000    -0.7330 C.ar  1 <1>   0.0830 
  9 C       -1.9750     0.2810    -0.2210 C.ar  1 <1>  -0.1500 
 10 C        3.4100     2.4410     0.9070 C.3   1 <1>   0.4230 
 11 C        3.4060     0.5550    -1.2840 C.3   1 <1>  -0.0800 
 12 O        0.2920    -2.5270    -0.5580 O.3   1 <1>  -0.3630 
 13 C       -1.6810    -2.0130    -1.7200 C.ar  1 <1>  -0.1500 
 14 C       -2.9030    -0.0270    -1.2020 C.ar  1 <1>  -0.1500 
 15 N        2.8040     2.8550    -0.4140 N.4   1 <1>  -0.9590 
 16 C        4.8810     1.9540     0.8620 C.3   1 <1>   0.1200 
 17 C        4.8210     0.2450    -0.7690 C.3   1 <1>   0.1200 
 18 C        3.2640     2.0560    -1.5810 C.3   1 <1>   0.3430 
 19 C        0.0360    -3.7400     0.1170 C.3   1 <1>   0.0400 
 20 C       -2.7560    -1.1780    -1.9540 C.ar  1 <1>  -0.1500 
 21 C        3.0160     4.3400    -0.6700 C.3   1 <1>   0.2370 
 22 O        4.9680     0.5870     0.5660 O.3   1 <1>  -0.5600 
 23 C        4.4850     4.7620    -0.6920 C.2   1 <1>   0.9060 
 24 O        5.1190     4.5950    -1.7360 O.co2 1 <1>  -0.9000 
 25 O        5.0030     5.0710     0.3850 O.co2 1 <1>  -0.9000 
 26 H        1.8970     1.8680     2.2730 H     1 <1>   0.0800 
 27 H        3.0370     0.6010     2.0310 H     1 <1>   0.0800 
 28 H        2.6890    -0.9700     0.0720 H     1 <1>   0.0800 
 29 H        1.5680    -0.4880    -1.1550 H     1 <1>   0.0800 
 30 H       -2.1060     1.1810     0.3570 H     1 <1>   0.1500 
 31 H        3.3990     3.2990     1.5600 H     1 <1>   0.0800 
 32 H        3.3770     0.0770    -2.2460 H     1 <1>   0.0800 
 33 H       -1.5540    -2.9060    -2.3060 H     1 <1>   0.1500 
 34 H       -3.7400     0.6270    -1.3780 H     1 <1>   0.1500 
 35 H        1.8070     2.6210    -0.2920 H     1 <1>   0.4500 
 36 H        5.3090     2.0800     1.8400 H     1 <1>   0.0800 
 37 H        5.4850     2.5170     0.1720 H     1 <1>   0.0800 
 38 H        5.5740     0.7630    -1.3410 H     1 <1>   0.0800 
 39 H        5.0130    -0.8120    -0.8410 H     1 <1>   0.0800 
 40 H        2.5580     2.1890    -2.3840 H     1 <1>   0.0800 
 41 H        4.2150     2.4350    -1.9230 H     1 <1>   0.0800 
 42 H        0.9660    -4.2700     0.2200 H     1 <1>   0.0800 
 43 H       -0.6620    -4.3250    -0.4550 H     1 <1>   0.0800 
 44 H       -0.3650    -3.5190     1.0910 H     1 <1>   0.0800 
 45 H       -3.4760    -1.4200    -2.7180 H     1 <1>   0.1500 
 46 H        2.5880     4.6150    -1.6170 H     1 <1>   0.0800 
 47 H        2.5360     4.9150     0.1000 H     1 <1>   0.0800 
@<TRIPOS>BOND
  1   1   2  2   
  2   1   3  2   
  3   1   4  am  
  4   1   5  1   
  5   4   6  1   
  6   4   7  1   
  7   5   8  ar  
  8   5   9  ar  
  9   6  10  1   
 10   6  26  1   
 11   6  27  1   
 12   7  11  1   
 13   7  28  1   
 14   7  29  1   
 15   8  12  1   
 16   8  13  ar  
 17   9  14  ar  
 18   9  30  1   
 19  10  15  1   
 20  10  16  1   
 21  10  31  1   
 22  11  17  1   
 23  11  18  1   
 24  11  32  1   
 25  12  19  1   
 26  13  20  ar  
 27  13  33  1   
 28  14  20  ar  
 29  14  34  1   
 30  15  18  1   
 31  15  21  1   
 32  15  35  1   
 33  16  22  1   
 34  16  36  1   
 35  16  37  1   
 36  17  22  1   
 37  17  38  1   
 38  17  39  1   
 39  18  40  1   
 40  18  41  1   
 41  19  42  1   
 42  19  43  1   
 43  19  44  1   
 44  20  45  1   
 45  21  23  1   
 46  21  46  1   
 47  21  47  1   
 48  23  24  ar  
 49  23  25  ar  
@<TRIPOS>SUBSTRUCTURE
  1 ****   4 GROUP 4 **** **** 0

# MOE 2024.06 (io_trps.svl 2023.06)
