@<TRIPOS>MOLECULE
NONAME
42 44 1 0 0 
SMALL
USER_CHARGES


@<TRIPOS>ATOM
  1 O       -0.4790     0.2480     0.6090 O.2   1 <1>  -0.5700 
  2 C       -1.4830     0.9330     0.5250 C.2   1 <1>   0.6160 
  3 N       -2.7110     0.3080     0.5260 N.am  1 <1>  -0.6600 
  4 C       -1.3670     2.3680     0.4050 C.2   1 <1>   0.0140 
  5 C       -3.8670     0.7800    -0.2840 C.3   1 <1>   0.1400 
  6 C       -2.8800    -1.1360     0.8230 C.3   1 <1>   0.1400 
  7 C       -2.2380     3.2420     1.0130 C.2   1 <1>  -0.0410 
  8 C       -0.3020     2.9390    -0.3610 C.2   1 <1>  -0.1500 
  9 C       -4.7860    -0.4370    -0.4650 C.3   1 <1>   0.2000 
 10 C       -3.8650    -1.6370    -0.2320 C.3   1 <1>  -0.0800 
 11 N       -2.1140     4.6000     0.8710 N.am  1 <1>  -0.5390 
 12 C       -0.1860     4.2890    -0.4910 C.2   1 <1>  -0.1360 
 13 O       -5.7740    -0.4280     0.5270 O.3   1 <1>  -0.5600 
 14 C       -4.5880    -2.9370     0.1670 C.3   1 <1>   0.0200 
 15 C       -1.1130     5.1660     0.1320 C.2   1 <1>   0.6160 
 16 C       -6.9320     0.2760     0.2060 C.3   1 <1>   0.0400 
 17 C       -3.6640    -4.1430     0.2210 C.2   1 <1>  -0.0400 
 18 O       -1.0650     6.3810     0.0420 O.2   1 <1>  -0.5700 
 19 O       -4.1460    -5.2830     0.6380 O.3   1 <1>  -0.0190 
 20 C       -2.3700    -4.3350    -0.0850 C.2   1 <1>  -0.1500 
 21 N       -3.2470    -6.2250     0.6300 N.2   1 <1>  -0.4100 
 22 C       -2.1660    -5.6810     0.2000 C.2   1 <1>   0.1080 
 23 C       -0.8540    -6.4130     0.0300 C.3   1 <1>  -0.0590 
 24 H       -4.3820     1.5840     0.2090 H     1 <1>   0.0800 
 25 H       -3.5100     1.1120    -1.2430 H     1 <1>   0.0800 
 26 H       -1.9450    -1.6680     0.7820 H     1 <1>   0.0800 
 27 H       -3.3020    -1.2370     1.8090 H     1 <1>   0.0800 
 28 H       -3.0430     2.8770     1.6320 H     1 <1>   0.1500 
 29 H        0.4000     2.2650    -0.8230 H     1 <1>   0.1500 
 30 H       -5.2530    -0.4700    -1.4350 H     1 <1>   0.0800 
 31 H       -3.3150    -1.8100    -1.1410 H     1 <1>   0.0800 
 32 H       -2.7380     5.2740     1.3190 H     1 <1>   0.3700 
 33 H        0.6000     4.7490    -1.0580 H     1 <1>   0.1500 
 34 H       -5.3690    -3.1410    -0.5430 H     1 <1>   0.0800 
 35 H       -5.0490    -2.8160     1.1320 H     1 <1>   0.0800 
 36 H       -7.5970     0.2270     1.0500 H     1 <1>   0.0800 
 37 H       -7.4020    -0.1820    -0.6480 H     1 <1>   0.0800 
 38 H       -6.6870     1.3030    -0.0010 H     1 <1>   0.0800 
 39 H       -1.6320    -3.6510    -0.4620 H     1 <1>   0.1500 
 40 H       -0.0870    -5.9250     0.6030 H     1 <1>   0.0800 
 41 H       -0.5730    -6.4200    -1.0070 H     1 <1>   0.0800 
 42 H       -0.9520    -7.4270     0.3720 H     1 <1>   0.0800 
@<TRIPOS>BOND
  1   1   2  2   
  2   2   3  am  
  3   2   4  1   
  4   3   5  1   
  5   3   6  1   
  6   4   7  2   
  7   4   8  1   
  8   5   9  1   
  9   5  24  1   
 10   5  25  1   
 11   6  10  1   
 12   6  26  1   
 13   6  27  1   
 14   7  11  1   
 15   7  28  1   
 16   8  12  2   
 17   8  29  1   
 18   9  10  1   
 19   9  13  1   
 20   9  30  1   
 21  10  14  1   
 22  10  31  1   
 23  11  15  am  
 24  11  32  1   
 25  12  15  1   
 26  12  33  1   
 27  13  16  1   
 28  14  17  1   
 29  14  34  1   
 30  14  35  1   
 31  15  18  2   
 32  16  36  1   
 33  16  37  1   
 34  16  38  1   
 35  17  19  1   
 36  17  20  2   
 37  19  21  1   
 38  20  22  1   
 39  20  39  1   
 40  21  22  2   
 41  22  23  1   
 42  23  40  1   
 43  23  41  1   
 44  23  42  1   
@<TRIPOS>SUBSTRUCTURE
  1 ****   3 GROUP 4 **** **** 0

# MOE 2024.06 (io_trps.svl 2023.06)
