@<TRIPOS>MOLECULE
NONAME
55 57 1 0 0 
SMALL
USER_CHARGES


@<TRIPOS>ATOM
  1 O       -0.3070     1.5300     2.3490 O.2   1 <1>  -0.5700 
  2 C       -0.3060     2.5890     1.7750 C.2   1 <1>   0.5690 
  3 N       -1.3030     3.4810     1.9700 N.am  1 <1>  -0.7300 
  4 C        0.8160     2.9300     0.7890 C.3   1 <1>   0.1810 
  5 C       -1.3750     4.7940     1.2850 C.3   1 <1>   0.3640 
  6 O        0.8940     4.3120     0.5070 O.3   1 <1>  -0.5600 
  7 C       -2.8010     5.0180     0.7940 C.ar  1 <1>  -0.1440 
  8 C       -0.3470     4.8990     0.1310 C.3   1 <1>   0.2610 
  9 C       -3.3930     6.2590     0.9680 C.ar  1 <1>  -0.1500 
 10 C       -3.5230     4.0130     0.1630 C.ar  1 <1>  -0.1500 
 11 C       -0.1580     6.3700    -0.2390 C.2   1 <1>   0.5690 
 12 C       -4.6790     6.5000     0.5160 C.ar  1 <1>   0.0830 
 13 C       -4.8150     4.2420    -0.2820 C.ar  1 <1>  -0.1500 
 14 O       -0.8950     6.8680    -1.0560 O.2   1 <1>  -0.5700 
 15 N        0.8390     7.0610     0.3780 N.am  1 <1>  -0.7300 
 16 O       -5.1830     7.7420     0.7110 O.3   1 <1>  -0.3630 
 17 C       -5.4120     5.4870    -0.1070 C.ar  1 <1>   0.0830 
 18 C        1.2820     8.4490     0.1790 C.3   1 <1>   0.3000 
 19 C       -5.2880     8.5480    -0.4410 C.3   1 <1>   0.0400 
 20 O       -6.6850     5.7580    -0.5160 O.3   1 <1>  -0.3630 
 21 C        1.7810     8.6440    -1.2650 C.3   1 <1>  -0.1600 
 22 C        2.4400     8.7010     1.1620 C.3   1 <1>  -0.1600 
 23 C        0.1220     9.3950     0.5000 C.3   1 <1>  -0.2400 
 24 C       -7.5190     4.7540    -1.0490 C.3   1 <1>   0.0400 
 25 C        3.0220     7.7950    -1.5900 C.3   1 <1>  -0.1600 
 26 C        3.6950     7.8620     0.8550 C.3   1 <1>  -0.1600 
 27 C        4.1570     8.0700    -0.5940 C.3   1 <1>  -0.1600 
 28 H       -2.0590     3.2490     2.6170 H     1 <1>   0.3700 
 29 H        0.6560     2.4030    -0.1330 H     1 <1>   0.0800 
 30 H        1.7590     2.6260     1.2040 H     1 <1>   0.0800 
 31 H       -1.1400     5.5540     2.0120 H     1 <1>   0.0800 
 32 H       -0.7140     4.3790    -0.7350 H     1 <1>   0.0800 
 33 H       -2.8640     7.0650     1.4450 H     1 <1>   0.1500 
 34 H       -3.0850     3.0410     0.0120 H     1 <1>   0.1500 
 35 H       -5.3370     3.4360    -0.7610 H     1 <1>   0.1500 
 36 H        1.5210     6.4960     0.8880 H     1 <1>   0.3700 
 37 H       -5.6000     9.5300    -0.1360 H     1 <1>   0.0800 
 38 H       -6.0180     8.1210    -1.1050 H     1 <1>   0.0800 
 39 H       -4.3260     8.5950    -0.9200 H     1 <1>   0.0800 
 40 H        0.9930     8.4170    -1.9600 H     1 <1>   0.0800 
 41 H        2.0330     9.6800    -1.4040 H     1 <1>   0.0800 
 42 H        2.7130     9.7410     1.1100 H     1 <1>   0.0800 
 43 H        2.1110     8.5110     2.1690 H     1 <1>   0.0800 
 44 H        0.4490    10.4170     0.4410 H     1 <1>   0.0800 
 45 H       -0.2490     9.2120     1.4920 H     1 <1>   0.0800 
 46 H       -0.6800     9.2660    -0.2030 H     1 <1>   0.0800 
 47 H       -8.4790     5.1920    -1.2530 H     1 <1>   0.0800 
 48 H       -7.6230     3.9670    -0.3230 H     1 <1>   0.0800 
 49 H       -7.0830     4.3870    -1.9610 H     1 <1>   0.0800 
 50 H        2.7620     6.7500    -1.5600 H     1 <1>   0.0800 
 51 H        3.3580     8.0180    -2.5880 H     1 <1>   0.0800 
 52 H        4.4880     8.1440     1.5260 H     1 <1>   0.0800 
 53 H        3.4900     6.8180     1.0150 H     1 <1>   0.0800 
 54 H        4.4970     9.0840    -0.7160 H     1 <1>   0.0800 
 55 H        4.9870     7.4180    -0.8050 H     1 <1>   0.0800 
@<TRIPOS>BOND
  1   1   2  2   
  2   2   3  am  
  3   2   4  1   
  4   3   5  1   
  5   3  28  1   
  6   4   6  1   
  7   4  29  1   
  8   4  30  1   
  9   5   7  1   
 10   5   8  1   
 11   5  31  1   
 12   6   8  1   
 13   7   9  ar  
 14   7  10  ar  
 15   8  11  1   
 16   8  32  1   
 17   9  12  ar  
 18   9  33  1   
 19  10  13  ar  
 20  10  34  1   
 21  11  14  2   
 22  11  15  am  
 23  12  16  1   
 24  12  17  ar  
 25  13  17  ar  
 26  13  35  1   
 27  15  18  1   
 28  15  36  1   
 29  16  19  1   
 30  17  20  1   
 31  18  21  1   
 32  18  22  1   
 33  18  23  1   
 34  19  37  1   
 35  19  38  1   
 36  19  39  1   
 37  20  24  1   
 38  21  25  1   
 39  21  40  1   
 40  21  41  1   
 41  22  26  1   
 42  22  42  1   
 43  22  43  1   
 44  23  44  1   
 45  23  45  1   
 46  23  46  1   
 47  24  47  1   
 48  24  48  1   
 49  24  49  1   
 50  25  27  1   
 51  25  50  1   
 52  25  51  1   
 53  26  27  1   
 54  26  52  1   
 55  26  53  1   
 56  27  54  1   
 57  27  55  1   
@<TRIPOS>SUBSTRUCTURE
  1 ****  11 GROUP 4 **** **** 0

# MOE 2024.06 (io_trps.svl 2023.06)
