@<TRIPOS>MOLECULE
NONAME
50 53 1 0 0 
SMALL
USER_CHARGES


@<TRIPOS>ATOM
  1 O       -0.3760     0.0670    -0.1110 O.2   1 <1>  -0.5700 
  2 C       -1.4270     0.6630    -0.1490 C.2   1 <1>   0.5690 
  3 N       -2.5940     0.0490    -0.5170 N.am  1 <1>  -0.6600 
  4 C       -1.4210     2.1350     0.2190 C.3   1 <1>  -0.0990 
  5 C       -3.9440     0.6950    -0.5970 C.3   1 <1>   0.1400 
  6 C       -2.6440    -1.4130    -0.8290 C.3   1 <1>   0.1400 
  7 C       -0.0500     2.6080     0.7240 C.3   1 <1>   0.0960 
  8 C       -4.9610    -0.0550     0.2840 C.3   1 <1>   0.1900 
  9 C       -3.7040    -2.1240     0.0300 C.3   1 <1>   0.1100 
 10 N       -0.0760     4.0580     0.9930 N.pl3 1 <1>   0.3140 
 11 N       -5.0330    -1.4850    -0.1050 N.3   1 <1>  -0.8100 
 12 C       -6.3500     0.6040     0.1840 C.3   1 <1>   0.1200 
 13 N       -0.7830     4.5840     1.9690 N.2   1 <1>  -0.4180 
 14 C        0.5160     5.0510     0.3490 C.2   1 <1>   0.0060 
 15 C       -6.0640    -2.1780     0.7060 C.3   1 <1>   0.3340 
 16 O       -7.2720    -0.0790     0.9830 O.3   1 <1>  -0.5600 
 17 N       -0.6070     5.8540     1.9000 N.2   1 <1>   0.0000 
 18 N        0.2010     6.1630     0.8920 N.2   1 <1>  -0.3380 
 19 C        1.4290     4.9120    -0.8550 C.3   1 <1>  -0.0600 
 20 C       -6.2590    -3.6180     0.2350 C.ar  1 <1>  -0.1440 
 21 C       -7.4130    -1.4300     0.6320 C.3   1 <1>   0.1200 
 22 C       -6.2940    -4.6530     1.1590 C.ar  1 <1>  -0.1500 
 23 C       -6.4080    -3.9140    -1.1130 C.ar  1 <1>  -0.1500 
 24 C       -6.4760    -5.9610     0.7420 C.ar  1 <1>  -0.1500 
 25 C       -6.5910    -5.2200    -1.5320 C.ar  1 <1>  -0.1500 
 26 C       -6.6260    -6.2450    -0.6040 C.ar  1 <1>  -0.1500 
 27 H       -1.6970     2.7010    -0.6520 H     1 <1>   0.0800 
 28 H       -2.1460     2.2960     0.9940 H     1 <1>   0.0800 
 29 H       -3.9030     1.7230    -0.2910 H     1 <1>   0.0800 
 30 H       -4.2810     0.6690    -1.6190 H     1 <1>   0.0800 
 31 H       -2.8890    -1.5450    -1.8680 H     1 <1>   0.0800 
 32 H       -1.6870    -1.8730    -0.6560 H     1 <1>   0.0800 
 33 H        0.7100     2.3980    -0.0060 H     1 <1>   0.0800 
 34 H        0.2040     2.0960     1.6350 H     1 <1>   0.0800 
 35 H       -4.6340     0.0230     1.3080 H     1 <1>   0.0800 
 36 H       -3.3900    -2.1090     1.0600 H     1 <1>   0.0800 
 37 H       -3.7600    -3.1510    -0.2850 H     1 <1>   0.0800 
 38 H       -6.7040     0.5960    -0.8330 H     1 <1>   0.0800 
 39 H       -6.3110     1.6210     0.5320 H     1 <1>   0.0800 
 40 H       -5.7500    -2.1870     1.7360 H     1 <1>   0.0800 
 41 H        1.7430     5.8850    -1.1890 H     1 <1>   0.0800 
 42 H        0.9120     4.4240    -1.6610 H     1 <1>   0.0800 
 43 H        2.3030     4.3430    -0.5940 H     1 <1>   0.0800 
 44 H       -8.1170    -1.8760     1.3110 H     1 <1>   0.0800 
 45 H       -7.8160    -1.4850    -0.3640 H     1 <1>   0.0800 
 46 H       -6.1800    -4.4480     2.2090 H     1 <1>   0.1500 
 47 H       -6.3760    -3.1190    -1.8390 H     1 <1>   0.1500 
 48 H       -6.5030    -6.7580     1.4650 H     1 <1>   0.1500 
 49 H       -6.7060    -5.4370    -2.5790 H     1 <1>   0.1500 
 50 H       -6.7680    -7.2610    -0.9280 H     1 <1>   0.1500 
@<TRIPOS>BOND
  1   1   2  2   
  2   2   3  am  
  3   2   4  1   
  4   3   5  1   
  5   3   6  1   
  6   4   7  1   
  7   4  27  1   
  8   4  28  1   
  9   5   8  1   
 10   5  29  1   
 11   5  30  1   
 12   6   9  1   
 13   6  31  1   
 14   6  32  1   
 15   7  10  1   
 16   7  33  1   
 17   7  34  1   
 18   8  11  1   
 19   8  12  1   
 20   8  35  1   
 21   9  11  1   
 22   9  36  1   
 23   9  37  1   
 24  10  13  1   
 25  10  14  1   
 26  11  15  1   
 27  12  16  1   
 28  12  38  1   
 29  12  39  1   
 30  13  17  2   
 31  14  18  2   
 32  14  19  1   
 33  15  20  1   
 34  15  21  1   
 35  15  40  1   
 36  16  21  1   
 37  17  18  1   
 38  19  41  1   
 39  19  42  1   
 40  19  43  1   
 41  20  22  ar  
 42  20  23  ar  
 43  21  44  1   
 44  21  45  1   
 45  22  24  ar  
 46  22  46  1   
 47  23  25  ar  
 48  23  47  1   
 49  24  26  ar  
 50  24  48  1   
 51  25  26  ar  
 52  25  49  1   
 53  26  50  1   
@<TRIPOS>SUBSTRUCTURE
  1 ****   3 GROUP 4 **** **** 0

# MOE 2024.06 (io_trps.svl 2023.06)
