@<TRIPOS>MOLECULE
NONAME
46 47 1 0 0 
SMALL
USER_CHARGES


@<TRIPOS>ATOM
  1 S        0.4060     0.1010     1.0060 S.o2  1 <1>   1.3330 
  2 O       -0.2570    -1.1590     1.2320 O.2   1 <1>  -0.6500 
  3 O        1.1380     0.7570     2.0680 O.2   1 <1>  -0.6500 
  4 N        1.4680    -0.0690    -0.3060 N.am  1 <1>  -0.8490 
  5 C       -0.7750     1.3120     0.4030 C.3   1 <1>  -0.0550 
  6 C        0.9440    -0.9600    -1.3520 C.3   1 <1>   0.1160 
  7 C        2.7830    -0.5690     0.1210 C.3   1 <1>   0.1160 
  8 C       -0.1090     2.5900    -0.1660 C.3   1 <1>  -0.0800 
  9 C       -1.0680     3.7030    -0.5740 C.3   1 <1>   0.2000 
 10 C        0.8820     3.2750     0.7840 C.3   1 <1>   0.3430 
 11 O       -2.0530     3.8680     0.3940 O.3   1 <1>  -0.6800 
 12 C       -0.1690     4.9400    -0.6080 C.3   1 <1>   0.3430 
 13 N        0.8450     4.7420     0.4810 N.4   1 <1>  -0.9590 
 14 C        2.2110     5.2270     0.1030 C.3   1 <1>   0.3430 
 15 C        2.3030     6.7540    -0.0100 C.3   1 <1>   0.0200 
 16 C        3.6930     7.1250    -0.4890 C.2   1 <1>   0.0060 
 17 N        4.5460     6.2390    -0.8910 N.2   1 <1>  -0.5650 
 18 N        4.1630     8.3980    -0.5430 N.pl3 1 <1>   0.0480 
 19 C        5.6310     6.9610    -1.2240 C.2   1 <1>   0.0770 
 20 C        5.4150     8.2770    -1.0180 C.2   1 <1>  -0.3020 
 21 C        3.4980     9.6620    -0.1760 C.3   1 <1>   0.0160 
 22 H       -1.3760     0.8650    -0.3650 H     1 <1>   0.0800 
 23 H       -1.4330     1.5660     1.2110 H     1 <1>   0.0800 
 24 H        1.6200    -0.9880    -2.1900 H     1 <1>   0.0800 
 25 H       -0.0120    -0.6090    -1.7010 H     1 <1>   0.0800 
 26 H        0.8230    -1.9620    -0.9700 H     1 <1>   0.0800 
 27 H        3.4420    -0.6620    -0.7260 H     1 <1>   0.0800 
 28 H        2.6820    -1.5310     0.5960 H     1 <1>   0.0800 
 29 H        3.2320     0.1140     0.8210 H     1 <1>   0.0800 
 30 H        0.4500     2.3080    -1.0420 H     1 <1>   0.0800 
 31 H       -1.5530     3.5220    -1.5190 H     1 <1>   0.0800 
 32 H        1.8720     2.8640     0.6520 H     1 <1>   0.0800 
 33 H        0.5840     3.1090     1.8080 H     1 <1>   0.0800 
 34 H       -1.6970     3.9580     1.2990 H     1 <1>   0.4000 
 35 H       -0.7430     5.8430    -0.4760 H     1 <1>   0.0800 
 36 H        0.3310     4.9740    -1.5630 H     1 <1>   0.0800 
 37 H        0.5400     5.2360     1.3310 H     1 <1>   0.4500 
 38 H        2.9310     4.9040     0.8380 H     1 <1>   0.0800 
 39 H        2.5030     4.7930    -0.8400 H     1 <1>   0.0800 
 40 H        2.1280     7.2020     0.9500 H     1 <1>   0.0800 
 41 H        1.5900     7.1260    -0.7220 H     1 <1>   0.0800 
 42 H        6.5250     6.4910    -1.6000 H     1 <1>   0.1500 
 43 H        6.0740     9.1100    -1.1820 H     1 <1>   0.1500 
 44 H        4.1260    10.4900    -0.4480 H     1 <1>   0.0800 
 45 H        3.3270     9.6810     0.8850 H     1 <1>   0.0800 
 46 H        2.5630     9.7410    -0.6990 H     1 <1>   0.0800 
@<TRIPOS>BOND
  1   1   2  2   
  2   1   3  2   
  3   1   4  am  
  4   1   5  1   
  5   4   6  1   
  6   4   7  1   
  7   5   8  1   
  8   5  22  1   
  9   5  23  1   
 10   6  24  1   
 11   6  25  1   
 12   6  26  1   
 13   7  27  1   
 14   7  28  1   
 15   7  29  1   
 16   8   9  1   
 17   8  10  1   
 18   8  30  1   
 19   9  11  1   
 20   9  12  1   
 21   9  31  1   
 22  10  13  1   
 23  10  32  1   
 24  10  33  1   
 25  11  34  1   
 26  12  13  1   
 27  12  35  1   
 28  12  36  1   
 29  13  14  1   
 30  13  37  1   
 31  14  15  1   
 32  14  38  1   
 33  14  39  1   
 34  15  16  1   
 35  15  40  1   
 36  15  41  1   
 37  16  17  2   
 38  16  18  1   
 39  17  19  1   
 40  18  20  1   
 41  18  21  1   
 42  19  20  2   
 43  19  42  1   
 44  20  43  1   
 45  21  44  1   
 46  21  45  1   
 47  21  46  1   
@<TRIPOS>SUBSTRUCTURE
  1 ****  10 GROUP 4 **** **** 0

# MOE 2024.06 (io_trps.svl 2023.06)
