@<TRIPOS>MOLECULE
NONAME
42 44 1 0 0 
SMALL
USER_CHARGES


@<TRIPOS>ATOM
  1 O        0.4360    -0.3000    -1.5380 O.2   1 <1>  -0.5700 
  2 C        1.2590    -0.7710    -0.7780 C.2   1 <1>   0.5440 
  3 N        2.1730     0.0450    -0.1630 N.am  1 <1>  -0.4930 
  4 C        1.2640    -2.1960    -0.5070 C.ar  1 <1>   0.0860 
  5 C        2.3830     1.4380    -0.3210 C.2   1 <1>   0.0630 
  6 C        0.0920    -2.9250    -0.4690 C.ar  1 <1>  -0.1500 
  7 C        2.4680    -2.8940    -0.2750 C.ar  1 <1>  -0.1500 
  8 C        1.7520     2.3450    -1.1740 C.2   1 <1>   0.1390 
  9 C        3.2800     2.1830     0.3570 C.2   1 <1>  -0.3020 
 10 C        0.0620    -4.2970    -0.1930 C.ar  1 <1>   0.3100 
 11 C        2.4710    -4.2370    -0.0040 C.ar  1 <1>  -0.1500 
 12 N        2.2160     3.5530    -1.0420 N.2   1 <1>  -0.7070 
 13 N        3.1640     3.4560    -0.0910 N.pl3 1 <1>   0.3140 
 14 N       -1.1310    -4.9420    -0.1610 N.ar  1 <1>  -0.6200 
 15 C        1.2800    -4.9730     0.0500 C.ar  1 <1>   0.3100 
 16 C        3.9430     4.6440     0.3560 C.3   1 <1>   0.1760 
 17 C       -1.0550    -6.2080     0.1050 C.ar  1 <1>   0.1670 
 18 N        1.3290    -6.2980     0.3280 N.ar  1 <1>  -0.6200 
 19 C        5.4380     4.4570     0.0660 C.3   1 <1>  -0.2400 
 20 C        3.7010     4.9250     1.8460 C.3   1 <1>  -0.2400 
 21 C        0.1730    -6.8850     0.3490 C.ar  1 <1>   0.1670 
 22 C       -2.3740    -6.9620     0.1460 C.3   1 <1>  -0.0970 
 23 C        0.1860    -8.3730     0.6560 C.3   1 <1>  -0.0970 
 24 H        2.7560    -0.3880     0.5490 H     1 <1>   0.3700 
 25 H       -0.8480    -2.4380    -0.6550 H     1 <1>   0.1500 
 26 H        3.4020    -2.3610    -0.3250 H     1 <1>   0.1500 
 27 H        0.9700     2.0820    -1.8660 H     1 <1>   0.1500 
 28 H        3.9800     1.8940     1.1160 H     1 <1>   0.1500 
 29 H        3.3890    -4.7690     0.1720 H     1 <1>   0.1500 
 30 H        3.5870     5.4860    -0.2120 H     1 <1>   0.0800 
 31 H        5.8380     3.6330     0.6310 H     1 <1>   0.0800 
 32 H        5.9780     5.3480     0.3310 H     1 <1>   0.0800 
 33 H        5.5860     4.2720    -0.9830 H     1 <1>   0.0800 
 34 H        4.0600     4.1130     2.4530 H     1 <1>   0.0800 
 35 H        2.6490     5.0630     2.0250 H     1 <1>   0.0800 
 36 H        4.2140     5.8230     2.1390 H     1 <1>   0.0800 
 37 H       -3.1920    -6.2950    -0.0630 H     1 <1>   0.0800 
 38 H       -2.5270    -7.3870     1.1200 H     1 <1>   0.0800 
 39 H       -2.3780    -7.7420    -0.5930 H     1 <1>   0.0800 
 40 H       -0.3800    -8.5730     1.5470 H     1 <1>   0.0800 
 41 H        1.1940    -8.7140     0.8150 H     1 <1>   0.0800 
 42 H       -0.2300    -8.9250    -0.1670 H     1 <1>   0.0800 
@<TRIPOS>BOND
  1   1   2  2   
  2   2   3  am  
  3   2   4  1   
  4   3   5  1   
  5   3  24  1   
  6   4   6  ar  
  7   4   7  ar  
  8   5   8  1   
  9   5   9  2   
 10   6  10  ar  
 11   6  25  1   
 12   7  11  ar  
 13   7  26  1   
 14   8  12  2   
 15   8  27  1   
 16   9  13  1   
 17   9  28  1   
 18  10  14  ar  
 19  10  15  ar  
 20  11  15  ar  
 21  11  29  1   
 22  12  13  1   
 23  13  16  1   
 24  14  17  ar  
 25  15  18  ar  
 26  16  19  1   
 27  16  20  1   
 28  16  30  1   
 29  17  21  ar  
 30  17  22  1   
 31  18  21  ar  
 32  19  31  1   
 33  19  32  1   
 34  19  33  1   
 35  20  34  1   
 36  20  35  1   
 37  20  36  1   
 38  21  23  1   
 39  22  37  1   
 40  22  38  1   
 41  22  39  1   
 42  23  40  1   
 43  23  41  1   
 44  23  42  1   
@<TRIPOS>SUBSTRUCTURE
  1 ****   4 GROUP 4 **** **** 0

# MOE 2024.06 (io_trps.svl 2023.06)
