@<TRIPOS>MOLECULE
NONAME
43 44 1 0 0 
SMALL
USER_CHARGES


@<TRIPOS>ATOM
  1 CL       2.5130     2.7760     2.7060 Cl    1 <1>  -0.1770 
  2 C        1.2460     2.1950     1.6480 C.ar  1 <1>   0.1770 
  3 C        1.5280     1.7970     0.3460 C.ar  1 <1>  -0.1440 
  4 C       -0.0380     2.1450     2.1590 C.ar  1 <1>  -0.1500 
  5 C        0.4760     1.3360    -0.4390 C.ar  1 <1>  -0.1500 
  6 C        2.9450     1.8680    -0.2180 C.3   1 <1>   0.3640 
  7 C       -1.0730     1.6860     1.3640 C.ar  1 <1>  -0.1500 
  8 C       -0.8120     1.2810     0.0660 C.ar  1 <1>  -0.1500 
  9 N        3.2670     0.5610    -0.8420 N.am  1 <1>  -0.7300 
 10 C        3.1080     3.0320    -1.2280 C.3   1 <1>   0.2610 
 11 C        3.8980     0.4340    -2.0310 C.2   1 <1>   0.5690 
 12 O        4.2880     2.8560    -2.0060 O.3   1 <1>  -0.5600 
 13 C        3.1420     4.3640    -0.4780 C.2   1 <1>   0.5690 
 14 O        4.1390    -0.6550    -2.4850 O.2   1 <1>  -0.5700 
 15 C        4.2810     1.6950    -2.8110 C.3   1 <1>   0.1810 
 16 O        2.0950     4.8690    -0.1490 O.2   1 <1>  -0.5700 
 17 N        4.3540     4.9230    -0.2110 N.am  1 <1>  -0.7300 
 18 C        4.6900     6.1380     0.5390 C.3   1 <1>   0.3000 
 19 C        6.2270     6.2800     0.5350 C.3   1 <1>  -0.1600 
 20 C        4.0750     7.3470    -0.1700 C.3   1 <1>  -0.2400 
 21 C        4.1470     6.0210     1.9660 C.3   1 <1>  -0.2400 
 22 C        7.0150     5.1010     1.1380 C.3   1 <1>  -0.2400 
 23 H       -0.2220     2.4650     3.1680 H     1 <1>   0.1500 
 24 H        0.6520     1.0160    -1.4520 H     1 <1>   0.1500 
 25 H        3.6520     2.0230     0.5770 H     1 <1>   0.0800 
 26 H       -2.0760     1.6450     1.7530 H     1 <1>   0.1500 
 27 H       -1.6170     0.9230    -0.5540 H     1 <1>   0.1500 
 28 H        3.0160    -0.2830    -0.3240 H     1 <1>   0.3700 
 29 H        2.2690     3.0530    -1.9000 H     1 <1>   0.0800 
 30 H        3.5850     1.8440    -3.6160 H     1 <1>   0.0800 
 31 H        5.2660     1.5750    -3.2220 H     1 <1>   0.0800 
 32 H        5.1650     4.4690    -0.6350 H     1 <1>   0.3700 
 33 H        6.5570     6.4310    -0.4780 H     1 <1>   0.0800 
 34 H        6.4880     7.1710     1.0800 H     1 <1>   0.0800 
 35 H        4.3610     8.2540     0.3300 H     1 <1>   0.0800 
 36 H        3.0010     7.2890    -0.1590 H     1 <1>   0.0800 
 37 H        4.4090     7.3970    -1.1900 H     1 <1>   0.0800 
 38 H        4.4790     6.8530     2.5580 H     1 <1>   0.0800 
 39 H        4.4800     5.1130     2.4310 H     1 <1>   0.0800 
 40 H        3.0710     6.0270     1.9630 H     1 <1>   0.0800 
 41 H        6.8010     4.1820     0.6210 H     1 <1>   0.0800 
 42 H        6.7790     4.9740     2.1790 H     1 <1>   0.0800 
 43 H        8.0700     5.2930     1.0580 H     1 <1>   0.0800 
@<TRIPOS>BOND
  1   1   2  1   
  2   2   3  ar  
  3   2   4  ar  
  4   3   5  ar  
  5   3   6  1   
  6   4   7  ar  
  7   4  23  1   
  8   5   8  ar  
  9   5  24  1   
 10   6   9  1   
 11   6  10  1   
 12   6  25  1   
 13   7   8  ar  
 14   7  26  1   
 15   8  27  1   
 16   9  11  am  
 17   9  28  1   
 18  10  12  1   
 19  10  13  1   
 20  10  29  1   
 21  11  14  2   
 22  11  15  1   
 23  12  15  1   
 24  13  16  2   
 25  13  17  am  
 26  15  30  1   
 27  15  31  1   
 28  17  18  1   
 29  17  32  1   
 30  18  19  1   
 31  18  20  1   
 32  18  21  1   
 33  19  22  1   
 34  19  33  1   
 35  19  34  1   
 36  20  35  1   
 37  20  36  1   
 38  20  37  1   
 39  21  38  1   
 40  21  39  1   
 41  21  40  1   
 42  22  41  1   
 43  22  42  1   
 44  22  43  1   
@<TRIPOS>SUBSTRUCTURE
  1 ****  10 GROUP 4 **** **** 0

# MOE 2024.06 (io_trps.svl 2023.06)
