@<TRIPOS>MOLECULE
NONAME
49 51 1 0 0 
SMALL
USER_CHARGES


@<TRIPOS>ATOM
  1 S       -0.8110    -1.1400     0.6920 S.3   1 <1>  -0.0800 
  2 C       -2.2290    -0.4970    -0.0910 C.2   1 <1>  -0.1400 
  3 C        0.1300    -0.7050    -0.7140 C.2   1 <1>   0.2280 
  4 C       -1.8730    -0.0280    -1.3010 C.2   1 <1>   0.0460 
  5 C       -3.5380    -0.5640     0.6770 C.3   1 <1>   0.0200 
  6 N       -0.5370    -0.1510    -1.6450 N.2   1 <1>  -0.5650 
  7 C       -2.7620     0.6200    -2.3400 C.3   1 <1>  -0.0590 
  8 C       -4.0440    -2.0080     0.7730 C.3   1 <1>  -0.1600 
  9 C       -5.3910    -2.0770     1.4900 C.3   1 <1>   0.1400 
 10 N       -5.8120    -3.4860     1.5820 N.am  1 <1>  -0.7300 
 11 C       -6.2680    -4.1220     2.6910 C.2   1 <1>   0.5690 
 12 O       -6.3980    -3.5590     3.7520 O.2   1 <1>  -0.5700 
 13 C       -6.6170    -5.6100     2.5740 C.3   1 <1>   0.1710 
 14 N       -6.9310    -6.0620     1.1850 N.3   1 <1>  -0.8100 
 15 C       -8.2680    -5.5780     0.7610 C.3   1 <1>   0.1100 
 16 C       -6.9030    -7.5380     1.0940 C.3   1 <1>   0.1100 
 17 C       -8.6250    -6.0150    -0.6720 C.3   1 <1>   0.2090 
 18 C       -7.2050    -8.0440    -0.3290 C.3   1 <1>   0.2090 
 19 N       -8.5030    -7.4970    -0.8380 N.pl3 1 <1>  -0.8380 
 20 C       -9.3730    -8.2370    -1.6140 C.ar  1 <1>   0.7200 
 21 N       -9.1160    -9.5390    -1.7470 N.ar  1 <1>  -0.6200 
 22 N      -10.3970    -7.5890    -2.1700 N.ar  1 <1>  -0.6200 
 23 C       -9.9490   -10.2280    -2.4870 C.ar  1 <1>   0.1600 
 24 C      -11.2140    -8.3020    -2.9050 C.ar  1 <1>   0.1600 
 25 C      -11.0330    -9.6490    -3.0990 C.ar  1 <1>  -0.1500 
 26 H        1.1810    -0.9330    -0.6910 H     1 <1>   0.1500 
 27 H       -4.2750     0.0420     0.1820 H     1 <1>   0.0800 
 28 H       -3.3880    -0.1590     1.6630 H     1 <1>   0.0800 
 29 H       -3.7800     0.6700    -2.0040 H     1 <1>   0.0800 
 30 H       -2.7230     0.0500    -3.2500 H     1 <1>   0.0800 
 31 H       -2.4110     1.6160    -2.5410 H     1 <1>   0.0800 
 32 H       -3.3270    -2.5990     1.3170 H     1 <1>   0.0800 
 33 H       -4.1420    -2.4130    -0.2190 H     1 <1>   0.0800 
 34 H       -6.1360    -1.5210     0.9450 H     1 <1>   0.0800 
 35 H       -5.3080    -1.6590     2.4800 H     1 <1>   0.0800 
 36 H       -5.7840    -4.0540     0.7280 H     1 <1>   0.3700 
 37 H       -7.4460    -5.8230     3.2260 H     1 <1>   0.0800 
 38 H       -5.7660    -6.1560     2.9390 H     1 <1>   0.0800 
 39 H       -8.2980    -4.5040     0.8080 H     1 <1>   0.0800 
 40 H       -9.0230    -5.9580     1.4290 H     1 <1>   0.0800 
 41 H       -7.6280    -7.9610     1.7690 H     1 <1>   0.0800 
 42 H       -5.9290    -7.8950     1.3820 H     1 <1>   0.0800 
 43 H       -7.9620    -5.5290    -1.3660 H     1 <1>   0.0800 
 44 H       -9.6260    -5.6840    -0.8840 H     1 <1>   0.0800 
 45 H       -7.2180    -9.1190    -0.3090 H     1 <1>   0.0800 
 46 H       -6.4140    -7.7360    -0.9890 H     1 <1>   0.0800 
 47 H       -9.7630   -11.2820    -2.6090 H     1 <1>   0.1500 
 48 H      -12.0490    -7.8000    -3.3630 H     1 <1>   0.1500 
 49 H      -11.7090   -10.2230    -3.7030 H     1 <1>   0.1500 
@<TRIPOS>BOND
  1   1   2  1   
  2   1   3  1   
  3   2   4  2   
  4   2   5  1   
  5   3   6  2   
  6   3  26  1   
  7   4   6  1   
  8   4   7  1   
  9   5   8  1   
 10   5  27  1   
 11   5  28  1   
 12   7  29  1   
 13   7  30  1   
 14   7  31  1   
 15   8   9  1   
 16   8  32  1   
 17   8  33  1   
 18   9  10  1   
 19   9  34  1   
 20   9  35  1   
 21  10  11  am  
 22  10  36  1   
 23  11  12  2   
 24  11  13  1   
 25  13  14  1   
 26  13  37  1   
 27  13  38  1   
 28  14  15  1   
 29  14  16  1   
 30  15  17  1   
 31  15  39  1   
 32  15  40  1   
 33  16  18  1   
 34  16  41  1   
 35  16  42  1   
 36  17  19  1   
 37  17  43  1   
 38  17  44  1   
 39  18  19  1   
 40  18  45  1   
 41  18  46  1   
 42  19  20  1   
 43  20  21  ar  
 44  20  22  ar  
 45  21  23  ar  
 46  22  24  ar  
 47  23  25  ar  
 48  23  47  1   
 49  24  25  ar  
 50  24  48  1   
 51  25  49  1   
@<TRIPOS>SUBSTRUCTURE
  1 ****  14 GROUP 4 **** **** 0

# MOE 2024.06 (io_trps.svl 2023.06)
