@<TRIPOS>MOLECULE
NONAME
45 47 1 0 0 
SMALL
USER_CHARGES


@<TRIPOS>ATOM
  1 F       -2.0110     5.5120    -1.9670 F     1 <1>  -0.3400 
  2 C       -2.5810     5.3220    -0.7850 C.3   1 <1>   1.1640 
  3 F       -3.4510     6.3180    -0.6600 F     1 <1>  -0.3400 
  4 F       -3.3110     4.2200    -0.8920 F     1 <1>  -0.3400 
  5 C       -1.5840     5.2390     0.3960 C.ar  1 <1>  -0.1440 
  6 C       -0.3400     4.5780     0.3630 C.ar  1 <1>  -0.1440 
  7 C       -1.9690     5.8650     1.5840 C.ar  1 <1>  -0.1500 
  8 C        0.4610     4.6050     1.5010 C.ar  1 <1>  -0.1500 
  9 C        0.2730     3.8070    -0.8240 C.3   1 <1>   0.4330 
 10 C       -1.1590     5.8740     2.7010 C.ar  1 <1>  -0.1500 
 11 C        0.0640     5.2440     2.6580 C.ar  1 <1>  -0.1500 
 12 N        0.6660     4.7220    -1.9010 N.pl3 1 <1>  -0.8690 
 13 C       -0.5930     2.6900    -1.3970 C.3   1 <1>  -0.2400 
 14 C        1.6170     5.6620    -1.6220 C.ar  1 <1>   0.4100 
 15 N        1.1400     6.8810    -1.5230 N.ar  1 <1>  -0.6200 
 16 C        2.9710     5.3450    -1.4370 C.ar  1 <1>   0.1600 
 17 C        2.0640     7.7950    -1.1800 C.ar  1 <1>   0.3960 
 18 N        3.9070     6.2160    -1.1200 N.ar  1 <1>  -0.6200 
 19 C        1.7010     9.1960    -0.9630 C.2   1 <1>   0.5440 
 20 C        3.4060     7.4400    -1.0040 C.ar  1 <1>   0.1600 
 21 O        2.4980    10.0680    -1.2710 O.2   1 <1>  -0.5700 
 22 N        0.5120     9.5980    -0.3810 N.am  1 <1>  -0.6600 
 23 C       -0.5110     8.6950     0.1970 C.3   1 <1>   0.1400 
 24 C        0.2030    11.0090    -0.0650 C.3   1 <1>   0.1400 
 25 C       -1.5490     9.6140     0.8320 C.3   1 <1>  -0.1600 
 26 C       -0.8190    10.9350     1.0620 C.3   1 <1>  -0.1600 
 27 H       -2.9200     6.3660     1.6630 H     1 <1>   0.1500 
 28 H        1.4240     4.1250     1.5050 H     1 <1>   0.1500 
 29 H        1.1710     3.3250    -0.4750 H     1 <1>   0.0800 
 30 H       -1.4810     6.3680     3.6020 H     1 <1>   0.1500 
 31 H        0.7060     5.2490     3.5230 H     1 <1>   0.1500 
 32 H       -0.1660     5.1860    -2.2800 H     1 <1>   0.4000 
 33 H       -1.3840     3.0640    -2.0150 H     1 <1>   0.0800 
 34 H       -1.0130     2.1080    -0.5970 H     1 <1>   0.0800 
 35 H        0.0200     2.0430    -1.9980 H     1 <1>   0.0800 
 36 H        3.2640     4.3200    -1.5640 H     1 <1>   0.1500 
 37 H        4.1010     8.2220    -0.7470 H     1 <1>   0.1500 
 38 H       -0.0520     8.0640     0.9400 H     1 <1>   0.0800 
 39 H       -0.9590     8.0870    -0.5710 H     1 <1>   0.0800 
 40 H       -0.2230    11.4760    -0.9360 H     1 <1>   0.0800 
 41 H        1.0880    11.5450     0.2360 H     1 <1>   0.0800 
 42 H       -1.9440     9.1990     1.7420 H     1 <1>   0.0800 
 43 H       -2.3550     9.7590     0.1350 H     1 <1>   0.0800 
 44 H       -1.4840    11.7800     1.0540 H     1 <1>   0.0800 
 45 H       -0.2980    10.9060     2.0030 H     1 <1>   0.0800 
@<TRIPOS>BOND
  1   1   2  1   
  2   2   3  1   
  3   2   4  1   
  4   2   5  1   
  5   5   6  ar  
  6   5   7  ar  
  7   6   8  ar  
  8   6   9  1   
  9   7  10  ar  
 10   7  27  1   
 11   8  11  ar  
 12   8  28  1   
 13   9  12  1   
 14   9  13  1   
 15   9  29  1   
 16  10  11  ar  
 17  10  30  1   
 18  11  31  1   
 19  12  14  1   
 20  12  32  1   
 21  13  33  1   
 22  13  34  1   
 23  13  35  1   
 24  14  15  ar  
 25  14  16  ar  
 26  15  17  ar  
 27  16  18  ar  
 28  16  36  1   
 29  17  19  1   
 30  17  20  ar  
 31  18  20  ar  
 32  19  21  2   
 33  19  22  am  
 34  20  37  1   
 35  22  23  1   
 36  22  24  1   
 37  23  25  1   
 38  23  38  1   
 39  23  39  1   
 40  24  26  1   
 41  24  40  1   
 42  24  41  1   
 43  25  26  1   
 44  25  42  1   
 45  25  43  1   
 46  26  44  1   
 47  26  45  1   
@<TRIPOS>SUBSTRUCTURE
  1 ****  15 GROUP 4 **** **** 0

# MOE 2024.06 (io_trps.svl 2023.06)
