@<TRIPOS>MOLECULE
NONAME
43 44 1 0 0 
SMALL
USER_CHARGES


@<TRIPOS>ATOM
  1 O       -0.1050     0.7530    -0.0090 O.co2 1 <1>  -0.9000 
  2 C       -0.8730     1.4050     0.7010 C.2   1 <1>   0.9060 
  3 O       -1.5290     0.9340     1.6290 O.co2 1 <1>  -0.9000 
  4 C       -1.0330     2.8620     0.4140 C.3   1 <1>  -0.1860 
  5 C       -2.5070     3.1630     0.1370 C.3   1 <1>   0.2000 
  6 C       -0.1770     3.2290    -0.7820 C.3   1 <1>   0.3430 
  7 O       -3.0600     3.5220     1.3420 O.3   1 <1>  -0.6800 
  8 C       -2.7070     4.3220    -0.8430 C.3   1 <1>  -0.1600 
  9 N       -0.2500     4.7110    -1.0520 N.4   1 <1>  -0.9590 
 10 C       -1.5740     5.3280    -0.6800 C.3   1 <1>   0.3430 
 11 C        0.8730     5.3810    -0.3460 C.3   1 <1>   0.3430 
 12 C        1.0730     6.8050    -0.8700 C.3   1 <1>  -0.1600 
 13 C        2.2850     7.4580    -0.1920 C.3   1 <1>  -0.1600 
 14 C        2.5170     8.8910    -0.6890 C.3   1 <1>  -0.0170 
 15 C        3.7180     9.4950     0.0180 C.ar  1 <1>  -0.1430 
 16 C        4.9860     9.3790    -0.5310 C.ar  1 <1>  -0.1500 
 17 C        3.5580    10.1640     1.2220 C.ar  1 <1>  -0.1500 
 18 C        6.0810     9.9240     0.1160 C.ar  1 <1>  -0.1500 
 19 C        4.6520    10.7100     1.8700 C.ar  1 <1>  -0.1500 
 20 C        5.9150    10.5900     1.3170 C.ar  1 <1>  -0.1500 
 21 H       -0.6750     3.3940     1.2740 H     1 <1>   0.0800 
 22 H       -3.0290     2.2860    -0.2150 H     1 <1>   0.0800 
 23 H       -0.5400     2.6760    -1.6340 H     1 <1>   0.0800 
 24 H        0.8410     2.9160    -0.6070 H     1 <1>   0.0800 
 25 H       -2.9410     2.7480     1.9480 H     1 <1>   0.4000 
 26 H       -2.7130     3.9520    -1.8520 H     1 <1>   0.0800 
 27 H       -3.6580     4.7920    -0.6630 H     1 <1>   0.0800 
 28 H       -0.1070     4.8250    -2.0620 H     1 <1>   0.4500 
 29 H       -1.5530     5.6330     0.3540 H     1 <1>   0.0800 
 30 H       -1.7610     6.1980    -1.2870 H     1 <1>   0.0800 
 31 H        0.6780     5.4010     0.7150 H     1 <1>   0.0800 
 32 H        1.7820     4.8210    -0.5050 H     1 <1>   0.0800 
 33 H        1.2390     6.7790    -1.9330 H     1 <1>   0.0800 
 34 H        0.2020     7.4020    -0.6650 H     1 <1>   0.0800 
 35 H        2.1370     7.4830     0.8750 H     1 <1>   0.0800 
 36 H        3.1710     6.8780    -0.3870 H     1 <1>   0.0800 
 37 H        1.6490     9.4970    -0.4960 H     1 <1>   0.0800 
 38 H        2.6880     8.8920    -1.7510 H     1 <1>   0.0800 
 39 H        5.1290     8.8640    -1.4650 H     1 <1>   0.1500 
 40 H        2.5810    10.2640     1.6610 H     1 <1>   0.1500 
 41 H        7.0620     9.8310    -0.3150 H     1 <1>   0.1500 
 42 H        4.5210    11.2280     2.8030 H     1 <1>   0.1500 
 43 H        6.7660    11.0150     1.8200 H     1 <1>   0.1500 
@<TRIPOS>BOND
  1   1   2  ar  
  2   2   3  ar  
  3   2   4  1   
  4   4   5  1   
  5   4   6  1   
  6   4  21  1   
  7   5   7  1   
  8   5   8  1   
  9   5  22  1   
 10   6   9  1   
 11   6  23  1   
 12   6  24  1   
 13   7  25  1   
 14   8  10  1   
 15   8  26  1   
 16   8  27  1   
 17   9  10  1   
 18   9  11  1   
 19   9  28  1   
 20  10  29  1   
 21  10  30  1   
 22  11  12  1   
 23  11  31  1   
 24  11  32  1   
 25  12  13  1   
 26  12  33  1   
 27  12  34  1   
 28  13  14  1   
 29  13  35  1   
 30  13  36  1   
 31  14  15  1   
 32  14  37  1   
 33  14  38  1   
 34  15  16  ar  
 35  15  17  ar  
 36  16  18  ar  
 37  16  39  1   
 38  17  19  ar  
 39  17  40  1   
 40  18  20  ar  
 41  18  41  1   
 42  19  20  ar  
 43  19  42  1   
 44  20  43  1   
@<TRIPOS>SUBSTRUCTURE
  1 ****  11 GROUP 4 **** **** 0

# MOE 2024.06 (io_trps.svl 2023.06)
