@<TRIPOS>MOLECULE
NONAME
58 60 1 0 0 
SMALL
USER_CHARGES


@<TRIPOS>ATOM
  1 O       -0.1490    -1.6500    -1.1790 O.2   1 <1>  -0.5700 
  2 C       -0.1260    -1.6010     0.0320 C.2   1 <1>   0.5690 
  3 N        1.0430    -1.4940     0.7470 N.am  1 <1>  -0.6600 
  4 C       -1.4950    -1.6460     0.7340 C.3   1 <1>   0.4040 
  5 C        2.3500    -1.3650     0.0210 C.3   1 <1>   0.2200 
  6 C        1.1070    -1.5360     2.2430 C.3   1 <1>   0.0600 
  7 N       -2.6340    -1.2130    -0.1580 N.4   1 <1>  -0.9590 
  8 C        3.1180    -2.6940     0.0500 C.3   1 <1>  -0.1600 
  9 C        3.2020    -0.2120     0.5750 C.3   1 <1>  -0.1600 
 10 C       -3.9650    -1.6370     0.3750 C.3   1 <1>   0.3430 
 11 C       -2.5770     0.2460    -0.4550 C.3   1 <1>   0.3430 
 12 C        4.4440    -2.5760    -0.7160 C.3   1 <1>  -0.1600 
 13 C        4.5230    -0.0920    -0.1990 C.3   1 <1>  -0.1600 
 14 C       -5.1030    -1.3120    -0.6160 C.3   1 <1>   0.0000 
 15 C       -3.6660     0.6110    -1.4660 C.3   1 <1>  -0.1600 
 16 C        5.2970    -1.4180    -0.1790 C.3   1 <1>  -0.1600 
 17 C       -6.4480    -1.7080     0.0130 C.3   1 <1>   0.2000 
 18 C       -5.0630     0.1860    -0.9840 C.3   1 <1>  -0.1600 
 19 C       -5.0310    -2.2260    -1.8510 C.3   1 <1>  -0.1600 
 20 O       -6.4160    -1.4730     1.3890 O.3   1 <1>  -0.5600 
 21 C       -6.6350    -3.2010    -0.2850 C.3   1 <1>  -0.1600 
 22 C       -5.6420    -3.5540    -1.4000 C.3   1 <1>  -0.1600 
 23 C       -7.6670    -1.4610     2.0070 C.3   1 <1>   0.0400 
 24 H       -1.4610    -1.0200     1.6070 H     1 <1>   0.0800 
 25 H       -1.6590    -2.6610     1.0530 H     1 <1>   0.0800 
 26 H        2.1550    -1.1350    -1.0140 H     1 <1>   0.0800 
 27 H        1.9800    -2.0760     2.5650 H     1 <1>   0.0800 
 28 H        0.2480    -2.0300     2.6600 H     1 <1>   0.0800 
 29 H        1.1620    -0.5340     2.6330 H     1 <1>   0.0800 
 30 H       -2.4670    -1.6890    -1.0590 H     1 <1>   0.4500 
 31 H        3.3330    -2.9800     1.0630 H     1 <1>   0.0800 
 32 H        2.5170    -3.4620    -0.4040 H     1 <1>   0.0800 
 33 H        2.6570     0.7110     0.4880 H     1 <1>   0.0800 
 34 H        3.4370    -0.3800     1.6100 H     1 <1>   0.0800 
 35 H       -3.9680    -2.6950     0.5760 H     1 <1>   0.0800 
 36 H       -4.1580    -1.1240     1.3030 H     1 <1>   0.0800 
 37 H       -2.7270     0.8090     0.4520 H     1 <1>   0.0800 
 38 H       -1.6110     0.5020    -0.8630 H     1 <1>   0.0800 
 39 H        4.9930    -3.4980    -0.6310 H     1 <1>   0.0800 
 40 H        4.2390    -2.4110    -1.7600 H     1 <1>   0.0800 
 41 H        4.3180     0.1840    -1.2200 H     1 <1>   0.0800 
 42 H        5.1280     0.6850     0.2350 H     1 <1>   0.0800 
 43 H       -3.6540     1.6760    -1.6190 H     1 <1>   0.0800 
 44 H       -3.4410     0.1510    -2.4120 H     1 <1>   0.0800 
 45 H        6.1890    -1.3230    -0.7750 H     1 <1>   0.0800 
 46 H        5.6020    -1.6380     0.8300 H     1 <1>   0.0800 
 47 H       -7.2450    -1.1340    -0.4330 H     1 <1>   0.0800 
 48 H       -5.7920     0.4040    -1.7460 H     1 <1>   0.0800 
 49 H       -5.3250     0.7660    -0.1140 H     1 <1>   0.0800 
 50 H       -5.6460    -1.8190    -2.6360 H     1 <1>   0.0800 
 51 H       -4.0360    -2.3570    -2.2380 H     1 <1>   0.0800 
 52 H       -6.4380    -3.8000     0.5870 H     1 <1>   0.0800 
 53 H       -7.6430    -3.3800    -0.6160 H     1 <1>   0.0800 
 54 H       -4.8740    -4.2000    -1.0090 H     1 <1>   0.0800 
 55 H       -6.1280    -4.0570    -2.2180 H     1 <1>   0.0800 
 56 H       -7.5220    -1.2710     3.0560 H     1 <1>   0.0800 
 57 H       -8.1450    -2.4160     1.8780 H     1 <1>   0.0800 
 58 H       -8.2690    -0.6770     1.5800 H     1 <1>   0.0800 
@<TRIPOS>BOND
  1   1   2  2   
  2   2   3  am  
  3   2   4  1   
  4   3   5  1   
  5   3   6  1   
  6   4   7  1   
  7   4  24  1   
  8   4  25  1   
  9   5   8  1   
 10   5   9  1   
 11   5  26  1   
 12   6  27  1   
 13   6  28  1   
 14   6  29  1   
 15   7  10  1   
 16   7  11  1   
 17   7  30  1   
 18   8  12  1   
 19   8  31  1   
 20   8  32  1   
 21   9  13  1   
 22   9  33  1   
 23   9  34  1   
 24  10  14  1   
 25  10  35  1   
 26  10  36  1   
 27  11  15  1   
 28  11  37  1   
 29  11  38  1   
 30  12  16  1   
 31  12  39  1   
 32  12  40  1   
 33  13  16  1   
 34  13  41  1   
 35  13  42  1   
 36  14  17  1   
 37  14  18  1   
 38  14  19  1   
 39  15  18  1   
 40  15  43  1   
 41  15  44  1   
 42  16  45  1   
 43  16  46  1   
 44  17  20  1   
 45  17  21  1   
 46  17  47  1   
 47  18  48  1   
 48  18  49  1   
 49  19  22  1   
 50  19  50  1   
 51  19  51  1   
 52  20  23  1   
 53  21  22  1   
 54  21  52  1   
 55  21  53  1   
 56  22  54  1   
 57  22  55  1   
 58  23  56  1   
 59  23  57  1   
 60  23  58  1   
@<TRIPOS>SUBSTRUCTURE
  1 ****   4 GROUP 4 **** **** 0

# MOE 2024.06 (io_trps.svl 2023.06)
