@<TRIPOS>MOLECULE
NONAME
43 44 1 0 0 
SMALL
USER_CHARGES


@<TRIPOS>ATOM
  1 O       -0.6990    -0.0640    -2.5190 O.2   1 <1>  -0.5700 
  2 C       -1.2790     0.5360    -1.6440 C.2   1 <1>   0.5690 
  3 N       -2.0280    -0.1410    -0.7040 N.am  1 <1>  -0.6600 
  4 C       -1.1840     2.0630    -1.6910 C.3   1 <1>   0.1810 
  5 C       -1.9780    -1.6390    -0.7120 C.3   1 <1>   0.3200 
  6 C       -2.6590     0.5240     0.4950 C.3   1 <1>   0.1400 
  7 O       -0.7190     2.6070    -0.4660 O.3   1 <1>  -0.3630 
  8 C       -3.1770    -2.2970    -0.0480 C.2   1 <1>  -0.3320 
  9 C       -3.8860     1.3760     0.1180 C.3   1 <1>   0.1200 
 10 C       -0.8110     3.9350    -0.2130 C.ar  1 <1>   0.0820 
 11 N       -4.4640    -1.9710    -0.2760 N.pl3 1 <1>   0.0330 
 12 C       -3.2020    -3.2970     0.8610 C.2   1 <1>   0.0770 
 13 O       -4.5290     0.8300    -0.9880 O.3   1 <1>  -0.6800 
 14 C       -1.1380     4.8860    -1.1750 C.ar  1 <1>  -0.1500 
 15 C       -0.5650     4.3410     1.0890 C.ar  1 <1>  -0.1500 
 16 C       -5.1870    -2.7900     0.5160 C.2   1 <1>   0.0070 
 17 N       -4.4650    -3.6030     1.2130 N.2   1 <1>  -0.5650 
 18 C       -1.2290     6.2220    -0.8230 C.ar  1 <1>  -0.1500 
 19 C       -0.6570     5.6770     1.4360 C.ar  1 <1>  -0.1500 
 20 C       -6.6980    -2.7360     0.5780 C.3   1 <1>  -0.0600 
 21 C       -0.9940     6.6240     0.4820 C.ar  1 <1>  -0.1440 
 22 C       -1.0940     8.0900     0.8630 C.3   1 <1>  -0.0970 
 23 H       -2.1530     2.4690    -1.9060 H     1 <1>   0.0800 
 24 H       -0.4940     2.3550    -2.4610 H     1 <1>   0.0800 
 25 H       -1.0770    -1.9550    -0.2130 H     1 <1>   0.0800 
 26 H       -1.9240    -1.9920    -1.7280 H     1 <1>   0.0800 
 27 H       -1.9360     1.1400     1.0000 H     1 <1>   0.0800 
 28 H       -2.9620    -0.2090     1.2210 H     1 <1>   0.0800 
 29 H       -3.5830     2.3780    -0.1300 H     1 <1>   0.0800 
 30 H       -4.5860     1.4250     0.9350 H     1 <1>   0.0800 
 31 H       -4.8200    -1.2040    -0.8610 H     1 <1>   0.2700 
 32 H       -2.3670    -3.8240     1.2920 H     1 <1>   0.1500 
 33 H       -3.8350     0.5100    -1.6050 H     1 <1>   0.4000 
 34 H       -1.3190     4.6140    -2.1970 H     1 <1>   0.1500 
 35 H       -0.3010     3.6070     1.8280 H     1 <1>   0.1500 
 36 H       -1.4830     6.9520    -1.5720 H     1 <1>   0.1500 
 37 H       -0.4630     5.9770     2.4510 H     1 <1>   0.1500 
 38 H       -7.0200    -1.7580     0.8830 H     1 <1>   0.0800 
 39 H       -7.0570    -3.4570     1.2910 H     1 <1>   0.0800 
 40 H       -7.1140    -2.9650    -0.3850 H     1 <1>   0.0800 
 41 H       -1.8090     8.5940     0.2370 H     1 <1>   0.0800 
 42 H       -0.1350     8.5630     0.7450 H     1 <1>   0.0800 
 43 H       -1.4080     8.1930     1.8860 H     1 <1>   0.0800 
@<TRIPOS>BOND
  1   1   2  2   
  2   2   3  am  
  3   2   4  1   
  4   3   5  1   
  5   3   6  1   
  6   4   7  1   
  7   4  23  1   
  8   4  24  1   
  9   5   8  1   
 10   5  25  1   
 11   5  26  1   
 12   6   9  1   
 13   6  27  1   
 14   6  28  1   
 15   7  10  1   
 16   8  11  1   
 17   8  12  2   
 18   9  13  1   
 19   9  29  1   
 20   9  30  1   
 21  10  14  ar  
 22  10  15  ar  
 23  11  16  1   
 24  11  31  1   
 25  12  17  1   
 26  12  32  1   
 27  13  33  1   
 28  14  18  ar  
 29  14  34  1   
 30  15  19  ar  
 31  15  35  1   
 32  16  17  2   
 33  16  20  1   
 34  18  21  ar  
 35  18  36  1   
 36  19  21  ar  
 37  19  37  1   
 38  20  38  1   
 39  20  39  1   
 40  20  40  1   
 41  21  22  1   
 42  22  41  1   
 43  22  42  1   
 44  22  43  1   
@<TRIPOS>SUBSTRUCTURE
  1 ****   6 GROUP 4 **** **** 0

# MOE 2024.06 (io_trps.svl 2023.06)
