@<TRIPOS>MOLECULE
NONAME
49 51 1 0 0 
SMALL
USER_CHARGES


@<TRIPOS>ATOM
  1 O        1.1070    -1.2440     1.6360 O.3   1 <1>  -0.3630 
  2 C        0.6730    -0.0930     1.1290 C.ar  1 <1>   0.3920 
  3 C        2.4110    -1.5250     1.1440 C.3   1 <1>   0.2000 
  4 N       -0.5790     0.2650     1.2060 N.ar  1 <1>  -0.6200 
  5 C        1.6410     0.5950     0.4640 C.ar  1 <1>  -0.1440 
  6 C        2.9160    -0.1950     0.5400 C.3   1 <1>  -0.0160 
  7 C        2.2720    -2.6810     0.1230 C.3   1 <1>   0.3430 
  8 C       -0.8240     1.4240     0.6140 C.ar  1 <1>   0.4760 
  9 C        1.2770     1.7790    -0.1240 C.ar  1 <1>   0.1660 
 10 N        0.9660    -2.6320    -0.6320 N.4   1 <1>  -0.9590 
 11 N        0.0280     2.1920    -0.0530 N.ar  1 <1>  -0.6200 
 12 C       -2.2430     1.9330     0.6930 C.3   1 <1>  -0.0970 
 13 C        2.2510     2.6610    -0.8760 C.3   1 <1>  -0.0970 
 14 C        0.3880    -3.9850    -0.9080 C.3   1 <1>   0.3430 
 15 C        1.0440    -1.8260    -1.8890 C.3   1 <1>   0.2630 
 16 C       -0.1180    -4.6680     0.3640 C.3   1 <1>   0.0210 
 17 C       -0.8120    -5.9510    -0.0410 C.2   1 <1>  -0.1810 
 18 C       -0.2150    -7.1940    -0.2500 C.2   1 <1>   0.1080 
 19 C       -2.1250    -6.1500    -0.2950 C.2   1 <1>  -0.3320 
 20 N       -1.0720    -8.0890    -0.6140 N.2   1 <1>  -0.7070 
 21 C        1.2510    -7.5320    -0.0870 C.3   1 <1>  -0.0590 
 22 N       -2.2540    -7.4510    -0.6340 N.pl3 1 <1>   0.3000 
 23 C       -3.3110    -5.2000    -0.2440 C.3   1 <1>  -0.0600 
 24 H        3.0330    -1.8240     1.9690 H     1 <1>   0.0800 
 25 H        3.3810    -0.3240    -0.4210 H     1 <1>   0.0800 
 26 H        3.6090     0.2830     1.2110 H     1 <1>   0.0800 
 27 H        2.3240    -3.6020     0.6800 H     1 <1>   0.0800 
 28 H        3.1060    -2.6780    -0.5590 H     1 <1>   0.0800 
 29 H        0.3000    -2.1440     0.0030 H     1 <1>   0.4500 
 30 H       -2.8040     1.3790     1.4230 H     1 <1>   0.0800 
 31 H       -2.7150     1.8330    -0.2660 H     1 <1>   0.0800 
 32 H       -2.2380     2.9700     0.9750 H     1 <1>   0.0800 
 33 H        3.2460     2.2590    -0.8540 H     1 <1>   0.0800 
 34 H        2.2660     3.6380    -0.4260 H     1 <1>   0.0800 
 35 H        1.9340     2.7620    -1.8980 H     1 <1>   0.0800 
 36 H        1.1190    -4.6140    -1.3890 H     1 <1>   0.0800 
 37 H       -0.4490    -3.8850    -1.5800 H     1 <1>   0.0800 
 38 H        1.7390    -2.2740    -2.5820 H     1 <1>   0.0800 
 39 H        1.3650    -0.8200    -1.6750 H     1 <1>   0.0800 
 40 H        0.0750    -1.7750    -2.3590 H     1 <1>   0.0800 
 41 H       -0.8180    -4.0310     0.8730 H     1 <1>   0.0800 
 42 H        0.6880    -4.8980     1.0340 H     1 <1>   0.0800 
 43 H        1.8360    -7.0020    -0.8130 H     1 <1>   0.0800 
 44 H        1.3950    -8.5870    -0.2350 H     1 <1>   0.0800 
 45 H        1.5780    -7.2800     0.9040 H     1 <1>   0.0800 
 46 H       -3.1280    -7.9320    -0.8800 H     1 <1>   0.2700 
 47 H       -3.0020    -4.2070     0.0260 H     1 <1>   0.0800 
 48 H       -4.0230    -5.5410     0.4870 H     1 <1>   0.0800 
 49 H       -3.7950    -5.1570    -1.2040 H     1 <1>   0.0800 
@<TRIPOS>BOND
  1   1   2  1   
  2   1   3  1   
  3   2   4  ar  
  4   2   5  ar  
  5   3   6  1   
  6   3   7  1   
  7   3  24  1   
  8   4   8  ar  
  9   5   6  1   
 10   5   9  ar  
 11   6  25  1   
 12   6  26  1   
 13   7  10  1   
 14   7  27  1   
 15   7  28  1   
 16   8  11  ar  
 17   8  12  1   
 18   9  11  ar  
 19   9  13  1   
 20  10  14  1   
 21  10  15  1   
 22  10  29  1   
 23  12  30  1   
 24  12  31  1   
 25  12  32  1   
 26  13  33  1   
 27  13  34  1   
 28  13  35  1   
 29  14  16  1   
 30  14  36  1   
 31  14  37  1   
 32  15  38  1   
 33  15  39  1   
 34  15  40  1   
 35  16  17  1   
 36  16  41  1   
 37  16  42  1   
 38  17  18  1   
 39  17  19  2   
 40  18  20  2   
 41  18  21  1   
 42  19  22  1   
 43  19  23  1   
 44  20  22  1   
 45  21  43  1   
 46  21  44  1   
 47  21  45  1   
 48  22  46  1   
 49  23  47  1   
 50  23  48  1   
 51  23  49  1   
@<TRIPOS>SUBSTRUCTURE
  1 ****  10 GROUP 4 **** **** 0

# MOE 2024.06 (io_trps.svl 2023.06)
