@<TRIPOS>MOLECULE
NONAME
52 55 1 0 0 
SMALL
USER_CHARGES


@<TRIPOS>ATOM
  1 O       -0.9480     1.3160     0.1420 O.3   1 <1>  -0.2800 
  2 C        0.2410     1.4800    -0.4260 C.2   1 <1>   0.0870 
  3 C       -1.5740     0.3180    -0.4410 C.2   1 <1>  -0.0400 
  4 C        1.1380     2.5180     0.0360 C.ar  1 <1>   0.0530 
  5 C        0.3740     0.5510    -1.4090 C.2   1 <1>  -0.1500 
  6 C       -0.8010    -0.2030    -1.4210 C.2   1 <1>  -0.1500 
  7 C       -2.9590    -0.0230     0.0780 C.3   1 <1>   0.5230 
  8 C        2.4170     2.6610    -0.5000 C.ar  1 <1>  -0.1500 
  9 C        0.7620     3.4160     1.0340 C.ar  1 <1>  -0.1500 
 10 N       -3.3440    -1.4230    -0.2870 N.4   1 <1>  -0.9590 
 11 C        3.2780     3.6510    -0.0610 C.ar  1 <1>  -0.1500 
 12 C        1.6180     4.4070     1.4760 C.ar  1 <1>  -0.1500 
 13 C       -4.7880    -1.6810    -0.0450 C.3   1 <1>   0.4230 
 14 C       -2.4630    -2.3970     0.4400 C.3   1 <1>   0.2630 
 15 C        2.8840     4.5330     0.9300 C.ar  1 <1>  -0.1430 
 16 C       -5.1950    -3.0840    -0.4920 C.3   1 <1>  -0.1600 
 17 C       -5.6800    -0.7600    -0.8760 C.3   1 <1>  -0.1600 
 18 C        3.8270     5.6190     1.4150 C.3   1 <1>  -0.0970 
 19 C       -6.7000    -2.9950    -0.7700 C.3   1 <1>  -0.0800 
 20 C       -7.0090    -1.5100    -1.0180 C.3   1 <1>  -0.0800 
 21 C       -7.5760    -3.4290     0.4160 C.3   1 <1>  -0.1600 
 22 C       -8.0620    -1.1060     0.0250 C.3   1 <1>  -0.1600 
 23 C       -8.7100    -2.4170     0.4390 C.3   1 <1>   0.2000 
 24 O       -9.2350    -2.3140     1.7070 O.3   1 <1>  -0.6800 
 25 H        1.2110     0.4030    -2.0690 H     1 <1>   0.1500 
 26 H       -0.9880    -1.0140    -2.1020 H     1 <1>   0.1500 
 27 H       -3.6580     0.6850    -0.3350 H     1 <1>   0.0800 
 28 H       -2.9660     0.0870     1.1500 H     1 <1>   0.0800 
 29 H        2.7510     1.9920    -1.2700 H     1 <1>   0.1500 
 30 H       -0.2160     3.3410     1.4740 H     1 <1>   0.1500 
 31 H       -3.1780    -1.5150    -1.2960 H     1 <1>   0.4500 
 32 H        4.2600     3.7330    -0.4950 H     1 <1>   0.1500 
 33 H        1.2960     5.0820     2.2500 H     1 <1>   0.1500 
 34 H       -5.0300    -1.5610     1.0000 H     1 <1>   0.0800 
 35 H       -2.6290    -2.3330     1.5030 H     1 <1>   0.0800 
 36 H       -1.4230    -2.1850     0.2440 H     1 <1>   0.0800 
 37 H       -2.6690    -3.4050     0.1190 H     1 <1>   0.0800 
 38 H       -4.6990    -3.3360    -1.4120 H     1 <1>   0.0800 
 39 H       -4.9740    -3.8310     0.2500 H     1 <1>   0.0800 
 40 H       -5.8200     0.2030    -0.4170 H     1 <1>   0.0800 
 41 H       -5.2620    -0.6310    -1.8590 H     1 <1>   0.0800 
 42 H        4.4920     5.9190     0.6260 H     1 <1>   0.0800 
 43 H        4.4090     5.2510     2.2400 H     1 <1>   0.0800 
 44 H        3.2720     6.4810     1.7370 H     1 <1>   0.0800 
 45 H       -6.9630    -3.5780    -1.6390 H     1 <1>   0.0800 
 46 H       -7.4190    -1.3780    -2.0070 H     1 <1>   0.0800 
 47 H       -7.0230    -3.3760     1.3370 H     1 <1>   0.0800 
 48 H       -7.9540    -4.4270     0.2800 H     1 <1>   0.0800 
 49 H       -8.7910    -0.4330    -0.3920 H     1 <1>   0.0800 
 50 H       -7.5970    -0.6470     0.8790 H     1 <1>   0.0800 
 51 H       -9.4970    -2.6970    -0.2440 H     1 <1>   0.0800 
 52 H       -8.5480    -2.0680     2.3520 H     1 <1>   0.4000 
@<TRIPOS>BOND
  1   1   2  1   
  2   1   3  1   
  3   2   4  1   
  4   2   5  2   
  5   3   6  2   
  6   3   7  1   
  7   4   8  ar  
  8   4   9  ar  
  9   5   6  1   
 10   5  25  1   
 11   6  26  1   
 12   7  10  1   
 13   7  27  1   
 14   7  28  1   
 15   8  11  ar  
 16   8  29  1   
 17   9  12  ar  
 18   9  30  1   
 19  10  13  1   
 20  10  14  1   
 21  10  31  1   
 22  11  15  ar  
 23  11  32  1   
 24  12  15  ar  
 25  12  33  1   
 26  13  16  1   
 27  13  17  1   
 28  13  34  1   
 29  14  35  1   
 30  14  36  1   
 31  14  37  1   
 32  15  18  1   
 33  16  19  1   
 34  16  38  1   
 35  16  39  1   
 36  17  20  1   
 37  17  40  1   
 38  17  41  1   
 39  18  42  1   
 40  18  43  1   
 41  18  44  1   
 42  19  20  1   
 43  19  21  1   
 44  19  45  1   
 45  20  22  1   
 46  20  46  1   
 47  21  23  1   
 48  21  47  1   
 49  21  48  1   
 50  22  23  1   
 51  22  49  1   
 52  22  50  1   
 53  23  24  1   
 54  23  51  1   
 55  24  52  1   
@<TRIPOS>SUBSTRUCTURE
  1 ****   7 GROUP 4 **** **** 0

# MOE 2024.06 (io_trps.svl 2023.06)
