@<TRIPOS>MOLECULE
NONAME
49 51 1 0 0 
SMALL
USER_CHARGES


@<TRIPOS>ATOM
  1 O        1.5250    -0.9810     2.4550 O.2   1 <1>  -0.5700 
  2 C        2.0360    -1.4450     1.4520 C.2   1 <1>   0.5440 
  3 N        3.1530    -0.8290     0.9140 N.am  1 <1>  -0.6600 
  4 C        1.4730    -2.6520     0.8840 C.ar  1 <1>   0.0860 
  5 C        3.6600     0.4660     1.4710 C.3   1 <1>   0.1400 
  6 C        4.0310    -1.4840    -0.0940 C.3   1 <1>   0.1400 
  7 C        0.3970    -2.6220    -0.0210 C.ar  1 <1>   0.0000 
  8 C        2.0090    -3.8870     1.2470 C.ar  1 <1>  -0.1500 
  9 C        3.3670     1.6510     0.5350 C.3   1 <1>  -0.0800 
 10 C        3.4740    -1.3140    -1.5060 C.3   1 <1>  -0.2400 
 11 C       -0.2330    -1.3890    -0.4440 C.ar  1 <1>   0.0000 
 12 C       -0.0800    -3.8250    -0.5360 C.ar  1 <1>  -0.1500 
 13 C        1.5230    -5.0690     0.7250 C.ar  1 <1>  -0.1500 
 14 C        3.8790     2.9650     1.1430 C.3   1 <1>  -0.1600 
 15 C        1.8650     1.7970     0.2380 C.3   1 <1>  -0.1600 
 16 C       -0.8830    -0.5560     0.4630 C.ar  1 <1>  -0.1500 
 17 C       -0.2230    -1.0060    -1.7840 C.ar  1 <1>  -0.1500 
 18 C        0.4740    -5.0370    -0.1730 C.ar  1 <1>  -0.1500 
 19 C        3.4810     4.1620     0.2720 C.3   1 <1>   0.1200 
 20 C        1.5730     3.0700    -0.5600 C.3   1 <1>   0.1200 
 21 C       -1.4920     0.6160     0.0530 C.ar  1 <1>  -0.1500 
 22 C       -0.8300     0.1650    -2.2010 C.ar  1 <1>  -0.1500 
 23 O        2.0970     4.1780     0.1080 O.3   1 <1>  -0.5600 
 24 C       -1.4670     0.9790    -1.2820 C.ar  1 <1>  -0.1500 
 25 H        4.7200     0.3890     1.6390 H     1 <1>   0.0800 
 26 H        3.2040     0.6600     2.4270 H     1 <1>   0.0800 
 27 H        4.1260    -2.5320     0.1330 H     1 <1>   0.0800 
 28 H        5.0170    -1.0540    -0.0470 H     1 <1>   0.0800 
 29 H        2.8200    -3.9100     1.9540 H     1 <1>   0.1500 
 30 H        3.8910     1.4950    -0.3910 H     1 <1>   0.0800 
 31 H        2.5550    -1.8560    -1.6140 H     1 <1>   0.0800 
 32 H        4.1760    -1.7080    -2.2180 H     1 <1>   0.0800 
 33 H        3.3040    -0.2790    -1.7320 H     1 <1>   0.0800 
 34 H       -0.9040    -3.8060    -1.2270 H     1 <1>   0.1500 
 35 H        1.9550    -6.0110     1.0180 H     1 <1>   0.1500 
 36 H        4.9500     2.9340     1.2380 H     1 <1>   0.0800 
 37 H        3.4620     3.1050     2.1250 H     1 <1>   0.0800 
 38 H        1.3070     1.8250     1.1580 H     1 <1>   0.0800 
 39 H        1.5190     0.9500    -0.3240 H     1 <1>   0.0800 
 40 H       -0.9070    -0.8290     1.5040 H     1 <1>   0.1500 
 41 H        0.2670    -1.6340    -2.5060 H     1 <1>   0.1500 
 42 H        0.0870    -5.9540    -0.5840 H     1 <1>   0.1500 
 43 H        3.9420     4.1100    -0.7000 H     1 <1>   0.0800 
 44 H        3.7650     5.0850     0.7460 H     1 <1>   0.0800 
 45 H        0.5110     3.2150    -0.6550 H     1 <1>   0.0800 
 46 H        2.0100     3.0220    -1.5420 H     1 <1>   0.0800 
 47 H       -1.9820     1.2450     0.7750 H     1 <1>   0.1500 
 48 H       -0.8100     0.4430    -3.2400 H     1 <1>   0.1500 
 49 H       -1.9400     1.8910    -1.6010 H     1 <1>   0.1500 
@<TRIPOS>BOND
  1   1   2  2   
  2   2   3  am  
  3   2   4  1   
  4   3   5  1   
  5   3   6  1   
  6   4   7  ar  
  7   4   8  ar  
  8   5   9  1   
  9   5  25  1   
 10   5  26  1   
 11   6  10  1   
 12   6  27  1   
 13   6  28  1   
 14   7  11  1   
 15   7  12  ar  
 16   8  13  ar  
 17   8  29  1   
 18   9  14  1   
 19   9  15  1   
 20   9  30  1   
 21  10  31  1   
 22  10  32  1   
 23  10  33  1   
 24  11  16  ar  
 25  11  17  ar  
 26  12  18  ar  
 27  12  34  1   
 28  13  18  ar  
 29  13  35  1   
 30  14  19  1   
 31  14  36  1   
 32  14  37  1   
 33  15  20  1   
 34  15  38  1   
 35  15  39  1   
 36  16  21  ar  
 37  16  40  1   
 38  17  22  ar  
 39  17  41  1   
 40  18  42  1   
 41  19  23  1   
 42  19  43  1   
 43  19  44  1   
 44  20  23  1   
 45  20  45  1   
 46  20  46  1   
 47  21  24  ar  
 48  21  47  1   
 49  22  24  ar  
 50  22  48  1   
 51  24  49  1   
@<TRIPOS>SUBSTRUCTURE
  1 ****   2 GROUP 4 **** **** 0

# MOE 2024.06 (io_trps.svl 2023.06)
