@<TRIPOS>MOLECULE
NONAME
43 45 1 0 0 
SMALL
USER_CHARGES


@<TRIPOS>ATOM
  1 S        0.3710     0.0630     0.5660 S.o2  1 <1>   1.3330 
  2 O        1.8060     0.2170     0.6370 O.2   1 <1>  -0.6500 
  3 O       -0.4170     0.1370     1.7750 O.2   1 <1>  -0.6500 
  4 N        0.0440    -1.4160    -0.2000 N.am  1 <1>  -0.8490 
  5 C       -0.2930     1.2640    -0.5850 C.3   1 <1>  -0.0550 
  6 C       -0.1340    -2.5090     0.7590 C.3   1 <1>   0.1160 
  7 C        1.0490    -1.7900    -1.2010 C.3   1 <1>   0.1160 
  8 C       -0.1880     2.7100    -0.0730 C.3   1 <1>  -0.0800 
  9 C       -0.8160     3.7110    -1.0350 C.3   1 <1>   0.2000 
 10 C        1.2480     3.2110     0.0900 C.3   1 <1>   0.2090 
 11 O       -2.1890     3.7580    -0.8420 O.3   1 <1>  -0.6800 
 12 C       -0.1390     5.0430    -0.7200 C.3   1 <1>   0.2090 
 13 N        1.1880     4.6790    -0.1610 N.pl3 1 <1>  -0.8380 
 14 C        2.3020     5.3810    -0.5710 C.ar  1 <1>   0.4100 
 15 N        3.2200     4.7290    -1.2640 N.ar  1 <1>  -0.6200 
 16 C        2.4510     6.7390    -0.2890 C.ar  1 <1>   0.0000 
 17 C        4.2660     5.4350    -1.6750 C.ar  1 <1>   0.4700 
 18 C        3.5850     7.3200    -0.7980 C.ar  1 <1>   0.2970 
 19 C        1.6330     7.6630     0.4540 C.2   1 <1>  -0.1500 
 20 N        4.5230     6.7170    -1.4970 N.ar  1 <1>  -0.5670 
 21 S        3.6350     9.0340    -0.3820 S.3   1 <1>  -0.0800 
 22 C        2.1100     8.9190     0.5010 C.2   1 <1>  -0.1400 
 23 C        1.5980    10.1880     1.1510 C.3   1 <1>  -0.0600 
 24 H        0.2190     1.1810    -1.5240 H     1 <1>   0.0800 
 25 H       -1.3280     1.0380    -0.7560 H     1 <1>   0.0800 
 26 H       -0.3560    -3.4280     0.2430 H     1 <1>   0.0800 
 27 H       -0.9550    -2.2900     1.4210 H     1 <1>   0.0800 
 28 H        0.7590    -2.6390     1.3490 H     1 <1>   0.0800 
 29 H        0.7450    -2.6860    -1.7140 H     1 <1>   0.0800 
 30 H        2.0040    -1.9620    -0.7300 H     1 <1>   0.0800 
 31 H        1.1610    -1.0040    -1.9280 H     1 <1>   0.0800 
 32 H       -0.6640     2.7880     0.8890 H     1 <1>   0.0800 
 33 H       -0.6240     3.4450    -2.0600 H     1 <1>   0.0800 
 34 H        1.8930     2.7350    -0.6300 H     1 <1>   0.0800 
 35 H        1.6250     3.0140     1.0800 H     1 <1>   0.0800 
 36 H       -2.3980     3.9260     0.0980 H     1 <1>   0.4000 
 37 H       -0.6960     5.5870     0.0220 H     1 <1>   0.0800 
 38 H       -0.0300     5.6370    -1.6120 H     1 <1>   0.0800 
 39 H        5.0040     4.8850    -2.2340 H     1 <1>   0.1500 
 40 H        0.7280     7.3190     0.9210 H     1 <1>   0.1500 
 41 H        0.6710     9.9970     1.6600 H     1 <1>   0.0800 
 42 H        1.4370    10.9440     0.4040 H     1 <1>   0.0800 
 43 H        2.3180    10.5500     1.8630 H     1 <1>   0.0800 
@<TRIPOS>BOND
  1   1   2  2   
  2   1   3  2   
  3   1   4  am  
  4   1   5  1   
  5   4   6  1   
  6   4   7  1   
  7   5   8  1   
  8   5  24  1   
  9   5  25  1   
 10   6  26  1   
 11   6  27  1   
 12   6  28  1   
 13   7  29  1   
 14   7  30  1   
 15   7  31  1   
 16   8   9  1   
 17   8  10  1   
 18   8  32  1   
 19   9  11  1   
 20   9  12  1   
 21   9  33  1   
 22  10  13  1   
 23  10  34  1   
 24  10  35  1   
 25  11  36  1   
 26  12  13  1   
 27  12  37  1   
 28  12  38  1   
 29  13  14  1   
 30  14  15  ar  
 31  14  16  ar  
 32  15  17  ar  
 33  16  18  ar  
 34  16  19  1   
 35  17  20  ar  
 36  17  39  1   
 37  18  20  ar  
 38  18  21  1   
 39  19  22  2   
 40  19  40  1   
 41  21  22  1   
 42  22  23  1   
 43  23  41  1   
 44  23  42  1   
 45  23  43  1   
@<TRIPOS>SUBSTRUCTURE
  1 ****  13 GROUP 4 **** **** 0

# MOE 2024.06 (io_trps.svl 2023.06)
