@<TRIPOS>MOLECULE
NONAME
36 37 1 0 0 
SMALL
USER_CHARGES


@<TRIPOS>ATOM
  1 CL       0.2020     0.3780     1.0760 Cl    1 <1>  -0.1770 
  2 C        1.3900    -0.7820     0.5480 C.ar  1 <1>   0.1770 
  3 C        2.5600    -0.3390    -0.0350 C.ar  1 <1>  -0.1500 
  4 C        1.1320    -2.1310     0.7210 C.ar  1 <1>  -0.1500 
  5 C        3.4790    -1.2840    -0.4450 C.ar  1 <1>   0.1770 
  6 C        2.0610    -3.0750     0.2980 C.ar  1 <1>  -0.1440 
  7 CL       4.9690    -0.7660    -1.1860 Cl    1 <1>  -0.1770 
  8 C        3.2460    -2.6400    -0.2840 C.ar  1 <1>  -0.1500 
  9 C        1.7820    -4.5580     0.4700 C.3   1 <1>   0.4870 
 10 N        1.4370    -5.1410    -0.8580 N.4   1 <1>  -0.9590 
 11 C        1.4720    -6.6440    -0.7820 C.3   1 <1>   0.3430 
 12 C        0.1480    -4.6030    -1.3950 C.3   1 <1>   0.3430 
 13 C        0.0870    -7.3080    -0.8380 C.3   1 <1>  -0.0800 
 14 C       -1.0650    -5.0650    -0.5710 C.3   1 <1>  -0.1600 
 15 C       -0.9470    -6.5020    -0.0400 C.3   1 <1>   0.2000 
 16 C        0.1820    -8.7590    -0.3530 C.3   1 <1>   0.1200 
 17 O       -0.5310    -6.4410     1.2800 O.3   1 <1>  -0.6800 
 18 O        1.2100    -9.3720    -1.0500 O.3   1 <1>  -0.6800 
 19 H        2.7510     0.7110    -0.1640 H     1 <1>   0.1500 
 20 H        0.2070    -2.4210     1.1890 H     1 <1>   0.1500 
 21 H        4.0020    -3.3310    -0.6140 H     1 <1>   0.1500 
 22 H        0.9750    -4.7040     1.1680 H     1 <1>   0.0800 
 23 H        2.6600    -5.0400     0.8680 H     1 <1>   0.0800 
 24 H        2.1850    -4.8440    -1.4960 H     1 <1>   0.4500 
 25 H        2.0650    -7.0400    -1.5910 H     1 <1>   0.0800 
 26 H        1.9490    -6.9440     0.1370 H     1 <1>   0.0800 
 27 H        0.1750    -3.5250    -1.4310 H     1 <1>   0.0800 
 28 H        0.0260    -4.9580    -2.4060 H     1 <1>   0.0800 
 29 H       -0.2350    -7.3440    -1.8640 H     1 <1>   0.0800 
 30 H       -1.9200    -5.0150    -1.2220 H     1 <1>   0.0800 
 31 H       -1.2540    -4.3760     0.2330 H     1 <1>   0.0800 
 32 H       -1.9060    -6.9950    -0.0590 H     1 <1>   0.0800 
 33 H       -0.7320    -9.2940    -0.5490 H     1 <1>   0.0800 
 34 H        0.4120    -8.8110     0.6990 H     1 <1>   0.0800 
 35 H       -1.2980    -6.3030     1.8760 H     1 <1>   0.4000 
 36 H        1.2550   -10.3280    -0.8370 H     1 <1>   0.4000 
@<TRIPOS>BOND
  1   1   2  1   
  2   2   3  ar  
  3   2   4  ar  
  4   3   5  ar  
  5   3  19  1   
  6   4   6  ar  
  7   4  20  1   
  8   5   7  1   
  9   5   8  ar  
 10   6   8  ar  
 11   6   9  1   
 12   8  21  1   
 13   9  10  1   
 14   9  22  1   
 15   9  23  1   
 16  10  11  1   
 17  10  12  1   
 18  10  24  1   
 19  11  13  1   
 20  11  25  1   
 21  11  26  1   
 22  12  14  1   
 23  12  27  1   
 24  12  28  1   
 25  13  15  1   
 26  13  16  1   
 27  13  29  1   
 28  14  15  1   
 29  14  30  1   
 30  14  31  1   
 31  15  17  1   
 32  15  32  1   
 33  16  18  1   
 34  16  33  1   
 35  16  34  1   
 36  17  35  1   
 37  18  36  1   
@<TRIPOS>SUBSTRUCTURE
  1 ****   9 GROUP 4 **** **** 0

# MOE 2024.06 (io_trps.svl 2023.06)
