@<TRIPOS>MOLECULE
NONAME
40 43 1 0 0 
SMALL
USER_CHARGES


@<TRIPOS>ATOM
  1 S       -0.6380     1.2700    -2.6980 S.3   1 <1>  -0.0800 
  2 C       -1.4380     1.3220    -1.1340 C.2   1 <1>  -0.1400 
  3 C       -1.7990     0.0870    -3.2880 C.2   1 <1>  -0.1100 
  4 C       -2.5030     0.5080    -1.1200 C.2   1 <1>  -0.1810 
  5 C       -0.9590     2.2040     0.0160 C.3   1 <1>   0.4600 
  6 C       -2.7110    -0.2070    -2.3420 C.2   1 <1>  -0.1500 
  7 C       -3.3600     0.4220     0.1230 C.3   1 <1>   0.0210 
  8 O       -1.7180     1.8870     1.1650 O.3   1 <1>  -0.5600 
  9 C        0.4960     1.8790     0.3820 C.3   1 <1>  -0.1600 
 10 C       -1.1750     3.6990    -0.2910 C.3   1 <1>  -0.1600 
 11 C       -3.0980     1.6640     0.9980 C.3   1 <1>   0.1200 
 12 C        1.1240     3.0170     1.1840 C.3   1 <1>   0.1400 
 13 C        0.1180     4.4020    -0.7060 C.3   1 <1>   0.1400 
 14 N        1.1470     4.2730     0.3710 N.am  1 <1>  -0.6600 
 15 C        2.0860     5.2590     0.6400 C.2   1 <1>   0.5440 
 16 O        2.8450     5.0920     1.5800 O.2   1 <1>  -0.5700 
 17 C        2.2160     6.4670    -0.1640 C.ar  1 <1>   0.3960 
 18 N        1.2740     7.4380    -0.0950 N.ar  1 <1>  -0.6200 
 19 C        3.3290     6.6080    -1.0040 C.ar  1 <1>   0.1900 
 20 C        1.4740     8.5190    -0.8350 C.ar  1 <1>   0.1600 
 21 F        4.2110     5.6500    -1.0880 F     1 <1>  -0.1900 
 22 C        3.5420     7.7270    -1.7790 C.ar  1 <1>  -0.1500 
 23 C        2.5700     8.6920    -1.6680 C.ar  1 <1>   0.1900 
 24 F        2.6820     9.7890    -2.3630 F     1 <1>  -0.1900 
 25 H       -1.6730    -0.2670    -4.2960 H     1 <1>   0.1500 
 26 H       -3.5260    -0.9010    -2.4510 H     1 <1>   0.1500 
 27 H       -3.1170    -0.4700     0.6720 H     1 <1>   0.0800 
 28 H       -4.4000     0.3880    -0.1450 H     1 <1>   0.0800 
 29 H        1.0860     1.7340    -0.5030 H     1 <1>   0.0800 
 30 H        0.5280     0.9630     0.9430 H     1 <1>   0.0800 
 31 H       -1.5530     4.2010     0.5820 H     1 <1>   0.0800 
 32 H       -1.9010     3.8060    -1.0750 H     1 <1>   0.0800 
 33 H       -3.5290     1.5300     1.9740 H     1 <1>   0.0800 
 34 H       -3.5310     2.5400     0.5450 H     1 <1>   0.0800 
 35 H        2.1280     2.7450     1.4650 H     1 <1>   0.0800 
 36 H        0.5580     3.1900     2.0840 H     1 <1>   0.0800 
 37 H       -0.1010     5.4370    -0.8990 H     1 <1>   0.0800 
 38 H        0.4980     3.9610    -1.6120 H     1 <1>   0.0800 
 39 H        0.7410     9.3060    -0.7850 H     1 <1>   0.1500 
 40 H        4.3970     7.8360    -2.4200 H     1 <1>   0.1500 
@<TRIPOS>BOND
  1   1   2  1   
  2   1   3  1   
  3   2   4  2   
  4   2   5  1   
  5   3   6  2   
  6   3  25  1   
  7   4   6  1   
  8   4   7  1   
  9   5   8  1   
 10   5   9  1   
 11   5  10  1   
 12   6  26  1   
 13   7  11  1   
 14   7  27  1   
 15   7  28  1   
 16   8  11  1   
 17   9  12  1   
 18   9  29  1   
 19   9  30  1   
 20  10  13  1   
 21  10  31  1   
 22  10  32  1   
 23  11  33  1   
 24  11  34  1   
 25  12  14  1   
 26  12  35  1   
 27  12  36  1   
 28  13  14  1   
 29  13  37  1   
 30  13  38  1   
 31  14  15  am  
 32  15  16  2   
 33  15  17  1   
 34  17  18  ar  
 35  17  19  ar  
 36  18  20  ar  
 37  19  21  1   
 38  19  22  ar  
 39  20  23  ar  
 40  20  39  1   
 41  22  23  ar  
 42  22  40  1   
 43  23  24  1   
@<TRIPOS>SUBSTRUCTURE
  1 ****  13 GROUP 4 **** **** 0

# MOE 2024.06 (io_trps.svl 2023.06)
