@<TRIPOS>MOLECULE
NONAME
55 57 1 0 0 
SMALL
USER_CHARGES


@<TRIPOS>ATOM
  1 O       -3.1900    -1.1790     0.9500 O.3   1 <1>  -0.3630 
  2 C       -3.5000    -0.3070    -0.0460 C.ar  1 <1>   0.0820 
  3 C       -2.2180    -0.7710     1.8930 C.3   1 <1>   0.2000 
  4 C       -3.2880    -0.6710    -1.3760 C.ar  1 <1>   0.0820 
  5 C       -4.0520     0.9310     0.2510 C.ar  1 <1>  -0.1500 
  6 C       -0.8300    -1.0280     1.3050 C.3   1 <1>  -0.2400 
  7 C       -2.4450    -1.5750     3.1710 C.3   1 <1>  -0.2400 
  8 O       -2.7890    -1.9080    -1.6310 O.3   1 <1>  -0.3630 
  9 C       -3.5890     0.2240    -2.3950 C.ar  1 <1>  -0.1500 
 10 C       -4.3630     1.8140    -0.7700 C.ar  1 <1>  -0.1500 
 11 C       -3.2310    -2.6390    -2.7550 C.3   1 <1>   0.1200 
 12 C       -4.1280     1.4630    -2.0890 C.ar  1 <1>  -0.1500 
 13 C       -3.3260    -4.1230    -2.3640 C.3   1 <1>   0.3430 
 14 N       -4.5660    -4.5090    -1.5860 N.4   1 <1>  -0.9590 
 15 C       -4.8230    -3.6460    -0.3830 C.3   1 <1>   0.3430 
 16 C       -4.3700    -5.8930    -1.0350 C.3   1 <1>   0.3430 
 17 C       -4.0590    -4.3010     0.7670 C.3   1 <1>   0.2000 
 18 C       -4.2610    -5.7870     0.4960 C.3   1 <1>  -0.0800 
 19 O       -2.7020    -4.0290     0.6430 O.3   1 <1>  -0.6800 
 20 C       -5.5220    -6.3280     1.1980 C.3   1 <1>  -0.0170 
 21 C       -5.8360    -7.7420     0.7390 C.ar  1 <1>  -0.1430 
 22 C       -4.9890    -8.7990     1.0090 C.ar  1 <1>  -0.1500 
 23 C       -6.9790    -8.0440     0.0240 C.ar  1 <1>  -0.1500 
 24 C       -5.3050   -10.0660     0.5460 C.ar  1 <1>   0.1600 
 25 C       -7.2020    -9.3460    -0.3920 C.ar  1 <1>   0.1600 
 26 N       -6.3860   -10.3590    -0.1570 N.ar  1 <1>  -0.6200 
 27 H       -2.3440     0.2780     2.1020 H     1 <1>   0.0800 
 28 H       -4.2430     1.2090     1.2710 H     1 <1>   0.1500 
 29 H       -0.6900    -2.0710     1.0870 H     1 <1>   0.0800 
 30 H       -0.0760    -0.7250     2.0090 H     1 <1>   0.0800 
 31 H       -0.6950    -0.4550     0.4050 H     1 <1>   0.0800 
 32 H       -2.3000    -2.6260     2.9960 H     1 <1>   0.0800 
 33 H       -3.4390    -1.4040     3.5420 H     1 <1>   0.0800 
 34 H       -1.7470    -1.2600     3.9250 H     1 <1>   0.0800 
 35 H       -3.4020    -0.0240    -3.4230 H     1 <1>   0.1500 
 36 H       -4.7870     2.7760    -0.5380 H     1 <1>   0.1500 
 37 H       -4.1850    -2.2700    -3.0870 H     1 <1>   0.0800 
 38 H       -2.4980    -2.5010    -3.5310 H     1 <1>   0.0800 
 39 H       -4.3630     2.1580    -2.8770 H     1 <1>   0.1500 
 40 H       -2.4470    -4.3680    -1.7890 H     1 <1>   0.0800 
 41 H       -3.2940    -4.7110    -3.2670 H     1 <1>   0.0800 
 42 H       -5.3820    -4.4820    -2.2090 H     1 <1>   0.4500 
 43 H       -4.5370    -2.6210    -0.5210 H     1 <1>   0.0800 
 44 H       -5.8730    -3.6700    -0.1490 H     1 <1>   0.0800 
 45 H       -5.1930    -6.5320    -1.3120 H     1 <1>   0.0800 
 46 H       -3.4620    -6.3230    -1.4250 H     1 <1>   0.0800 
 47 H       -4.3890    -3.9770     1.7400 H     1 <1>   0.0800 
 48 H       -3.4140    -6.3530     0.8430 H     1 <1>   0.0800 
 49 H       -2.5500    -3.0530     0.7030 H     1 <1>   0.4000 
 50 H       -6.3680    -5.6930     1.0010 H     1 <1>   0.0800 
 51 H       -5.3650    -6.3340     2.2640 H     1 <1>   0.0800 
 52 H       -4.0870    -8.6590     1.5770 H     1 <1>   0.1500 
 53 H       -7.7060    -7.2890    -0.2140 H     1 <1>   0.1500 
 54 H       -4.6340   -10.8800     0.7640 H     1 <1>   0.1500 
 55 H       -8.0990    -9.5690    -0.9470 H     1 <1>   0.1500 
@<TRIPOS>BOND
  1   1   2  1   
  2   1   3  1   
  3   2   4  ar  
  4   2   5  ar  
  5   3   6  1   
  6   3   7  1   
  7   3  27  1   
  8   4   8  1   
  9   4   9  ar  
 10   5  10  ar  
 11   5  28  1   
 12   6  29  1   
 13   6  30  1   
 14   6  31  1   
 15   7  32  1   
 16   7  33  1   
 17   7  34  1   
 18   8  11  1   
 19   9  12  ar  
 20   9  35  1   
 21  10  12  ar  
 22  10  36  1   
 23  11  13  1   
 24  11  37  1   
 25  11  38  1   
 26  12  39  1   
 27  13  14  1   
 28  13  40  1   
 29  13  41  1   
 30  14  15  1   
 31  14  16  1   
 32  14  42  1   
 33  15  17  1   
 34  15  43  1   
 35  15  44  1   
 36  16  18  1   
 37  16  45  1   
 38  16  46  1   
 39  17  18  1   
 40  17  19  1   
 41  17  47  1   
 42  18  20  1   
 43  18  48  1   
 44  19  49  1   
 45  20  21  1   
 46  20  50  1   
 47  20  51  1   
 48  21  22  ar  
 49  21  23  ar  
 50  22  24  ar  
 51  22  52  1   
 52  23  25  ar  
 53  23  53  1   
 54  24  26  ar  
 55  24  54  1   
 56  25  26  ar  
 57  25  55  1   
@<TRIPOS>SUBSTRUCTURE
  1 ****  15 GROUP 4 **** **** 0

# MOE 2024.06 (io_trps.svl 2023.06)
