@<TRIPOS>MOLECULE
NONAME
34 35 1 0 0 
SMALL
USER_CHARGES


@<TRIPOS>ATOM
  1 F       -1.6940     0.5260    -1.4400 F     1 <1>  -0.1900 
  2 C       -2.3440    -0.5390    -1.0250 C.ar  1 <1>   0.1900 
  3 C       -3.1820    -0.5430     0.0850 C.ar  1 <1>   0.3920 
  4 C       -2.1890    -1.7040    -1.7300 C.ar  1 <1>   0.1600 
  5 O       -3.4420     0.5180     0.8850 O.3   1 <1>  -0.3630 
  6 N       -3.8070    -1.6440     0.4440 N.ar  1 <1>  -0.6200 
  7 N       -2.8100    -2.8110    -1.3790 N.ar  1 <1>  -0.6200 
  8 C       -2.8190     1.7790     0.7740 C.3   1 <1>   0.0400 
  9 C       -3.5820    -2.7130    -0.2990 C.ar  1 <1>   0.7200 
 10 N       -4.2330    -3.8160     0.1200 N.pl3 1 <1>  -0.8690 
 11 C       -4.6880    -4.8660    -0.7900 C.3   1 <1>   0.4330 
 12 C       -6.1120    -5.2450    -0.4130 C.ar  1 <1>  -0.1430 
 13 C       -3.7430    -6.0560    -0.6640 C.3   1 <1>  -0.2400 
 14 C       -7.1170    -5.1820    -1.3670 C.ar  1 <1>   0.1600 
 15 C       -6.4450    -5.6550     0.8650 C.ar  1 <1>  -0.1500 
 16 N       -8.3860    -5.4900    -1.1570 N.ar  1 <1>  -0.6200 
 17 C       -7.7640    -5.9760     1.1000 C.ar  1 <1>  -0.1500 
 18 C       -8.6860    -5.8790     0.0700 C.ar  1 <1>   0.1670 
 19 C      -10.1390    -6.2280     0.3130 C.3   1 <1>  -0.0970 
 20 H       -1.5480    -1.7270    -2.5930 H     1 <1>   0.1500 
 21 H       -3.1820     2.4000     1.5730 H     1 <1>   0.0800 
 22 H       -3.0780     2.2180    -0.1730 H     1 <1>   0.0800 
 23 H       -1.7540     1.6540     0.8660 H     1 <1>   0.0800 
 24 H       -4.9260    -3.5820     0.8280 H     1 <1>   0.4000 
 25 H       -4.6680    -4.5050    -1.8060 H     1 <1>   0.0800 
 26 H       -3.7090    -6.4070     0.3510 H     1 <1>   0.0800 
 27 H       -2.7550    -5.7670    -0.9720 H     1 <1>   0.0800 
 28 H       -4.0800    -6.8560    -1.2970 H     1 <1>   0.0800 
 29 H       -6.8680    -4.8600    -2.3630 H     1 <1>   0.1500 
 30 H       -5.7080    -5.7230     1.6470 H     1 <1>   0.1500 
 31 H       -8.0710    -6.2990     2.0780 H     1 <1>   0.1500 
 32 H      -10.4280    -7.0290    -0.3430 H     1 <1>   0.0800 
 33 H      -10.7520    -5.3710     0.1030 H     1 <1>   0.0800 
 34 H      -10.3010    -6.5330     1.3290 H     1 <1>   0.0800 
@<TRIPOS>BOND
  1   1   2  1   
  2   2   3  ar  
  3   2   4  ar  
  4   3   5  1   
  5   3   6  ar  
  6   4   7  ar  
  7   4  20  1   
  8   5   8  1   
  9   6   9  ar  
 10   7   9  ar  
 11   8  21  1   
 12   8  22  1   
 13   8  23  1   
 14   9  10  1   
 15  10  11  1   
 16  10  24  1   
 17  11  12  1   
 18  11  13  1   
 19  11  25  1   
 20  12  14  ar  
 21  12  15  ar  
 22  13  26  1   
 23  13  27  1   
 24  13  28  1   
 25  14  16  ar  
 26  14  29  1   
 27  15  17  ar  
 28  15  30  1   
 29  16  18  ar  
 30  17  18  ar  
 31  17  31  1   
 32  18  19  1   
 33  19  32  1   
 34  19  33  1   
 35  19  34  1   
@<TRIPOS>SUBSTRUCTURE
  1 ****  10 GROUP 4 **** **** 0

# MOE 2024.06 (io_trps.svl 2023.06)
