@<TRIPOS>MOLECULE
NONAME
39 41 1 0 0 
SMALL
USER_CHARGES


@<TRIPOS>ATOM
  1 O       -0.4380     0.2360     0.3360 O.2   1 <1>  -0.5700 
  2 C       -1.4870     0.8560     0.3800 C.2   1 <1>   0.7160 
  3 N       -2.6520     0.1180     0.2860 N.am  1 <1>  -0.6600 
  4 C       -1.4580     2.3130     0.5150 C.2   1 <1>   0.1410 
  5 C       -4.0270     0.6600     0.1410 C.3   1 <1>   0.1400 
  6 C       -2.6620    -1.3630     0.1960 C.3   1 <1>   0.1400 
  7 N       -2.5160     3.0860     0.9310 N.2   1 <1>  -0.5650 
  8 C       -0.4230     3.1620     0.2810 C.2   1 <1>  -0.0400 
  9 C       -4.8790    -0.5380    -0.2750 C.3   1 <1>   0.2000 
 10 C       -4.1380    -1.7620     0.2570 C.3   1 <1>  -0.0800 
 11 C       -2.0540     4.2790     0.9200 C.2   1 <1>   0.3280 
 12 O       -0.8080     4.3760     0.5370 O.3   1 <1>  -0.2800 
 13 C        1.0050     2.9650    -0.1950 C.3   1 <1>  -0.0600 
 14 O       -6.1530    -0.4760     0.2650 O.3   1 <1>  -0.6800 
 15 C       -4.4610    -3.0490    -0.5160 C.3   1 <1>   0.0210 
 16 C       -3.6090    -4.2060    -0.0310 C.2   1 <1>   0.1080 
 17 N       -3.6500    -4.6490     1.1870 N.2   1 <1>  -0.7070 
 18 C       -2.6960    -4.9050    -0.8140 C.2   1 <1>  -0.1500 
 19 N       -2.7560    -5.6550     1.2140 N.pl3 1 <1>   0.3000 
 20 C       -2.1630    -5.8280     0.0140 C.2   1 <1>  -0.3320 
 21 C       -1.1090    -6.8820    -0.2720 C.3   1 <1>  -0.0600 
 22 H       -4.3520     1.0520     1.0890 H     1 <1>   0.0800 
 23 H       -4.0550     1.4300    -0.6100 H     1 <1>   0.0800 
 24 H       -2.2190    -1.6600    -0.7390 H     1 <1>   0.0800 
 25 H       -2.1060    -1.8020     1.0080 H     1 <1>   0.0800 
 26 H       -4.9650    -0.5660    -1.3480 H     1 <1>   0.0800 
 27 H       -4.3800    -1.9070     1.2960 H     1 <1>   0.0800 
 28 H       -2.5820     5.1780     1.1870 H     1 <1>   0.1500 
 29 H        1.2010     1.9380    -0.4380 H     1 <1>   0.0800 
 30 H        1.6880     3.2720     0.5760 H     1 <1>   0.0800 
 31 H        1.1800     3.5630    -1.0700 H     1 <1>   0.0800 
 32 H       -6.1100    -0.5520     1.2380 H     1 <1>   0.4000 
 33 H       -4.2940    -2.9010    -1.5670 H     1 <1>   0.0800 
 34 H       -5.4960    -3.3010    -0.3740 H     1 <1>   0.0800 
 35 H       -2.4800    -4.7260    -1.8520 H     1 <1>   0.1500 
 36 H       -2.5740    -6.2020     2.0640 H     1 <1>   0.2700 
 37 H       -0.7920    -6.8190    -1.2980 H     1 <1>   0.0800 
 38 H       -1.5080    -7.8650    -0.0970 H     1 <1>   0.0800 
 39 H       -0.2520    -6.7320     0.3600 H     1 <1>   0.0800 
@<TRIPOS>BOND
  1   1   2  2   
  2   2   3  am  
  3   2   4  1   
  4   3   5  1   
  5   3   6  1   
  6   4   7  1   
  7   4   8  2   
  8   5   9  1   
  9   5  22  1   
 10   5  23  1   
 11   6  10  1   
 12   6  24  1   
 13   6  25  1   
 14   7  11  2   
 15   8  12  1   
 16   8  13  1   
 17   9  10  1   
 18   9  14  1   
 19   9  26  1   
 20  10  15  1   
 21  10  27  1   
 22  11  12  1   
 23  11  28  1   
 24  13  29  1   
 25  13  30  1   
 26  13  31  1   
 27  14  32  1   
 28  15  16  1   
 29  15  33  1   
 30  15  34  1   
 31  16  17  2   
 32  16  18  1   
 33  17  19  1   
 34  18  20  2   
 35  18  35  1   
 36  19  20  1   
 37  19  36  1   
 38  20  21  1   
 39  21  37  1   
 40  21  38  1   
 41  21  39  1   
@<TRIPOS>SUBSTRUCTURE
  1 ****   6 GROUP 4 **** **** 0

# MOE 2024.06 (io_trps.svl 2023.06)
