@<TRIPOS>MOLECULE
NONAME
56 59 1 0 0 
SMALL
USER_CHARGES


@<TRIPOS>ATOM
  1 O       -0.1980     0.7370     1.1800 O.3   1 <1>  -0.6800 
  2 C        0.7370    -0.0280     0.4940 C.3   1 <1>   0.2000 
  3 C        0.8050    -1.3920     1.1850 C.3   1 <1>  -0.0800 
  4 C        2.1100     0.6210     0.7130 C.3   1 <1>   0.3430 
  5 C        1.8210    -1.1520     2.3010 C.3   1 <1>   0.3430 
  6 C        1.1890    -2.5590     0.2440 C.3   1 <1>  -0.0160 
  7 N        2.8180    -0.2080     1.7400 N.4   1 <1>  -0.9590 
  8 C        2.6680    -2.6700    -0.1100 C.ar  1 <1>   0.1670 
  9 C        3.5350     0.5940     2.7570 C.3   1 <1>   0.5240 
 10 N        3.1810    -1.7400    -0.8570 N.ar  1 <1>  -0.6200 
 11 C        3.4040    -3.7620     0.3780 C.ar  1 <1>  -0.1500 
 12 C        4.5420     1.4690     2.0510 C.2   1 <1>  -0.1810 
 13 C        4.4810    -1.8710    -1.2360 C.ar  1 <1>   0.3100 
 14 C        4.7190    -3.8940     0.0540 C.ar  1 <1>  -0.1500 
 15 C        5.7300     1.1610     1.4820 C.2   1 <1>  -0.3320 
 16 C        4.3950     2.8360     1.8580 C.2   1 <1>   0.1390 
 17 C        5.2990    -2.9300    -0.7870 C.ar  1 <1>   0.0000 
 18 C        5.0370    -0.9210    -2.1080 C.ar  1 <1>  -0.1500 
 19 N        6.2300     2.3180     0.9830 N.pl3 1 <1>   0.3140 
 20 C        6.4420    -0.1810     1.3850 C.3   1 <1>  -0.0600 
 21 N        5.3940     3.3450     1.2140 N.2   1 <1>  -0.7070 
 22 C        6.6410    -2.9880    -1.2110 C.ar  1 <1>  -0.1500 
 23 C        6.3410    -1.0030    -2.5190 C.ar  1 <1>  -0.1500 
 24 C        7.5070     2.5260     0.2660 C.3   1 <1>   0.0960 
 25 C        7.1530    -2.0460    -2.0600 C.ar  1 <1>  -0.1500 
 26 C        7.2900     2.4790    -1.2530 C.3   1 <1>  -0.1600 
 27 C        8.6160     2.5820    -2.0130 C.3   1 <1>  -0.2400 
 28 H       -1.1090     0.5360     0.8800 H     1 <1>   0.4000 
 29 H        0.4620    -0.0640    -0.5470 H     1 <1>   0.0800 
 30 H       -0.1530    -1.6360     1.6130 H     1 <1>   0.0800 
 31 H        1.9840     1.6390     1.0400 H     1 <1>   0.0800 
 32 H        2.6750     0.6120    -0.2050 H     1 <1>   0.0800 
 33 H        2.2810    -2.0700     2.6300 H     1 <1>   0.0800 
 34 H        1.3140    -0.6860     3.1320 H     1 <1>   0.0800 
 35 H        0.6270    -2.4810    -0.6710 H     1 <1>   0.0800 
 36 H        0.8800    -3.4790     0.7070 H     1 <1>   0.0800 
 37 H        3.5140    -0.7410     1.1920 H     1 <1>   0.4500 
 38 H        2.8400     1.2050     3.3090 H     1 <1>   0.0800 
 39 H        4.0490    -0.0560     3.4450 H     1 <1>   0.0800 
 40 H        2.9240    -4.4980     0.9990 H     1 <1>   0.1500 
 41 H        5.3150    -4.7180     0.4070 H     1 <1>   0.1500 
 42 H        3.5590     3.4290     2.1920 H     1 <1>   0.1500 
 43 H        4.4030    -0.1270    -2.4560 H     1 <1>   0.1500 
 44 H        5.8270    -0.9770     1.7630 H     1 <1>   0.0800 
 45 H        7.3540    -0.1570     1.9560 H     1 <1>   0.0800 
 46 H        6.6870    -0.3970     0.3610 H     1 <1>   0.0800 
 47 H        7.2590    -3.7970    -0.8620 H     1 <1>   0.1500 
 48 H        6.7550    -0.2760    -3.1980 H     1 <1>   0.1500 
 49 H        7.8980     3.4850     0.5510 H     1 <1>   0.0800 
 50 H        8.2040     1.7680     0.5700 H     1 <1>   0.0800 
 51 H        8.1770    -2.0970    -2.3910 H     1 <1>   0.1500 
 52 H        6.8020     1.5590    -1.5140 H     1 <1>   0.0800 
 53 H        6.6500     3.2970    -1.5410 H     1 <1>   0.0800 
 54 H        9.2650     1.7620    -1.7580 H     1 <1>   0.0800 
 55 H        9.1150     3.5060    -1.7760 H     1 <1>   0.0800 
 56 H        8.4350     2.5570    -3.0730 H     1 <1>   0.0800 
@<TRIPOS>BOND
  1   1   2  1   
  2   1  28  1   
  3   2   3  1   
  4   2   4  1   
  5   2  29  1   
  6   3   5  1   
  7   3   6  1   
  8   3  30  1   
  9   4   7  1   
 10   4  31  1   
 11   4  32  1   
 12   5   7  1   
 13   5  33  1   
 14   5  34  1   
 15   6   8  1   
 16   6  35  1   
 17   6  36  1   
 18   7   9  1   
 19   7  37  1   
 20   8  10  ar  
 21   8  11  ar  
 22   9  12  1   
 23   9  38  1   
 24   9  39  1   
 25  10  13  ar  
 26  11  14  ar  
 27  11  40  1   
 28  12  15  2   
 29  12  16  1   
 30  13  17  ar  
 31  13  18  ar  
 32  14  17  ar  
 33  14  41  1   
 34  15  19  1   
 35  15  20  1   
 36  16  21  2   
 37  16  42  1   
 38  17  22  ar  
 39  18  23  ar  
 40  18  43  1   
 41  19  21  1   
 42  19  24  1   
 43  20  44  1   
 44  20  45  1   
 45  20  46  1   
 46  22  25  ar  
 47  22  47  1   
 48  23  25  ar  
 49  23  48  1   
 50  24  26  1   
 51  24  49  1   
 52  24  50  1   
 53  25  51  1   
 54  26  27  1   
 55  26  52  1   
 56  26  53  1   
 57  27  54  1   
 58  27  55  1   
 59  27  56  1   
@<TRIPOS>SUBSTRUCTURE
  1 ****  13 GROUP 4 **** **** 0

# MOE 2024.06 (io_trps.svl 2023.06)
