@<TRIPOS>MOLECULE
NONAME
47 50 1 0 0 
SMALL
USER_CHARGES


@<TRIPOS>ATOM
  1 O       -0.7310    -1.7850    -0.9720 O.2   1 <1>  -0.5700 
  2 C        0.4120    -2.0920    -0.7110 C.2   1 <1>   0.7800 
  3 O        1.3910    -1.9860    -1.5960 O.3   1 <1>  -0.4300 
  4 N        0.8450    -2.6170     0.4540 N.am  1 <1>  -0.6600 
  5 C        2.6070    -2.4810    -1.0640 C.3   1 <1>   0.1200 
  6 C        2.2580    -2.9830     0.3440 C.3   1 <1>   0.1400 
  7 C       -0.0230    -3.1160     1.5610 C.3   1 <1>   0.2010 
  8 C       -0.2300    -4.6330     1.5200 C.2   1 <1>   0.5690 
  9 O        0.4950    -5.3200     2.2030 O.2   1 <1>  -0.5700 
 10 N       -1.1950    -5.1970     0.7290 N.am  1 <1>  -0.6600 
 11 C       -2.0890    -4.4900    -0.2270 C.3   1 <1>   0.1400 
 12 C       -1.4030    -6.6640     0.6340 C.3   1 <1>   0.1400 
 13 C       -3.1630    -5.5210    -0.5680 C.3   1 <1>   0.2000 
 14 C       -2.4090    -6.8560    -0.5100 C.3   1 <1>  -0.0800 
 15 O       -4.1260    -5.4860     0.4310 O.3   1 <1>  -0.6800 
 16 C       -3.3150    -8.0960    -0.3540 C.3   1 <1>  -0.0170 
 17 C       -2.6300    -9.4670    -0.4360 C.ar  1 <1>  -0.1440 
 18 C       -3.3600   -10.6350    -0.1020 C.ar  1 <1>   0.0000 
 19 C       -1.3330    -9.6420    -0.8300 C.ar  1 <1>  -0.1500 
 20 C       -2.6920   -11.8820    -0.1730 C.ar  1 <1>   0.3100 
 21 C       -4.7200   -10.6420     0.2930 C.ar  1 <1>  -0.1500 
 22 C       -0.7680   -10.9230    -0.8720 C.ar  1 <1>   0.1600 
 23 N       -1.3980   -12.0080    -0.5580 N.ar  1 <1>  -0.6200 
 24 C       -3.3910   -13.0530     0.1630 C.ar  1 <1>  -0.1500 
 25 C       -5.3730   -11.8010     0.6120 C.ar  1 <1>  -0.1500 
 26 C       -4.7030   -13.0240     0.5490 C.ar  1 <1>  -0.1500 
 27 H        2.9660    -3.2740    -1.6940 H     1 <1>   0.0800 
 28 H        3.3200    -1.6760    -1.0320 H     1 <1>   0.0800 
 29 H        2.8450    -2.4850     1.0960 H     1 <1>   0.0800 
 30 H        2.3860    -4.0490     0.4200 H     1 <1>   0.0800 
 31 H        0.4320    -2.8590     2.5000 H     1 <1>   0.0800 
 32 H       -0.9770    -2.6250     1.5170 H     1 <1>   0.0800 
 33 H       -2.5150    -3.5930     0.1880 H     1 <1>   0.0800 
 34 H       -1.5310    -4.2460    -1.1140 H     1 <1>   0.0800 
 35 H       -0.4700    -7.1640     0.4410 H     1 <1>   0.0800 
 36 H       -1.8060    -7.0210     1.5670 H     1 <1>   0.0800 
 37 H       -3.6410    -5.3350    -1.5140 H     1 <1>   0.0800 
 38 H       -1.8600    -6.9400    -1.4310 H     1 <1>   0.0800 
 39 H       -3.6760    -5.4830     1.2990 H     1 <1>   0.4000 
 40 H       -4.0750    -8.0580    -1.1150 H     1 <1>   0.0800 
 41 H       -3.8090    -8.0270     0.5980 H     1 <1>   0.0800 
 42 H       -0.6970    -8.8300    -1.1230 H     1 <1>   0.1500 
 43 H       -5.2630    -9.7170     0.3450 H     1 <1>   0.1500 
 44 H        0.2580   -11.0090    -1.1840 H     1 <1>   0.1500 
 45 H       -2.8540   -13.9820     0.1040 H     1 <1>   0.1500 
 46 H       -6.4070   -11.7870     0.9120 H     1 <1>   0.1500 
 47 H       -5.2260   -13.9300     0.8030 H     1 <1>   0.1500 
@<TRIPOS>BOND
  1   1   2  2   
  2   2   3  1   
  3   2   4  am  
  4   3   5  1   
  5   4   6  1   
  6   4   7  1   
  7   5   6  1   
  8   5  27  1   
  9   5  28  1   
 10   6  29  1   
 11   6  30  1   
 12   7   8  1   
 13   7  31  1   
 14   7  32  1   
 15   8   9  2   
 16   8  10  am  
 17  10  11  1   
 18  10  12  1   
 19  11  13  1   
 20  11  33  1   
 21  11  34  1   
 22  12  14  1   
 23  12  35  1   
 24  12  36  1   
 25  13  14  1   
 26  13  15  1   
 27  13  37  1   
 28  14  16  1   
 29  14  38  1   
 30  15  39  1   
 31  16  17  1   
 32  16  40  1   
 33  16  41  1   
 34  17  18  ar  
 35  17  19  ar  
 36  18  20  ar  
 37  18  21  ar  
 38  19  22  ar  
 39  19  42  1   
 40  20  23  ar  
 41  20  24  ar  
 42  21  25  ar  
 43  21  43  1   
 44  22  23  ar  
 45  22  44  1   
 46  24  26  ar  
 47  24  45  1   
 48  25  26  ar  
 49  25  46  1   
 50  26  47  1   
@<TRIPOS>SUBSTRUCTURE
  1 ****  12 GROUP 4 **** **** 0

# MOE 2024.06 (io_trps.svl 2023.06)
