@<TRIPOS>MOLECULE
NONAME
38 39 1 0 0 
SMALL
USER_CHARGES


@<TRIPOS>ATOM
  1 S        0.3910     0.3390    -1.4790 S.o2  1 <1>   1.3330 
  2 O        0.7780    -0.8570    -2.1940 O.2   1 <1>  -0.6500 
  3 O       -0.5270     1.2740    -2.0890 O.2   1 <1>  -0.6500 
  4 N       -0.2920    -0.1410     0.0020 N.am  1 <1>  -0.8490 
  5 C        1.8870     1.2070    -1.0000 C.3   1 <1>  -0.0550 
  6 C       -1.1290    -1.3370    -0.1390 C.3   1 <1>   0.1160 
  7 C       -1.0610     0.9240     0.6580 C.3   1 <1>   0.1160 
  8 C        2.9750     0.3000    -0.3840 C.3   1 <1>  -0.0800 
  9 C        4.3200     0.9750    -0.1550 C.3   1 <1>   0.2200 
 10 C        2.6430    -0.2740     1.0000 C.3   1 <1>   0.1200 
 11 N        4.1420     2.3280     0.4250 N.am  1 <1>  -0.7300 
 12 C        4.9050     0.0650     0.9150 C.3   1 <1>   0.1200 
 13 O        3.8270    -0.2380     1.7450 O.3   1 <1>  -0.5600 
 14 C        4.2690     3.5030    -0.2530 C.2   1 <1>   0.7160 
 15 O        4.4370     3.4580    -1.4560 O.2   1 <1>  -0.5700 
 16 C        4.1830     4.7650     0.4370 C.2   1 <1>  -0.0860 
 17 C        4.0560     4.9720     1.8150 C.2   1 <1>   0.1390 
 18 C        4.2040     6.0340    -0.0600 C.2   1 <1>  -0.3020 
 19 N        3.9990     6.2240     2.1400 N.2   1 <1>  -0.7070 
 20 N        4.0940     6.8830     0.9710 N.pl3 1 <1>   0.3000 
 21 H        2.2990     1.6670    -1.8780 H     1 <1>   0.0800 
 22 H        1.6370     1.9940    -0.3170 H     1 <1>   0.0800 
 23 H       -1.5390    -1.6220     0.8150 H     1 <1>   0.0800 
 24 H       -0.5390    -2.1590    -0.5090 H     1 <1>   0.0800 
 25 H       -1.9340    -1.1510    -0.8310 H     1 <1>   0.0800 
 26 H       -1.3930     0.5960     1.6280 H     1 <1>   0.0800 
 27 H       -1.9210     1.1890     0.0640 H     1 <1>   0.0800 
 28 H       -0.4490     1.8000     0.7870 H     1 <1>   0.0800 
 29 H        3.1370    -0.5310    -1.0480 H     1 <1>   0.0800 
 30 H        4.9290     1.0110    -1.0430 H     1 <1>   0.0800 
 31 H        2.2980    -1.2920     0.9370 H     1 <1>   0.0800 
 32 H        1.9150     0.3240     1.5200 H     1 <1>   0.0800 
 33 H        3.9490     2.3240     1.4270 H     1 <1>   0.3700 
 34 H        5.6870     0.5340     1.4860 H     1 <1>   0.0800 
 35 H        5.2620    -0.8550     0.4850 H     1 <1>   0.0800 
 36 H        4.0100     4.1830     2.5470 H     1 <1>   0.1500 
 37 H        4.2920     6.3450    -1.0850 H     1 <1>   0.1500 
 38 H        4.0820     7.9100     0.9200 H     1 <1>   0.2700 
@<TRIPOS>BOND
  1   1   2  2   
  2   1   3  2   
  3   1   4  am  
  4   1   5  1   
  5   4   6  1   
  6   4   7  1   
  7   5   8  1   
  8   5  21  1   
  9   5  22  1   
 10   6  23  1   
 11   6  24  1   
 12   6  25  1   
 13   7  26  1   
 14   7  27  1   
 15   7  28  1   
 16   8   9  1   
 17   8  10  1   
 18   8  29  1   
 19   9  11  1   
 20   9  12  1   
 21   9  30  1   
 22  10  13  1   
 23  10  31  1   
 24  10  32  1   
 25  11  14  am  
 26  11  33  1   
 27  12  13  1   
 28  12  34  1   
 29  12  35  1   
 30  14  15  2   
 31  14  16  1   
 32  16  17  1   
 33  16  18  2   
 34  17  19  2   
 35  17  36  1   
 36  18  20  1   
 37  18  37  1   
 38  19  20  1   
 39  20  38  1   
@<TRIPOS>SUBSTRUCTURE
  1 ****   5 GROUP 4 **** **** 0

# MOE 2024.06 (io_trps.svl 2023.06)
