@<TRIPOS>MOLECULE
NONAME
40 42 1 0 0 
SMALL
USER_CHARGES


@<TRIPOS>ATOM
  1 O        0.7280     0.0970     0.5880 O.2   1 <1>  -0.5700 
  2 C        1.6030    -0.6310     0.1590 C.2   1 <1>   0.7150 
  3 N        2.8350    -0.0940    -0.1460 N.am  1 <1>  -0.6600 
  4 C        1.3430    -2.0330    -0.0260 C.2   1 <1>  -0.2370 
  5 C        2.9850     1.3750    -0.3880 C.3   1 <1>   0.1400 
  6 C        4.1000    -0.7960     0.2070 C.3   1 <1>   0.1400 
  7 N        1.8740    -2.7620    -1.0540 N.pl3 1 <1>   0.0330 
  8 C        0.5500    -2.8770     0.7080 C.2   1 <1>  -0.1500 
  9 C        3.6400     2.0550     0.8250 C.3   1 <1>   0.0640 
 10 C        4.7200    -0.1470     1.4500 C.3   1 <1>  -0.1600 
 11 C        1.4340    -4.0390    -0.9520 C.2   1 <1>  -0.3020 
 12 C        0.6140    -4.1420     0.1280 C.2   1 <1>  -0.1500 
 13 C        3.7580     3.5780     0.6370 C.ar  1 <1>  -0.1440 
 14 C        4.9470     1.3600     1.2540 C.3   1 <1>  -0.1600 
 15 C        4.6640     4.2380    -0.2020 C.ar  1 <1>  -0.1440 
 16 C        2.8610     4.3450     1.3740 C.ar  1 <1>  -0.1500 
 17 C        4.6520     5.6250    -0.2630 C.ar  1 <1>  -0.1500 
 18 C        5.7040     3.5500    -1.0790 C.3   1 <1>  -0.0970 
 19 C        2.8560     5.7250     1.3010 C.ar  1 <1>  -0.1500 
 20 C        3.7570     6.3690     0.4800 C.ar  1 <1>  -0.1500 
 21 H        2.0220     1.8230    -0.5640 H     1 <1>   0.0800 
 22 H        3.5740     1.5200    -1.2720 H     1 <1>   0.0800 
 23 H        4.7830    -0.7310    -0.6220 H     1 <1>   0.0800 
 24 H        3.9140    -1.8360     0.4130 H     1 <1>   0.0800 
 25 H        2.4880    -2.3800    -1.7810 H     1 <1>   0.2700 
 26 H       -0.0260    -2.6160     1.5790 H     1 <1>   0.1500 
 27 H        2.9510     1.8890     1.6360 H     1 <1>   0.0800 
 28 H        5.6580    -0.6260     1.6710 H     1 <1>   0.0800 
 29 H        4.0660    -0.3100     2.2900 H     1 <1>   0.0800 
 30 H        1.7170    -4.8100    -1.6480 H     1 <1>   0.1500 
 31 H        0.0970    -5.0180     0.4830 H     1 <1>   0.1500 
 32 H        5.2970     1.7990     2.1720 H     1 <1>   0.0800 
 33 H        5.7110     1.4880     0.5160 H     1 <1>   0.0800 
 34 H        2.1430     3.8730     2.0220 H     1 <1>   0.1500 
 35 H        5.3480     6.1440    -0.8980 H     1 <1>   0.1500 
 36 H        5.3560     2.6130    -1.4600 H     1 <1>   0.0800 
 37 H        6.6040     3.3900    -0.5130 H     1 <1>   0.0800 
 38 H        5.9480     4.1660    -1.9260 H     1 <1>   0.0800 
 39 H        2.1520     6.2940     1.8830 H     1 <1>   0.1500 
 40 H        3.7630     7.4430     0.4180 H     1 <1>   0.1500 
@<TRIPOS>BOND
  1   1   2  2   
  2   2   3  am  
  3   2   4  1   
  4   3   5  1   
  5   3   6  1   
  6   4   7  1   
  7   4   8  2   
  8   5   9  1   
  9   5  21  1   
 10   5  22  1   
 11   6  10  1   
 12   6  23  1   
 13   6  24  1   
 14   7  11  1   
 15   7  25  1   
 16   8  12  1   
 17   8  26  1   
 18   9  13  1   
 19   9  14  1   
 20   9  27  1   
 21  10  14  1   
 22  10  28  1   
 23  10  29  1   
 24  11  12  2   
 25  11  30  1   
 26  12  31  1   
 27  13  15  ar  
 28  13  16  ar  
 29  14  32  1   
 30  14  33  1   
 31  15  17  ar  
 32  15  18  1   
 33  16  19  ar  
 34  16  34  1   
 35  17  20  ar  
 36  17  35  1   
 37  18  36  1   
 38  18  37  1   
 39  18  38  1   
 40  19  20  ar  
 41  19  39  1   
 42  20  40  1   
@<TRIPOS>SUBSTRUCTURE
  1 ****   5 GROUP 4 **** **** 0

# MOE 2024.06 (io_trps.svl 2023.06)
