@<TRIPOS>MOLECULE
NONAME
59 62 1 0 0 
SMALL
USER_CHARGES


@<TRIPOS>ATOM
  1 O       -1.0950     0.2000    -0.7000 O.2   1 <1>  -0.5700 
  2 C       -2.0870     0.6500    -0.1730 C.2   1 <1>   0.5690 
  3 N       -3.2980     0.0070    -0.3630 N.am  1 <1>  -0.6600 
  4 C       -1.9690     1.9220     0.6970 C.3   1 <1>   0.2680 
  5 C       -3.4030    -1.1440    -1.3130 C.3   1 <1>   0.1400 
  6 C       -4.5840     0.3810     0.2980 C.3   1 <1>   0.1400 
  7 C       -2.8450     3.0730     0.1810 C.ar  1 <1>  -0.1440 
  8 C       -0.5330     2.4110     0.9260 C.ar  1 <1>  -0.1440 
  9 C       -3.9600    -2.3740    -0.5730 C.3   1 <1>   0.4230 
 10 C       -5.1980    -0.8560     0.9770 C.3   1 <1>  -0.1600 
 11 C       -3.0770     3.2630    -1.1760 C.ar  1 <1>  -0.1500 
 12 C       -3.4260     3.9480     1.0890 C.ar  1 <1>  -0.1500 
 13 C        0.1990     2.9840    -0.1050 C.ar  1 <1>  -0.1500 
 14 C        0.0570     2.2930     2.1790 C.ar  1 <1>  -0.1500 
 15 N       -3.8100    -3.6860    -1.3270 N.4   1 <1>  -0.9590 
 16 C       -5.3660    -2.0830     0.0390 C.3   1 <1>   0.0000 
 17 C       -3.8860     4.2970    -1.6130 C.ar  1 <1>  -0.1500 
 18 C       -4.2350     4.9830     0.6530 C.ar  1 <1>  -0.1500 
 19 C        1.4910     3.4310     0.1090 C.ar  1 <1>  -0.1500 
 20 C        1.3490     2.7390     2.3950 C.ar  1 <1>  -0.1500 
 21 C       -4.7410    -4.7570    -0.8470 C.3   1 <1>   0.3430 
 22 C       -3.9220    -3.5720    -2.8160 C.3   1 <1>   0.2630 
 23 C       -5.8400    -3.2910     0.9030 C.3   1 <1>  -0.1600 
 24 C       -6.4570    -1.7000    -1.0050 C.3   1 <1>   0.1200 
 25 C       -4.4680     5.1560    -0.6990 C.ar  1 <1>  -0.1500 
 26 C        2.0680     3.3090     1.3600 C.ar  1 <1>  -0.1500 
 27 C       -5.0530    -4.5870     0.6390 C.3   1 <1>  -0.1600 
 28 O       -6.7430    -2.7380    -1.8780 O.3   1 <1>  -0.6800 
 29 H       -2.3520     1.6400     1.6590 H     1 <1>   0.0800 
 30 H       -4.0440    -0.8640    -2.1290 H     1 <1>   0.0800 
 31 H       -2.4370    -1.3890    -1.7160 H     1 <1>   0.0800 
 32 H       -4.4360     1.1420     1.0420 H     1 <1>   0.0800 
 33 H       -5.2550     0.7870    -0.4410 H     1 <1>   0.0800 
 34 H       -3.3160    -2.4760     0.2850 H     1 <1>   0.0800 
 35 H       -4.5600    -1.1160     1.8050 H     1 <1>   0.0800 
 36 H       -6.1510    -0.5810     1.3960 H     1 <1>   0.0800 
 37 H       -2.6270     2.6130    -1.9060 H     1 <1>   0.1500 
 38 H       -3.2470     3.8350     2.1450 H     1 <1>   0.1500 
 39 H       -0.2330     3.0820    -1.0850 H     1 <1>   0.1500 
 40 H       -0.4810     1.8530     3.0000 H     1 <1>   0.1500 
 41 H       -2.8560    -4.0110    -1.1180 H     1 <1>   0.4500 
 42 H       -4.0600     4.4360    -2.6660 H     1 <1>   0.1500 
 43 H       -4.6790     5.6570     1.3650 H     1 <1>   0.1500 
 44 H        2.0470     3.8720    -0.7000 H     1 <1>   0.1500 
 45 H        1.7980     2.6430     3.3680 H     1 <1>   0.1500 
 46 H       -5.6670    -4.7080    -1.3960 H     1 <1>   0.0800 
 47 H       -4.3040    -5.7270    -1.0210 H     1 <1>   0.0800 
 48 H       -4.8870    -3.1830    -3.0950 H     1 <1>   0.0800 
 49 H       -3.8020    -4.5400    -3.2740 H     1 <1>   0.0800 
 50 H       -3.1610    -2.9160    -3.2050 H     1 <1>   0.0800 
 51 H       -5.7650    -3.0720     1.9550 H     1 <1>   0.0800 
 52 H       -6.8830    -3.4810     0.7140 H     1 <1>   0.0800 
 53 H       -6.1690    -0.8500    -1.5980 H     1 <1>   0.0800 
 54 H       -7.3740    -1.4540    -0.4940 H     1 <1>   0.0800 
 55 H       -5.0960     5.9620    -1.0390 H     1 <1>   0.1500 
 56 H        3.0730     3.6550     1.5260 H     1 <1>   0.1500 
 57 H       -5.6410    -5.4260     0.9720 H     1 <1>   0.0800 
 58 H       -4.1360    -4.5970     1.2030 H     1 <1>   0.0800 
 59 H       -7.5730    -2.5500    -2.3690 H     1 <1>   0.4000 
@<TRIPOS>BOND
  1   1   2  2   
  2   2   3  am  
  3   2   4  1   
  4   3   5  1   
  5   3   6  1   
  6   4   7  1   
  7   4   8  1   
  8   4  29  1   
  9   5   9  1   
 10   5  30  1   
 11   5  31  1   
 12   6  10  1   
 13   6  32  1   
 14   6  33  1   
 15   7  11  ar  
 16   7  12  ar  
 17   8  13  ar  
 18   8  14  ar  
 19   9  15  1   
 20   9  16  1   
 21   9  34  1   
 22  10  16  1   
 23  10  35  1   
 24  10  36  1   
 25  11  17  ar  
 26  11  37  1   
 27  12  18  ar  
 28  12  38  1   
 29  13  19  ar  
 30  13  39  1   
 31  14  20  ar  
 32  14  40  1   
 33  15  21  1   
 34  15  22  1   
 35  15  41  1   
 36  16  23  1   
 37  16  24  1   
 38  17  25  ar  
 39  17  42  1   
 40  18  25  ar  
 41  18  43  1   
 42  19  26  ar  
 43  19  44  1   
 44  20  26  ar  
 45  20  45  1   
 46  21  27  1   
 47  21  46  1   
 48  21  47  1   
 49  22  48  1   
 50  22  49  1   
 51  22  50  1   
 52  23  27  1   
 53  23  51  1   
 54  23  52  1   
 55  24  28  1   
 56  24  53  1   
 57  24  54  1   
 58  25  55  1   
 59  26  56  1   
 60  27  57  1   
 61  27  58  1   
 62  28  59  1   
@<TRIPOS>SUBSTRUCTURE
  1 ****   3 GROUP 4 **** **** 0

# MOE 2024.06 (io_trps.svl 2023.06)
