@<TRIPOS>MOLECULE
NONAME
49 51 1 0 0 
SMALL
USER_CHARGES


@<TRIPOS>ATOM
  1 O        0.4980    -0.4640    -1.0000 O.2   1 <1>  -0.5700 
  2 C        0.3630    -1.6730    -0.8720 C.2   1 <1>   0.6160 
  3 N        0.7750    -2.3160     0.2860 N.am  1 <1>  -0.4690 
  4 C       -0.2200    -2.4690    -1.8950 C.2   1 <1>  -0.1360 
  5 C        0.6030    -3.6730     0.4290 C.2   1 <1>  -0.0410 
  6 C        1.4190    -1.5220     1.3640 C.3   1 <1>   0.0600 
  7 C       -0.3870    -3.8090    -1.7430 C.2   1 <1>  -0.1500 
  8 C        0.0190    -4.4560    -0.5350 C.2   1 <1>   0.0140 
  9 C       -0.1660    -5.8780    -0.3490 C.2   1 <1>   0.6160 
 10 O        0.6660    -6.5150     0.2720 O.2   1 <1>  -0.5700 
 11 N       -1.2730    -6.5430    -0.8330 N.am  1 <1>  -0.6600 
 12 C       -2.6380    -5.9320    -0.8450 C.3   1 <1>   0.1400 
 13 C       -1.3070    -8.0350    -0.9430 C.3   1 <1>   0.1400 
 14 C       -3.5750    -6.6590     0.1400 C.3   1 <1>   0.2950 
 15 C       -2.3170    -8.6420     0.0540 C.3   1 <1>   0.2000 
 16 O       -3.5670    -8.0340    -0.1070 O.3   1 <1>  -0.5600 
 17 C       -5.0210    -6.1720     0.0020 C.3   1 <1>  -0.1950 
 18 C       -2.5300   -10.1480    -0.1420 C.3   1 <1>  -0.1600 
 19 C       -5.5040    -4.9620     0.7400 C.3   1 <1>  -0.2000 
 20 C       -6.0010    -6.3280     1.1210 C.3   1 <1>  -0.2000 
 21 C       -1.2690   -10.9780     0.1500 C.3   1 <1>  -0.1600 
 22 C       -1.5600   -12.4780     0.0360 C.3   1 <1>  -0.1600 
 23 C       -0.3050   -13.3060     0.3230 C.3   1 <1>  -0.2400 
 24 H       -0.5120    -1.9490    -2.7870 H     1 <1>   0.1500 
 25 H        0.9480    -4.1260     1.3450 H     1 <1>   0.1500 
 26 H        1.7000    -2.1560     2.1860 H     1 <1>   0.0800 
 27 H        0.7330    -0.7710     1.7150 H     1 <1>   0.0800 
 28 H        2.2980    -1.0370     0.9760 H     1 <1>   0.0800 
 29 H       -0.8170    -4.4120    -2.5240 H     1 <1>   0.1500 
 30 H       -2.5930    -4.8940    -0.5700 H     1 <1>   0.0800 
 31 H       -3.0470    -5.9990    -1.8370 H     1 <1>   0.0800 
 32 H       -1.5910    -8.3080    -1.9440 H     1 <1>   0.0800 
 33 H       -0.3280    -8.4440    -0.7600 H     1 <1>   0.0800 
 34 H       -3.2370    -6.4980     1.1500 H     1 <1>   0.0800 
 35 H       -1.9820    -8.4590     1.0620 H     1 <1>   0.0800 
 36 H       -5.3980    -6.3190    -0.9960 H     1 <1>   0.1000 
 37 H       -3.3130   -10.4630     0.5260 H     1 <1>   0.0800 
 38 H       -2.8570   -10.3310    -1.1510 H     1 <1>   0.0800 
 39 H       -4.8460    -4.4540     1.4240 H     1 <1>   0.1000 
 40 H       -6.1840    -4.2890     0.2460 H     1 <1>   0.1000 
 41 H       -7.0120    -6.6050     0.8770 H     1 <1>   0.1000 
 42 H       -5.6650    -6.7740     2.0410 H     1 <1>   0.1000 
 43 H       -0.4890   -10.7200    -0.5460 H     1 <1>   0.0800 
 44 H       -0.9170   -10.7580     1.1440 H     1 <1>   0.0800 
 45 H       -2.3310   -12.7520     0.7360 H     1 <1>   0.0800 
 46 H       -1.9150   -12.7050    -0.9550 H     1 <1>   0.0800 
 47 H        0.0550   -13.1120     1.3180 H     1 <1>   0.0800 
 48 H        0.4740   -13.0670    -0.3800 H     1 <1>   0.0800 
 49 H       -0.5290   -14.3550     0.2400 H     1 <1>   0.0800 
@<TRIPOS>BOND
  1   1   2  2   
  2   2   3  am  
  3   2   4  1   
  4   3   5  1   
  5   3   6  1   
  6   4   7  2   
  7   4  24  1   
  8   5   8  2   
  9   5  25  1   
 10   6  26  1   
 11   6  27  1   
 12   6  28  1   
 13   7   8  1   
 14   7  29  1   
 15   8   9  1   
 16   9  10  2   
 17   9  11  am  
 18  11  12  1   
 19  11  13  1   
 20  12  14  1   
 21  12  30  1   
 22  12  31  1   
 23  13  15  1   
 24  13  32  1   
 25  13  33  1   
 26  14  16  1   
 27  14  17  1   
 28  14  34  1   
 29  15  16  1   
 30  15  18  1   
 31  15  35  1   
 32  17  19  1   
 33  17  20  1   
 34  17  36  1   
 35  18  21  1   
 36  18  37  1   
 37  18  38  1   
 38  19  20  1   
 39  19  39  1   
 40  19  40  1   
 41  20  41  1   
 42  20  42  1   
 43  21  22  1   
 44  21  43  1   
 45  21  44  1   
 46  22  23  1   
 47  22  45  1   
 48  22  46  1   
 49  23  47  1   
 50  23  48  1   
 51  23  49  1   
@<TRIPOS>SUBSTRUCTURE
  1 ****  11 GROUP 4 **** **** 0

# MOE 2024.06 (io_trps.svl 2023.06)
