@<TRIPOS>MOLECULE
NONAME
36 37 1 0 0 
SMALL
USER_CHARGES


@<TRIPOS>ATOM
  1 S        0.1990    -0.0310    -0.9970 S.3   1 <1>  -0.2860 
  2 C        1.1990     0.5740     0.3740 C.2   1 <1>  -0.0960 
  3 C       -0.2080    -1.7670    -0.5120 C.3   1 <1>   0.0700 
  4 N        1.7220     1.7960     0.3910 N.pl3 1 <1>   0.3000 
  5 C        1.5780    -0.0060     1.5210 C.2   1 <1>   0.0770 
  6 C       -1.1690    -2.3470    -1.5490 C.3   1 <1>   0.1400 
  7 N        2.4130     1.9570     1.5290 N.2   1 <1>  -0.4180 
  8 N        2.3260     0.8640     2.2150 N.2   1 <1>  -0.2270 
  9 N       -1.4030    -3.7860    -1.2800 N.am  1 <1>  -0.7300 
 10 C       -2.1480    -4.2870    -0.2510 C.2   1 <1>   0.7160 
 11 O       -2.6050    -3.5030     0.5610 O.2   1 <1>  -0.5700 
 12 C       -2.3570    -5.7170    -0.1610 C.2   1 <1>  -0.0860 
 13 C       -3.3660    -6.4510     0.4230 C.2   1 <1>  -0.3320 
 14 C       -1.4820    -6.6780    -0.7070 C.2   1 <1>  -0.1500 
 15 N       -3.1370    -7.7800     0.2610 N.pl3 1 <1>   0.0480 
 16 C       -4.5920    -5.9150     1.1520 C.3   1 <1>  -0.0600 
 17 C       -1.9780    -7.9100    -0.4410 C.2   1 <1>  -0.3320 
 18 C       -3.9800    -8.8950     0.7380 C.3   1 <1>   0.0160 
 19 C       -1.3730    -9.2460    -0.8370 C.3   1 <1>  -0.0600 
 20 H       -0.6630    -1.7290     0.4620 H     1 <1>   0.0800 
 21 H        0.7170    -2.3130    -0.4820 H     1 <1>   0.0800 
 22 H        1.6300     2.5170    -0.3310 H     1 <1>   0.2700 
 23 H        1.3590    -0.9920     1.8900 H     1 <1>   0.1500 
 24 H       -0.7540    -2.2330    -2.5350 H     1 <1>   0.0800 
 25 H       -2.1070    -1.8180    -1.5040 H     1 <1>   0.0800 
 26 H       -1.1390    -4.4420    -2.0150 H     1 <1>   0.3700 
 27 H       -0.5730    -6.4520    -1.2350 H     1 <1>   0.1500 
 28 H       -4.6580    -4.8460     1.0690 H     1 <1>   0.0800 
 29 H       -4.5390    -6.1690     2.1950 H     1 <1>   0.0800 
 30 H       -5.4870    -6.3350     0.7300 H     1 <1>   0.0800 
 31 H       -4.6100    -8.5630     1.5410 H     1 <1>   0.0800 
 32 H       -3.3530    -9.6910     1.0940 H     1 <1>   0.0800 
 33 H       -4.5870    -9.2480    -0.0750 H     1 <1>   0.0800 
 34 H       -0.4750    -9.0920    -1.4070 H     1 <1>   0.0800 
 35 H       -2.0680    -9.8050    -1.4380 H     1 <1>   0.0800 
 36 H       -1.1260    -9.8170     0.0400 H     1 <1>   0.0800 
@<TRIPOS>BOND
  1   1   2  1   
  2   1   3  1   
  3   2   4  1   
  4   2   5  2   
  5   3   6  1   
  6   3  20  1   
  7   3  21  1   
  8   4   7  1   
  9   4  22  1   
 10   5   8  1   
 11   5  23  1   
 12   6   9  1   
 13   6  24  1   
 14   6  25  1   
 15   7   8  2   
 16   9  10  am  
 17   9  26  1   
 18  10  11  2   
 19  10  12  1   
 20  12  13  2   
 21  12  14  1   
 22  13  15  1   
 23  13  16  1   
 24  14  17  2   
 25  14  27  1   
 26  15  17  1   
 27  15  18  1   
 28  16  28  1   
 29  16  29  1   
 30  16  30  1   
 31  17  19  1   
 32  18  31  1   
 33  18  32  1   
 34  18  33  1   
 35  19  34  1   
 36  19  35  1   
 37  19  36  1   
@<TRIPOS>SUBSTRUCTURE
  1 ****  10 GROUP 4 **** **** 0

# MOE 2024.06 (io_trps.svl 2023.06)
