@<TRIPOS>MOLECULE
NONAME
44 45 1 0 0 
SMALL
USER_CHARGES


@<TRIPOS>ATOM
  1 S        1.5160    -0.3030     0.6080 S.o2  1 <1>   1.3330 
  2 O        1.4450     0.4470     1.8410 O.2   1 <1>  -0.6500 
  3 O        2.4910    -1.3630     0.4760 O.2   1 <1>  -0.6500 
  4 N       -0.0160    -0.9680     0.3000 N.am  1 <1>  -0.8490 
  5 C        1.7070     0.8740    -0.7320 C.3   1 <1>  -0.0550 
  6 C       -0.6860    -1.4110     1.5260 C.3   1 <1>   0.1160 
  7 C        0.0120    -2.0630    -0.6760 C.3   1 <1>   0.1160 
  8 C        3.0080     1.6980    -0.6460 C.3   1 <1>  -0.0800 
  9 C        3.0050     2.8370    -1.6510 C.3   1 <1>   0.2200 
 10 C        4.2260     0.8930    -1.1040 C.3   1 <1>   0.1200 
 11 N        3.9450     3.8810    -1.1930 N.am  1 <1>  -0.7300 
 12 C        3.5480     2.1630    -2.9090 C.3   1 <1>   0.1200 
 13 O        4.3140     1.0720    -2.4850 O.3   1 <1>  -0.5600 
 14 C        3.6020     5.1310    -0.7930 C.2   1 <1>   0.5690 
 15 O        2.4620     5.5230    -0.8480 O.2   1 <1>  -0.5700 
 16 C        4.6740     6.0670    -0.2580 C.3   1 <1>   0.0440 
 17 C        5.9780     5.3480     0.0860 C.ar  1 <1>  -0.1440 
 18 C        7.0820     5.4470    -0.7490 C.ar  1 <1>  -0.1500 
 19 C        6.0630     4.5740     1.2370 C.ar  1 <1>  -0.1500 
 20 C        8.2370     4.7680    -0.4110 C.ar  1 <1>   0.1900 
 21 C        7.2310     3.8980     1.5580 C.ar  1 <1>  -0.1500 
 22 F        9.2740     4.8620    -1.2000 F     1 <1>  -0.1900 
 23 C        8.3340     3.9920     0.7270 C.ar  1 <1>  -0.1500 
 24 H        1.6680     0.3590    -1.6720 H     1 <1>   0.0800 
 25 H        0.8740     1.5500    -0.6940 H     1 <1>   0.0800 
 26 H       -1.6580    -1.8110     1.2970 H     1 <1>   0.0800 
 27 H       -0.8160    -0.5780     2.1970 H     1 <1>   0.0800 
 28 H       -0.0980    -2.1660     2.0230 H     1 <1>   0.0800 
 29 H       -0.9920    -2.3820    -0.9020 H     1 <1>   0.0800 
 30 H        0.5670    -2.9010    -0.2870 H     1 <1>   0.0800 
 31 H        0.4770    -1.7360    -1.5900 H     1 <1>   0.0800 
 32 H        3.1280     2.0640     0.3600 H     1 <1>   0.0800 
 33 H        2.0270     3.2610    -1.8110 H     1 <1>   0.0800 
 34 H        4.1620    -0.1600    -0.8910 H     1 <1>   0.0800 
 35 H        5.1280     1.2870    -0.6670 H     1 <1>   0.0800 
 36 H        4.9240     3.5900    -1.1170 H     1 <1>   0.3700 
 37 H        4.1570     2.8230    -3.5000 H     1 <1>   0.0800 
 38 H        2.7430     1.7770    -3.5090 H     1 <1>   0.0800 
 39 H        4.8520     6.8290    -0.9940 H     1 <1>   0.0800 
 40 H        4.2920     6.5500     0.6220 H     1 <1>   0.0800 
 41 H        7.0590     6.0360    -1.6490 H     1 <1>   0.1500 
 42 H        5.2120     4.4900     1.8930 H     1 <1>   0.1500 
 43 H        7.2790     3.3010     2.4530 H     1 <1>   0.1500 
 44 H        9.2510     3.4790     0.9550 H     1 <1>   0.1500 
@<TRIPOS>BOND
  1   1   2  2   
  2   1   3  2   
  3   1   4  am  
  4   1   5  1   
  5   4   6  1   
  6   4   7  1   
  7   5   8  1   
  8   5  24  1   
  9   5  25  1   
 10   6  26  1   
 11   6  27  1   
 12   6  28  1   
 13   7  29  1   
 14   7  30  1   
 15   7  31  1   
 16   8   9  1   
 17   8  10  1   
 18   8  32  1   
 19   9  11  1   
 20   9  12  1   
 21   9  33  1   
 22  10  13  1   
 23  10  34  1   
 24  10  35  1   
 25  11  14  am  
 26  11  36  1   
 27  12  13  1   
 28  12  37  1   
 29  12  38  1   
 30  14  15  2   
 31  14  16  1   
 32  16  17  1   
 33  16  39  1   
 34  16  40  1   
 35  17  18  ar  
 36  17  19  ar  
 37  18  20  ar  
 38  18  41  1   
 39  19  21  ar  
 40  19  42  1   
 41  20  22  1   
 42  20  23  ar  
 43  21  23  ar  
 44  21  43  1   
 45  23  44  1   
@<TRIPOS>SUBSTRUCTURE
  1 ****   8 GROUP 4 **** **** 0

# MOE 2024.06 (io_trps.svl 2023.06)
