@<TRIPOS>MOLECULE
NONAME
40 42 1 0 0 
SMALL
USER_CHARGES


@<TRIPOS>ATOM
  1 CL       2.0710     0.2850    -0.5840 Cl    1 <1>  -0.1770 
  2 C        2.4740    -1.4010    -0.7550 C.ar  1 <1>   0.1770 
  3 C        3.1040    -1.8350    -1.9050 C.ar  1 <1>  -0.1500 
  4 C        2.1480    -2.2770     0.2690 C.ar  1 <1>  -0.1500 
  5 C        3.4010    -3.1790    -1.9970 C.ar  1 <1>   0.1900 
  6 C        2.4530    -3.6290     0.1540 C.ar  1 <1>  -0.1440 
  7 F        3.9940    -3.6220    -3.0710 F     1 <1>  -0.1900 
  8 C        3.0910    -4.0820    -0.9950 C.ar  1 <1>  -0.1500 
  9 C        2.0920    -4.6010     1.2630 C.3   1 <1>   0.4870 
 10 N        0.9970    -5.4720     0.7760 N.4   1 <1>  -0.9590 
 11 C       -0.2880    -4.7660     0.4590 C.3   1 <1>   0.3430 
 12 C        0.6550    -6.6200     1.6460 C.3   1 <1>   0.3430 
 13 C       -1.4130    -5.7080     0.9220 C.3   1 <1>   0.2000 
 14 C       -0.7220    -7.0570     1.1400 C.3   1 <1>  -0.0800 
 15 O       -1.9310    -5.2630     2.1330 O.3   1 <1>  -0.6800 
 16 C       -0.6840    -7.8600    -0.1910 C.3   1 <1>  -0.0160 
 17 C        0.6530    -8.5160    -0.5170 C.ar  1 <1>   0.1670 
 18 N        1.6030    -7.7150    -0.9890 N.ar  1 <1>  -0.6200 
 19 C        0.8210    -9.8870    -0.3270 C.ar  1 <1>   0.1600 
 20 C        2.7080    -8.3880    -1.2880 C.ar  1 <1>   0.1600 
 21 N        1.9350   -10.5430    -0.5920 N.ar  1 <1>  -0.6200 
 22 C        2.8690    -9.7540    -1.0920 C.ar  1 <1>   0.1600 
 23 H        3.3550    -1.1520    -2.6960 H     1 <1>   0.1500 
 24 H        1.6610    -1.8800     1.1430 H     1 <1>   0.1500 
 25 H        3.3530    -5.1160    -1.1320 H     1 <1>   0.1500 
 26 H        1.7810    -4.0620     2.1430 H     1 <1>   0.0800 
 27 H        2.9560    -5.1970     1.5110 H     1 <1>   0.0800 
 28 H        1.3270    -5.9140    -0.1070 H     1 <1>   0.4500 
 29 H       -0.3650    -3.8220     0.9720 H     1 <1>   0.0800 
 30 H       -0.3550    -4.5990    -0.6040 H     1 <1>   0.0800 
 31 H        1.3870    -7.4090     1.5720 H     1 <1>   0.0800 
 32 H        0.5820    -6.2980     2.6720 H     1 <1>   0.0800 
 33 H       -2.2290    -5.7460     0.2180 H     1 <1>   0.0800 
 34 H       -1.2270    -7.6470     1.8860 H     1 <1>   0.0800 
 35 H       -1.3060    -5.3230     2.8800 H     1 <1>   0.4000 
 36 H       -0.9260    -7.2230    -1.0250 H     1 <1>   0.0800 
 37 H       -1.4540    -8.6110    -0.1620 H     1 <1>   0.0800 
 38 H        0.0020   -10.4700     0.0600 H     1 <1>   0.1500 
 39 H        3.5310    -7.8380    -1.7100 H     1 <1>   0.1500 
 40 H        3.8060   -10.2120    -1.3600 H     1 <1>   0.1500 
@<TRIPOS>BOND
  1   1   2  1   
  2   2   3  ar  
  3   2   4  ar  
  4   3   5  ar  
  5   3  23  1   
  6   4   6  ar  
  7   4  24  1   
  8   5   7  1   
  9   5   8  ar  
 10   6   8  ar  
 11   6   9  1   
 12   8  25  1   
 13   9  10  1   
 14   9  26  1   
 15   9  27  1   
 16  10  11  1   
 17  10  12  1   
 18  10  28  1   
 19  11  13  1   
 20  11  29  1   
 21  11  30  1   
 22  12  14  1   
 23  12  31  1   
 24  12  32  1   
 25  13  14  1   
 26  13  15  1   
 27  13  33  1   
 28  14  16  1   
 29  14  34  1   
 30  15  35  1   
 31  16  17  1   
 32  16  36  1   
 33  16  37  1   
 34  17  18  ar  
 35  17  19  ar  
 36  18  20  ar  
 37  19  21  ar  
 38  19  38  1   
 39  20  22  ar  
 40  20  39  1   
 41  21  22  ar  
 42  22  40  1   
@<TRIPOS>SUBSTRUCTURE
  1 ****  10 GROUP 4 **** **** 0

# MOE 2024.06 (io_trps.svl 2023.06)
