@<TRIPOS>MOLECULE
NONAME
49 52 1 0 0 
SMALL
USER_CHARGES


@<TRIPOS>ATOM
  1 S        0.1010    -0.6220     1.2320 S.o2  1 <1>   1.5000 
  2 O        0.4740    -1.9140     1.7590 O.2   1 <1>  -0.6500 
  3 O       -1.0760     0.0410     1.7420 O.2   1 <1>  -0.6500 
  4 N       -0.2460    -0.7880    -0.4060 N.am  1 <1>  -0.9140 
  5 C        1.5450     0.4930     1.2640 C.2   1 <1>   0.0780 
  6 C       -0.8240    -2.0450    -0.8990 C.3   1 <1>   0.2760 
  7 O        1.4570     1.7430     0.8260 O.3   1 <1>  -0.2800 
  8 C        2.8140     0.2630     1.6750 C.2   1 <1>  -0.1500 
  9 C       -2.0020    -2.6140    -0.0950 C.3   1 <1>  -0.0800 
 10 C        0.1680    -3.2090    -0.9970 C.3   1 <1>   0.1200 
 11 C        2.6350     2.3400     0.9460 C.2   1 <1>   0.1400 
 12 C        3.5170     1.4510     1.4720 C.2   1 <1>  -0.1500 
 13 C       -1.5280    -4.0320     0.2390 C.3   1 <1>   0.1200 
 14 C       -3.2980    -2.6190    -0.9250 C.3   1 <1>  -0.0160 
 15 O       -0.5890    -4.3460    -0.7350 O.3   1 <1>  -0.5600 
 16 C        2.8230     3.7100     0.5470 C.2   1 <1>   0.1400 
 17 C       -4.4720    -3.1720    -0.1310 C.ar  1 <1>  -0.1430 
 18 O        4.0270     4.2360     0.5920 O.3   1 <1>  -0.0190 
 19 C        2.0000     4.6880     0.0950 C.2   1 <1>  -0.1810 
 20 C       -5.0370    -2.4700     0.9160 C.ar  1 <1>  -0.1500 
 21 C       -5.0320    -4.4010    -0.4130 C.ar  1 <1>  -0.1500 
 22 N        4.0560     5.4760     0.2020 N.2   1 <1>  -0.4100 
 23 C        2.8450     5.7730    -0.1040 C.2   1 <1>   0.1080 
 24 C        0.5000     4.6770    -0.1550 C.3   1 <1>  -0.0590 
 25 C       -6.1030    -3.0180     1.6100 C.ar  1 <1>   0.1600 
 26 C       -6.0990    -4.8570     0.3440 C.ar  1 <1>   0.1600 
 27 C        2.4290     7.1380    -0.6120 C.3   1 <1>  -0.0590 
 28 N       -6.6480    -4.1950     1.3490 N.ar  1 <1>  -0.6200 
 29 H       -0.9380    -0.0560    -0.5530 H     1 <1>   0.4200 
 30 H       -1.1520    -1.8600    -1.9080 H     1 <1>   0.0800 
 31 H        3.2220    -0.6470     2.0810 H     1 <1>   0.1500 
 32 H       -2.1880    -2.0900     0.8220 H     1 <1>   0.0800 
 33 H        0.9490    -3.1540    -0.2620 H     1 <1>   0.0800 
 34 H        0.5910    -3.2970    -1.9820 H     1 <1>   0.0800 
 35 H        4.5570     1.6150     1.6940 H     1 <1>   0.1500 
 36 H       -2.3130    -4.7670     0.2250 H     1 <1>   0.0800 
 37 H       -1.0310    -4.0550     1.1950 H     1 <1>   0.0800 
 38 H       -3.1570    -3.2040    -1.8180 H     1 <1>   0.0800 
 39 H       -3.5350    -1.6130    -1.2280 H     1 <1>   0.0800 
 40 H       -4.6590    -1.5050     1.2000 H     1 <1>   0.1500 
 41 H       -4.6510    -5.0110    -1.2120 H     1 <1>   0.1500 
 42 H        0.0310     5.4710     0.3980 H     1 <1>   0.0800 
 43 H        0.0610     3.7470     0.1540 H     1 <1>   0.0800 
 44 H        0.3030     4.8180    -1.2030 H     1 <1>   0.0800 
 45 H       -6.5290    -2.4560     2.4240 H     1 <1>   0.1500 
 46 H       -6.5230    -5.8190     0.1100 H     1 <1>   0.1500 
 47 H        1.9590     7.0430    -1.5730 H     1 <1>   0.0800 
 48 H        3.2910     7.7720    -0.7090 H     1 <1>   0.0800 
 49 H        1.7420     7.5900     0.0790 H     1 <1>   0.0800 
@<TRIPOS>BOND
  1   1   2  2   
  2   1   3  2   
  3   1   4  am  
  4   1   5  1   
  5   4   6  1   
  6   4  29  1   
  7   5   7  1   
  8   5   8  2   
  9   6   9  1   
 10   6  10  1   
 11   6  30  1   
 12   7  11  1   
 13   8  12  1   
 14   8  31  1   
 15   9  13  1   
 16   9  14  1   
 17   9  32  1   
 18  10  15  1   
 19  10  33  1   
 20  10  34  1   
 21  11  12  2   
 22  11  16  1   
 23  12  35  1   
 24  13  15  1   
 25  13  36  1   
 26  13  37  1   
 27  14  17  1   
 28  14  38  1   
 29  14  39  1   
 30  16  18  1   
 31  16  19  2   
 32  17  20  ar  
 33  17  21  ar  
 34  18  22  1   
 35  19  23  1   
 36  19  24  1   
 37  20  25  ar  
 38  20  40  1   
 39  21  26  ar  
 40  21  41  1   
 41  22  23  2   
 42  23  27  1   
 43  24  42  1   
 44  24  43  1   
 45  24  44  1   
 46  25  28  ar  
 47  25  45  1   
 48  26  28  ar  
 49  26  46  1   
 50  27  47  1   
 51  27  48  1   
 52  27  49  1   
@<TRIPOS>SUBSTRUCTURE
  1 ****   4 GROUP 4 **** **** 0

# MOE 2024.06 (io_trps.svl 2023.06)
