@<TRIPOS>MOLECULE
Untitled Document
55 57 1 0 0 
SMALL
USER_CHARGES


@<TRIPOS>ATOM
  1 S        0.0840    -0.3800    -0.5940 S.o2  1 <1>   1.4470 
  2 O        0.5870     0.9220    -0.2380 O.2   1 <1>  -0.6500 
  3 O        0.1990    -0.9320    -1.9210 O.2   1 <1>  -0.6500 
  4 N        0.8130    -1.5120     0.4750 N.am  1 <1>  -0.7300 
  5 C       -1.5380    -0.6700     0.1040 C.ar  1 <1>  -0.0090 
  6 C       -0.0940    -2.0630     1.3180 C.2   1 <1>   0.7200 
  7 C        2.2800    -1.6980     0.5120 C.3   1 <1>   0.1960 
  8 C       -1.4520    -1.6030     1.1210 C.ar  1 <1>   0.0860 
  9 C       -2.7560    -0.1060    -0.2410 C.ar  1 <1>  -0.1500 
 10 O        0.2310    -2.8760     2.1570 O.2   1 <1>  -0.5700 
 11 C        2.7470    -2.5220    -0.6940 C.3   1 <1>   0.1200 
 12 C       -2.6030    -1.9780     1.8060 C.ar  1 <1>  -0.1500 
 13 C       -3.9000    -0.4830     0.4450 C.ar  1 <1>  -0.1500 
 14 O        4.0700    -2.9840    -0.4830 O.3   1 <1>  -0.4300 
 15 C       -3.8220    -1.4170     1.4660 C.ar  1 <1>  -0.1500 
 16 C        5.1460    -2.1940    -0.5880 C.2   1 <1>   0.7060 
 17 O        4.9560    -1.0260    -0.8670 O.2   1 <1>  -0.5700 
 18 C        6.4460    -2.7480    -0.3250 C.2   1 <1>  -0.1240 
 19 C        6.8130    -4.0600    -0.3470 C.2   1 <1>  -0.0380 
 20 C        7.5080    -1.7000     0.0590 C.3   1 <1>   0.1960 
 21 N        8.1020    -4.4450    -0.0640 N.pl3 1 <1>  -0.6000 
 22 C        5.9110    -5.2350    -0.6920 C.3   1 <1>  -0.1020 
 23 C        8.9600    -2.2170     0.0060 C.2   1 <1>  -0.1240 
 24 C        7.2000    -1.2120     1.4870 C.3   1 <1>  -0.2400 
 25 C        9.1570    -3.5660     0.0180 C.2   1 <1>  -0.0380 
 26 C        9.9550    -1.1780    -0.0580 C.2   1 <1>   0.7060 
 27 C       10.5040    -4.2710     0.0900 C.3   1 <1>  -0.1020 
 28 O        9.7020     0.0080     0.0570 O.2   1 <1>  -0.5700 
 29 O       11.2310    -1.5090    -0.2890 O.3   1 <1>  -0.4300 
 30 C       12.2460    -0.5370    -0.3950 C.3   1 <1>   0.1200 
 31 C       13.5660    -1.2590    -0.6480 C.3   1 <1>  -0.2400 
 32 H        2.5490    -2.2150     1.4180 H     1 <1>   0.0800 
 33 H        2.7610    -0.7340     0.5080 H     1 <1>   0.0800 
 34 H       -2.8130     0.6210    -1.0350 H     1 <1>   0.1500 
 35 H        2.7200    -1.9400    -1.6000 H     1 <1>   0.0800 
 36 H        2.1230    -3.3910    -0.8080 H     1 <1>   0.0800 
 37 H       -2.5360    -2.7050     2.6000 H     1 <1>   0.1500 
 38 H       -4.8520    -0.0500     0.1840 H     1 <1>   0.1500 
 39 H       -4.7150    -1.7070     1.9960 H     1 <1>   0.1500 
 40 H        7.4270    -0.8720    -0.6250 H     1 <1>   0.0800 
 41 H        8.3070    -5.4490    -0.0330 H     1 <1>   0.4000 
 42 H        6.4830    -6.0420    -1.1130 H     1 <1>   0.0800 
 43 H        5.1730    -4.9610    -1.4220 H     1 <1>   0.0800 
 44 H        5.4160    -5.5880     0.1950 H     1 <1>   0.0800 
 45 H        7.2590    -2.0360     2.1760 H     1 <1>   0.0800 
 46 H        6.2150    -0.7860     1.5410 H     1 <1>   0.0800 
 47 H        7.8990    -0.4570     1.7970 H     1 <1>   0.0800 
 48 H       10.3980    -5.2610     0.4930 H     1 <1>   0.0800 
 49 H       11.1820    -3.7400     0.7320 H     1 <1>   0.0800 
 50 H       10.9310    -4.3410    -0.8940 H     1 <1>   0.0800 
 51 H       12.2810     0.0230     0.5260 H     1 <1>   0.0800 
 52 H       12.0030     0.1230    -1.2110 H     1 <1>   0.0800 
 53 H       13.7890    -1.9200     0.1700 H     1 <1>   0.0800 
 54 H       14.3610    -0.5410    -0.7350 H     1 <1>   0.0800 
 55 H       13.5100    -1.8220    -1.5620 H     1 <1>   0.0800 
@<TRIPOS>BOND
  1   1   2  2   
  2   1   3  2   
  3   1   4  am  
  4   1   5  1   
  5   4   6  am  
  6   4   7  1   
  7   5   8  ar  
  8   5   9  ar  
  9   6   8  1   
 10   6  10  2   
 11   7  11  1   
 12   7  32  1   
 13   7  33  1   
 14   8  12  ar  
 15   9  13  ar  
 16   9  34  1   
 17  11  14  1   
 18  11  35  1   
 19  11  36  1   
 20  12  15  ar  
 21  12  37  1   
 22  13  15  ar  
 23  13  38  1   
 24  14  16  1   
 25  15  39  1   
 26  16  17  2   
 27  16  18  1   
 28  18  19  2   
 29  18  20  1   
 30  19  21  1   
 31  19  22  1   
 32  20  23  1   
 33  20  24  1   
 34  20  40  1   
 35  21  25  1   
 36  21  41  1   
 37  22  42  1   
 38  22  43  1   
 39  22  44  1   
 40  23  25  2   
 41  23  26  1   
 42  24  45  1   
 43  24  46  1   
 44  24  47  1   
 45  25  27  1   
 46  26  28  2   
 47  26  29  1   
 48  27  48  1   
 49  27  49  1   
 50  27  50  1   
 51  29  30  1   
 52  30  31  1   
 53  30  51  1   
 54  30  52  1   
 55  31  53  1   
 56  31  54  1   
 57  31  55  1   
@<TRIPOS>SUBSTRUCTURE
  1 ****  16 GROUP 4 **** **** 0

# MOE 2024.06 (io_trps.svl 2023.06)
