@<TRIPOS>MOLECULE
NONAME
34 35 1 0 0 
SMALL
USER_CHARGES


@<TRIPOS>ATOM
  1 O        0.7040    -0.9030     1.0230 O.co2 1 <1>  -0.9000 
  2 C        1.5090    -0.5960     0.1400 C.2   1 <1>   0.9060 
  3 O        1.3260    -0.8740    -1.0540 O.co2 1 <1>  -0.9000 
  4 C        2.7770     0.1300     0.5440 C.3   1 <1>  -0.1860 
  5 C        4.0200    -0.5750    -0.0050 C.3   1 <1>   0.2000 
  6 C        2.7790     1.6130     0.1280 C.3   1 <1>  -0.1600 
  7 O        3.9240    -0.6470    -1.3870 O.3   1 <1>  -0.6800 
  8 C        5.3160     0.1550     0.4070 C.3   1 <1>   0.2090 
  9 C        4.0220     2.3400     0.6490 C.3   1 <1>   0.2090 
 10 N        5.2890     1.6550     0.2450 N.pl3 1 <1>  -0.8380 
 11 C        6.4640     2.3650     0.0870 C.ar  1 <1>   0.7200 
 12 N        7.6080     1.6850     0.1890 N.ar  1 <1>  -0.6200 
 13 N        6.3650     3.6780    -0.1310 N.ar  1 <1>  -0.6200 
 14 C        8.7150     2.3640     0.0360 C.ar  1 <1>   0.1670 
 15 C        7.4830     4.3380    -0.2810 C.ar  1 <1>   0.1670 
 16 C        8.7050     3.7160    -0.2060 C.ar  1 <1>  -0.1500 
 17 C       10.0120     1.5910     0.1380 C.3   1 <1>  -0.0970 
 18 C        7.3710     5.8240    -0.5420 C.3   1 <1>  -0.0970 
 19 H        2.8220     0.0860     1.6160 H     1 <1>   0.0800 
 20 H        4.0460    -1.5890     0.3550 H     1 <1>   0.0800 
 21 H        1.8990     2.0920     0.5190 H     1 <1>   0.0800 
 22 H        2.7460     1.6950    -0.9440 H     1 <1>   0.0800 
 23 H        2.9490    -0.7760    -1.5830 H     1 <1>   0.4000 
 24 H        6.1240    -0.2670    -0.1650 H     1 <1>   0.0800 
 25 H        5.5060    -0.0560     1.4430 H     1 <1>   0.0800 
 26 H        3.9860     2.3830     1.7230 H     1 <1>   0.0800 
 27 H        3.9990     3.3490     0.2760 H     1 <1>   0.0800 
 28 H        9.6180     4.2650    -0.3310 H     1 <1>   0.1500 
 29 H       10.8590     2.2340    -0.0100 H     1 <1>   0.0800 
 30 H       10.0260     0.8180    -0.6090 H     1 <1>   0.0800 
 31 H       10.0830     1.1360     1.1080 H     1 <1>   0.0800 
 32 H        8.3400     6.2700    -0.6660 H     1 <1>   0.0800 
 33 H        6.8710     6.2970     0.2840 H     1 <1>   0.0800 
 34 H        6.7950     5.9870    -1.4340 H     1 <1>   0.0800 
@<TRIPOS>BOND
  1   1   2  ar  
  2   2   3  ar  
  3   2   4  1   
  4   4   5  1   
  5   4   6  1   
  6   4  19  1   
  7   5   7  1   
  8   5   8  1   
  9   5  20  1   
 10   6   9  1   
 11   6  21  1   
 12   6  22  1   
 13   7  23  1   
 14   8  10  1   
 15   8  24  1   
 16   8  25  1   
 17   9  10  1   
 18   9  26  1   
 19   9  27  1   
 20  10  11  1   
 21  11  12  ar  
 22  11  13  ar  
 23  12  14  ar  
 24  13  15  ar  
 25  14  16  ar  
 26  14  17  1   
 27  15  16  ar  
 28  15  18  1   
 29  16  28  1   
 30  17  29  1   
 31  17  30  1   
 32  17  31  1   
 33  18  32  1   
 34  18  33  1   
 35  18  34  1   
@<TRIPOS>SUBSTRUCTURE
  1 ****  10 GROUP 4 **** **** 0

# MOE 2024.06 (io_trps.svl 2023.06)
