@<TRIPOS>MOLECULE
NONAME
51 54 1 0 0 
SMALL
USER_CHARGES


@<TRIPOS>ATOM
  1 O       -1.8890     1.5860     3.6170 O.2   1 <1>  -0.5700 
  2 C       -2.1540     2.1180     2.5560 C.2   1 <1>   0.5440 
  3 N       -3.4710     2.3860     2.2570 N.am  1 <1>  -0.6600 
  4 C       -1.0920     2.4400     1.6240 C.ar  1 <1>   0.0860 
  5 C       -4.5540     1.5090     2.7750 C.3   1 <1>   0.1400 
  6 C       -3.9090     3.5450     1.4350 C.3   1 <1>   0.1400 
  7 C       -1.1570     1.9970     0.3080 C.ar  1 <1>  -0.1500 
  8 C        0.0240     3.1820     2.0020 C.ar  1 <1>  -0.1500 
  9 C       -4.8040     0.3300     1.8200 C.3   1 <1>   0.1400 
 10 C       -4.4650     3.1420     0.0610 C.3   1 <1>  -0.1600 
 11 C       -0.1780     2.2890    -0.6320 C.ar  1 <1>   0.0540 
 12 C        1.0190     3.4840     1.0900 C.ar  1 <1>  -0.1500 
 13 N       -4.9160     0.7140     0.3690 N.am  1 <1>  -0.6600 
 14 C       -5.5310     2.0390     0.0720 C.3   1 <1>   0.1400 
 15 C       -0.3130     1.8120    -1.9890 C.2   1 <1>  -0.0540 
 16 C        0.9150     3.0430    -0.2180 C.ar  1 <1>  -0.1500 
 17 C       -4.4260    -0.0690    -0.6570 C.2   1 <1>   0.5690 
 18 C        0.6970     1.4140    -2.8700 C.2   1 <1>   0.1390 
 19 C       -1.4470     1.6230    -2.7100 C.2   1 <1>  -0.3020 
 20 O       -4.4340     0.3400    -1.8010 O.2   1 <1>  -0.5700 
 21 C       -3.8860    -1.4960    -0.3810 C.3   1 <1>   0.2610 
 22 N        0.2420     1.0170    -4.0190 N.2   1 <1>  -0.7070 
 23 N       -1.0930     1.1500    -3.9150 N.pl3 1 <1>   0.3000 
 24 O       -2.6110    -1.4580     0.2040 O.3   1 <1>  -0.5600 
 25 C       -3.6990    -2.3860    -1.6090 C.3   1 <1>  -0.1600 
 26 C       -1.6050    -1.5920    -0.7550 C.3   1 <1>   0.1200 
 27 C       -2.2690    -2.1010    -2.0300 C.3   1 <1>  -0.1600 
 28 H       -5.4570     2.0790     2.9060 H     1 <1>   0.0800 
 29 H       -4.2800     1.1230     3.7420 H     1 <1>   0.0800 
 30 H       -3.0830     4.2210     1.2970 H     1 <1>   0.0800 
 31 H       -4.6690     4.0780     1.9810 H     1 <1>   0.0800 
 32 H       -2.0000     1.3950     0.0170 H     1 <1>   0.1500 
 33 H        0.1030     3.5160     3.0230 H     1 <1>   0.1500 
 34 H       -5.7060    -0.1750     2.1190 H     1 <1>   0.0800 
 35 H       -3.9880    -0.3570     1.9550 H     1 <1>   0.0800 
 36 H       -3.6620     2.8520    -0.5900 H     1 <1>   0.0800 
 37 H       -4.9040     4.0190    -0.3760 H     1 <1>   0.0800 
 38 H        1.8740     4.0610     1.3980 H     1 <1>   0.1500 
 39 H       -5.9970     1.9980    -0.8980 H     1 <1>   0.0800 
 40 H       -6.3040     2.2610     0.7870 H     1 <1>   0.0800 
 41 H        1.6880     3.2890    -0.9240 H     1 <1>   0.1500 
 42 H        1.7450     1.4270    -2.6250 H     1 <1>   0.1500 
 43 H       -2.4690     1.7950    -2.4290 H     1 <1>   0.1500 
 44 H       -4.5490    -1.9790     0.3130 H     1 <1>   0.0800 
 45 H       -1.7340     0.9070    -4.6810 H     1 <1>   0.2700 
 46 H       -4.4140    -2.1780    -2.3860 H     1 <1>   0.0800 
 47 H       -3.7970    -3.4140    -1.3100 H     1 <1>   0.0800 
 48 H       -0.8780    -2.2910    -0.3780 H     1 <1>   0.0800 
 49 H       -1.1410    -0.6340    -0.9080 H     1 <1>   0.0800 
 50 H       -2.2440    -1.3250    -2.7740 H     1 <1>   0.0800 
 51 H       -1.7730    -2.9730    -2.4170 H     1 <1>   0.0800 
@<TRIPOS>BOND
  1   1   2  2   
  2   2   3  am  
  3   2   4  1   
  4   3   5  1   
  5   3   6  1   
  6   4   7  ar  
  7   4   8  ar  
  8   5   9  1   
  9   5  28  1   
 10   5  29  1   
 11   6  10  1   
 12   6  30  1   
 13   6  31  1   
 14   7  11  ar  
 15   7  32  1   
 16   8  12  ar  
 17   8  33  1   
 18   9  13  1   
 19   9  34  1   
 20   9  35  1   
 21  10  14  1   
 22  10  36  1   
 23  10  37  1   
 24  11  15  1   
 25  11  16  ar  
 26  12  16  ar  
 27  12  38  1   
 28  13  14  1   
 29  13  17  am  
 30  14  39  1   
 31  14  40  1   
 32  15  18  1   
 33  15  19  2   
 34  16  41  1   
 35  17  20  2   
 36  17  21  1   
 37  18  22  2   
 38  18  42  1   
 39  19  23  1   
 40  19  43  1   
 41  21  24  1   
 42  21  25  1   
 43  21  44  1   
 44  22  23  1   
 45  23  45  1   
 46  24  26  1   
 47  25  27  1   
 48  25  46  1   
 49  25  47  1   
 50  26  27  1   
 51  26  48  1   
 52  26  49  1   
 53  27  50  1   
 54  27  51  1   
@<TRIPOS>SUBSTRUCTURE
  1 ****   7 GROUP 4 **** **** 0

# MOE 2024.06 (io_trps.svl 2023.06)
