@<TRIPOS>MOLECULE
NONAME
52 54 1 0 0 
SMALL
USER_CHARGES


@<TRIPOS>ATOM
  1 O       -0.1120     0.7940     1.0230 O.2   1 <1>  -0.5700 
  2 C       -0.1210     1.8320     0.4110 C.2   1 <1>   0.5690 
  3 N       -0.3540     3.0030     1.0450 N.am  1 <1>  -0.7300 
  4 C        0.1050     1.8330    -1.1050 C.3   1 <1>   0.1810 
  5 C       -0.3880     4.3140     0.3550 C.3   1 <1>   0.3640 
  6 O        0.4330     3.1080    -1.6150 O.3   1 <1>  -0.5600 
  7 C       -1.5650     5.1310     0.8750 C.ar  1 <1>  -0.1440 
  8 C       -0.4390     4.1440    -1.1830 C.3   1 <1>   0.2610 
  9 C       -2.8240     4.5670     1.0340 C.ar  1 <1>  -0.1500 
 10 C       -1.3810     6.4700     1.1910 C.ar  1 <1>  -0.1500 
 11 C       -0.1560     5.4850    -1.8760 C.2   1 <1>   0.5690 
 12 C       -3.8800     5.3280     1.5050 C.ar  1 <1>  -0.1500 
 13 C       -2.4360     7.2320     1.6610 C.ar  1 <1>  -0.1500 
 14 O       -1.0840     5.9820    -2.4730 O.2   1 <1>  -0.5700 
 15 N        1.0660     6.1270    -1.8140 N.am  1 <1>  -0.6600 
 16 C       -3.6860     6.6610     1.8190 C.ar  1 <1>  -0.1500 
 17 C        1.2290     7.5020    -2.3660 C.3   1 <1>   0.1400 
 18 C        2.3370     5.5390    -1.3030 C.3   1 <1>   0.1400 
 19 C        1.7810     8.4270    -1.2800 C.3   1 <1>  -0.1600 
 20 C        2.9090     6.4370    -0.2040 C.3   1 <1>  -0.1600 
 21 C        3.0870     7.8730    -0.6980 C.3   1 <1>   0.2000 
 22 O        3.4590     8.6320     0.4050 O.3   1 <1>  -0.5600 
 23 C        4.1540     9.8080     0.1130 C.3   1 <1>   0.1200 
 24 C        4.5010    10.5010     1.4260 C.3   1 <1>   0.1200 
 25 O        5.1820    11.6800     1.1300 O.3   1 <1>  -0.5600 
 26 C        5.5610    12.4060     2.2550 C.3   1 <1>   0.0400 
 27 H       -0.5390     2.9980     2.0500 H     1 <1>   0.3700 
 28 H       -0.7850     1.4900    -1.6000 H     1 <1>   0.0800 
 29 H        0.9130     1.1660    -1.3460 H     1 <1>   0.0800 
 30 H        0.5160     4.8340     0.6120 H     1 <1>   0.0800 
 31 H       -1.4360     3.8520    -1.4600 H     1 <1>   0.0800 
 32 H       -2.9930     3.5310     0.7930 H     1 <1>   0.1500 
 33 H       -0.4170     6.9340     1.0690 H     1 <1>   0.1500 
 34 H       -4.8520     4.8840     1.6250 H     1 <1>   0.1500 
 35 H       -2.2850     8.2700     1.9010 H     1 <1>   0.1500 
 36 H       -4.5070     7.2540     2.1840 H     1 <1>   0.1500 
 37 H        1.9060     7.4660    -3.2030 H     1 <1>   0.0800 
 38 H        0.2890     7.8910    -2.7190 H     1 <1>   0.0800 
 39 H        2.1930     4.5500    -0.9140 H     1 <1>   0.0800 
 40 H        3.0380     5.4690    -2.1170 H     1 <1>   0.0800 
 41 H        1.0460     8.5220    -0.5010 H     1 <1>   0.0800 
 42 H        1.9490     9.3960    -1.7110 H     1 <1>   0.0800 
 43 H        3.8610     6.0490     0.1090 H     1 <1>   0.0800 
 44 H        2.2450     6.4280     0.6420 H     1 <1>   0.0800 
 45 H        3.8740     7.9020    -1.4330 H     1 <1>   0.0800 
 46 H        5.0540     9.5570    -0.4190 H     1 <1>   0.0800 
 47 H        3.5290    10.4490    -0.4820 H     1 <1>   0.0800 
 48 H        5.1400     9.8720     2.0200 H     1 <1>   0.0800 
 49 H        3.6030    10.7470     1.9650 H     1 <1>   0.0800 
 50 H        6.0730    13.2920     1.9240 H     1 <1>   0.0800 
 51 H        6.2220    11.8080     2.8580 H     1 <1>   0.0800 
 52 H        4.6820    12.6820     2.8130 H     1 <1>   0.0800 
@<TRIPOS>BOND
  1   1   2  2   
  2   2   3  am  
  3   2   4  1   
  4   3   5  1   
  5   3  27  1   
  6   4   6  1   
  7   4  28  1   
  8   4  29  1   
  9   5   7  1   
 10   5   8  1   
 11   5  30  1   
 12   6   8  1   
 13   7   9  ar  
 14   7  10  ar  
 15   8  11  1   
 16   8  31  1   
 17   9  12  ar  
 18   9  32  1   
 19  10  13  ar  
 20  10  33  1   
 21  11  14  2   
 22  11  15  am  
 23  12  16  ar  
 24  12  34  1   
 25  13  16  ar  
 26  13  35  1   
 27  15  17  1   
 28  15  18  1   
 29  16  36  1   
 30  17  19  1   
 31  17  37  1   
 32  17  38  1   
 33  18  20  1   
 34  18  39  1   
 35  18  40  1   
 36  19  21  1   
 37  19  41  1   
 38  19  42  1   
 39  20  21  1   
 40  20  43  1   
 41  20  44  1   
 42  21  22  1   
 43  21  45  1   
 44  22  23  1   
 45  23  24  1   
 46  23  46  1   
 47  23  47  1   
 48  24  25  1   
 49  24  48  1   
 50  24  49  1   
 51  25  26  1   
 52  26  50  1   
 53  26  51  1   
 54  26  52  1   
@<TRIPOS>SUBSTRUCTURE
  1 ****  15 GROUP 4 **** **** 0

# MOE 2024.06 (io_trps.svl 2023.06)
