@<TRIPOS>MOLECULE
NONAME
54 57 1 0 0 
SMALL
USER_CHARGES


@<TRIPOS>ATOM
  1 O        0.0680     0.0410     0.3820 O.2   1 <1>  -0.5700 
  2 C        0.0850     1.2390     0.2350 C.2   1 <1>   0.5690 
  3 N       -0.9970     2.0270     0.5410 N.am  1 <1>  -0.6600 
  4 C        1.3780     1.8320    -0.2820 C.3   1 <1>  -0.0990 
  5 C       -1.0530     3.5150     0.4630 C.3   1 <1>   0.1400 
  6 C       -2.2900     1.4260     0.9760 C.3   1 <1>   0.1400 
  7 C        2.2470     2.2670     0.8990 C.3   1 <1>   0.0960 
  8 C       -2.1190     3.9200    -0.5550 C.3   1 <1>  -0.1600 
  9 C       -3.3860     1.8150    -0.0190 C.3   1 <1>  -0.1600 
 10 N        3.5220     2.8400     0.4180 N.pl3 1 <1>   0.0480 
 11 C       -3.4890     3.3340    -0.1890 C.3   1 <1>   0.4180 
 12 C        4.5960     2.1260    -0.0140 C.ar  1 <1>  -0.1520 
 13 C        3.8690     4.1490     0.2560 C.2   1 <1>   0.0060 
 14 O       -3.8920     3.8410     1.0610 O.3   1 <1>  -0.5600 
 15 C       -4.5280     3.6630    -1.2580 C.2   1 <1>  -0.2880 
 16 C        5.5290     3.0630    -0.4150 C.ar  1 <1>   0.2270 
 17 C        4.8650     0.7570    -0.1060 C.ar  1 <1>  -0.1500 
 18 N        5.0470     4.3230    -0.2370 N.2   1 <1>  -0.5650 
 19 C        2.9460     5.3020     0.6110 C.3   1 <1>   0.3000 
 20 C       -4.4730     5.1150     1.0860 C.3   1 <1>   0.1200 
 21 C       -5.5800     4.4610    -1.0600 C.2   1 <1>  -0.2760 
 22 C        6.7620     2.6510    -0.9180 C.ar  1 <1>  -0.1500 
 23 C        6.0850     0.3580    -0.6050 C.ar  1 <1>  -0.1500 
 24 O        1.9250     5.3470    -0.3240 O.3   1 <1>  -0.6800 
 25 C       -5.7830     5.1280     0.2870 C.3   1 <1>  -0.0220 
 26 C       -6.6400     4.7620    -2.1050 C.3   1 <1>  -0.1020 
 27 C        7.0350     1.3040    -1.0120 C.ar  1 <1>  -0.1500 
 28 H        1.1780     2.6520    -0.9440 H     1 <1>   0.0800 
 29 H        1.8930     1.0740    -0.8450 H     1 <1>   0.0800 
 30 H       -0.1080     3.9360     0.1820 H     1 <1>   0.0800 
 31 H       -1.3100     3.9070     1.4320 H     1 <1>   0.0800 
 32 H       -2.5380     1.7920     1.9580 H     1 <1>   0.0800 
 33 H       -2.2170     0.3530     1.0300 H     1 <1>   0.0800 
 34 H        2.4630     1.4190     1.5240 H     1 <1>   0.0800 
 35 H        1.7270     2.9970     1.4910 H     1 <1>   0.0800 
 36 H       -1.8260     3.5560    -1.5230 H     1 <1>   0.0800 
 37 H       -2.1780     4.9890    -0.6240 H     1 <1>   0.0800 
 38 H       -4.3340     1.4330     0.3140 H     1 <1>   0.0800 
 39 H       -3.1650     1.3590    -0.9660 H     1 <1>   0.0800 
 40 H       -4.3300     3.1740    -2.1940 H     1 <1>   0.1500 
 41 H        4.1320     0.0350     0.2080 H     1 <1>   0.1500 
 42 H        3.4820     6.2340     0.5720 H     1 <1>   0.0800 
 43 H        2.5170     5.1770     1.5890 H     1 <1>   0.0800 
 44 H       -3.7740     5.8210     0.6750 H     1 <1>   0.0800 
 45 H       -4.6610     5.3720     2.1130 H     1 <1>   0.0800 
 46 H        7.4690     3.4000    -1.2220 H     1 <1>   0.1500 
 47 H        6.3200    -0.6890    -0.6880 H     1 <1>   0.1500 
 48 H        2.3400     5.3930    -1.2100 H     1 <1>   0.4000 
 49 H       -6.0920     6.1500     0.1550 H     1 <1>   0.0800 
 50 H       -6.5500     4.6130     0.8370 H     1 <1>   0.0800 
 51 H       -7.6070     4.4520    -1.7510 H     1 <1>   0.0800 
 52 H       -6.4270     4.2370    -3.0190 H     1 <1>   0.0800 
 53 H       -6.6670     5.8160    -2.3150 H     1 <1>   0.0800 
 54 H        7.9810     0.9680    -1.3980 H     1 <1>   0.1500 
@<TRIPOS>BOND
  1   1   2  2   
  2   2   3  am  
  3   2   4  1   
  4   3   5  1   
  5   3   6  1   
  6   4   7  1   
  7   4  28  1   
  8   4  29  1   
  9   5   8  1   
 10   5  30  1   
 11   5  31  1   
 12   6   9  1   
 13   6  32  1   
 14   6  33  1   
 15   7  10  1   
 16   7  34  1   
 17   7  35  1   
 18   8  11  1   
 19   8  36  1   
 20   8  37  1   
 21   9  11  1   
 22   9  38  1   
 23   9  39  1   
 24  10  12  1   
 25  10  13  1   
 26  11  14  1   
 27  11  15  1   
 28  12  16  ar  
 29  12  17  ar  
 30  13  18  2   
 31  13  19  1   
 32  14  20  1   
 33  15  21  2   
 34  15  40  1   
 35  16  18  1   
 36  16  22  ar  
 37  17  23  ar  
 38  17  41  1   
 39  19  24  1   
 40  19  42  1   
 41  19  43  1   
 42  20  25  1   
 43  20  44  1   
 44  20  45  1   
 45  21  25  1   
 46  21  26  1   
 47  22  27  ar  
 48  22  46  1   
 49  23  27  ar  
 50  23  47  1   
 51  24  48  1   
 52  25  49  1   
 53  25  50  1   
 54  26  51  1   
 55  26  52  1   
 56  26  53  1   
 57  27  54  1   
@<TRIPOS>SUBSTRUCTURE
  1 ****   4 GROUP 4 **** **** 0

# MOE 2024.06 (io_trps.svl 2023.06)
