@<TRIPOS>MOLECULE
NONAME
32 32 1 0 0 
SMALL
USER_CHARGES


@<TRIPOS>ATOM
  1 O       -0.0740     0.3150     0.4990 O.2   1 <1>  -0.5700 
  2 C       -0.4950     1.4000     0.1550 C.2   1 <1>   0.7800 
  3 O       -1.7510     1.5690    -0.2610 O.3   1 <1>  -0.4300 
  4 N        0.2950     2.5120     0.1760 N.am  1 <1>  -0.6600 
  5 C       -2.7560     0.5840    -0.3620 C.3   1 <1>   0.2800 
  6 C        1.7010     2.5080     0.6360 C.3   1 <1>   0.1400 
  7 C       -0.1390     3.8690    -0.2310 C.3   1 <1>   0.1400 
  8 C       -3.0650    -0.0020     1.0210 C.3   1 <1>  -0.2400 
  9 C       -3.9880     1.3230    -0.8830 C.3   1 <1>  -0.2400 
 10 C       -2.3440    -0.4910    -1.3750 C.3   1 <1>  -0.2400 
 11 C        2.1090     3.9820     0.6440 C.3   1 <1>   0.2000 
 12 C        1.1540     4.6750    -0.3480 C.3   1 <1>   0.1660 
 13 O        3.4370     4.1530     0.2680 O.3   1 <1>  -0.6800 
 14 N        0.9110     6.1110    -0.1440 N.2   1 <1>  -0.5640 
 15 N        1.6500     6.7790     0.6170 N.1   1 <1>   0.6880 
 16 N        2.3600     7.4390     1.3790 N.1   1 <1>  -0.3700 
 17 H        1.7700     2.0790     1.6210 H     1 <1>   0.0800 
 18 H        2.2960     1.9390    -0.0570 H     1 <1>   0.0800 
 19 H       -0.6660     3.8360    -1.1690 H     1 <1>   0.0800 
 20 H       -0.7760     4.2770     0.5360 H     1 <1>   0.0800 
 21 H       -3.9230    -0.6460     0.9620 H     1 <1>   0.0800 
 22 H       -3.2760     0.7850     1.7220 H     1 <1>   0.0800 
 23 H       -2.2430    -0.5900     1.3860 H     1 <1>   0.0800 
 24 H       -4.8140     0.6430    -0.9920 H     1 <1>   0.0800 
 25 H       -3.7820     1.7620    -1.8430 H     1 <1>   0.0800 
 26 H       -4.2760     2.0990    -0.1970 H     1 <1>   0.0800 
 27 H       -3.1660    -1.1610    -1.5520 H     1 <1>   0.0800 
 28 H       -1.5220    -1.0770    -1.0080 H     1 <1>   0.0800 
 29 H       -2.0670    -0.0380    -2.3100 H     1 <1>   0.0800 
 30 H        1.9850     4.3680     1.6420 H     1 <1>   0.0800 
 31 H        1.5230     4.5330    -1.3480 H     1 <1>   0.0800 
 32 H        3.6040     3.7740    -0.6180 H     1 <1>   0.4000 
@<TRIPOS>BOND
  1   1   2  2   
  2   2   3  1   
  3   2   4  am  
  4   3   5  1   
  5   4   6  1   
  6   4   7  1   
  7   5   8  1   
  8   5   9  1   
  9   5  10  1   
 10   6  11  1   
 11   6  17  1   
 12   6  18  1   
 13   7  12  1   
 14   7  19  1   
 15   7  20  1   
 16   8  21  1   
 17   8  22  1   
 18   8  23  1   
 19   9  24  1   
 20   9  25  1   
 21   9  26  1   
 22  10  27  1   
 23  10  28  1   
 24  10  29  1   
 25  11  12  1   
 26  11  13  1   
 27  11  30  1   
 28  12  14  1   
 29  12  31  1   
 30  13  32  1   
 31  14  15  2   
 32  15  16  3   
@<TRIPOS>SUBSTRUCTURE
  1 ****   4 GROUP 4 **** **** 0

# MOE 2024.06 (io_trps.svl 2023.06)
