@<TRIPOS>MOLECULE
NONAME
49 50 1 0 0 
SMALL
USER_CHARGES


@<TRIPOS>ATOM
  1 S       -0.0990     0.1520    -1.8630 S.o2  1 <1>   1.4470 
  2 O        0.3920    -0.6930    -2.9300 O.2   1 <1>  -0.6500 
  3 O       -1.0970     1.1600    -2.1520 O.2   1 <1>  -0.6500 
  4 N       -0.6920    -0.8320    -0.6170 N.am  1 <1>  -0.8490 
  5 C        1.3380     0.9250    -1.0660 C.ar  1 <1>  -0.0090 
  6 C       -1.4090    -2.0290    -1.1180 C.3   1 <1>   0.1960 
  7 C       -1.3700    -0.1000     0.4680 C.3   1 <1>   0.1960 
  8 C        1.2710     2.2040    -0.5290 C.ar  1 <1>  -0.1500 
  9 C        2.5370     0.2340    -0.9450 C.ar  1 <1>  -0.1500 
 10 C       -1.9650    -2.8920     0.0330 C.3   1 <1>  -0.1060 
 11 C       -2.8320    -0.5110     0.6340 C.3   1 <1>  -0.1600 
 12 C        2.3510     2.8100     0.1130 C.ar  1 <1>   0.0860 
 13 C        3.6290     0.8030    -0.3160 C.ar  1 <1>  -0.1500 
 14 C       -2.6340    -4.1370    -0.5710 C.2   1 <1>   0.9060 
 15 C       -2.9820    -2.0250     0.8410 C.3   1 <1>   0.2000 
 16 C       -0.8320    -3.3610     1.0010 C.3   1 <1>  -0.1600 
 17 C        2.2310     4.1480     0.6630 C.2   1 <1>   0.5440 
 18 C        3.5340     2.0770     0.2080 C.ar  1 <1>  -0.1500 
 19 O       -3.4940    -4.7370     0.0930 O.co2 1 <1>  -0.9000 
 20 O       -2.3140    -4.5270    -1.6990 O.co2 1 <1>  -0.9000 
 21 O       -4.2920    -2.3200     0.5210 O.3   1 <1>  -0.6800 
 22 C        0.3310    -4.1100     0.3290 C.3   1 <1>  -0.1600 
 23 O        1.1740     4.5320     1.1210 O.2   1 <1>  -0.5700 
 24 N        3.3020     5.0000     0.6630 N.am  1 <1>  -0.7300 
 25 C        1.3490    -4.5900     1.3670 C.3   1 <1>  -0.2400 
 26 C        3.3020     6.3850     1.2040 C.3   1 <1>   0.0600 
 27 H       -2.2250    -1.7260    -1.7560 H     1 <1>   0.0800 
 28 H       -0.7420    -2.6180    -1.7260 H     1 <1>   0.0800 
 29 H       -0.8470    -0.3000     1.3870 H     1 <1>   0.0800 
 30 H       -1.3230     0.9640     0.3050 H     1 <1>   0.0800 
 31 H        0.3490     2.7560    -0.6080 H     1 <1>   0.1500 
 32 H        2.6090    -0.7640    -1.3480 H     1 <1>   0.1500 
 33 H       -3.3660    -0.2040    -0.2490 H     1 <1>   0.0800 
 34 H       -3.2560     0.0040     1.4750 H     1 <1>   0.0800 
 35 H        4.5490     0.2490    -0.2330 H     1 <1>   0.1500 
 36 H       -2.8750    -2.2560     1.8870 H     1 <1>   0.0800 
 37 H       -0.4280    -2.5200     1.5320 H     1 <1>   0.0800 
 38 H       -1.2760    -4.0170     1.7330 H     1 <1>   0.0800 
 39 H        4.3850     2.5040     0.7090 H     1 <1>   0.1500 
 40 H       -4.3250    -3.3170     0.3910 H     1 <1>   0.4000 
 41 H       -0.0470    -4.9610    -0.2150 H     1 <1>   0.0800 
 42 H        0.8300    -3.4640    -0.3720 H     1 <1>   0.0800 
 43 H        4.1540     4.7170     0.1750 H     1 <1>   0.3700 
 44 H        0.8790    -5.2620     2.0640 H     1 <1>   0.0800 
 45 H        1.7570    -3.7540     1.9070 H     1 <1>   0.0800 
 46 H        2.1520    -5.1110     0.8780 H     1 <1>   0.0800 
 47 H        2.3770     6.5890     1.7170 H     1 <1>   0.0800 
 48 H        3.4130     7.0900     0.3980 H     1 <1>   0.0800 
 49 H        4.1150     6.5060     1.8980 H     1 <1>   0.0800 
@<TRIPOS>BOND
  1   1   2  2   
  2   1   3  2   
  3   1   4  am  
  4   1   5  1   
  5   4   6  1   
  6   4   7  1   
  7   5   8  ar  
  8   5   9  ar  
  9   6  10  1   
 10   6  27  1   
 11   6  28  1   
 12   7  11  1   
 13   7  29  1   
 14   7  30  1   
 15   8  12  ar  
 16   8  31  1   
 17   9  13  ar  
 18   9  32  1   
 19  10  14  1   
 20  10  15  1   
 21  10  16  1   
 22  11  15  1   
 23  11  33  1   
 24  11  34  1   
 25  12  17  1   
 26  12  18  ar  
 27  13  18  ar  
 28  13  35  1   
 29  14  19  ar  
 30  14  20  ar  
 31  15  21  1   
 32  15  36  1   
 33  16  22  1   
 34  16  37  1   
 35  16  38  1   
 36  17  23  2   
 37  17  24  am  
 38  18  39  1   
 39  21  40  1   
 40  22  25  1   
 41  22  41  1   
 42  22  42  1   
 43  24  26  1   
 44  24  43  1   
 45  25  44  1   
 46  25  45  1   
 47  25  46  1   
 48  26  47  1   
 49  26  48  1   
 50  26  49  1   
@<TRIPOS>SUBSTRUCTURE
  1 ****   4 GROUP 4 **** **** 0

# MOE 2024.06 (io_trps.svl 2023.06)
