@<TRIPOS>MOLECULE
NONAME
52 54 1 0 0 
SMALL
USER_CHARGES


@<TRIPOS>ATOM
  1 O       -0.4600     0.5480    -0.3390 O.2   1 <1>  -0.5700 
  2 C       -0.3260     1.6490     0.1300 C.2   1 <1>   0.5690 
  3 N       -1.3990     2.3450     0.5700 N.am  1 <1>  -0.7300 
  4 C        1.0680     2.2880     0.2040 C.3   1 <1>   0.1810 
  5 C       -1.2860     3.6710     1.2210 C.3   1 <1>   0.3640 
  6 O        1.1330     3.4030     1.0690 O.3   1 <1>  -0.5600 
  7 C       -2.4180     4.5800     0.7530 C.ar  1 <1>  -0.1440 
  8 C        0.0740     4.3330     0.9110 C.3   1 <1>   0.2610 
  9 C       -2.7920     4.6450    -0.5810 C.ar  1 <1>  -0.1500 
 10 C       -3.0620     5.3980     1.6680 C.ar  1 <1>  -0.1500 
 11 C        0.2340     5.5670     1.8140 C.2   1 <1>   0.5690 
 12 C       -3.7780     5.5170    -1.0110 C.ar  1 <1>   0.0830 
 13 C       -4.0480     6.2770     1.2560 C.ar  1 <1>  -0.1500 
 14 O        0.2370     5.3940     3.0140 O.2   1 <1>  -0.5700 
 15 N        0.3070     6.8360     1.2860 N.am  1 <1>  -0.6600 
 16 O       -4.0330     5.4780    -2.3480 O.3   1 <1>  -0.3620 
 17 C       -4.4120     6.3610    -0.0860 C.ar  1 <1>   0.0830 
 18 C        0.4200     8.0290     2.1570 C.3   1 <1>   0.2200 
 19 C       -0.1260     7.2250    -0.0730 C.3   1 <1>   0.2200 
 20 C       -5.3470     5.6450    -2.8350 C.3   1 <1>   0.0400 
 21 O       -5.3470     7.2580    -0.5150 O.3   1 <1>  -0.3630 
 22 C       -0.0170     9.2140     1.2930 C.3   1 <1>  -0.1600 
 23 C        1.8550     8.1810     2.6620 C.3   1 <1>  -0.2400 
 24 C       -0.7660     8.5940     0.1180 C.3   1 <1>  -0.1600 
 25 C        1.0970     7.2740    -0.9890 C.3   1 <1>  -0.2400 
 26 C       -5.9380     8.2020     0.3520 C.3   1 <1>   0.0400 
 27 H       -2.3220     1.9110     0.5350 H     1 <1>   0.3700 
 28 H        1.3640     2.6080    -0.7780 H     1 <1>   0.0800 
 29 H        1.7740     1.5600     0.5580 H     1 <1>   0.0800 
 30 H       -1.3640     3.5260     2.2850 H     1 <1>   0.0800 
 31 H        0.0860     4.6390    -0.1160 H     1 <1>   0.0800 
 32 H       -2.3150     4.0190    -1.3150 H     1 <1>   0.1500 
 33 H       -2.7890     5.3670     2.7110 H     1 <1>   0.1500 
 34 H       -4.5130     6.8920     2.0020 H     1 <1>   0.1500 
 35 H       -0.2560     7.9180     2.9910 H     1 <1>   0.0800 
 36 H       -0.8580     6.5420    -0.4670 H     1 <1>   0.0800 
 37 H       -5.4010     5.2010    -3.8120 H     1 <1>   0.0800 
 38 H       -5.5620     6.6960    -2.9020 H     1 <1>   0.0800 
 39 H       -6.0350     5.1570    -2.1680 H     1 <1>   0.0800 
 40 H       -0.6320     9.8990     1.8490 H     1 <1>   0.0800 
 41 H        0.8450     9.7460     0.9290 H     1 <1>   0.0800 
 42 H        2.5420     8.2350     1.8380 H     1 <1>   0.0800 
 43 H        2.1150     7.3420     3.2820 H     1 <1>   0.0800 
 44 H        1.9430     9.0750     3.2510 H     1 <1>   0.0800 
 45 H       -0.7170     9.2000    -0.7700 H     1 <1>   0.0800 
 46 H       -1.8000     8.4530     0.3800 H     1 <1>   0.0800 
 47 H        1.8210     7.9780    -0.6220 H     1 <1>   0.0800 
 48 H        0.7990     7.5750    -1.9770 H     1 <1>   0.0800 
 49 H        1.5540     6.3040    -1.0540 H     1 <1>   0.0800 
 50 H       -6.6040     8.8150    -0.2270 H     1 <1>   0.0800 
 51 H       -5.1650     8.8120     0.7850 H     1 <1>   0.0800 
 52 H       -6.4930     7.6800     1.1120 H     1 <1>   0.0800 
@<TRIPOS>BOND
  1   1   2  2   
  2   2   3  am  
  3   2   4  1   
  4   3   5  1   
  5   3  27  1   
  6   4   6  1   
  7   4  28  1   
  8   4  29  1   
  9   5   7  1   
 10   5   8  1   
 11   5  30  1   
 12   6   8  1   
 13   7   9  ar  
 14   7  10  ar  
 15   8  11  1   
 16   8  31  1   
 17   9  12  ar  
 18   9  32  1   
 19  10  13  ar  
 20  10  33  1   
 21  11  14  2   
 22  11  15  am  
 23  12  16  1   
 24  12  17  ar  
 25  13  17  ar  
 26  13  34  1   
 27  15  18  1   
 28  15  19  1   
 29  16  20  1   
 30  17  21  1   
 31  18  22  1   
 32  18  23  1   
 33  18  35  1   
 34  19  24  1   
 35  19  25  1   
 36  19  36  1   
 37  20  37  1   
 38  20  38  1   
 39  20  39  1   
 40  21  26  1   
 41  22  24  1   
 42  22  40  1   
 43  22  41  1   
 44  23  42  1   
 45  23  43  1   
 46  23  44  1   
 47  24  45  1   
 48  24  46  1   
 49  25  47  1   
 50  25  48  1   
 51  25  49  1   
 52  26  50  1   
 53  26  51  1   
 54  26  52  1   
@<TRIPOS>SUBSTRUCTURE
  1 ****   7 GROUP 4 **** **** 0

# MOE 2024.06 (io_trps.svl 2023.06)
