@<TRIPOS>MOLECULE
NONAME
49 52 1 0 0 
SMALL
USER_CHARGES


@<TRIPOS>ATOM
  1 S        0.4870    -0.2630     0.7710 S.3   1 <1>  -0.3320 
  2 C        0.4890    -1.9110     0.0420 C.ar  1 <1>   0.1020 
  3 C        1.7960     0.7070    -0.0890 C.3   1 <1>   0.1500 
  4 C        0.0430    -2.9510     0.8370 C.ar  1 <1>  -0.1500 
  5 C        0.9130    -2.1390    -1.2580 C.ar  1 <1>  -0.1500 
  6 C        3.1520     0.0940     0.2740 C.3   1 <1>  -0.1600 
  7 C        1.6790     2.1500     0.4060 C.3   1 <1>  -0.1600 
  8 C        0.0350    -4.2450     0.3400 C.ar  1 <1>  -0.1440 
  9 C        0.9040    -3.4320    -1.7530 C.ar  1 <1>  -0.1500 
 10 C        4.3030     0.9800    -0.1960 C.3   1 <1>   0.3430 
 11 C        2.8580     2.9910    -0.0730 C.3   1 <1>   0.3430 
 12 C        0.4690    -4.4780    -0.9560 C.ar  1 <1>  -0.1500 
 13 C       -0.4500    -5.3960     1.2030 C.3   1 <1>  -0.0960 
 14 N        4.1380     2.3510     0.3640 N.4   1 <1>  -0.9590 
 15 C        5.3070     3.2070     0.0500 C.3   1 <1>   0.5230 
 16 C        5.2510     4.4520     0.9010 C.2   1 <1>  -0.3320 
 17 N        5.9410     5.5670     0.5760 N.pl3 1 <1>   0.2940 
 18 C        4.5970     4.7320     2.0540 C.2   1 <1>   0.0770 
 19 C        5.6400     6.4520     1.5520 C.2   1 <1>   0.0360 
 20 C        6.8120     5.7910    -0.6010 C.3   1 <1>  -0.0910 
 21 N        4.8360     5.9880     2.4540 N.2   1 <1>  -0.5650 
 22 C        8.0340     4.9420    -0.8030 C.3   1 <1>  -0.2000 
 23 C        8.1770     6.3760    -0.4030 C.3   1 <1>  -0.2000 
 24 H        1.6030     0.6560    -1.1460 H     1 <1>   0.0800 
 25 H       -0.2950    -2.7450     1.8360 H     1 <1>   0.1500 
 26 H        1.2330    -1.3380    -1.8920 H     1 <1>   0.1500 
 27 H        3.2450    -0.8760    -0.1820 H     1 <1>   0.0800 
 28 H        3.2190    -0.0420     1.3400 H     1 <1>   0.0800 
 29 H        1.6410     2.1710     1.4810 H     1 <1>   0.0800 
 30 H        0.7630     2.5780     0.0390 H     1 <1>   0.0800 
 31 H        1.2280    -3.6290    -2.7600 H     1 <1>   0.1500 
 32 H        4.3090     1.0200    -1.2740 H     1 <1>   0.0800 
 33 H        5.2370     0.5530     0.1340 H     1 <1>   0.0800 
 34 H        2.7770     3.9850     0.3390 H     1 <1>   0.0800 
 35 H        2.8340     3.0690    -1.1480 H     1 <1>   0.0800 
 36 H        0.4650    -5.4790    -1.3520 H     1 <1>   0.1500 
 37 H       -0.3400    -5.1600     2.2460 H     1 <1>   0.0800 
 38 H        0.1190    -6.2850     0.9950 H     1 <1>   0.0800 
 39 H       -1.4870    -5.5910     0.9990 H     1 <1>   0.0800 
 40 H        4.1090     2.2700     1.3880 H     1 <1>   0.4500 
 41 H        5.2960     3.4740    -0.9950 H     1 <1>   0.0800 
 42 H        6.2240     2.6790     0.2570 H     1 <1>   0.0800 
 43 H        3.9520     4.1020     2.6450 H     1 <1>   0.1500 
 44 H        6.0460     7.4480     1.5550 H     1 <1>   0.1500 
 45 H        6.2520     6.1230    -1.4590 H     1 <1>   0.1000 
 46 H        8.3490     4.6810    -1.7990 H     1 <1>   0.1000 
 47 H        8.3270     4.2070    -0.0730 H     1 <1>   0.1000 
 48 H        8.5250     6.5980     0.5920 H     1 <1>   0.1000 
 49 H        8.5660     7.0650    -1.1340 H     1 <1>   0.1000 
@<TRIPOS>BOND
  1   1   2  1   
  2   1   3  1   
  3   2   4  ar  
  4   2   5  ar  
  5   3   6  1   
  6   3   7  1   
  7   3  24  1   
  8   4   8  ar  
  9   4  25  1   
 10   5   9  ar  
 11   5  26  1   
 12   6  10  1   
 13   6  27  1   
 14   6  28  1   
 15   7  11  1   
 16   7  29  1   
 17   7  30  1   
 18   8  12  ar  
 19   8  13  1   
 20   9  12  ar  
 21   9  31  1   
 22  10  14  1   
 23  10  32  1   
 24  10  33  1   
 25  11  14  1   
 26  11  34  1   
 27  11  35  1   
 28  12  36  1   
 29  13  37  1   
 30  13  38  1   
 31  13  39  1   
 32  14  15  1   
 33  14  40  1   
 34  15  16  1   
 35  15  41  1   
 36  15  42  1   
 37  16  17  1   
 38  16  18  2   
 39  17  19  1   
 40  17  20  1   
 41  18  21  1   
 42  18  43  1   
 43  19  21  2   
 44  19  44  1   
 45  20  22  1   
 46  20  23  1   
 47  20  45  1   
 48  22  23  1   
 49  22  46  1   
 50  22  47  1   
 51  23  48  1   
 52  23  49  1   
@<TRIPOS>SUBSTRUCTURE
  1 ****  10 GROUP 4 **** **** 0

# MOE 2024.06 (io_trps.svl 2023.06)
