@<TRIPOS>MOLECULE
NONAME
45 46 1 0 0 
SMALL
USER_CHARGES


@<TRIPOS>ATOM
  1 S       -0.1680    -0.0210     0.4110 S.o2  1 <1>   1.3330 
  2 O       -0.9080     1.2140     0.5290 O.2   1 <1>  -0.6500 
  3 O        0.1640    -0.7690     1.6030 O.2   1 <1>  -0.6500 
  4 N       -1.0210    -1.0570    -0.6280 N.am  1 <1>  -0.8490 
  5 C        1.3230     0.3250    -0.5240 C.3   1 <1>  -0.0550 
  6 C       -0.6200    -2.4630    -0.5070 C.3   1 <1>   0.1160 
  7 C       -2.4730    -0.9370    -0.4640 C.3   1 <1>   0.1160 
  8 C        2.2610     1.3370     0.1620 C.3   1 <1>  -0.0800 
  9 C        3.3810     1.7650    -0.7700 C.3   1 <1>   0.2200 
 10 C        3.0370     0.7090     1.3260 C.3   1 <1>   0.1200 
 11 N        3.9000     3.0790    -0.3310 N.am  1 <1>  -0.7300 
 12 C        4.4300     0.6890    -0.5150 C.3   1 <1>   0.1200 
 13 O        4.2720     0.2970     0.8160 O.3   1 <1>  -0.5600 
 14 C        3.9090     4.2190    -1.0830 C.2   1 <1>   0.5440 
 15 O        3.4820     4.1590    -2.2200 O.2   1 <1>  -0.5700 
 16 C        4.4290     5.4630    -0.5430 C.ar  1 <1>   0.0860 
 17 C        4.4430     5.7260     0.8290 C.ar  1 <1>  -0.1500 
 18 C        4.9390     6.4530    -1.3860 C.ar  1 <1>  -0.1500 
 19 C        4.9530     6.9090     1.3310 C.ar  1 <1>  -0.1500 
 20 C        5.4500     7.6390    -0.8930 C.ar  1 <1>  -0.1500 
 21 C        5.4630     7.8740     0.4780 C.ar  1 <1>   0.0820 
 22 O        5.9440     9.0030     1.0460 O.3   1 <1>  -0.3630 
 23 C        6.4710    10.0570     0.2720 C.3   1 <1>   0.0400 
 24 H        1.8510    -0.5900    -0.7080 H     1 <1>   0.0800 
 25 H        1.0260     0.7270    -1.4740 H     1 <1>   0.0800 
 26 H       -1.1240    -3.0570    -1.2510 H     1 <1>   0.0800 
 27 H       -0.8680    -2.8430     0.4710 H     1 <1>   0.0800 
 28 H        0.4410    -2.5620    -0.6560 H     1 <1>   0.0800 
 29 H       -2.9820    -1.5960    -1.1470 H     1 <1>   0.0800 
 30 H       -2.7860     0.0720    -0.6750 H     1 <1>   0.0800 
 31 H       -2.7580    -1.1830     0.5460 H     1 <1>   0.0800 
 32 H        1.6810     2.1850     0.4860 H     1 <1>   0.0800 
 33 H        3.0830     1.8010    -1.8050 H     1 <1>   0.0800 
 34 H        2.5460    -0.1400     1.7670 H     1 <1>   0.0800 
 35 H        3.2320     1.4400     2.0910 H     1 <1>   0.0800 
 36 H        4.3910     3.0590     0.5650 H     1 <1>   0.3700 
 37 H        5.4340     1.0440    -0.6730 H     1 <1>   0.0800 
 38 H        4.2490    -0.1730    -1.1330 H     1 <1>   0.0800 
 39 H        4.0430     5.0020     1.5160 H     1 <1>   0.1500 
 40 H        4.9310     6.2810    -2.4490 H     1 <1>   0.1500 
 41 H        4.9590     7.0970     2.3890 H     1 <1>   0.1500 
 42 H        5.8310     8.3650    -1.5850 H     1 <1>   0.1500 
 43 H        6.7820    10.8390     0.9400 H     1 <1>   0.0800 
 44 H        5.7030    10.4230    -0.3870 H     1 <1>   0.0800 
 45 H        7.3160     9.6930    -0.2840 H     1 <1>   0.0800 
@<TRIPOS>BOND
  1   1   2  2   
  2   1   3  2   
  3   1   4  am  
  4   1   5  1   
  5   4   6  1   
  6   4   7  1   
  7   5   8  1   
  8   5  24  1   
  9   5  25  1   
 10   6  26  1   
 11   6  27  1   
 12   6  28  1   
 13   7  29  1   
 14   7  30  1   
 15   7  31  1   
 16   8   9  1   
 17   8  10  1   
 18   8  32  1   
 19   9  11  1   
 20   9  12  1   
 21   9  33  1   
 22  10  13  1   
 23  10  34  1   
 24  10  35  1   
 25  11  14  am  
 26  11  36  1   
 27  12  13  1   
 28  12  37  1   
 29  12  38  1   
 30  14  15  2   
 31  14  16  1   
 32  16  17  ar  
 33  16  18  ar  
 34  17  19  ar  
 35  17  39  1   
 36  18  20  ar  
 37  18  40  1   
 38  19  21  ar  
 39  19  41  1   
 40  20  21  ar  
 41  20  42  1   
 42  21  22  1   
 43  22  23  1   
 44  23  43  1   
 45  23  44  1   
 46  23  45  1   
@<TRIPOS>SUBSTRUCTURE
  1 ****  11 GROUP 4 **** **** 0

# MOE 2024.06 (io_trps.svl 2023.06)
