@<TRIPOS>MOLECULE
NONAME
33 34 1 0 0 
SMALL
USER_CHARGES


@<TRIPOS>ATOM
  1 O        0.1220     0.0330    -0.1970 O.2   1 <1>  -0.5700 
  2 C        1.1720    -0.5670    -0.3440 C.2   1 <1>   0.7160 
  3 N        2.3470     0.1250    -0.4510 N.am  1 <1>  -0.4930 
  4 C        1.2220    -2.0130    -0.4030 C.2   1 <1>  -0.0860 
  5 C        2.5950     1.5200    -0.4590 C.2   1 <1>   0.0630 
  6 C        0.4030    -2.9640     0.1630 C.2   1 <1>  -0.3320 
  7 C        2.1990    -2.7520    -1.1080 C.2   1 <1>  -0.1500 
  8 C        3.8080     2.1170    -0.5010 C.2   1 <1>  -0.3320 
  9 C        1.6820     2.5750    -0.4290 C.2   1 <1>   0.1390 
 10 N        0.8340    -4.2050    -0.1610 N.pl3 1 <1>   0.0330 
 11 C       -0.8250    -2.7620     1.0380 C.3   1 <1>  -0.0600 
 12 C        1.9370    -4.0700    -0.9380 C.2   1 <1>  -0.3020 
 13 N        3.5800     3.4570    -0.4930 N.pl3 1 <1>   0.3140 
 14 C        5.1930     1.4870    -0.5490 C.3   1 <1>  -0.0600 
 15 N        2.2660     3.7360    -0.4520 N.2   1 <1>  -0.7070 
 16 C        4.5810     4.5460    -0.5280 C.3   1 <1>   0.0960 
 17 C        5.0440     4.9190     0.8860 C.3   1 <1>  -0.2400 
 18 H        3.1750    -0.4600    -0.4820 H     1 <1>   0.3700 
 19 H        3.0010    -2.3280    -1.6880 H     1 <1>   0.1500 
 20 H        0.6140     2.4500    -0.3920 H     1 <1>   0.1500 
 21 H        0.4040    -5.0920     0.1260 H     1 <1>   0.2700 
 22 H       -0.9640    -1.7230     1.2750 H     1 <1>   0.0800 
 23 H       -0.7170    -3.3040     1.9600 H     1 <1>   0.0800 
 24 H       -1.7030    -3.1120     0.5260 H     1 <1>   0.0800 
 25 H        2.4700    -4.9180    -1.3310 H     1 <1>   0.1500 
 26 H        5.1270     0.4150    -0.5320 H     1 <1>   0.0800 
 27 H        5.7730     1.8020     0.3000 H     1 <1>   0.0800 
 28 H        5.7030     1.7810    -1.4490 H     1 <1>   0.0800 
 29 H        4.1260     5.3990    -0.9980 H     1 <1>   0.0800 
 30 H        5.4150     4.2330    -1.1270 H     1 <1>   0.0800 
 31 H        4.2020     5.2450     1.4720 H     1 <1>   0.0800 
 32 H        5.7570     5.7220     0.8370 H     1 <1>   0.0800 
 33 H        5.5060     4.0770     1.3680 H     1 <1>   0.0800 
@<TRIPOS>BOND
  1   1   2  2   
  2   2   3  am  
  3   2   4  1   
  4   3   5  1   
  5   3  18  1   
  6   4   6  2   
  7   4   7  1   
  8   5   8  2   
  9   5   9  1   
 10   6  10  1   
 11   6  11  1   
 12   7  12  2   
 13   7  19  1   
 14   8  13  1   
 15   8  14  1   
 16   9  15  2   
 17   9  20  1   
 18  10  12  1   
 19  10  21  1   
 20  11  22  1   
 21  11  23  1   
 22  11  24  1   
 23  12  25  1   
 24  13  15  1   
 25  13  16  1   
 26  14  26  1   
 27  14  27  1   
 28  14  28  1   
 29  16  17  1   
 30  16  29  1   
 31  16  30  1   
 32  17  31  1   
 33  17  32  1   
 34  17  33  1   
@<TRIPOS>SUBSTRUCTURE
  1 ****   3 GROUP 4 **** **** 0

# MOE 2024.06 (io_trps.svl 2023.06)
