@<TRIPOS>MOLECULE
NONAME
55 57 1 0 0 
SMALL
USER_CHARGES


@<TRIPOS>ATOM
  1 O       -1.3800     1.0190     1.7330 O.2   1 <1>  -0.5700 
  2 C       -1.0310     2.1260     1.4130 C.2   1 <1>   0.5690 
  3 N       -1.9390     3.1060     1.2160 N.am  1 <1>  -0.7300 
  4 C        0.4490     2.4380     1.1940 C.3   1 <1>   0.1810 
  5 C       -1.5950     4.4860     0.7920 C.3   1 <1>   0.3640 
  6 O        0.7280     3.8150     1.3300 O.3   1 <1>  -0.5600 
  7 C       -2.4260     4.8230    -0.4410 C.ar  1 <1>  -0.1440 
  8 C       -0.0750     4.6710     0.5210 C.3   1 <1>   0.2610 
  9 C       -2.5440     3.9260    -1.4960 C.ar  1 <1>   0.1600 
 10 C       -3.0770     6.0380    -0.5370 C.ar  1 <1>  -0.1500 
 11 C        0.3190     6.1340     0.7650 C.2   1 <1>   0.5690 
 12 N       -3.2310     4.1410    -2.6060 N.ar  1 <1>  -0.6200 
 13 C       -3.8010     6.2780    -1.6850 C.ar  1 <1>  -0.1500 
 14 O       -0.1800     7.0120     0.1020 O.2   1 <1>  -0.5700 
 15 N        1.2370     6.4210     1.7280 N.am  1 <1>  -0.7300 
 16 C       -3.8440     5.3110    -2.6740 C.ar  1 <1>   0.1600 
 17 C        1.6350     7.7740     2.1730 C.3   1 <1>   0.1400 
 18 C        2.9430     8.2170     1.4920 C.3   1 <1>  -0.0800 
 19 C        3.3710     9.5970     2.0220 C.3   1 <1>  -0.1600 
 20 C        2.8040     8.2730    -0.0420 C.3   1 <1>  -0.1600 
 21 C        4.6080    10.1330     1.2990 C.3   1 <1>   0.3430 
 22 C        4.0470     8.8440    -0.7200 C.3   1 <1>   0.3430 
 23 N        4.3440    10.1960    -0.1690 N.4   1 <1>  -0.9590 
 24 C        5.4640    10.8240    -0.9210 C.3   1 <1>   0.3430 
 25 C        5.5150    12.3300    -0.6510 C.3   1 <1>  -0.1600 
 26 C        6.5900    13.0040    -1.5110 C.3   1 <1>  -0.2400 
 27 H       -2.9280     2.8860     1.3490 H     1 <1>   0.3700 
 28 H        0.7450     2.1220     0.2110 H     1 <1>   0.0800 
 29 H        1.0360     1.9090     1.9230 H     1 <1>   0.0800 
 30 H       -1.8770     5.1500     1.5910 H     1 <1>   0.0800 
 31 H        0.1380     4.4380    -0.5060 H     1 <1>   0.0800 
 32 H       -2.0460     2.9730    -1.4300 H     1 <1>   0.1500 
 33 H       -3.0200     6.7810     0.2410 H     1 <1>   0.1500 
 34 H       -4.3260     7.2060    -1.8160 H     1 <1>   0.1500 
 35 H        1.6340     5.6200     2.2350 H     1 <1>   0.3700 
 36 H       -4.4110     5.5110    -3.5680 H     1 <1>   0.1500 
 37 H        0.8460     8.4700     1.9360 H     1 <1>   0.0800 
 38 H        1.7570     7.7650     3.2430 H     1 <1>   0.0800 
 39 H        3.7100     7.5050     1.7480 H     1 <1>   0.0800 
 40 H        3.5920     9.5240     3.0730 H     1 <1>   0.0800 
 41 H        2.5670    10.3040     1.9110 H     1 <1>   0.0800 
 42 H        1.9450     8.8610    -0.3160 H     1 <1>   0.0800 
 43 H        2.6430     7.2810    -0.4260 H     1 <1>   0.0800 
 44 H        5.4500     9.4870     1.4920 H     1 <1>   0.0800 
 45 H        4.8410    11.1150     1.6790 H     1 <1>   0.0800 
 46 H        3.8740     8.9070    -1.7830 H     1 <1>   0.0800 
 47 H        4.8840     8.1870    -0.5500 H     1 <1>   0.0800 
 48 H        3.5040    10.7710    -0.3110 H     1 <1>   0.4500 
 49 H        6.4020    10.3680    -0.6450 H     1 <1>   0.0800 
 50 H        5.3160    10.6720    -1.9790 H     1 <1>   0.0800 
 51 H        4.5630    12.7750    -0.8840 H     1 <1>   0.0800 
 52 H        5.7430    12.5200     0.3830 H     1 <1>   0.0800 
 53 H        6.3860    12.8660    -2.5590 H     1 <1>   0.0800 
 54 H        7.5650    12.6030    -1.2920 H     1 <1>   0.0800 
 55 H        6.6110    14.0620    -1.3110 H     1 <1>   0.0800 
@<TRIPOS>BOND
  1   1   2  2   
  2   2   3  am  
  3   2   4  1   
  4   3   5  1   
  5   3  27  1   
  6   4   6  1   
  7   4  28  1   
  8   4  29  1   
  9   5   7  1   
 10   5   8  1   
 11   5  30  1   
 12   6   8  1   
 13   7   9  ar  
 14   7  10  ar  
 15   8  11  1   
 16   8  31  1   
 17   9  12  ar  
 18   9  32  1   
 19  10  13  ar  
 20  10  33  1   
 21  11  14  2   
 22  11  15  am  
 23  12  16  ar  
 24  13  16  ar  
 25  13  34  1   
 26  15  17  1   
 27  15  35  1   
 28  16  36  1   
 29  17  18  1   
 30  17  37  1   
 31  17  38  1   
 32  18  19  1   
 33  18  20  1   
 34  18  39  1   
 35  19  21  1   
 36  19  40  1   
 37  19  41  1   
 38  20  22  1   
 39  20  42  1   
 40  20  43  1   
 41  21  23  1   
 42  21  44  1   
 43  21  45  1   
 44  22  23  1   
 45  22  46  1   
 46  22  47  1   
 47  23  24  1   
 48  23  48  1   
 49  24  25  1   
 50  24  49  1   
 51  24  50  1   
 52  25  26  1   
 53  25  51  1   
 54  25  52  1   
 55  26  53  1   
 56  26  54  1   
 57  26  55  1   
@<TRIPOS>SUBSTRUCTURE
  1 ****  11 GROUP 4 **** **** 0

# MOE 2024.06 (io_trps.svl 2023.06)
