@<TRIPOS>MOLECULE
NONAME
45 48 1 0 0 
SMALL
USER_CHARGES


@<TRIPOS>ATOM
  1 S       -1.8910     1.9290    -0.8360 S.3   1 <1>  -0.0800 
  2 C       -0.6870     3.1010    -0.3450 C.2   1 <1>  -0.1400 
  3 C       -0.6760     1.0270    -1.7280 C.2   1 <1>  -0.1100 
  4 C        0.5270     2.8020    -0.8220 C.2   1 <1>  -0.1810 
  5 C       -1.0250     4.2910     0.5100 C.3   1 <1>   0.0200 
  6 C        0.5340     1.6100    -1.6240 C.2   1 <1>  -0.1500 
  7 C        1.7340     3.6790    -0.4960 C.3   1 <1>   0.4610 
  8 C        0.1220     5.3010     0.3470 C.3   1 <1>   0.1200 
  9 O        1.3850     4.6740     0.4560 O.3   1 <1>  -0.5600 
 10 C        2.8390     2.8450     0.1570 C.3   1 <1>  -0.1600 
 11 C        2.3000     4.3700    -1.7450 C.3   1 <1>  -0.1600 
 12 C        4.0580     3.6810     0.5610 C.3   1 <1>   0.3430 
 13 C        3.7090     4.9410    -1.5490 C.3   1 <1>   0.3430 
 14 N        4.0430     5.0200    -0.0970 N.4   1 <1>  -0.9590 
 15 C        5.2580     5.8300     0.2100 C.3   1 <1>   0.5230 
 16 C        5.0010     7.2920    -0.0870 C.2   1 <1>  -0.0400 
 17 O        4.9670     7.6970    -1.3270 O.3   1 <1>  -0.0190 
 18 C        4.7850     8.3570     0.7010 C.2   1 <1>  -0.1500 
 19 N        4.7250     8.9690    -1.4130 N.2   1 <1>  -0.4100 
 20 C        4.6160     9.3990    -0.2070 C.2   1 <1>   0.1080 
 21 C        4.3430    10.8470     0.1610 C.3   1 <1>   0.0210 
 22 C        5.5980    11.5270     0.7170 C.3   1 <1>  -0.2400 
 23 H       -1.0050     0.1410    -2.2440 H     1 <1>   0.1500 
 24 H       -1.1230     3.9920     1.5380 H     1 <1>   0.0800 
 25 H       -1.9510     4.7340     0.1890 H     1 <1>   0.0800 
 26 H        1.4310     1.2390    -2.0860 H     1 <1>   0.1500 
 27 H        0.0570     6.0560     1.1110 H     1 <1>   0.0800 
 28 H        0.0570     5.7790    -0.6140 H     1 <1>   0.0800 
 29 H        3.1590     2.0810    -0.5270 H     1 <1>   0.0800 
 30 H        2.4430     2.3400     1.0210 H     1 <1>   0.0800 
 31 H        1.6330     5.1460    -2.0730 H     1 <1>   0.0800 
 32 H        2.3480     3.6590    -2.5500 H     1 <1>   0.0800 
 33 H        4.9580     3.1460     0.3030 H     1 <1>   0.0800 
 34 H        4.0430     3.8160     1.6320 H     1 <1>   0.0800 
 35 H        3.7500     5.9170    -2.0030 H     1 <1>   0.0800 
 36 H        4.4270     4.3100    -2.0480 H     1 <1>   0.0800 
 37 H        3.2320     5.5090     0.3270 H     1 <1>   0.4500 
 38 H        6.0990     5.4830    -0.3670 H     1 <1>   0.0800 
 39 H        5.5000     5.7330     1.2560 H     1 <1>   0.0800 
 40 H        4.7420     8.4450     1.7720 H     1 <1>   0.1500 
 41 H        3.5530    10.8860     0.8910 H     1 <1>   0.0800 
 42 H        4.0100    11.3750    -0.7150 H     1 <1>   0.0800 
 43 H        5.9330    11.0310     1.6110 H     1 <1>   0.0800 
 44 H        5.3880    12.5550     0.9500 H     1 <1>   0.0800 
 45 H        6.3880    11.4940    -0.0140 H     1 <1>   0.0800 
@<TRIPOS>BOND
  1   1   2  1   
  2   1   3  1   
  3   2   4  2   
  4   2   5  1   
  5   3   6  2   
  6   3  23  1   
  7   4   6  1   
  8   4   7  1   
  9   5   8  1   
 10   5  24  1   
 11   5  25  1   
 12   6  26  1   
 13   7   9  1   
 14   7  10  1   
 15   7  11  1   
 16   8   9  1   
 17   8  27  1   
 18   8  28  1   
 19  10  12  1   
 20  10  29  1   
 21  10  30  1   
 22  11  13  1   
 23  11  31  1   
 24  11  32  1   
 25  12  14  1   
 26  12  33  1   
 27  12  34  1   
 28  13  14  1   
 29  13  35  1   
 30  13  36  1   
 31  14  15  1   
 32  14  37  1   
 33  15  16  1   
 34  15  38  1   
 35  15  39  1   
 36  16  17  1   
 37  16  18  2   
 38  17  19  1   
 39  18  20  1   
 40  18  40  1   
 41  19  20  2   
 42  20  21  1   
 43  21  22  1   
 44  21  41  1   
 45  21  42  1   
 46  22  43  1   
 47  22  44  1   
 48  22  45  1   
@<TRIPOS>SUBSTRUCTURE
  1 ****  14 GROUP 4 **** **** 0

# MOE 2024.06 (io_trps.svl 2023.06)
