@<TRIPOS>MOLECULE
NONAME
48 50 1 0 0 
SMALL
USER_CHARGES


@<TRIPOS>ATOM
  1 S       -0.2720     0.1340     0.2110 S.o2  1 <1>   1.3330 
  2 O       -0.9290     1.4210     0.1910 O.2   1 <1>  -0.6500 
  3 O       -0.2500    -0.6430     1.4300 O.2   1 <1>  -0.6500 
  4 N       -0.9310    -0.8310    -1.0200 N.am  1 <1>  -0.8490 
  5 C        1.4110     0.3930    -0.3530 C.3   1 <1>  -0.0550 
  6 C       -2.3660    -0.5940    -1.2060 C.3   1 <1>   0.1160 
  7 C       -0.6820    -2.2650    -0.8340 C.3   1 <1>   0.1160 
  8 C        2.1930     1.4040     0.5100 C.3   1 <1>  -0.0800 
  9 C        3.5600     1.7130    -0.0900 C.3   1 <1>   0.2200 
 10 C        2.5350     0.8410     1.9010 C.3   1 <1>   0.1200 
 11 N        3.9350     3.1020     0.2690 N.am  1 <1>  -0.7300 
 12 C        4.4540     0.7610     0.6880 C.3   1 <1>   0.1200 
 13 O        3.9280     0.7910     1.9740 O.3   1 <1>  -0.5600 
 14 C        4.3450     4.0660    -0.6090 C.2   1 <1>   0.7030 
 15 O        4.3880     3.7980    -1.7920 O.2   1 <1>  -0.5700 
 16 C        4.7420     5.3920    -0.1640 C.2   1 <1>   0.2770 
 17 N        4.6020     5.9490     1.1020 N.pl3 1 <1>  -0.7000 
 18 C        5.3290     6.3470    -0.9240 C.2   1 <1>   0.2000 
 19 C        5.0970     7.1960     1.0840 C.cat 1 <1>   0.7910 
 20 N        5.5590     7.4700    -0.1580 N.pl3 1 <1>  -0.6290 
 21 C        5.1770     8.1530     2.1080 C.2   1 <1>  -0.1410 
 22 C        6.1190     8.6980    -0.4410 C.2   1 <1>   0.2410 
 23 C        5.7290     9.3760     1.8450 C.2   1 <1>  -0.1500 
 24 C        6.2050     9.6400     0.5440 C.2   1 <1>  -0.1500 
 25 C        6.6200     8.9480    -1.8520 C.3   1 <1>  -0.1020 
 26 H        1.9300    -0.5450    -0.3770 H     1 <1>   0.0800 
 27 H        1.3660     0.7680    -1.3580 H     1 <1>   0.0800 
 28 H       -2.7460    -1.2080    -2.0040 H     1 <1>   0.0800 
 29 H       -2.5390     0.4370    -1.4660 H     1 <1>   0.0800 
 30 H       -2.9030    -0.8170    -0.2990 H     1 <1>   0.0800 
 31 H       -1.0400    -2.8160    -1.6870 H     1 <1>   0.0800 
 32 H       -1.1840    -2.6230     0.0500 H     1 <1>   0.0800 
 33 H        0.3730    -2.4490    -0.7300 H     1 <1>   0.0800 
 34 H        1.6020     2.3010     0.5980 H     1 <1>   0.0800 
 35 H        3.6130     1.5530    -1.1550 H     1 <1>   0.0800 
 36 H        2.1610    -0.1580     2.0490 H     1 <1>   0.0800 
 37 H        2.1750     1.4760     2.6920 H     1 <1>   0.0800 
 38 H        4.0700     3.2030     1.2770 H     1 <1>   0.3700 
 39 H        5.4850     1.0680     0.7070 H     1 <1>   0.0800 
 40 H        4.3760    -0.2460     0.3150 H     1 <1>   0.0800 
 41 H        4.1600     5.5140     1.9140 H     1 <1>   0.4500 
 42 H        5.5920     6.2800    -1.9690 H     1 <1>   0.1500 
 43 H        4.8000     7.9040     3.0830 H     1 <1>   0.1500 
 44 H        5.8110    10.1400     2.6030 H     1 <1>   0.1500 
 45 H        6.6390    10.6070     0.3500 H     1 <1>   0.1500 
 46 H        7.3860     8.2380    -2.1040 H     1 <1>   0.0800 
 47 H        7.0330     9.9370    -1.9380 H     1 <1>   0.0800 
 48 H        5.8100     8.8580    -2.5530 H     1 <1>   0.0800 
@<TRIPOS>BOND
  1   1   2  2   
  2   1   3  2   
  3   1   4  am  
  4   1   5  1   
  5   4   6  1   
  6   4   7  1   
  7   5   8  1   
  8   5  26  1   
  9   5  27  1   
 10   6  28  1   
 11   6  29  1   
 12   6  30  1   
 13   7  31  1   
 14   7  32  1   
 15   7  33  1   
 16   8   9  1   
 17   8  10  1   
 18   8  34  1   
 19   9  11  1   
 20   9  12  1   
 21   9  35  1   
 22  10  13  1   
 23  10  36  1   
 24  10  37  1   
 25  11  14  am  
 26  11  38  1   
 27  12  13  1   
 28  12  39  1   
 29  12  40  1   
 30  14  15  2   
 31  14  16  1   
 32  16  17  1   
 33  16  18  2   
 34  17  19  ar  
 35  17  41  1   
 36  18  20  1   
 37  18  42  1   
 38  19  20  ar  
 39  19  21  1   
 40  20  22  1   
 41  21  23  2   
 42  21  43  1   
 43  22  24  2   
 44  22  25  1   
 45  23  24  1   
 46  23  44  1   
 47  24  45  1   
 48  25  46  1   
 49  25  47  1   
 50  25  48  1   
@<TRIPOS>SUBSTRUCTURE
  1 ****  11 GROUP 4 **** **** 0

# MOE 2024.06 (io_trps.svl 2023.06)
