@<TRIPOS>MOLECULE
NONAME
51 53 1 0 0 
SMALL
USER_CHARGES


@<TRIPOS>ATOM
  1 S        0.1240     0.4510    -0.8280 S.o2  1 <1>   1.3330 
  2 O        1.4470     0.0600    -0.3960 O.2   1 <1>  -0.6500 
  3 O       -0.1250     0.7080    -2.2280 O.2   1 <1>  -0.6500 
  4 N       -0.9650    -0.7410    -0.3050 N.am  1 <1>  -0.8490 
  5 C       -0.3920     1.9000     0.0890 C.3   1 <1>  -0.0550 
  6 C       -1.1560    -1.7920    -1.3080 C.3   1 <1>   0.1160 
  7 C       -0.5960    -1.3410     0.9820 C.3   1 <1>   0.1160 
  8 C        0.3760     3.1760    -0.3070 C.3   1 <1>  -0.0800 
  9 C       -0.1490     4.4530     0.3550 C.3   1 <1>   0.2000 
 10 C        1.8710     3.1520     0.0450 C.3   1 <1>   0.1400 
 11 O       -0.3520     4.2090     1.7060 O.3   1 <1>  -0.6800 
 12 C        1.0150     5.4290     0.2190 C.3   1 <1>   0.1400 
 13 N        2.2250     4.5660     0.3280 N.am  1 <1>  -0.6600 
 14 C        3.5030     4.9670     0.5990 C.2   1 <1>   0.5690 
 15 O        4.4140     4.1800     0.6740 O.2   1 <1>  -0.5700 
 16 C        3.8170     6.4330     0.7890 C.3   1 <1>  -0.0990 
 17 C        3.9230     7.1140    -0.5740 C.3   1 <1>   0.1400 
 18 N        3.6740     8.5610    -0.4310 N.am  1 <1>  -0.4770 
 19 C        2.4390     9.1440    -0.4300 C.2   1 <1>   0.6900 
 20 C        4.6130     9.5760    -0.2730 C.ar  1 <1>   0.1170 
 21 O        1.3720     8.5570    -0.5190 O.2   1 <1>  -0.5700 
 22 N        2.5720    10.4830    -0.2900 N.am  1 <1>  -0.5470 
 23 C        3.9220    10.7740    -0.1870 C.ar  1 <1>   0.1170 
 24 C        5.9990     9.5540    -0.1960 C.ar  1 <1>  -0.1500 
 25 C        4.5940    11.9760    -0.0250 C.ar  1 <1>  -0.1500 
 26 C        6.6740    10.7530    -0.0330 C.ar  1 <1>  -0.1500 
 27 C        5.9760    11.9560     0.0510 C.ar  1 <1>  -0.1500 
 28 H       -1.4370     2.0630    -0.0920 H     1 <1>   0.0800 
 29 H       -0.2700     1.7170     1.1380 H     1 <1>   0.0800 
 30 H       -1.8630    -2.5220    -0.9540 H     1 <1>   0.0800 
 31 H       -0.2190    -2.2800    -1.5220 H     1 <1>   0.0800 
 32 H       -1.5410    -1.3670    -2.2200 H     1 <1>   0.0800 
 33 H       -1.3620    -2.0270     1.3020 H     1 <1>   0.0800 
 34 H       -0.4910    -0.5780     1.7330 H     1 <1>   0.0800 
 35 H        0.3370    -1.8740     0.8960 H     1 <1>   0.0800 
 36 H        0.2970     3.3050    -1.3730 H     1 <1>   0.0800 
 37 H       -1.0660     4.8200    -0.0740 H     1 <1>   0.0800 
 38 H        2.4650     2.7650    -0.7670 H     1 <1>   0.0800 
 39 H        2.0570     2.5610     0.9270 H     1 <1>   0.0800 
 40 H        0.5210     4.0990     2.1350 H     1 <1>   0.4000 
 41 H        0.9770     6.1940     0.9750 H     1 <1>   0.0800 
 42 H        0.9940     5.8880    -0.7550 H     1 <1>   0.0800 
 43 H        3.0490     6.8850     1.3860 H     1 <1>   0.0800 
 44 H        4.7500     6.5320     1.3140 H     1 <1>   0.0800 
 45 H        3.1870     6.7110    -1.2480 H     1 <1>   0.0800 
 46 H        4.8950     6.9450    -1.0040 H     1 <1>   0.0800 
 47 H        1.7780    11.1170    -0.2550 H     1 <1>   0.3700 
 48 H        6.5310     8.6230    -0.2600 H     1 <1>   0.1500 
 49 H        4.0450    12.8980     0.0390 H     1 <1>   0.1500 
 50 H        7.7490    10.7570     0.0290 H     1 <1>   0.1500 
 51 H        6.5200    12.8770     0.1760 H     1 <1>   0.1500 
@<TRIPOS>BOND
  1   1   2  2   
  2   1   3  2   
  3   1   4  am  
  4   1   5  1   
  5   4   6  1   
  6   4   7  1   
  7   5   8  1   
  8   5  28  1   
  9   5  29  1   
 10   6  30  1   
 11   6  31  1   
 12   6  32  1   
 13   7  33  1   
 14   7  34  1   
 15   7  35  1   
 16   8   9  1   
 17   8  10  1   
 18   8  36  1   
 19   9  11  1   
 20   9  12  1   
 21   9  37  1   
 22  10  13  1   
 23  10  38  1   
 24  10  39  1   
 25  11  40  1   
 26  12  13  1   
 27  12  41  1   
 28  12  42  1   
 29  13  14  am  
 30  14  15  2   
 31  14  16  1   
 32  16  17  1   
 33  16  43  1   
 34  16  44  1   
 35  17  18  1   
 36  17  45  1   
 37  17  46  1   
 38  18  19  am  
 39  18  20  1   
 40  19  21  2   
 41  19  22  am  
 42  20  23  ar  
 43  20  24  ar  
 44  22  23  1   
 45  22  47  1   
 46  23  25  ar  
 47  24  26  ar  
 48  24  48  1   
 49  25  27  ar  
 50  25  49  1   
 51  26  27  ar  
 52  26  50  1   
 53  27  51  1   
@<TRIPOS>SUBSTRUCTURE
  1 ****  13 GROUP 4 **** **** 0

# MOE 2024.06 (io_trps.svl 2023.06)
