@<TRIPOS>MOLECULE
NONAME
45 46 1 0 0 
SMALL
USER_CHARGES


@<TRIPOS>ATOM
  1 S       -0.2520     0.3730     1.4170 S.3   1 <1>  -0.0800 
  2 C        1.0970     1.2750     0.7420 C.2   1 <1>  -0.1400 
  3 C        0.7800    -0.9910     1.7910 C.2   1 <1>  -0.1100 
  4 C        2.2330     0.5450     0.8110 C.2   1 <1>  -0.1810 
  5 C        0.7280     2.6600     0.2260 C.3   1 <1>   0.6030 
  6 C        2.0450    -0.7410     1.4130 C.2   1 <1>  -0.1500 
  7 C        3.6260     0.9230     0.3340 C.3   1 <1>  -0.0590 
  8 N        0.8150     2.7490    -1.2730 N.4   1 <1>  -0.9590 
  9 C        1.5860     3.7480     0.9310 C.3   1 <1>   0.2090 
 10 C       -0.2350     3.6570    -1.8170 C.3   1 <1>   0.2630 
 11 C        0.8350     1.4450    -2.0020 C.3   1 <1>   0.2630 
 12 N        1.7180     5.0220     0.1480 N.pl3 1 <1>  -0.8690 
 13 C        2.8850     5.2550    -0.5650 C.ar  1 <1>   0.4100 
 14 N        3.2790     4.2900    -1.3770 N.ar  1 <1>  -0.6200 
 15 C        3.5780     6.4940    -0.3950 C.ar  1 <1>   0.4100 
 16 C        4.4010     4.6210    -2.0170 C.ar  1 <1>   0.1600 
 17 N        4.6870     6.7940    -1.0420 N.ar  1 <1>  -0.6200 
 18 N        3.0890     7.4580     0.4930 N.pl3 1 <1>  -0.8380 
 19 C        5.0740     5.8200    -1.8560 C.ar  1 <1>   0.1600 
 20 C        4.0240     7.8310     1.5920 C.3   1 <1>   0.1290 
 21 C        2.5060     8.6590    -0.1650 C.3   1 <1>   0.1290 
 22 H        0.3260    -1.8460     2.2620 H     1 <1>   0.1500 
 23 H       -0.2960     2.8350     0.5110 H     1 <1>   0.0800 
 24 H        2.8690    -1.4240     1.5370 H     1 <1>   0.1500 
 25 H        3.6190     1.8440    -0.2180 H     1 <1>   0.0800 
 26 H        4.0160     0.1520    -0.3060 H     1 <1>   0.0800 
 27 H        4.2850     1.0310     1.1770 H     1 <1>   0.0800 
 28 H        1.7200     3.2510    -1.4160 H     1 <1>   0.4500 
 29 H        2.5690     3.3590     1.1270 H     1 <1>   0.0800 
 30 H        1.1450     3.9620     1.8890 H     1 <1>   0.0800 
 31 H       -1.2150     3.2380    -1.6580 H     1 <1>   0.0800 
 32 H       -0.0860     3.8040    -2.8740 H     1 <1>   0.0800 
 33 H       -0.1830     4.6190    -1.3320 H     1 <1>   0.0800 
 34 H       -0.0650     0.8890    -1.7990 H     1 <1>   0.0800 
 35 H        1.6810     0.8550    -1.6890 H     1 <1>   0.0800 
 36 H        0.9110     1.6130    -3.0640 H     1 <1>   0.0800 
 37 H        1.5880     5.8590     0.7460 H     1 <1>   0.4000 
 38 H        4.8050     3.8980    -2.7050 H     1 <1>   0.1500 
 39 H        5.9750     5.9930    -2.4200 H     1 <1>   0.1500 
 40 H        4.4850     6.9470     1.9970 H     1 <1>   0.0800 
 41 H        3.4880     8.3350     2.3770 H     1 <1>   0.0800 
 42 H        4.7960     8.4800     1.2150 H     1 <1>   0.0800 
 43 H        1.8580     8.3580    -0.9700 H     1 <1>   0.0800 
 44 H        3.2920     9.2760    -0.5680 H     1 <1>   0.0800 
 45 H        1.9360     9.2300     0.5460 H     1 <1>   0.0800 
@<TRIPOS>BOND
  1   1   2  1   
  2   1   3  1   
  3   2   4  2   
  4   2   5  1   
  5   3   6  2   
  6   3  22  1   
  7   4   6  1   
  8   4   7  1   
  9   5   8  1   
 10   5   9  1   
 11   5  23  1   
 12   6  24  1   
 13   7  25  1   
 14   7  26  1   
 15   7  27  1   
 16   8  10  1   
 17   8  11  1   
 18   8  28  1   
 19   9  12  1   
 20   9  29  1   
 21   9  30  1   
 22  10  31  1   
 23  10  32  1   
 24  10  33  1   
 25  11  34  1   
 26  11  35  1   
 27  11  36  1   
 28  12  13  1   
 29  12  37  1   
 30  13  14  ar  
 31  13  15  ar  
 32  14  16  ar  
 33  15  17  ar  
 34  15  18  1   
 35  16  19  ar  
 36  16  38  1   
 37  17  19  ar  
 38  18  20  1   
 39  18  21  1   
 40  19  39  1   
 41  20  40  1   
 42  20  41  1   
 43  20  42  1   
 44  21  43  1   
 45  21  44  1   
 46  21  45  1   
@<TRIPOS>SUBSTRUCTURE
  1 ****   9 GROUP 4 **** **** 0

# MOE 2024.06 (io_trps.svl 2023.06)
