@<TRIPOS>MOLECULE
NONAME
46 48 1 0 0 
SMALL
USER_CHARGES


@<TRIPOS>ATOM
  1 O       -1.0740    -0.9380    -1.2860 O.2   1 <1>  -0.5700 
  2 C       -1.0430    -1.7880    -0.4200 C.2   1 <1>   0.6900 
  3 N       -1.9730    -2.8130    -0.3510 N.am  1 <1>  -0.4690 
  4 N       -0.0670    -1.7310     0.5240 N.am  1 <1>  -0.4900 
  5 C       -1.9040    -3.7580     0.6690 C.2   1 <1>  -0.0410 
  6 C       -3.0810    -2.9050    -1.3570 C.3   1 <1>   0.2010 
  7 C        0.0350    -2.6270     1.5420 C.2   1 <1>   0.6160 
  8 C       -0.9270    -3.6750     1.5990 C.2   1 <1>  -0.1360 
  9 C       -4.4650    -2.9010    -0.7070 C.2   1 <1>   0.5690 
 10 O        0.9310    -2.4990     2.3490 O.2   1 <1>  -0.5700 
 11 O       -5.0280    -3.9710    -0.6330 O.2   1 <1>  -0.5700 
 12 N       -5.0360    -1.7480    -0.2220 N.am  1 <1>  -0.6600 
 13 C       -6.3680    -1.7670     0.4610 C.3   1 <1>   0.1400 
 14 C       -4.4420    -0.3850    -0.3060 C.3   1 <1>   0.1400 
 15 C       -7.3830    -0.8630    -0.2820 C.3   1 <1>   0.0000 
 16 C       -5.4000     0.5490    -1.0540 C.3   1 <1>  -0.1600 
 17 C       -8.7450    -0.8490     0.4340 C.3   1 <1>   0.2000 
 18 C       -6.8000     0.5610    -0.4170 C.3   1 <1>  -0.1600 
 19 C       -7.7520    -1.4780    -1.6430 C.3   1 <1>  -0.1600 
 20 O       -8.5930    -0.8050     1.8220 O.3   1 <1>  -0.5600 
 21 C       -9.4620    -2.1290    -0.0100 C.3   1 <1>  -0.1600 
 22 C       -8.8150    -2.5380    -1.3410 C.3   1 <1>  -0.1600 
 23 C       -9.7490    -0.4870     2.5300 C.3   1 <1>   0.0400 
 24 H        0.6150    -0.9840     0.4680 H     1 <1>   0.3700 
 25 H       -2.6530    -4.5370     0.6820 H     1 <1>   0.1500 
 26 H       -3.0260    -2.1030    -2.0690 H     1 <1>   0.0800 
 27 H       -2.9680    -3.8230    -1.9030 H     1 <1>   0.0800 
 28 H       -0.8290    -4.3730     2.4080 H     1 <1>   0.1500 
 29 H       -6.7480    -2.7710     0.5280 H     1 <1>   0.0800 
 30 H       -6.2340    -1.4100     1.4670 H     1 <1>   0.0800 
 31 H       -4.2800    -0.0150     0.6920 H     1 <1>   0.0800 
 32 H       -3.4950    -0.3960    -0.8120 H     1 <1>   0.0800 
 33 H       -4.9950     1.5460    -1.0460 H     1 <1>   0.0800 
 34 H       -5.4650     0.2340    -2.0800 H     1 <1>   0.0800 
 35 H       -9.3040     0.0140     0.1130 H     1 <1>   0.0800 
 36 H       -7.4580     1.1800    -1.0010 H     1 <1>   0.0800 
 37 H       -6.7300     0.9970     0.5650 H     1 <1>   0.0800 
 38 H       -8.1870    -0.7230    -2.2750 H     1 <1>   0.0800 
 39 H       -6.9060    -1.9030    -2.1540 H     1 <1>   0.0800 
 40 H       -9.3130    -2.9100     0.7150 H     1 <1>   0.0800 
 41 H      -10.5140    -1.9470    -0.1370 H     1 <1>   0.0800 
 42 H       -8.3420    -3.5000    -1.2300 H     1 <1>   0.0800 
 43 H       -9.5390    -2.5980    -2.1350 H     1 <1>   0.0800 
 44 H       -9.5020    -0.4640     3.5770 H     1 <1>   0.0800 
 45 H      -10.4980    -1.2390     2.3530 H     1 <1>   0.0800 
 46 H      -10.1010     0.4810     2.2200 H     1 <1>   0.0800 
@<TRIPOS>BOND
  1   1   2  2   
  2   2   3  am  
  3   2   4  am  
  4   3   5  1   
  5   3   6  1   
  6   4   7  am  
  7   4  24  1   
  8   5   8  2   
  9   5  25  1   
 10   6   9  1   
 11   6  26  1   
 12   6  27  1   
 13   7   8  1   
 14   7  10  2   
 15   8  28  1   
 16   9  11  2   
 17   9  12  am  
 18  12  13  1   
 19  12  14  1   
 20  13  15  1   
 21  13  29  1   
 22  13  30  1   
 23  14  16  1   
 24  14  31  1   
 25  14  32  1   
 26  15  17  1   
 27  15  18  1   
 28  15  19  1   
 29  16  18  1   
 30  16  33  1   
 31  16  34  1   
 32  17  20  1   
 33  17  21  1   
 34  17  35  1   
 35  18  36  1   
 36  18  37  1   
 37  19  22  1   
 38  19  38  1   
 39  19  39  1   
 40  20  23  1   
 41  21  22  1   
 42  21  40  1   
 43  21  41  1   
 44  22  42  1   
 45  22  43  1   
 46  23  44  1   
 47  23  45  1   
 48  23  46  1   
@<TRIPOS>SUBSTRUCTURE
  1 ****  12 GROUP 4 **** **** 0

# MOE 2024.06 (io_trps.svl 2023.06)
