@<TRIPOS>MOLECULE
NONAME
42 45 1 0 0 
SMALL
USER_CHARGES


@<TRIPOS>ATOM
  1 S       -0.4310    -0.1680     1.2990 S.3   1 <1>  -0.0800 
  2 C       -0.2160    -1.8940     1.0810 C.2   1 <1>  -0.1100 
  3 C       -1.3320    -0.0470    -0.1990 C.2   1 <1>  -0.1100 
  4 C       -0.8130    -2.3130    -0.0520 C.2   1 <1>  -0.1810 
  5 C       -1.4430    -1.2520    -0.7870 C.2   1 <1>  -0.1500 
  6 C       -0.8410    -3.7440    -0.5470 C.3   1 <1>   0.5240 
  7 N       -1.9630    -4.4480     0.1250 N.4   1 <1>  -0.9590 
  8 C       -3.3040    -3.8600    -0.2360 C.3   1 <1>   0.3430 
  9 C       -1.9360    -5.9250    -0.1510 C.3   1 <1>   0.3430 
 10 C       -4.4720    -4.6210     0.4240 C.3   1 <1>   0.1900 
 11 C       -3.1260    -6.6580     0.5010 C.3   1 <1>   0.1100 
 12 N       -4.4170    -6.0670     0.0840 N.3   1 <1>  -0.8100 
 13 C       -5.8120    -4.0060    -0.0170 C.3   1 <1>   0.1200 
 14 C       -5.6040    -6.7780     0.6420 C.3   1 <1>   0.2850 
 15 O       -6.8600    -4.6870     0.5950 O.3   1 <1>  -0.5600 
 16 C       -5.6000    -8.2540     0.1790 C.3   1 <1>  -0.1950 
 17 C       -6.9110    -6.0450     0.2520 C.3   1 <1>   0.1200 
 18 C       -5.7840    -8.6430    -1.2560 C.3   1 <1>  -0.2000 
 19 C       -6.8240    -9.0150    -0.2410 C.3   1 <1>  -0.2000 
 20 H        0.3450    -2.4050     1.8460 H     1 <1>   0.1500 
 21 H       -1.6820     0.9310    -0.4840 H     1 <1>   0.1500 
 22 H       -1.9450    -1.4230    -1.7250 H     1 <1>   0.1500 
 23 H        0.0920    -4.2210    -0.2960 H     1 <1>   0.0800 
 24 H       -0.9600    -3.7660    -1.6180 H     1 <1>   0.0800 
 25 H       -1.8390    -4.3040     1.1340 H     1 <1>   0.4500 
 26 H       -3.3450    -2.8280     0.0720 H     1 <1>   0.0800 
 27 H       -3.4400    -3.8950    -1.3040 H     1 <1>   0.0800 
 28 H       -1.9830    -6.0960    -1.2140 H     1 <1>   0.0800 
 29 H       -1.0170    -6.3520     0.2140 H     1 <1>   0.0800 
 30 H       -4.3990    -4.5000     1.4920 H     1 <1>   0.0800 
 31 H       -3.0350    -6.6300     1.5740 H     1 <1>   0.0800 
 32 H       -3.0790    -7.6870     0.1910 H     1 <1>   0.0800 
 33 H       -5.9380    -4.0660    -1.0840 H     1 <1>   0.0800 
 34 H       -5.8780    -2.9760     0.2870 H     1 <1>   0.0800 
 35 H       -5.5530    -6.7700     1.7180 H     1 <1>   0.0800 
 36 H       -4.9130    -8.8360     0.7670 H     1 <1>   0.1000 
 37 H       -7.7450    -6.4760     0.7750 H     1 <1>   0.0800 
 38 H       -7.0920    -6.1220    -0.8060 H     1 <1>   0.0800 
 39 H       -6.0140    -7.8810    -1.9800 H     1 <1>   0.1000 
 40 H       -5.1610    -9.4200    -1.6660 H     1 <1>   0.1000 
 41 H       -6.9090   -10.0500     0.0430 H     1 <1>   0.1000 
 42 H       -7.7890    -8.5450    -0.3260 H     1 <1>   0.1000 
@<TRIPOS>BOND
  1   1   2  1   
  2   1   3  1   
  3   2   4  2   
  4   2  20  1   
  5   3   5  2   
  6   3  21  1   
  7   4   5  1   
  8   4   6  1   
  9   5  22  1   
 10   6   7  1   
 11   6  23  1   
 12   6  24  1   
 13   7   8  1   
 14   7   9  1   
 15   7  25  1   
 16   8  10  1   
 17   8  26  1   
 18   8  27  1   
 19   9  11  1   
 20   9  28  1   
 21   9  29  1   
 22  10  12  1   
 23  10  13  1   
 24  10  30  1   
 25  11  12  1   
 26  11  31  1   
 27  11  32  1   
 28  12  14  1   
 29  13  15  1   
 30  13  33  1   
 31  13  34  1   
 32  14  16  1   
 33  14  17  1   
 34  14  35  1   
 35  15  17  1   
 36  16  18  1   
 37  16  19  1   
 38  16  36  1   
 39  17  37  1   
 40  17  38  1   
 41  18  19  1   
 42  18  39  1   
 43  18  40  1   
 44  19  41  1   
 45  19  42  1   
@<TRIPOS>SUBSTRUCTURE
  1 ****   8 GROUP 4 **** **** 0

# MOE 2024.06 (io_trps.svl 2023.06)
