@<TRIPOS>MOLECULE
NONAME
51 52 1 0 0 
SMALL
USER_CHARGES


@<TRIPOS>ATOM
  1 O       -0.3180     0.3730    -0.8440 O.2   1 <1>  -0.5700 
  2 C       -1.2300     0.8530    -0.1960 C.2   1 <1>   0.7150 
  3 N       -2.1490     0.0060     0.3850 N.am  1 <1>  -0.6600 
  4 C       -1.3080     2.2780    -0.0380 C.2   1 <1>  -0.2370 
  5 C       -2.1780    -1.4390     0.0280 C.3   1 <1>   0.3200 
  6 C       -2.9780     0.4040     1.5670 C.3   1 <1>   0.1400 
  7 N       -0.2400     3.0850     0.1990 N.pl3 1 <1>   0.3140 
  8 C       -2.3820     3.1150    -0.0820 C.2   1 <1>  -0.1500 
  9 C       -3.3520    -1.7320    -0.8900 C.2   1 <1>  -0.3320 
 10 C       -4.4730     0.4680     1.2300 C.3   1 <1>   0.1200 
 11 N       -0.5990     4.3730     0.3270 N.2   1 <1>  -0.7070 
 12 C        1.1840     2.7000     0.3460 C.3   1 <1>   0.0960 
 13 C       -1.8840     4.3820     0.1520 C.2   1 <1>   0.1080 
 14 N       -3.9180    -2.9480    -1.0380 N.pl3 1 <1>   0.0480 
 15 C       -4.0270    -0.8970    -1.7130 C.2   1 <1>   0.0770 
 16 O       -5.1650     0.9820     2.3190 O.3   1 <1>  -0.6800 
 17 C        1.4480     2.0290     1.7000 C.3   1 <1>  -0.2400 
 18 C       -2.7180     5.6490     0.2070 C.3   1 <1>   0.0210 
 19 C       -4.9130    -2.7570    -1.9330 C.2   1 <1>   0.0360 
 20 C       -3.5400    -4.2200    -0.3970 C.3   1 <1>   0.0160 
 21 N       -5.0160    -1.5410    -2.3580 N.2   1 <1>  -0.5650 
 22 C       -3.3210     6.0240    -1.1610 C.3   1 <1>  -0.0800 
 23 C       -2.2300     6.3170    -2.2000 C.3   1 <1>  -0.2400 
 24 C       -4.2430     7.2430    -1.0230 C.3   1 <1>  -0.2400 
 25 H       -2.2640    -2.0180     0.9300 H     1 <1>   0.0800 
 26 H       -1.2670    -1.7390    -0.4620 H     1 <1>   0.0800 
 27 H       -2.6620     1.3660     1.9290 H     1 <1>   0.0800 
 28 H       -2.8220    -0.3080     2.3580 H     1 <1>   0.0800 
 29 H       -3.4120     2.8720    -0.2610 H     1 <1>   0.1500 
 30 H       -4.8720    -0.5060     1.0070 H     1 <1>   0.0800 
 31 H       -4.6460     1.1240     0.3970 H     1 <1>   0.0800 
 32 H        1.7780     3.5920     0.2640 H     1 <1>   0.0800 
 33 H        1.4560     2.0460    -0.4620 H     1 <1>   0.0800 
 34 H       -3.8460     0.1520    -1.8770 H     1 <1>   0.1500 
 35 H       -5.2410     0.3200     3.0340 H     1 <1>   0.4000 
 36 H        1.1670     2.6910     2.5000 H     1 <1>   0.0800 
 37 H        2.4950     1.8030     1.7940 H     1 <1>   0.0800 
 38 H        0.8940     1.1110     1.7810 H     1 <1>   0.0800 
 39 H       -2.1010     6.4540     0.5650 H     1 <1>   0.0800 
 40 H       -3.5060     5.4990     0.9210 H     1 <1>   0.0800 
 41 H       -5.5550    -3.5590    -2.2540 H     1 <1>   0.1500 
 42 H       -2.5030    -4.4230    -0.5920 H     1 <1>   0.0800 
 43 H       -4.1390    -5.0170    -0.7980 H     1 <1>   0.0800 
 44 H       -3.7050    -4.1480     0.6620 H     1 <1>   0.0800 
 45 H       -3.9110     5.1940    -1.5130 H     1 <1>   0.0800 
 46 H       -1.6050     7.1300    -1.8740 H     1 <1>   0.0800 
 47 H       -2.6710     6.5760    -3.1460 H     1 <1>   0.0800 
 48 H       -1.6080     5.4510    -2.3470 H     1 <1>   0.0800 
 49 H       -3.6900     8.0980    -0.6750 H     1 <1>   0.0800 
 50 H       -5.0350     7.0370    -0.3250 H     1 <1>   0.0800 
 51 H       -4.6860     7.4840    -1.9730 H     1 <1>   0.0800 
@<TRIPOS>BOND
  1   1   2  2   
  2   2   3  am  
  3   2   4  1   
  4   3   5  1   
  5   3   6  1   
  6   4   7  1   
  7   4   8  2   
  8   5   9  1   
  9   5  25  1   
 10   5  26  1   
 11   6  10  1   
 12   6  27  1   
 13   6  28  1   
 14   7  11  1   
 15   7  12  1   
 16   8  13  1   
 17   8  29  1   
 18   9  14  1   
 19   9  15  2   
 20  10  16  1   
 21  10  30  1   
 22  10  31  1   
 23  11  13  2   
 24  12  17  1   
 25  12  32  1   
 26  12  33  1   
 27  13  18  1   
 28  14  19  1   
 29  14  20  1   
 30  15  21  1   
 31  15  34  1   
 32  16  35  1   
 33  17  36  1   
 34  17  37  1   
 35  17  38  1   
 36  18  22  1   
 37  18  39  1   
 38  18  40  1   
 39  19  21  2   
 40  19  41  1   
 41  20  42  1   
 42  20  43  1   
 43  20  44  1   
 44  22  23  1   
 45  22  24  1   
 46  22  45  1   
 47  23  46  1   
 48  23  47  1   
 49  23  48  1   
 50  24  49  1   
 51  24  50  1   
 52  24  51  1   
@<TRIPOS>SUBSTRUCTURE
  1 ****   2 GROUP 4 **** **** 0

# MOE 2024.06 (io_trps.svl 2023.06)
