@<TRIPOS>MOLECULE
NONAME
41 43 1 0 0 
SMALL
USER_CHARGES


@<TRIPOS>ATOM
  1 S        0.1660     0.1920     1.4800 S.o2  1 <1>   1.4470 
  2 O       -0.4290     1.3650     2.0820 O.2   1 <1>  -0.6500 
  3 O        0.7130    -0.8300     2.3400 O.2   1 <1>  -0.6500 
  4 N        1.4850     0.8030     0.5950 N.am  1 <1>  -0.8490 
  5 C       -0.9890    -0.4420     0.2370 C.ar  1 <1>  -0.0090 
  6 C        2.3730     1.5670     1.5100 C.3   1 <1>   0.1960 
  7 C        2.2480    -0.2580    -0.0830 C.3   1 <1>   0.1960 
  8 C       -0.9480    -1.7510    -0.2200 C.ar  1 <1>   0.1900 
  9 C       -1.9580     0.3830    -0.3280 C.ar  1 <1>  -0.1500 
 10 C        3.4760     2.4320     0.8340 C.3   1 <1>   0.4230 
 11 C        3.2510     0.3040    -1.1130 C.3   1 <1>  -0.0800 
 12 F       -0.0510    -2.5740     0.2500 F     1 <1>  -0.1900 
 13 C       -1.8110    -2.2460    -1.1810 C.ar  1 <1>  -0.1500 
 14 C       -2.8340    -0.0880    -1.2940 C.ar  1 <1>  -0.1500 
 15 N        3.1840     2.8410    -0.5990 N.4   1 <1>  -0.9590 
 16 C        4.8780     1.8010     0.9800 C.3   1 <1>   0.1200 
 17 C        4.7210     0.1350    -0.7030 C.3   1 <1>   0.1200 
 18 C        2.8960     1.7260    -1.5710 C.3   1 <1>   0.3430 
 19 C       -2.7630    -1.4020    -1.7220 C.ar  1 <1>  -0.1500 
 20 C        2.0330     3.7970    -0.6190 C.3   1 <1>   0.2630 
 21 O        4.9020     0.4530     0.6360 O.3   1 <1>  -0.5600 
 22 H        1.7760     2.2540     2.0850 H     1 <1>   0.0800 
 23 H        2.8220     0.8960     2.2250 H     1 <1>   0.0800 
 24 H        2.7440    -0.8910     0.6390 H     1 <1>   0.0800 
 25 H        1.5620    -0.8830    -0.6260 H     1 <1>   0.0800 
 26 H       -2.0370     1.4080    -0.0040 H     1 <1>   0.1500 
 27 H        3.5300     3.3400     1.4120 H     1 <1>   0.0800 
 28 H        3.1400    -0.3100    -1.9900 H     1 <1>   0.0800 
 29 H       -1.7380    -3.2720    -1.4960 H     1 <1>   0.1500 
 30 H       -3.5790     0.5700    -1.7120 H     1 <1>   0.1500 
 31 H        4.0160     3.3360    -0.9430 H     1 <1>   0.4500 
 32 H        5.1720     1.8500     2.0140 H     1 <1>   0.0800 
 33 H        5.6150     2.3280     0.4020 H     1 <1>   0.0800 
 34 H        5.3880     0.7270    -1.3070 H     1 <1>   0.0800 
 35 H        5.0040    -0.8990    -0.8080 H     1 <1>   0.0800 
 36 H        1.8420     1.7280    -1.7980 H     1 <1>   0.0800 
 37 H        3.4160     1.9300    -2.4930 H     1 <1>   0.0800 
 38 H       -3.4470    -1.7660    -2.4710 H     1 <1>   0.1500 
 39 H        1.1390     3.3070    -0.2640 H     1 <1>   0.0800 
 40 H        1.8550     4.1520    -1.6210 H     1 <1>   0.0800 
 41 H        2.2340     4.6450     0.0150 H     1 <1>   0.0800 
@<TRIPOS>BOND
  1   1   2  2   
  2   1   3  2   
  3   1   4  am  
  4   1   5  1   
  5   4   6  1   
  6   4   7  1   
  7   5   8  ar  
  8   5   9  ar  
  9   6  10  1   
 10   6  22  1   
 11   6  23  1   
 12   7  11  1   
 13   7  24  1   
 14   7  25  1   
 15   8  12  1   
 16   8  13  ar  
 17   9  14  ar  
 18   9  26  1   
 19  10  15  1   
 20  10  16  1   
 21  10  27  1   
 22  11  17  1   
 23  11  18  1   
 24  11  28  1   
 25  13  19  ar  
 26  13  29  1   
 27  14  19  ar  
 28  14  30  1   
 29  15  18  1   
 30  15  20  1   
 31  15  31  1   
 32  16  21  1   
 33  16  32  1   
 34  16  33  1   
 35  17  21  1   
 36  17  34  1   
 37  17  35  1   
 38  18  36  1   
 39  18  37  1   
 40  19  38  1   
 41  20  39  1   
 42  20  40  1   
 43  20  41  1   
@<TRIPOS>SUBSTRUCTURE
  1 ****   4 GROUP 4 **** **** 0

# MOE 2024.06 (io_trps.svl 2023.06)
