@<TRIPOS>MOLECULE
NONAME
42 44 1 0 0 
SMALL
USER_CHARGES


@<TRIPOS>ATOM
  1 CL      -0.4900    -0.2840     0.5600 Cl    1 <1>  -0.1770 
  2 C       -0.5040    -1.9650     0.0500 C.ar  1 <1>   0.1770 
  3 C        0.6840    -2.6060    -0.2550 C.ar  1 <1>   0.1770 
  4 C       -1.7260    -2.6300    -0.0440 C.ar  1 <1>   0.1170 
  5 CL       2.2110    -1.7630    -0.1300 Cl    1 <1>  -0.1770 
  6 C        0.6880    -3.9250    -0.6680 C.ar  1 <1>  -0.1500 
  7 N       -2.9110    -1.9410     0.2730 N.am  1 <1>  -0.5470 
  8 C       -1.7060    -3.9580    -0.4700 C.ar  1 <1>  -0.1500 
  9 C       -0.5170    -4.6000    -0.7760 C.ar  1 <1>  -0.1500 
 10 C       -4.1680    -2.3660     0.5970 C.2   1 <1>   0.6900 
 11 O       -4.4020    -3.5510     0.7440 O.2   1 <1>  -0.5700 
 12 N       -5.1590    -1.4310     0.7800 N.am  1 <1>  -0.6600 
 13 C       -6.4970    -1.8260     1.3190 C.3   1 <1>   0.1400 
 14 C       -5.0870    -0.0100     0.3400 C.3   1 <1>   0.1400 
 15 C       -7.6210    -1.6020     0.2780 C.3   1 <1>   0.0000 
 16 C       -6.1650     0.2560    -0.7140 C.3   1 <1>  -0.1600 
 17 C       -8.9680    -1.9890     0.9250 C.3   1 <1>   0.2000 
 18 C       -7.5660    -0.1340    -0.2120 C.3   1 <1>  -0.1600 
 19 C       -7.4970    -2.6150    -0.8790 C.3   1 <1>  -0.1600 
 20 O      -10.0230    -1.4790     0.1880 O.3   1 <1>  -0.6800 
 21 C       -9.0410    -3.5110     0.8160 C.3   1 <1>  -0.1600 
 22 C       -8.2020    -3.8950    -0.4110 C.3   1 <1>  -0.1600 
 23 H        1.6180    -4.4130    -0.9020 H     1 <1>   0.1500 
 24 H       -2.7900    -0.9450     0.4320 H     1 <1>   0.3700 
 25 H       -2.6280    -4.5030    -0.5690 H     1 <1>   0.1500 
 26 H       -0.5320    -5.6280    -1.0990 H     1 <1>   0.1500 
 27 H       -6.4830    -2.8540     1.6350 H     1 <1>   0.0800 
 28 H       -6.6970    -1.2280     2.1920 H     1 <1>   0.0800 
 29 H       -5.2480     0.6270     1.1940 H     1 <1>   0.0800 
 30 H       -4.1250     0.2250    -0.0770 H     1 <1>   0.0800 
 31 H       -6.1570     1.3000    -0.9720 H     1 <1>   0.0800 
 32 H       -5.9280    -0.3000    -1.6040 H     1 <1>   0.0800 
 33 H       -9.0690    -1.6360     1.9380 H     1 <1>   0.0800 
 34 H       -8.2780     0.0280    -1.0020 H     1 <1>   0.0800 
 35 H       -7.8390     0.5150     0.6030 H     1 <1>   0.0800 
 36 H       -8.0050    -2.2370    -1.7480 H     1 <1>   0.0800 
 37 H       -6.4730    -2.8090    -1.1490 H     1 <1>   0.0800 
 38 H       -9.9690    -1.8360    -0.7180 H     1 <1>   0.4000 
 39 H       -8.5920    -3.9440     1.6930 H     1 <1>   0.0800 
 40 H      -10.0560    -3.8650     0.7500 H     1 <1>   0.0800 
 41 H       -7.4730    -4.6390    -0.1370 H     1 <1>   0.0800 
 42 H       -8.8220    -4.2920    -1.1960 H     1 <1>   0.0800 
@<TRIPOS>BOND
  1   1   2  1   
  2   2   3  ar  
  3   2   4  ar  
  4   3   5  1   
  5   3   6  ar  
  6   4   7  1   
  7   4   8  ar  
  8   6   9  ar  
  9   6  23  1   
 10   7  10  am  
 11   7  24  1   
 12   8   9  ar  
 13   8  25  1   
 14   9  26  1   
 15  10  11  2   
 16  10  12  am  
 17  12  13  1   
 18  12  14  1   
 19  13  15  1   
 20  13  27  1   
 21  13  28  1   
 22  14  16  1   
 23  14  29  1   
 24  14  30  1   
 25  15  17  1   
 26  15  18  1   
 27  15  19  1   
 28  16  18  1   
 29  16  31  1   
 30  16  32  1   
 31  17  20  1   
 32  17  21  1   
 33  17  33  1   
 34  18  34  1   
 35  18  35  1   
 36  19  22  1   
 37  19  36  1   
 38  19  37  1   
 39  20  38  1   
 40  21  22  1   
 41  21  39  1   
 42  21  40  1   
 43  22  41  1   
 44  22  42  1   
@<TRIPOS>SUBSTRUCTURE
  1 ****  10 GROUP 4 **** **** 0

# MOE 2024.06 (io_trps.svl 2023.06)
