@<TRIPOS>MOLECULE
NONAME
46 49 1 0 0 
SMALL
USER_CHARGES


@<TRIPOS>ATOM
  1 S        0.6400    -0.3050     1.5360 S.3   1 <1>  -0.0800 
  2 C        1.1610    -0.2150    -0.1400 C.2   1 <1>   0.1980 
  3 C       -0.4450     1.0220     1.2470 C.2   1 <1>  -0.1100 
  4 N        0.5910     0.7110    -0.8080 N.2   1 <1>  -0.5650 
  5 C        2.2330    -1.1990    -0.6190 C.3   1 <1>   0.4000 
  6 C       -0.3210     1.4070    -0.0310 C.2   1 <1>   0.0770 
  7 N        2.1510    -2.5430     0.0200 N.am  1 <1>  -0.6600 
  8 C        3.6420    -0.6980    -0.2800 C.3   1 <1>  -0.1600 
  9 C        1.1290    -3.4020    -0.2600 C.2   1 <1>   0.5690 
 10 C        3.3950    -2.8620     0.7490 C.3   1 <1>   0.1400 
 11 C        4.4350    -1.9370     0.1320 C.3   1 <1>  -0.1600 
 12 O        0.2790    -3.1260    -1.0690 O.2   1 <1>  -0.5700 
 13 C        1.0580    -4.7410     0.4670 C.3   1 <1>  -0.0990 
 14 C       -0.2700    -5.4950     0.2640 C.3   1 <1>  -0.1600 
 15 C       -0.3200    -6.7770     1.1010 C.3   1 <1>   0.1400 
 16 N       -1.5670    -7.5280     0.8100 N.am  1 <1>  -0.4200 
 17 C       -1.5810    -8.5530    -0.1110 C.2   1 <1>   0.5440 
 18 C       -2.7280    -7.1870     1.4610 C.2   1 <1>   0.4500 
 19 O       -0.5550    -8.8620    -0.6970 O.2   1 <1>  -0.5700 
 20 C       -2.8250    -9.2310    -0.3450 C.ar  1 <1>   0.0860 
 21 N       -3.8560    -7.7620     1.2890 N.2   1 <1>  -0.6290 
 22 C       -3.9410    -8.8010     0.3820 C.ar  1 <1>   0.1790 
 23 C       -2.9740   -10.2870    -1.2500 C.ar  1 <1>  -0.1500 
 24 C       -5.1670    -9.4300     0.1890 C.ar  1 <1>  -0.1500 
 25 C       -4.1960   -10.9010    -1.4300 C.ar  1 <1>  -0.1500 
 26 C       -5.2990   -10.4710    -0.7060 C.ar  1 <1>  -0.1500 
 27 H       -1.0550     1.3680     2.0610 H     1 <1>   0.1500 
 28 H        2.1400    -1.3210    -1.6850 H     1 <1>   0.0800 
 29 H       -0.8690     2.2060    -0.5020 H     1 <1>   0.1500 
 30 H        3.5890    -0.0130     0.5480 H     1 <1>   0.0800 
 31 H        4.0830    -0.1870    -1.1170 H     1 <1>   0.0800 
 32 H        3.6760    -3.8950     0.6320 H     1 <1>   0.0800 
 33 H        3.2610    -2.6330     1.7930 H     1 <1>   0.0800 
 34 H        5.2280    -1.7070     0.8220 H     1 <1>   0.0800 
 35 H        4.8530    -2.4110    -0.7390 H     1 <1>   0.0800 
 36 H        1.2000    -4.5560     1.5160 H     1 <1>   0.0800 
 37 H        1.8650    -5.3560     0.1150 H     1 <1>   0.0800 
 38 H       -0.3720    -5.7460    -0.7790 H     1 <1>   0.0800 
 39 H       -1.0880    -4.8520     0.5380 H     1 <1>   0.0800 
 40 H       -0.2870    -6.5350     2.1490 H     1 <1>   0.0800 
 41 H        0.5360    -7.3930     0.8790 H     1 <1>   0.0800 
 42 H       -2.6570    -6.3740     2.1620 H     1 <1>   0.0600 
 43 H       -2.1160   -10.6180    -1.8100 H     1 <1>   0.1500 
 44 H       -6.0140    -9.0860     0.7560 H     1 <1>   0.1500 
 45 H       -4.2990   -11.7130    -2.1300 H     1 <1>   0.1500 
 46 H       -6.2530   -10.9490    -0.8460 H     1 <1>   0.1500 
@<TRIPOS>BOND
  1   1   2  1   
  2   1   3  1   
  3   2   4  2   
  4   2   5  1   
  5   3   6  2   
  6   3  27  1   
  7   4   6  1   
  8   5   7  1   
  9   5   8  1   
 10   5  28  1   
 11   6  29  1   
 12   7   9  am  
 13   7  10  1   
 14   8  11  1   
 15   8  30  1   
 16   8  31  1   
 17   9  12  2   
 18   9  13  1   
 19  10  11  1   
 20  10  32  1   
 21  10  33  1   
 22  11  34  1   
 23  11  35  1   
 24  13  14  1   
 25  13  36  1   
 26  13  37  1   
 27  14  15  1   
 28  14  38  1   
 29  14  39  1   
 30  15  16  1   
 31  15  40  1   
 32  15  41  1   
 33  16  17  am  
 34  16  18  1   
 35  17  19  2   
 36  17  20  1   
 37  18  21  2   
 38  18  42  1   
 39  20  22  ar  
 40  20  23  ar  
 41  21  22  1   
 42  22  24  ar  
 43  23  25  ar  
 44  23  43  1   
 45  24  26  ar  
 46  24  44  1   
 47  25  26  ar  
 48  25  45  1   
 49  26  46  1   
@<TRIPOS>SUBSTRUCTURE
  1 ****  14 GROUP 4 **** **** 0

# MOE 2024.06 (io_trps.svl 2023.06)
