@<TRIPOS>MOLECULE
NONAME
47 49 1 0 0 
SMALL
USER_CHARGES


@<TRIPOS>ATOM
  1 O        3.6610    -1.8460     1.7760 O.2   1 <1>  -0.5700 
  2 C        2.9480    -1.5780     0.8250 C.2   1 <1>   0.5440 
  3 N        3.0280    -0.2890     0.3590 N.am  1 <1>  -0.6600 
  4 C        2.1380    -2.5810     0.1580 C.ar  1 <1>   0.0860 
  5 C        3.2050     0.8360     1.3470 C.3   1 <1>   0.2200 
  6 C        3.2340    -0.0350    -1.0900 C.3   1 <1>   0.1400 
  7 C        0.7610    -2.3680    -0.0050 C.ar  1 <1>   0.0830 
  8 C        2.6940    -3.7670    -0.3480 C.ar  1 <1>  -0.1440 
  9 C        2.6120     2.1660     0.8560 C.3   1 <1>   0.1200 
 10 C        4.6960     1.0090     1.7160 C.3   1 <1>   0.3430 
 11 C        4.2730     1.0690    -1.3680 C.3   1 <1>  -0.0800 
 12 O        0.2260    -1.2280     0.5020 O.3   1 <1>  -0.3630 
 13 C       -0.0240    -3.3100    -0.6660 C.ar  1 <1>  -0.1500 
 14 C        1.8970    -4.6920    -0.9980 C.ar  1 <1>  -0.1500 
 15 C        4.1790    -4.0800    -0.1970 C.3   1 <1>  -0.0960 
 16 O        3.5460     2.8660     0.0850 O.3   1 <1>  -0.5600 
 17 N        5.5920     0.3100     0.7340 N.4   1 <1>  -0.9590 
 18 C        3.6550     2.4720    -1.2410 C.3   1 <1>   0.1200 
 19 C        5.6280     0.9480    -0.6260 C.3   1 <1>   0.3430 
 20 C       -1.1660    -0.9940     0.5470 C.3   1 <1>   0.0400 
 21 C        0.5430    -4.4660    -1.1600 C.ar  1 <1>  -0.1500 
 22 C        6.9490     0.0870     1.3010 C.3   1 <1>   0.2630 
 23 H        2.6680     0.5700     2.2420 H     1 <1>   0.0800 
 24 H        3.5620    -0.9480    -1.5590 H     1 <1>   0.0800 
 25 H        2.2870     0.2270    -1.5330 H     1 <1>   0.0800 
 26 H        2.3920     2.7880     1.7070 H     1 <1>   0.0800 
 27 H        1.7000     2.0190     0.3030 H     1 <1>   0.0800 
 28 H        4.8400     0.5750     2.6920 H     1 <1>   0.0800 
 29 H        4.9440     2.0550     1.7800 H     1 <1>   0.0800 
 30 H        4.5060     0.9820    -2.4150 H     1 <1>   0.0800 
 31 H       -1.0780    -3.1640    -0.8060 H     1 <1>   0.1500 
 32 H        2.3200    -5.6040    -1.3850 H     1 <1>   0.1500 
 33 H        4.4490    -4.9600    -0.7530 H     1 <1>   0.0800 
 34 H        4.4100    -4.2540     0.8390 H     1 <1>   0.0800 
 35 H        4.7750    -3.2610    -0.5550 H     1 <1>   0.0800 
 36 H        5.1100    -0.6060     0.6380 H     1 <1>   0.4500 
 37 H        2.6820     2.5230    -1.7010 H     1 <1>   0.0800 
 38 H        4.2890     3.1950    -1.7270 H     1 <1>   0.0800 
 39 H        6.0610     1.9320    -0.5440 H     1 <1>   0.0800 
 40 H        6.2860     0.3620    -1.2480 H     1 <1>   0.0800 
 41 H       -1.3340    -0.0640     1.0590 H     1 <1>   0.0800 
 42 H       -1.6380    -1.7970     1.0860 H     1 <1>   0.0800 
 43 H       -1.5440    -0.9300    -0.4580 H     1 <1>   0.0800 
 44 H       -0.0660    -5.1940    -1.6690 H     1 <1>   0.1500 
 45 H        7.4440     1.0300     1.4700 H     1 <1>   0.0800 
 46 H        7.5450    -0.5030     0.6230 H     1 <1>   0.0800 
 47 H        6.8760    -0.4400     2.2390 H     1 <1>   0.0800 
@<TRIPOS>BOND
  1   1   2  2   
  2   2   3  am  
  3   2   4  1   
  4   3   5  1   
  5   3   6  1   
  6   4   7  ar  
  7   4   8  ar  
  8   5   9  1   
  9   5  10  1   
 10   5  23  1   
 11   6  11  1   
 12   6  24  1   
 13   6  25  1   
 14   7  12  1   
 15   7  13  ar  
 16   8  14  ar  
 17   8  15  1   
 18   9  16  1   
 19   9  26  1   
 20   9  27  1   
 21  10  17  1   
 22  10  28  1   
 23  10  29  1   
 24  11  18  1   
 25  11  19  1   
 26  11  30  1   
 27  12  20  1   
 28  13  21  ar  
 29  13  31  1   
 30  14  21  ar  
 31  14  32  1   
 32  15  33  1   
 33  15  34  1   
 34  15  35  1   
 35  16  18  1   
 36  17  19  1   
 37  17  22  1   
 38  17  36  1   
 39  18  37  1   
 40  18  38  1   
 41  19  39  1   
 42  19  40  1   
 43  20  41  1   
 44  20  42  1   
 45  20  43  1   
 46  21  44  1   
 47  22  45  1   
 48  22  46  1   
 49  22  47  1   
@<TRIPOS>SUBSTRUCTURE
  1 ****   3 GROUP 4 **** **** 0

# MOE 2024.06 (io_trps.svl 2023.06)
