@<TRIPOS>MOLECULE
NONAME
45 48 1 0 0 
SMALL
USER_CHARGES


@<TRIPOS>ATOM
  1 S        0.4770     0.0110     0.4970 S.3   1 <1>  -0.0800 
  2 C       -1.1790     0.5130     0.2430 C.2   1 <1>  -0.1400 
  3 C        0.9220     1.6370     0.9660 C.2   1 <1>  -0.1100 
  4 C       -1.3330     1.8220     0.4890 C.2   1 <1>  -0.1810 
  5 C       -2.2330    -0.4810    -0.1920 C.3   1 <1>   0.0200 
  6 C       -0.1270     2.4940     0.9060 C.2   1 <1>  -0.0860 
  7 C       -2.6820     2.5090     0.3450 C.3   1 <1>   0.0210 
  8 C       -3.6260     0.1490    -0.0020 C.3   1 <1>  -0.1600 
  9 C       -0.0760     3.9100     1.2060 C.2   1 <1>   0.7160 
 10 C       -3.6640     1.6250    -0.4520 C.3   1 <1>  -0.1600 
 11 O       -0.6990     4.3410     2.1590 O.2   1 <1>  -0.5700 
 12 N        0.6430     4.7880     0.4180 N.am  1 <1>  -0.6600 
 13 C        1.0050     6.1470     0.9420 C.3   1 <1>   0.1400 
 14 C        1.1110     4.4220    -0.9580 C.3   1 <1>   0.1400 
 15 C        2.5170     6.4660     0.9810 C.3   1 <1>   0.2200 
 16 C        2.6290     4.5340    -1.1980 C.3   1 <1>  -0.0190 
 17 N        3.0160     6.8550    -0.3690 N.am  1 <1>  -0.6600 
 18 C        3.4150     5.3840     1.6320 C.3   1 <1>   0.1200 
 19 C        3.0430     5.9720    -1.4090 C.2   1 <1>   0.5690 
 20 C        3.5630     3.8360    -0.1930 C.3   1 <1>   0.1200 
 21 C        3.4360     8.2770    -0.5300 C.3   1 <1>   0.0600 
 22 O        3.2390     4.0830     1.1410 O.3   1 <1>  -0.5600 
 23 O        3.3950     6.2980    -2.5180 O.2   1 <1>  -0.5700 
 24 H        1.9440     1.8110     1.2540 H     1 <1>   0.1500 
 25 H       -2.0730    -0.7260    -1.2260 H     1 <1>   0.0800 
 26 H       -2.1550    -1.3810     0.3920 H     1 <1>   0.0800 
 27 H       -3.0740     2.6980     1.3290 H     1 <1>   0.0800 
 28 H       -2.5650     3.4540    -0.1550 H     1 <1>   0.0800 
 29 H       -4.3540    -0.4230    -0.5500 H     1 <1>   0.0800 
 30 H       -3.8860     0.1020     1.0420 H     1 <1>   0.0800 
 31 H       -4.6610     2.0140    -0.3400 H     1 <1>   0.0800 
 32 H       -3.4060     1.6750    -1.4950 H     1 <1>   0.0800 
 33 H        0.5020     6.8930     0.3520 H     1 <1>   0.0800 
 34 H        0.6390     6.2480     1.9480 H     1 <1>   0.0800 
 35 H        0.8130     3.4150    -1.1890 H     1 <1>   0.0800 
 36 H        0.6050     5.0590    -1.6640 H     1 <1>   0.0800 
 37 H        2.6140     7.3370     1.6050 H     1 <1>   0.0800 
 38 H        2.8090     4.0490    -2.1400 H     1 <1>   0.0800 
 39 H        3.1850     5.3390     2.6820 H     1 <1>   0.0800 
 40 H        4.4520     5.6500     1.5310 H     1 <1>   0.0800 
 41 H        4.5860     4.1270    -0.3570 H     1 <1>   0.0800 
 42 H        3.4920     2.7710    -0.3320 H     1 <1>   0.0800 
 43 H        4.2320     8.5020     0.1570 H     1 <1>   0.0800 
 44 H        2.6010     8.9280    -0.3360 H     1 <1>   0.0800 
 45 H        3.7880     8.4630    -1.5310 H     1 <1>   0.0800 
@<TRIPOS>BOND
  1   1   2  1   
  2   1   3  1   
  3   2   4  2   
  4   2   5  1   
  5   3   6  2   
  6   3  24  1   
  7   4   6  1   
  8   4   7  1   
  9   5   8  1   
 10   5  25  1   
 11   5  26  1   
 12   6   9  1   
 13   7  10  1   
 14   7  27  1   
 15   7  28  1   
 16   8  10  1   
 17   8  29  1   
 18   8  30  1   
 19   9  11  2   
 20   9  12  am  
 21  10  31  1   
 22  10  32  1   
 23  12  13  1   
 24  12  14  1   
 25  13  15  1   
 26  13  33  1   
 27  13  34  1   
 28  14  16  1   
 29  14  35  1   
 30  14  36  1   
 31  15  17  1   
 32  15  18  1   
 33  15  37  1   
 34  16  19  1   
 35  16  20  1   
 36  16  38  1   
 37  17  19  am  
 38  17  21  1   
 39  18  22  1   
 40  18  39  1   
 41  18  40  1   
 42  19  23  2   
 43  20  22  1   
 44  20  41  1   
 45  20  42  1   
 46  21  43  1   
 47  21  44  1   
 48  21  45  1   
@<TRIPOS>SUBSTRUCTURE
  1 ****  12 GROUP 4 **** **** 0

# MOE 2024.06 (io_trps.svl 2023.06)
