@<TRIPOS>MOLECULE
NONAME
51 54 1 0 0 
SMALL
USER_CHARGES


@<TRIPOS>ATOM
  1 O       -4.3300     2.3540    -1.2180 O.2   1 <1>  -0.5700 
  2 C       -3.1680     2.0500    -1.3530 C.2   1 <1>   0.5690 
  3 N       -2.7860     0.9800    -2.0920 N.am  1 <1>  -0.7300 
  4 C       -2.0940     2.8320    -0.6200 C.3   1 <1>   0.0820 
  5 C       -3.6960    -0.1070    -2.5010 C.3   1 <1>   0.2200 
  6 C       -1.0180     1.8850    -0.0980 C.2   1 <1>  -0.1810 
  7 C       -3.8170    -1.0750    -1.3380 C.3   1 <1>  -0.0800 
  8 C       -3.0380    -0.9760    -3.5690 C.3   1 <1>   0.1200 
  9 C       -1.1630     0.9820     0.9570 C.2   1 <1>   0.1080 
 10 C        0.2410     1.6880    -0.5520 C.2   1 <1>  -0.3320 
 11 C       -2.5830    -1.9580    -1.5280 C.3   1 <1>   0.1200 
 12 C       -5.1310    -1.8740    -1.3830 C.3   1 <1>  -0.0160 
 13 O       -2.2850    -1.9430    -2.8950 O.3   1 <1>  -0.5600 
 14 N       -0.0930     0.2800     1.1450 N.2   1 <1>  -0.7070 
 15 C       -2.3890     0.7810     1.8230 C.3   1 <1>  -0.0590 
 16 N        0.7770     0.7210     0.2210 N.pl3 1 <1>   0.3000 
 17 C        1.0040     2.3460    -1.6900 C.3   1 <1>  -0.0600 
 18 C       -5.3280    -2.6590    -0.0910 C.ar  1 <1>  -0.1440 
 19 C       -5.6960    -2.0300     1.1230 C.ar  1 <1>   0.0000 
 20 C       -5.1390    -4.0100    -0.0710 C.ar  1 <1>  -0.1500 
 21 C       -5.8180    -2.8460     2.2740 C.ar  1 <1>   0.3100 
 22 C       -5.9480    -0.6440     1.2650 C.ar  1 <1>  -0.1500 
 23 C       -5.2990    -4.7260     1.1220 C.ar  1 <1>   0.1600 
 24 N       -5.6220    -4.1890     2.2560 N.ar  1 <1>  -0.6200 
 25 C       -6.1580    -2.2480     3.4980 C.ar  1 <1>  -0.1500 
 26 C       -6.2790    -0.0940     2.4720 C.ar  1 <1>  -0.1500 
 27 C       -6.3830    -0.9030     3.6060 C.ar  1 <1>  -0.1500 
 28 H       -1.8040     0.6920    -2.0180 H     1 <1>   0.3700 
 29 H       -1.6740     3.5530    -1.2930 H     1 <1>   0.0800 
 30 H       -2.5380     3.3630     0.2020 H     1 <1>   0.0800 
 31 H       -4.6390     0.3030    -2.8220 H     1 <1>   0.0800 
 32 H       -3.7570    -0.5580    -0.3990 H     1 <1>   0.0800 
 33 H       -2.3990    -0.4110    -4.2240 H     1 <1>   0.0800 
 34 H       -3.7840    -1.4930    -4.1450 H     1 <1>   0.0800 
 35 H       -2.7350    -2.9730    -1.2080 H     1 <1>   0.0800 
 36 H       -1.7370    -1.5410    -1.0050 H     1 <1>   0.0800 
 37 H       -5.1210    -2.5450    -2.2250 H     1 <1>   0.0800 
 38 H       -5.9660    -1.2100    -1.5180 H     1 <1>   0.0800 
 39 H       -3.2500     1.2720     1.4110 H     1 <1>   0.0800 
 40 H       -2.1990     1.1720     2.8050 H     1 <1>   0.0800 
 41 H       -2.6000    -0.2700     1.9080 H     1 <1>   0.0800 
 42 H        1.7260     0.3370     0.1430 H     1 <1>   0.2700 
 43 H        0.3900     3.0630    -2.2030 H     1 <1>   0.0800 
 44 H        1.3220     1.6030    -2.4000 H     1 <1>   0.0800 
 45 H        1.8710     2.8550    -1.3070 H     1 <1>   0.0800 
 46 H       -4.8620    -4.5540    -0.9550 H     1 <1>   0.1500 
 47 H       -5.8790     0.0000     0.4070 H     1 <1>   0.1500 
 48 H       -5.1420    -5.7900     1.0930 H     1 <1>   0.1500 
 49 H       -6.2350    -2.8910     4.3560 H     1 <1>   0.1500 
 50 H       -6.4640     0.9630     2.5630 H     1 <1>   0.1500 
 51 H       -6.6430    -0.4580     4.5510 H     1 <1>   0.1500 
@<TRIPOS>BOND
  1   1   2  2   
  2   2   3  am  
  3   2   4  1   
  4   3   5  1   
  5   3  28  1   
  6   4   6  1   
  7   4  29  1   
  8   4  30  1   
  9   5   7  1   
 10   5   8  1   
 11   5  31  1   
 12   6   9  1   
 13   6  10  2   
 14   7  11  1   
 15   7  12  1   
 16   7  32  1   
 17   8  13  1   
 18   8  33  1   
 19   8  34  1   
 20   9  14  2   
 21   9  15  1   
 22  10  16  1   
 23  10  17  1   
 24  11  13  1   
 25  11  35  1   
 26  11  36  1   
 27  12  18  1   
 28  12  37  1   
 29  12  38  1   
 30  14  16  1   
 31  15  39  1   
 32  15  40  1   
 33  15  41  1   
 34  16  42  1   
 35  17  43  1   
 36  17  44  1   
 37  17  45  1   
 38  18  19  ar  
 39  18  20  ar  
 40  19  21  ar  
 41  19  22  ar  
 42  20  23  ar  
 43  20  46  1   
 44  21  24  ar  
 45  21  25  ar  
 46  22  26  ar  
 47  22  47  1   
 48  23  24  ar  
 49  23  48  1   
 50  25  27  ar  
 51  25  49  1   
 52  26  27  ar  
 53  26  50  1   
 54  27  51  1   
@<TRIPOS>SUBSTRUCTURE
  1 ****   7 GROUP 4 **** **** 0

# MOE 2024.06 (io_trps.svl 2023.06)
