@<TRIPOS>MOLECULE
NONAME
50 52 1 0 0 
SMALL
USER_CHARGES


@<TRIPOS>ATOM
  1 CL       0.7260    -2.4200    -2.9830 Cl    1 <1>  -0.1770 
  2 C        0.2820    -3.8500    -2.0860 C.ar  1 <1>   0.1770 
  3 C        1.2670    -4.5940    -1.4650 C.ar  1 <1>  -0.1500 
  4 C       -1.0500    -4.2160    -2.0100 C.ar  1 <1>  -0.1500 
  5 C        0.9090    -5.7270    -0.7540 C.ar  1 <1>  -0.1500 
  6 C       -1.4060    -5.3500    -1.2990 C.ar  1 <1>  -0.1500 
  7 C       -0.4220    -6.1110    -0.6660 C.ar  1 <1>   0.0830 
  8 O       -0.6820    -7.2330     0.0500 O.3   1 <1>  -0.3630 
  9 C       -1.9900    -7.7240     0.2010 C.3   1 <1>   0.1200 
 10 C       -1.9020    -8.9860     1.0590 C.3   1 <1>  -0.1600 
 11 C       -3.2900    -9.5680     1.3170 C.3   1 <1>   0.3430 
 12 N       -3.1830   -10.8610     2.0510 N.4   1 <1>  -0.9590 
 13 C       -4.4600   -11.6510     1.9810 C.3   1 <1>   0.3430 
 14 C       -2.6920   -10.7060     3.4580 C.3   1 <1>   0.2630 
 15 C       -4.2070   -13.1650     2.1640 C.3   1 <1>   0.2000 
 16 O       -2.9360   -13.4470     1.5930 O.3   1 <1>  -0.3630 
 17 C       -5.2110   -14.0410     1.3820 C.3   1 <1>  -0.0170 
 18 C       -3.0940   -14.0610     0.4240 C.ar  1 <1>   0.3930 
 19 C       -4.3800   -14.4420     0.1940 C.ar  1 <1>  -0.1430 
 20 N       -2.1040   -14.2200    -0.4100 N.ar  1 <1>  -0.6200 
 21 C       -4.6430   -15.0670    -0.9980 C.ar  1 <1>   0.1670 
 22 C       -2.4630   -14.8370    -1.5250 C.ar  1 <1>   0.4770 
 23 N       -3.6730   -15.2630    -1.8680 N.ar  1 <1>  -0.6200 
 24 C       -6.0220   -15.5580    -1.3840 C.3   1 <1>  -0.0970 
 25 C       -1.3710   -15.0820    -2.5390 C.3   1 <1>  -0.0970 
 26 H        2.2960    -4.2890    -1.5380 H     1 <1>   0.1500 
 27 H       -1.7930    -3.6170    -2.5040 H     1 <1>   0.1500 
 28 H        1.6600    -6.3200    -0.2640 H     1 <1>   0.1500 
 29 H       -2.4430    -5.6180    -1.2520 H     1 <1>   0.1500 
 30 H       -2.3830    -7.9430    -0.7780 H     1 <1>   0.0800 
 31 H       -2.5800    -6.9630     0.6840 H     1 <1>   0.0800 
 32 H       -1.4290    -8.7240     1.9880 H     1 <1>   0.0800 
 33 H       -1.2970    -9.7090     0.5390 H     1 <1>   0.0800 
 34 H       -3.7750    -9.7340     0.3680 H     1 <1>   0.0800 
 35 H       -3.8840    -8.8680     1.8830 H     1 <1>   0.0800 
 36 H       -2.4860   -11.4490     1.5500 H     1 <1>   0.4500 
 37 H       -4.9030   -11.5100     1.0090 H     1 <1>   0.0800 
 38 H       -5.1670   -11.3010     2.7150 H     1 <1>   0.0800 
 39 H       -3.3780   -10.1050     4.0330 H     1 <1>   0.0800 
 40 H       -1.7250   -10.2310     3.4690 H     1 <1>   0.0800 
 41 H       -2.5970   -11.6710     3.9290 H     1 <1>   0.0800 
 42 H       -4.1780   -13.4320     3.2060 H     1 <1>   0.0800 
 43 H       -6.1010   -13.5070     1.0990 H     1 <1>   0.0800 
 44 H       -5.4800   -14.9100     1.9560 H     1 <1>   0.0800 
 45 H       -6.7360   -15.3850    -0.6020 H     1 <1>   0.0800 
 46 H       -5.9800   -16.6130    -1.5870 H     1 <1>   0.0800 
 47 H       -6.3470   -15.0520    -2.2750 H     1 <1>   0.0800 
 48 H       -0.4060   -14.8860    -2.1110 H     1 <1>   0.0800 
 49 H       -1.5190   -14.4390    -3.3860 H     1 <1>   0.0800 
 50 H       -1.4060   -16.1050    -2.8640 H     1 <1>   0.0800 
@<TRIPOS>BOND
  1   1   2  1   
  2   2   3  ar  
  3   2   4  ar  
  4   3   5  ar  
  5   3  26  1   
  6   4   6  ar  
  7   4  27  1   
  8   5   7  ar  
  9   5  28  1   
 10   6   7  ar  
 11   6  29  1   
 12   7   8  1   
 13   8   9  1   
 14   9  10  1   
 15   9  30  1   
 16   9  31  1   
 17  10  11  1   
 18  10  32  1   
 19  10  33  1   
 20  11  12  1   
 21  11  34  1   
 22  11  35  1   
 23  12  13  1   
 24  12  14  1   
 25  12  36  1   
 26  13  15  1   
 27  13  37  1   
 28  13  38  1   
 29  14  39  1   
 30  14  40  1   
 31  14  41  1   
 32  15  16  1   
 33  15  17  1   
 34  15  42  1   
 35  16  18  1   
 36  17  19  1   
 37  17  43  1   
 38  17  44  1   
 39  18  19  ar  
 40  18  20  ar  
 41  19  21  ar  
 42  20  22  ar  
 43  21  23  ar  
 44  21  24  1   
 45  22  23  ar  
 46  22  25  1   
 47  24  45  1   
 48  24  46  1   
 49  24  47  1   
 50  25  48  1   
 51  25  49  1   
 52  25  50  1   
@<TRIPOS>SUBSTRUCTURE
  1 ****  10 GROUP 4 **** **** 0

# MOE 2024.06 (io_trps.svl 2023.06)
