@<TRIPOS>MOLECULE
NONAME
53 55 1 0 0 
SMALL
USER_CHARGES


@<TRIPOS>ATOM
  1 O       -0.5200     0.6170     0.8760 O.2   1 <1>  -0.5700 
  2 C       -0.4620     1.8020     0.6450 C.2   1 <1>   0.5690 
  3 N       -1.5590     2.6330     0.6730 N.am  1 <1>  -0.5090 
  4 C        0.9170     2.3740     0.3100 C.3   1 <1>   0.1810 
  5 C       -1.3900     4.1150     0.4970 C.3   1 <1>   0.3640 
  6 C       -2.8130     2.2190     1.3630 C.3   1 <1>   0.0490 
  7 O        1.0240     3.7440     0.6030 O.3   1 <1>  -0.5600 
  8 C       -2.4040     4.6770    -0.4940 C.ar  1 <1>  -0.1440 
  9 C        0.0160     4.5260     0.0010 C.3   1 <1>   0.2610 
 10 C       -3.4910     0.9430     0.9700 C.3   1 <1>  -0.2000 
 11 C       -4.1360     2.2530     0.6580 C.3   1 <1>  -0.2000 
 12 C       -2.5860     4.0920    -1.7410 C.ar  1 <1>   0.1600 
 13 C       -3.1360     5.8060    -0.1800 C.ar  1 <1>  -0.1500 
 14 C        0.2390     6.0310     0.2400 C.2   1 <1>   0.5690 
 15 N       -3.4070     4.5380    -2.6760 N.ar  1 <1>  -0.6200 
 16 C       -4.0060     6.2770    -1.1390 C.ar  1 <1>  -0.1500 
 17 O       -0.1060     6.4830     1.3110 O.2   1 <1>  -0.5700 
 18 N        0.7740     6.8560    -0.7300 N.am  1 <1>  -0.6600 
 19 C       -4.1010     5.6170    -2.3520 C.ar  1 <1>   0.1600 
 20 C        0.8780     8.3240    -0.4800 C.3   1 <1>   0.1400 
 21 C        1.1780     6.4180    -2.0960 C.3   1 <1>   0.1400 
 22 C        2.2570     8.6690     0.0870 C.3   1 <1>  -0.1600 
 23 C        2.5200     5.6910    -2.0480 C.3   1 <1>  -0.2400 
 24 C        2.3670    10.1680     0.4040 C.3   1 <1>  -0.1600 
 25 C        3.7350    10.5050     0.9960 C.3   1 <1>   0.1200 
 26 O        3.7800    11.8640     1.2420 O.3   1 <1>  -0.6800 
 27 H        1.1290     2.2250    -0.7320 H     1 <1>   0.0800 
 28 H        1.6610     1.8610     0.8910 H     1 <1>   0.0800 
 29 H       -1.5600     4.5650     1.4600 H     1 <1>   0.0800 
 30 H       -2.7910     2.4610     2.4130 H     1 <1>   0.1000 
 31 H        0.0660     4.3310    -1.0510 H     1 <1>   0.0800 
 32 H       -3.0780     0.3640     0.1630 H     1 <1>   0.1000 
 33 H       -3.9160     0.3290     1.7430 H     1 <1>   0.1000 
 34 H       -5.0110     2.5300     1.2170 H     1 <1>   0.1000 
 35 H       -4.2180     2.5110    -0.3810 H     1 <1>   0.1000 
 36 H       -2.0280     3.2030    -1.9840 H     1 <1>   0.1500 
 37 H       -3.0320     6.3060     0.7690 H     1 <1>   0.1500 
 38 H       -4.6050     7.1500    -0.9520 H     1 <1>   0.1500 
 39 H       -4.7830     5.9970    -3.0950 H     1 <1>   0.1500 
 40 H        0.7040     8.8680    -1.3930 H     1 <1>   0.0800 
 41 H        0.1200     8.6280     0.2220 H     1 <1>   0.0800 
 42 H        0.4190     5.7830    -2.5190 H     1 <1>   0.0800 
 43 H        1.2660     7.2740    -2.7440 H     1 <1>   0.0800 
 44 H        2.4120     8.1020     0.9890 H     1 <1>   0.0800 
 45 H        3.0170     8.4020    -0.6250 H     1 <1>   0.0800 
 46 H        2.4690     4.8190    -1.4230 H     1 <1>   0.0800 
 47 H        3.2880     6.3420    -1.6750 H     1 <1>   0.0800 
 48 H        2.7960     5.3790    -3.0390 H     1 <1>   0.0800 
 49 H        1.6050    10.4360     1.1160 H     1 <1>   0.0800 
 50 H        2.2160    10.7330    -0.4990 H     1 <1>   0.0800 
 51 H        4.5320    10.2570     0.3160 H     1 <1>   0.0800 
 52 H        3.8880     9.9930     1.9310 H     1 <1>   0.0800 
 53 H        3.6410    12.3670     0.4170 H     1 <1>   0.4000 
@<TRIPOS>BOND
  1   1   2  2   
  2   2   3  am  
  3   2   4  1   
  4   3   5  1   
  5   3   6  1   
  6   4   7  1   
  7   4  27  1   
  8   4  28  1   
  9   5   8  1   
 10   5   9  1   
 11   5  29  1   
 12   6  10  1   
 13   6  11  1   
 14   6  30  1   
 15   7   9  1   
 16   8  12  ar  
 17   8  13  ar  
 18   9  14  1   
 19   9  31  1   
 20  10  11  1   
 21  10  32  1   
 22  10  33  1   
 23  11  34  1   
 24  11  35  1   
 25  12  15  ar  
 26  12  36  1   
 27  13  16  ar  
 28  13  37  1   
 29  14  17  2   
 30  14  18  am  
 31  15  19  ar  
 32  16  19  ar  
 33  16  38  1   
 34  18  20  1   
 35  18  21  1   
 36  19  39  1   
 37  20  22  1   
 38  20  40  1   
 39  20  41  1   
 40  21  23  1   
 41  21  42  1   
 42  21  43  1   
 43  22  24  1   
 44  22  44  1   
 45  22  45  1   
 46  23  46  1   
 47  23  47  1   
 48  23  48  1   
 49  24  25  1   
 50  24  49  1   
 51  24  50  1   
 52  25  26  1   
 53  25  51  1   
 54  25  52  1   
 55  26  53  1   
@<TRIPOS>SUBSTRUCTURE
  1 ****   9 GROUP 4 **** **** 0

# MOE 2024.06 (io_trps.svl 2023.06)
