@<TRIPOS>MOLECULE
NONAME
53 54 1 0 0 
SMALL
USER_CHARGES


@<TRIPOS>ATOM
  1 O       -0.1760     0.8350    -0.7570 O.2   1 <1>  -0.5700 
  2 C       -0.2870     2.0380    -0.7410 C.2   1 <1>   0.5690 
  3 N       -0.9900     2.6970     0.2320 N.am  1 <1>  -0.6600 
  4 C        0.3700     2.8380    -1.8670 C.3   1 <1>   0.1810 
  5 C       -1.1190     4.1910     0.2190 C.3   1 <1>   0.3640 
  6 C       -1.6080     1.9920     1.3910 C.3   1 <1>   0.0600 
  7 O        0.6780     4.1520    -1.4810 O.3   1 <1>  -0.5600 
  8 C       -2.5840     4.6360     0.3490 C.ar  1 <1>  -0.1430 
  9 C       -0.4270     4.8880    -0.9820 C.3   1 <1>   0.2610 
 10 C       -3.6360     4.1650    -0.4450 C.ar  1 <1>  -0.1430 
 11 C       -2.8600     5.5810     1.3310 C.ar  1 <1>  -0.1500 
 12 C       -0.0260     6.3150    -0.5780 C.2   1 <1>   0.5690 
 13 C       -4.9210     4.6400    -0.2260 C.ar  1 <1>  -0.1500 
 14 C       -3.4610     3.1370    -1.5580 C.3   1 <1>  -0.0960 
 15 C       -4.1430     6.0490     1.5370 C.ar  1 <1>  -0.1500 
 16 O       -0.7160     7.2100    -1.0120 O.2   1 <1>  -0.5700 
 17 N        1.0440     6.5970     0.2500 N.am  1 <1>  -0.6600 
 18 C       -5.1780     5.5750     0.7580 C.ar  1 <1>  -0.1500 
 19 C        1.3370     8.0130     0.6390 C.3   1 <1>   0.1400 
 20 C        1.9990     5.5880     0.7980 C.3   1 <1>   0.1400 
 21 C        1.9030     8.8080    -0.5410 C.3   1 <1>   0.1200 
 22 C        3.3020     5.5920    -0.0060 C.3   1 <1>  -0.1600 
 23 O        2.4410     9.9980    -0.0530 O.3   1 <1>  -0.5600 
 24 C        4.2360     4.4650     0.4480 C.3   1 <1>  -0.2400 
 25 C        2.9270    10.8390    -1.0480 C.3   1 <1>   0.0400 
 26 H       -0.2830     2.8730    -2.7190 H     1 <1>   0.0800 
 27 H        1.2880     2.3590    -2.1520 H     1 <1>   0.0800 
 28 H       -0.6110     4.5300     1.1040 H     1 <1>   0.0800 
 29 H       -1.2380     2.4070     2.3120 H     1 <1>   0.0800 
 30 H       -1.3730     0.9420     1.3680 H     1 <1>   0.0800 
 31 H       -2.6790     2.1020     1.3610 H     1 <1>   0.0800 
 32 H       -1.1310     4.9770    -1.7870 H     1 <1>   0.0800 
 33 H       -2.0710     5.9740     1.9490 H     1 <1>   0.1500 
 34 H       -5.7410     4.2830    -0.8240 H     1 <1>   0.1500 
 35 H       -4.3380     3.0880    -2.1770 H     1 <1>   0.0800 
 36 H       -3.2990     2.1610    -1.1370 H     1 <1>   0.0800 
 37 H       -2.6340     3.3900    -2.1910 H     1 <1>   0.0800 
 38 H       -4.3360     6.7820     2.3010 H     1 <1>   0.1500 
 39 H       -6.1810     5.9340     0.9130 H     1 <1>   0.1500 
 40 H        0.4280     8.4840     0.9720 H     1 <1>   0.0800 
 41 H        2.0460     8.0300     1.4470 H     1 <1>   0.0800 
 42 H        2.2070     5.8130     1.8300 H     1 <1>   0.0800 
 43 H        1.5720     4.6030     0.7660 H     1 <1>   0.0800 
 44 H        1.1200     9.0390    -1.2420 H     1 <1>   0.0800 
 45 H        2.6870     8.2570    -1.0280 H     1 <1>   0.0800 
 46 H        3.0760     5.4600    -1.0500 H     1 <1>   0.0800 
 47 H        3.8050     6.5340     0.1220 H     1 <1>   0.0800 
 48 H        3.7660     3.5080     0.3040 H     1 <1>   0.0800 
 49 H        4.4890     4.5780     1.4880 H     1 <1>   0.0800 
 50 H        5.1450     4.4880    -0.1290 H     1 <1>   0.0800 
 51 H        3.3220    11.7220    -0.5770 H     1 <1>   0.0800 
 52 H        2.1210    11.1110    -1.7080 H     1 <1>   0.0800 
 53 H        3.7080    10.3360    -1.5900 H     1 <1>   0.0800 
@<TRIPOS>BOND
  1   1   2  2   
  2   2   3  am  
  3   2   4  1   
  4   3   5  1   
  5   3   6  1   
  6   4   7  1   
  7   4  26  1   
  8   4  27  1   
  9   5   8  1   
 10   5   9  1   
 11   5  28  1   
 12   6  29  1   
 13   6  30  1   
 14   6  31  1   
 15   7   9  1   
 16   8  10  ar  
 17   8  11  ar  
 18   9  12  1   
 19   9  32  1   
 20  10  13  ar  
 21  10  14  1   
 22  11  15  ar  
 23  11  33  1   
 24  12  16  2   
 25  12  17  am  
 26  13  18  ar  
 27  13  34  1   
 28  14  35  1   
 29  14  36  1   
 30  14  37  1   
 31  15  18  ar  
 32  15  38  1   
 33  17  19  1   
 34  17  20  1   
 35  18  39  1   
 36  19  21  1   
 37  19  40  1   
 38  19  41  1   
 39  20  22  1   
 40  20  42  1   
 41  20  43  1   
 42  21  23  1   
 43  21  44  1   
 44  21  45  1   
 45  22  24  1   
 46  22  46  1   
 47  22  47  1   
 48  23  25  1   
 49  24  48  1   
 50  24  49  1   
 51  24  50  1   
 52  25  51  1   
 53  25  52  1   
 54  25  53  1   
@<TRIPOS>SUBSTRUCTURE
  1 ****   9 GROUP 4 **** **** 0

# MOE 2024.06 (io_trps.svl 2023.06)
