@<TRIPOS>MOLECULE
NONAME
52 54 1 0 0 
SMALL
USER_CHARGES


@<TRIPOS>ATOM
  1 O        0.1930     1.2610     0.0620 O.2   1 <1>  -0.5700 
  2 C       -0.0420     2.4460     0.0230 C.2   1 <1>   0.5690 
  3 N       -1.0710     3.0160     0.7220 N.am  1 <1>  -0.6600 
  4 C        0.8370     3.3270    -0.8620 C.3   1 <1>   0.1810 
  5 C       -1.3750     4.4810     0.6090 C.3   1 <1>   0.3640 
  6 C       -1.9280     2.2360     1.6620 C.3   1 <1>   0.0600 
  7 O        0.8550     4.6660    -0.4350 O.3   1 <1>  -0.5600 
  8 C       -2.8540     4.7060     0.2500 C.ar  1 <1>  -0.1430 
  9 C       -0.4300     5.2680    -0.3390 C.3   1 <1>   0.2610 
 10 C       -3.5150     4.1090    -0.8300 C.ar  1 <1>  -0.1430 
 11 C       -3.5680     5.5720     1.0710 C.ar  1 <1>  -0.1500 
 12 C       -0.2910     6.7100     0.1630 C.2   1 <1>   0.5690 
 13 C       -4.8580     4.3840    -1.0460 C.ar  1 <1>  -0.1500 
 14 C       -2.8470     3.1440    -1.8030 C.3   1 <1>  -0.0960 
 15 C       -4.9040     5.8410     0.8450 C.ar  1 <1>  -0.1500 
 16 O       -1.2220     7.4730     0.0640 O.2   1 <1>  -0.5700 
 17 N        0.8870     7.1000     0.7200 N.am  1 <1>  -0.7300 
 18 C       -5.5530     5.2440    -0.2170 C.ar  1 <1>  -0.1500 
 19 C        1.2170     8.4490     1.2150 C.3   1 <1>   0.1400 
 20 C        2.4320     8.9700     0.4510 C.3   1 <1>  -0.1600 
 21 C        2.8190    10.3820     0.9100 C.3   1 <1>  -0.0170 
 22 C        4.0630    10.8700     0.1860 C.ar  1 <1>   0.1670 
 23 N        5.2120    10.3430     0.5800 N.ar  1 <1>  -0.6200 
 24 C        3.9490    11.8150    -0.8240 C.ar  1 <1>  -0.1500 
 25 C        6.2890    10.7740    -0.0580 C.ar  1 <1>   0.1600 
 26 C        5.0790    12.2550    -1.4780 C.ar  1 <1>  -0.1500 
 27 C        6.2800    11.7120    -1.0750 C.ar  1 <1>  -0.1500 
 28 H        0.4860     3.2920    -1.8770 H     1 <1>   0.0800 
 29 H        1.8480     2.9620    -0.8320 H     1 <1>   0.0800 
 30 H       -1.2150     4.8870     1.5930 H     1 <1>   0.0800 
 31 H       -1.9330     2.7070     2.6290 H     1 <1>   0.0800 
 32 H       -1.5570     1.2320     1.7710 H     1 <1>   0.0800 
 33 H       -2.9360     2.1900     1.2880 H     1 <1>   0.0800 
 34 H       -0.8500     5.3070    -1.3260 H     1 <1>   0.0800 
 35 H       -3.0860     6.0590     1.9000 H     1 <1>   0.1500 
 36 H       -5.3810     3.9290    -1.8680 H     1 <1>   0.1500 
 37 H       -3.4690     2.9730    -2.6630 H     1 <1>   0.0800 
 38 H       -2.6770     2.1960    -1.3260 H     1 <1>   0.0800 
 39 H       -1.9130     3.5350    -2.1550 H     1 <1>   0.0800 
 40 H       -5.4360     6.5170     1.4910 H     1 <1>   0.1500 
 41 H        1.6560     6.4200     0.6950 H     1 <1>   0.3700 
 42 H       -6.5930     5.4490    -0.3990 H     1 <1>   0.1500 
 43 H        0.3770     9.1090     1.0690 H     1 <1>   0.0800 
 44 H        1.4340     8.3970     2.2690 H     1 <1>   0.0800 
 45 H        3.2660     8.3100     0.6130 H     1 <1>   0.0800 
 46 H        2.2110     8.9910    -0.6020 H     1 <1>   0.0800 
 47 H        3.0210    10.3800     1.9670 H     1 <1>   0.0800 
 48 H        2.0030    11.0590     0.7320 H     1 <1>   0.0800 
 49 H        2.9850    12.2030    -1.1000 H     1 <1>   0.1500 
 50 H        7.2320    10.3550     0.2490 H     1 <1>   0.1500 
 51 H        5.0270    12.9870    -2.2660 H     1 <1>   0.1500 
 52 H        7.2000    12.0100    -1.5430 H     1 <1>   0.1500 
@<TRIPOS>BOND
  1   1   2  2   
  2   2   3  am  
  3   2   4  1   
  4   3   5  1   
  5   3   6  1   
  6   4   7  1   
  7   4  28  1   
  8   4  29  1   
  9   5   8  1   
 10   5   9  1   
 11   5  30  1   
 12   6  31  1   
 13   6  32  1   
 14   6  33  1   
 15   7   9  1   
 16   8  10  ar  
 17   8  11  ar  
 18   9  12  1   
 19   9  34  1   
 20  10  13  ar  
 21  10  14  1   
 22  11  15  ar  
 23  11  35  1   
 24  12  16  2   
 25  12  17  am  
 26  13  18  ar  
 27  13  36  1   
 28  14  37  1   
 29  14  38  1   
 30  14  39  1   
 31  15  18  ar  
 32  15  40  1   
 33  17  19  1   
 34  17  41  1   
 35  18  42  1   
 36  19  20  1   
 37  19  43  1   
 38  19  44  1   
 39  20  21  1   
 40  20  45  1   
 41  20  46  1   
 42  21  22  1   
 43  21  47  1   
 44  21  48  1   
 45  22  23  ar  
 46  22  24  ar  
 47  23  25  ar  
 48  24  26  ar  
 49  24  49  1   
 50  25  27  ar  
 51  25  50  1   
 52  26  27  ar  
 53  26  51  1   
 54  27  52  1   
@<TRIPOS>SUBSTRUCTURE
  1 ****  12 GROUP 4 **** **** 0

# MOE 2024.06 (io_trps.svl 2023.06)
