@<TRIPOS>MOLECULE
NONAME
56 59 1 0 0 
SMALL
USER_CHARGES


@<TRIPOS>ATOM
  1 N        0.6410    -0.8510    -1.6680 N.ar  1 <1>  -0.1790 
  2 C        0.7020     0.1820    -0.7750 C.ar  1 <1>   0.7710 
  3 C        0.5740    -2.1340    -1.2900 C.ar  1 <1>   0.4610 
  4 N        0.6850     0.0180     0.5200 N.ar  1 <1>  -0.5670 
  5 N        0.8410     1.4370    -1.2820 N.pl3 1 <1>  -0.8690 
  6 N        0.5500    -3.1170    -2.2040 N.pl3 1 <1>  -0.9000 
  7 C        0.5380    -2.3520     0.0920 C.ar  1 <1>   0.0000 
  8 C        0.5790    -1.2700     0.9400 C.ar  1 <1>   0.1050 
  9 C        1.6310     2.5430    -0.6230 C.3   1 <1>   0.2090 
 10 C        0.4600    -3.4580     0.9510 C.2   1 <1>   0.1390 
 11 N        0.5010    -1.7650     2.2020 N.pl3 1 <1>   0.3140 
 12 C        2.9150     2.0740     0.1390 C.3   1 <1>   0.5660 
 13 N        0.4410    -3.1170     2.1940 N.2   1 <1>  -0.7070 
 14 C        0.4480    -1.0220     3.4700 C.3   1 <1>   0.0160 
 15 N        3.8370     3.1940     0.5430 N.4   1 <1>  -0.9590 
 16 C        3.6800     0.9860    -0.6240 C.ar  1 <1>  -0.1430 
 17 C        4.4510     3.9340    -0.5930 C.3   1 <1>   0.3430 
 18 C        4.9290     2.6780     1.4180 C.3   1 <1>   0.3430 
 19 C        4.0380    -0.1710     0.0580 C.ar  1 <1>  -0.1500 
 20 C        4.0000     1.0930    -1.9740 C.ar  1 <1>  -0.1500 
 21 C        4.4180     5.4390    -0.3240 C.3   1 <1>  -0.1600 
 22 C        5.4220     3.7560     2.3850 C.3   1 <1>  -0.1600 
 23 C        4.7060    -1.1950    -0.5900 C.ar  1 <1>  -0.1500 
 24 C        4.6700     0.0690    -2.6200 C.ar  1 <1>  -0.1500 
 25 C        4.7850     5.8860     1.1020 C.3   1 <1>  -0.1600 
 26 C        5.9140     5.0680     1.7460 C.3   1 <1>  -0.1600 
 27 C        5.0240    -1.0740    -1.9290 C.ar  1 <1>  -0.1500 
 28 H        0.7320    -0.6130    -2.6450 H     1 <1>   0.4570 
 29 H        0.1190     1.7790    -1.9300 H     1 <1>   0.4000 
 30 H        0.5020    -4.1090    -1.9340 H     1 <1>   0.4000 
 31 H        0.5700    -3.0190    -3.2260 H     1 <1>   0.4000 
 32 H        0.9880     3.0580     0.0710 H     1 <1>   0.0800 
 33 H        1.9150     3.2400    -1.3910 H     1 <1>   0.0800 
 34 H        0.4200    -4.4830     0.6200 H     1 <1>   0.1500 
 35 H        2.5600     1.6180     1.0480 H     1 <1>   0.0800 
 36 H        0.2940     0.0220     3.2770 H     1 <1>   0.0800 
 37 H        1.3700    -1.1680     4.0010 H     1 <1>   0.0800 
 38 H       -0.3650    -1.4020     4.0620 H     1 <1>   0.0800 
 39 H        3.3180     3.8800     1.1030 H     1 <1>   0.4500 
 40 H        3.9270     3.7380    -1.5120 H     1 <1>   0.0800 
 41 H        5.4740     3.6150    -0.7240 H     1 <1>   0.0800 
 42 H        5.7490     2.3240     0.8120 H     1 <1>   0.0800 
 43 H        4.5710     1.8430     2.0000 H     1 <1>   0.0800 
 44 H        3.8010    -0.3000     1.1020 H     1 <1>   0.1500 
 45 H        3.7330     1.9600    -2.5520 H     1 <1>   0.1500 
 46 H        3.4460     5.8270    -0.5740 H     1 <1>   0.0800 
 47 H        5.1120     5.8960    -1.0100 H     1 <1>   0.0800 
 48 H        6.2420     3.3350     2.9420 H     1 <1>   0.0800 
 49 H        4.6500     3.9720     3.1040 H     1 <1>   0.0800 
 50 H        4.9860    -2.0870    -0.0530 H     1 <1>   0.1500 
 51 H        4.9260     0.1590    -3.6640 H     1 <1>   0.1500 
 52 H        3.9160     5.8660     1.7380 H     1 <1>   0.0800 
 53 H        5.0980     6.9170     1.0520 H     1 <1>   0.0800 
 54 H        6.7010     4.8780     1.0350 H     1 <1>   0.0800 
 55 H        6.3460     5.6670     2.5320 H     1 <1>   0.0800 
 56 H        5.5520    -1.8680    -2.4320 H     1 <1>   0.1500 
@<TRIPOS>BOND
  1   1   2  ar  
  2   1   3  ar  
  3   1  28  1   
  4   2   4  ar  
  5   2   5  1   
  6   3   6  1   
  7   3   7  ar  
  8   4   8  ar  
  9   5   9  1   
 10   5  29  1   
 11   6  30  1   
 12   6  31  1   
 13   7   8  ar  
 14   7  10  1   
 15   8  11  1   
 16   9  12  1   
 17   9  32  1   
 18   9  33  1   
 19  10  13  2   
 20  10  34  1   
 21  11  13  1   
 22  11  14  1   
 23  12  15  1   
 24  12  16  1   
 25  12  35  1   
 26  14  36  1   
 27  14  37  1   
 28  14  38  1   
 29  15  17  1   
 30  15  18  1   
 31  15  39  1   
 32  16  19  ar  
 33  16  20  ar  
 34  17  21  1   
 35  17  40  1   
 36  17  41  1   
 37  18  22  1   
 38  18  42  1   
 39  18  43  1   
 40  19  23  ar  
 41  19  44  1   
 42  20  24  ar  
 43  20  45  1   
 44  21  25  1   
 45  21  46  1   
 46  21  47  1   
 47  22  26  1   
 48  22  48  1   
 49  22  49  1   
 50  23  27  ar  
 51  23  50  1   
 52  24  27  ar  
 53  24  51  1   
 54  25  26  1   
 55  25  52  1   
 56  25  53  1   
 57  26  54  1   
 58  26  55  1   
 59  27  56  1   
@<TRIPOS>SUBSTRUCTURE
  1 ****  16 GROUP 4 **** **** 0

# MOE 2024.06 (io_trps.svl 2023.06)
