@<TRIPOS>MOLECULE
NONAME
46 49 1 0 0 
SMALL
USER_CHARGES


@<TRIPOS>ATOM
  1 O        0.6110     1.7160    -1.1840 O.2   1 <1>  -0.5700 
  2 C        0.0560     2.7900    -1.1730 C.2   1 <1>   0.5690 
  3 N       -0.6100     3.2900    -0.0850 N.am  1 <1>  -0.5090 
  4 C        0.1040     3.6390    -2.4370 C.3   1 <1>   0.1810 
  5 C       -1.2730     4.6340    -0.1380 C.3   1 <1>   0.3640 
  6 C       -0.4800     2.6730     1.2600 C.3   1 <1>   0.0490 
  7 O        0.2160     5.0000    -2.1150 O.3   1 <1>  -0.5600 
  8 C       -2.7930     4.4720    -0.1400 C.ar  1 <1>  -0.1440 
  9 C       -0.8640     5.5210    -1.3530 C.3   1 <1>   0.2610 
 10 C       -0.9030     1.2490     1.4400 C.3   1 <1>  -0.2000 
 11 C       -1.6930     2.3450     2.0780 C.3   1 <1>  -0.2000 
 12 C       -3.4180     3.4520    -0.8480 C.ar  1 <1>   0.1600 
 13 C       -3.5830     5.3610     0.5640 C.ar  1 <1>  -0.1500 
 14 C       -0.5360     6.9380    -0.8660 C.2   1 <1>   0.5690 
 15 N       -4.7250     3.2630    -0.9170 N.ar  1 <1>  -0.6200 
 16 C       -4.9470     5.1740     0.5090 C.ar  1 <1>  -0.1500 
 17 O       -1.3310     7.5280    -0.1730 O.2   1 <1>  -0.5700 
 18 N        0.6450     7.5060    -1.2140 N.am  1 <1>  -0.7300 
 19 C       -5.4590     4.1270    -0.2360 C.ar  1 <1>   0.1600 
 20 C        1.1310     8.8290    -0.7800 C.3   1 <1>   0.3200 
 21 C        2.5880     8.7160    -0.3850 C.2   1 <1>  -0.0400 
 22 O        3.4850     8.4280    -1.2900 O.3   1 <1>  -0.0190 
 23 C        3.2190     8.8570     0.7910 C.2   1 <1>  -0.1500 
 24 N        4.6820     8.3680    -0.7840 N.2   1 <1>  -0.4100 
 25 C        4.5530     8.6220     0.4690 C.2   1 <1>   0.1080 
 26 C        5.7020     8.6570     1.4520 C.3   1 <1>  -0.0590 
 27 H       -0.7810     3.4870    -3.0260 H     1 <1>   0.0800 
 28 H        0.9670     3.3670    -3.0180 H     1 <1>   0.0800 
 29 H       -0.9980     5.1540     0.7640 H     1 <1>   0.0800 
 30 H        0.4130     2.9940     1.7700 H     1 <1>   0.1000 
 31 H       -1.7010     5.6060    -2.0220 H     1 <1>   0.0800 
 32 H       -1.3200     0.7270     0.5960 H     1 <1>   0.1000 
 33 H       -0.3050     0.6110     2.0660 H     1 <1>   0.1000 
 34 H       -1.6390     2.4430     3.1480 H     1 <1>   0.1000 
 35 H       -2.6870     2.5080     1.7030 H     1 <1>   0.1000 
 36 H       -2.8160     2.7430    -1.3900 H     1 <1>   0.1500 
 37 H       -3.1630     6.1740     1.1330 H     1 <1>   0.1500 
 38 H       -5.6110     5.8360     1.0360 H     1 <1>   0.1500 
 39 H        1.3040     6.9520    -1.7730 H     1 <1>   0.3700 
 40 H       -6.5270     3.9920    -0.2730 H     1 <1>   0.1500 
 41 H        1.0290     9.5310    -1.5890 H     1 <1>   0.0800 
 42 H        0.5510     9.1790     0.0560 H     1 <1>   0.0800 
 43 H        2.8260     9.0900     1.7630 H     1 <1>   0.1500 
 44 H        5.6960     9.5860     1.9900 H     1 <1>   0.0800 
 45 H        6.6360     8.5650     0.9270 H     1 <1>   0.0800 
 46 H        5.6120     7.8420     2.1460 H     1 <1>   0.0800 
@<TRIPOS>BOND
  1   1   2  2   
  2   2   3  am  
  3   2   4  1   
  4   3   5  1   
  5   3   6  1   
  6   4   7  1   
  7   4  27  1   
  8   4  28  1   
  9   5   8  1   
 10   5   9  1   
 11   5  29  1   
 12   6  10  1   
 13   6  11  1   
 14   6  30  1   
 15   7   9  1   
 16   8  12  ar  
 17   8  13  ar  
 18   9  14  1   
 19   9  31  1   
 20  10  11  1   
 21  10  32  1   
 22  10  33  1   
 23  11  34  1   
 24  11  35  1   
 25  12  15  ar  
 26  12  36  1   
 27  13  16  ar  
 28  13  37  1   
 29  14  17  2   
 30  14  18  am  
 31  15  19  ar  
 32  16  19  ar  
 33  16  38  1   
 34  18  20  1   
 35  18  39  1   
 36  19  40  1   
 37  20  21  1   
 38  20  41  1   
 39  20  42  1   
 40  21  22  1   
 41  21  23  2   
 42  22  24  1   
 43  23  25  1   
 44  23  43  1   
 45  24  25  2   
 46  25  26  1   
 47  26  44  1   
 48  26  45  1   
 49  26  46  1   
@<TRIPOS>SUBSTRUCTURE
  1 ****   9 GROUP 4 **** **** 0

# MOE 2024.06 (io_trps.svl 2023.06)
