@<TRIPOS>MOLECULE
NONAME
50 53 1 0 0 
SMALL
USER_CHARGES


@<TRIPOS>ATOM
  1 O        1.2710     0.8930     0.3010 O.3   1 <1>  -0.3630 
  2 C        1.9500    -0.1600    -0.2380 C.ar  1 <1>   0.0830 
  3 C       -0.1160     0.8630     0.5530 C.3   1 <1>   0.0400 
  4 C        1.4810    -1.4720    -0.4190 C.ar  1 <1>   0.0830 
  5 C        3.2410     0.1450    -0.6330 C.ar  1 <1>  -0.1500 
  6 O        0.2460    -1.8770    -0.0560 O.3   1 <1>  -0.5330 
  7 C        2.3090    -2.4240    -0.9940 C.ar  1 <1>  -0.1500 
  8 C        4.0830    -0.8120    -1.1760 C.ar  1 <1>  -0.1440 
  9 C        3.6000    -2.0980    -1.3720 C.ar  1 <1>  -0.1500 
 10 C        5.5070    -0.4330    -1.5580 C.3   1 <1>   0.4860 
 11 N        6.4750    -0.7570    -0.4630 N.4   1 <1>  -0.8520 
 12 C        6.4920    -2.1840    -0.1180 C.3   1 <1>   0.2960 
 13 C        6.2510     0.0690     0.7530 C.3   1 <1>   0.4860 
 14 C        7.7620    -2.7610     0.4050 C.3   1 <1>  -0.2000 
 15 C        7.2890    -3.1030    -0.9780 C.3   1 <1>  -0.2000 
 16 C        6.6290     1.5040     0.4400 C.ar  1 <1>  -0.1430 
 17 C        7.8810     1.8220    -0.0470 C.ar  1 <1>  -0.1500 
 18 C        5.6860     2.5220     0.6540 C.ar  1 <1>  -0.1500 
 19 C        8.1880     3.1480    -0.3600 C.ar  1 <1>   0.0000 
 20 C        5.9790     3.8300     0.3510 C.ar  1 <1>  -0.1500 
 21 C        7.2380     4.1430    -0.1660 C.ar  1 <1>  -0.1520 
 22 C        9.3360     3.7850    -0.8720 C.2   1 <1>  -0.1500 
 23 N        7.7840     5.3460    -0.5500 N.pl3 1 <1>   0.0480 
 24 C        9.0590     5.1060    -0.9750 C.2   1 <1>  -0.3020 
 25 C        7.1230     6.6600    -0.4950 C.3   1 <1>   0.0160 
 26 H       -0.4260     1.8480     0.8510 H     1 <1>   0.0800 
 27 H       -0.3110     0.1640     1.3470 H     1 <1>   0.0800 
 28 H       -0.6290     0.5730    -0.3470 H     1 <1>   0.0800 
 29 H        3.5660     1.1610    -0.5130 H     1 <1>   0.1500 
 30 H        0.0630    -2.8090    -0.2690 H     1 <1>   0.4500 
 31 H        1.9520    -3.4260    -1.1500 H     1 <1>   0.1500 
 32 H        4.2160    -2.8590    -1.8220 H     1 <1>   0.1500 
 33 H        5.5470     0.6220    -1.7780 H     1 <1>   0.0800 
 34 H        5.7830    -0.9670    -2.4530 H     1 <1>   0.0800 
 35 H        7.4050    -0.5040    -0.8060 H     1 <1>   0.4500 
 36 H        5.5590    -2.5430     0.2940 H     1 <1>   0.1000 
 37 H        6.8710    -0.2870     1.5600 H     1 <1>   0.0800 
 38 H        5.2210     0.0090     1.0630 H     1 <1>   0.0800 
 39 H        7.7160    -3.5350     1.1520 H     1 <1>   0.1000 
 40 H        8.6390    -2.1460     0.5060 H     1 <1>   0.1000 
 41 H        7.8450    -2.7190    -1.8160 H     1 <1>   0.1000 
 42 H        6.9320    -4.1050    -1.1470 H     1 <1>   0.1000 
 43 H        8.6540     1.0900    -0.1960 H     1 <1>   0.1500 
 44 H        4.7180     2.2890     1.0670 H     1 <1>   0.1500 
 45 H        5.2560     4.6120     0.5110 H     1 <1>   0.1500 
 46 H       10.2540     3.2820    -1.1240 H     1 <1>   0.1500 
 47 H        9.7000     5.8950    -1.3270 H     1 <1>   0.1500 
 48 H        6.2440     6.6410    -1.1120 H     1 <1>   0.0800 
 49 H        7.7960     7.4170    -0.8520 H     1 <1>   0.0800 
 50 H        6.8480     6.8750     0.5210 H     1 <1>   0.0800 
@<TRIPOS>BOND
  1   1   2  1   
  2   1   3  1   
  3   2   4  ar  
  4   2   5  ar  
  5   3  26  1   
  6   3  27  1   
  7   3  28  1   
  8   4   6  1   
  9   4   7  ar  
 10   5   8  ar  
 11   5  29  1   
 12   6  30  1   
 13   7   9  ar  
 14   7  31  1   
 15   8   9  ar  
 16   8  10  1   
 17   9  32  1   
 18  10  11  1   
 19  10  33  1   
 20  10  34  1   
 21  11  12  1   
 22  11  13  1   
 23  11  35  1   
 24  12  14  1   
 25  12  15  1   
 26  12  36  1   
 27  13  16  1   
 28  13  37  1   
 29  13  38  1   
 30  14  15  1   
 31  14  39  1   
 32  14  40  1   
 33  15  41  1   
 34  15  42  1   
 35  16  17  ar  
 36  16  18  ar  
 37  17  19  ar  
 38  17  43  1   
 39  18  20  ar  
 40  18  44  1   
 41  19  21  ar  
 42  19  22  1   
 43  20  21  ar  
 44  20  45  1   
 45  21  23  1   
 46  22  24  2   
 47  22  46  1   
 48  23  24  1   
 49  23  25  1   
 50  24  47  1   
 51  25  48  1   
 52  25  49  1   
 53  25  50  1   
@<TRIPOS>SUBSTRUCTURE
  1 ****  13 GROUP 4 **** **** 0

# MOE 2024.06 (io_trps.svl 2023.06)
