@<TRIPOS>MOLECULE
NONAME
46 48 1 0 0 
SMALL
USER_CHARGES


@<TRIPOS>ATOM
  1 F       -1.5820     1.7280    -0.4940 F     1 <1>  -0.3400 
  2 C       -1.2820     3.0130    -0.6240 C.3   1 <1>   0.8800 
  3 F       -1.3150     3.2650    -1.9260 F     1 <1>  -0.3400 
  4 O        0.0350     3.2010    -0.1610 O.3   1 <1>  -0.3630 
  5 C        0.5420     4.4360     0.0510 C.ar  1 <1>   0.0830 
  6 C       -0.0860     5.6190    -0.3290 C.ar  1 <1>  -0.1500 
  7 C        1.7660     4.5040     0.6960 C.ar  1 <1>  -0.1500 
  8 C        0.5120     6.8370    -0.0620 C.ar  1 <1>  -0.1500 
  9 C        2.3560     5.7260     0.9600 C.ar  1 <1>  -0.1500 
 10 C        1.7490     6.9260     0.5810 C.ar  1 <1>   0.0860 
 11 C        2.3700     8.2130     0.8420 C.2   1 <1>   0.5440 
 12 O        1.7010     9.2270     0.9390 O.2   1 <1>  -0.5700 
 13 N        3.7330     8.3670     0.9300 N.am  1 <1>  -0.6600 
 14 C        4.3210     9.3790     1.8850 C.3   1 <1>   0.1400 
 15 C        4.6230     7.8640    -0.1610 C.3   1 <1>   0.1400 
 16 C        4.6850    10.7250     1.2090 C.3   1 <1>   0.4230 
 17 C        5.2220     8.9680    -1.0720 C.3   1 <1>  -0.0800 
 18 N        3.8380    10.8700    -0.0300 N.4   1 <1>  -0.9590 
 19 C        6.2180    10.8510     1.0070 C.3   1 <1>   0.1200 
 20 C        6.6750     9.3130    -0.7150 C.3   1 <1>   0.1200 
 21 C        4.3960    10.2540    -1.2720 C.3   1 <1>   0.3430 
 22 C        3.4810    12.3280    -0.2810 C.3   1 <1>   0.2370 
 23 O        6.8020     9.6350     0.6260 O.3   1 <1>  -0.5600 
 24 C        4.6820    13.2500    -0.4960 C.2   1 <1>   0.9060 
 25 O        5.2100    13.2630    -1.6120 O.co2 1 <1>  -0.9000 
 26 O        5.1670    13.7990     0.4960 O.co2 1 <1>  -0.9000 
 27 H       -2.0060     3.6140    -0.1040 H     1 <1>   0.0800 
 28 H       -1.0320     5.6180    -0.8400 H     1 <1>   0.1500 
 29 H        2.2510     3.5900     0.9930 H     1 <1>   0.1500 
 30 H        0.0140     7.7450    -0.3570 H     1 <1>   0.1500 
 31 H        3.3020     5.7520     1.4720 H     1 <1>   0.1500 
 32 H        3.5990     9.5840     2.6570 H     1 <1>   0.0800 
 33 H        5.1810     8.9560     2.3760 H     1 <1>   0.0800 
 34 H        5.4190     7.2870     0.2790 H     1 <1>   0.0800 
 35 H        4.0570     7.1930    -0.7840 H     1 <1>   0.0800 
 36 H        4.4110    11.5160     1.8870 H     1 <1>   0.0800 
 37 H        5.2950     8.5320    -2.0510 H     1 <1>   0.0800 
 38 H        2.9740    10.3440     0.2080 H     1 <1>   0.4500 
 39 H        6.6610    11.1160     1.9500 H     1 <1>   0.0800 
 40 H        6.4860    11.6180     0.3020 H     1 <1>   0.0800 
 41 H        7.0490    10.1340    -1.3080 H     1 <1>   0.0800 
 42 H        7.3070     8.4590    -0.8890 H     1 <1>   0.0800 
 43 H        3.5760    10.0390    -1.9370 H     1 <1>   0.0800 
 44 H        5.0230    10.9770    -1.7710 H     1 <1>   0.0800 
 45 H        2.8570    12.4060    -1.1520 H     1 <1>   0.0800 
 46 H        2.9350    12.7150     0.5600 H     1 <1>   0.0800 
@<TRIPOS>BOND
  1   1   2  1   
  2   2   3  1   
  3   2   4  1   
  4   2  27  1   
  5   4   5  1   
  6   5   6  ar  
  7   5   7  ar  
  8   6   8  ar  
  9   6  28  1   
 10   7   9  ar  
 11   7  29  1   
 12   8  10  ar  
 13   8  30  1   
 14   9  10  ar  
 15   9  31  1   
 16  10  11  1   
 17  11  12  2   
 18  11  13  am  
 19  13  14  1   
 20  13  15  1   
 21  14  16  1   
 22  14  32  1   
 23  14  33  1   
 24  15  17  1   
 25  15  34  1   
 26  15  35  1   
 27  16  18  1   
 28  16  19  1   
 29  16  36  1   
 30  17  20  1   
 31  17  21  1   
 32  17  37  1   
 33  18  21  1   
 34  18  22  1   
 35  18  38  1   
 36  19  23  1   
 37  19  39  1   
 38  19  40  1   
 39  20  23  1   
 40  20  41  1   
 41  20  42  1   
 42  21  43  1   
 43  21  44  1   
 44  22  24  1   
 45  22  45  1   
 46  22  46  1   
 47  24  25  ar  
 48  24  26  ar  
@<TRIPOS>SUBSTRUCTURE
  1 ****  11 GROUP 4 **** **** 0

# MOE 2024.06 (io_trps.svl 2023.06)
