@<TRIPOS>MOLECULE
NONAME
49 51 1 0 0 
SMALL
USER_CHARGES


@<TRIPOS>ATOM
  1 O       -0.6900     0.9310    -1.0650 O.2   1 <1>  -0.5700 
  2 C       -0.5660     2.0390    -0.6080 C.2   1 <1>   0.5690 
  3 N       -1.5830     2.6280     0.0570 N.am  1 <1>  -0.7300 
  4 C        0.7420     2.8100    -0.8070 C.3   1 <1>   0.1810 
  5 C       -1.4960     3.9800     0.6610 C.3   1 <1>   0.3640 
  6 O        0.8910     3.8910     0.0880 O.3   1 <1>  -0.5600 
  7 C       -2.7650     4.7530     0.3080 C.ar  1 <1>  -0.1440 
  8 C       -0.2380     4.7500     0.1780 C.3   1 <1>   0.2610 
  9 C       -3.2650     4.7650    -0.9870 C.ar  1 <1>  -0.1500 
 10 C       -3.4340     5.4720     1.2850 C.ar  1 <1>  -0.1500 
 11 C        0.0680     5.9670     1.0730 C.2   1 <1>   0.5690 
 12 C       -4.4070     5.4760    -1.3160 C.ar  1 <1>   0.0830 
 13 C       -4.5730     6.1950     0.9740 C.ar  1 <1>  -0.1500 
 14 O       -0.4200     6.0040     2.1830 O.2   1 <1>  -0.5700 
 15 N        0.8660     6.9970     0.6200 N.am  1 <1>  -0.6600 
 16 O       -4.7770     5.3840    -2.6250 O.3   1 <1>  -0.3620 
 17 C       -5.0720     6.2180    -0.3260 C.ar  1 <1>   0.0830 
 18 C        1.6520     6.9740    -0.6460 C.3   1 <1>   0.1400 
 19 C        1.1290     8.2000     1.4600 C.3   1 <1>   0.1400 
 20 C       -6.1360     5.4160    -3.0010 C.3   1 <1>   0.0400 
 21 O       -6.1730     6.9570    -0.6490 O.3   1 <1>  -0.3630 
 22 C        3.1480     7.0220    -0.3190 C.3   1 <1>  -0.1600 
 23 C        2.6190     8.2670     1.8110 C.3   1 <1>  -0.1600 
 24 C       -6.7370     7.8900     0.2470 C.3   1 <1>   0.0400 
 25 C        3.4980     8.2360     0.5530 C.3   1 <1>  -0.1600 
 26 H       -2.4620     2.1220     0.1710 H     1 <1>   0.3700 
 27 H        0.7810     3.1920    -1.8100 H     1 <1>   0.0800 
 28 H        1.5720     2.1440    -0.6550 H     1 <1>   0.0800 
 29 H       -1.4420     3.8540     1.7290 H     1 <1>   0.0800 
 30 H       -0.4400     5.1190    -0.8100 H     1 <1>   0.0800 
 31 H       -2.7720     4.2140    -1.7680 H     1 <1>   0.1500 
 32 H       -3.0650     5.4830     2.2980 H     1 <1>   0.1500 
 33 H       -5.0510     6.7360     1.7670 H     1 <1>   0.1500 
 34 H        1.4490     6.0910    -1.2230 H     1 <1>   0.0800 
 35 H        1.3820     7.8300    -1.2400 H     1 <1>   0.0800 
 36 H        0.8410     9.0800     0.9110 H     1 <1>   0.0800 
 37 H        0.5470     8.1720     2.3660 H     1 <1>   0.0800 
 38 H       -6.2250     4.9700    -3.9750 H     1 <1>   0.0800 
 39 H       -6.4610     6.4400    -3.0400 H     1 <1>   0.0800 
 40 H       -6.7140     4.8590    -2.2850 H     1 <1>   0.0800 
 41 H        3.4180     6.1160     0.1960 H     1 <1>   0.0800 
 42 H        3.7120     7.0600    -1.2340 H     1 <1>   0.0800 
 43 H        2.8130     9.1660     2.3680 H     1 <1>   0.0800 
 44 H        2.8600     7.4310     2.4440 H     1 <1>   0.0800 
 45 H       -7.5250     8.4110    -0.2670 H     1 <1>   0.0800 
 46 H       -5.9770     8.5870     0.5510 H     1 <1>   0.0800 
 47 H       -7.1410     7.3630     1.0930 H     1 <1>   0.0800 
 48 H        3.3430     9.1400    -0.0130 H     1 <1>   0.0800 
 49 H        4.5360     8.1950     0.8360 H     1 <1>   0.0800 
@<TRIPOS>BOND
  1   1   2  2   
  2   2   3  am  
  3   2   4  1   
  4   3   5  1   
  5   3  26  1   
  6   4   6  1   
  7   4  27  1   
  8   4  28  1   
  9   5   7  1   
 10   5   8  1   
 11   5  29  1   
 12   6   8  1   
 13   7   9  ar  
 14   7  10  ar  
 15   8  11  1   
 16   8  30  1   
 17   9  12  ar  
 18   9  31  1   
 19  10  13  ar  
 20  10  32  1   
 21  11  14  2   
 22  11  15  am  
 23  12  16  1   
 24  12  17  ar  
 25  13  17  ar  
 26  13  33  1   
 27  15  18  1   
 28  15  19  1   
 29  16  20  1   
 30  17  21  1   
 31  18  22  1   
 32  18  34  1   
 33  18  35  1   
 34  19  23  1   
 35  19  36  1   
 36  19  37  1   
 37  20  38  1   
 38  20  39  1   
 39  20  40  1   
 40  21  24  1   
 41  22  25  1   
 42  22  41  1   
 43  22  42  1   
 44  23  25  1   
 45  23  43  1   
 46  23  44  1   
 47  24  45  1   
 48  24  46  1   
 49  24  47  1   
 50  25  48  1   
 51  25  49  1   
@<TRIPOS>SUBSTRUCTURE
  1 ****   8 GROUP 4 **** **** 0

# MOE 2024.06 (io_trps.svl 2023.06)
