@<TRIPOS>MOLECULE
NONAME
50 52 1 0 0 
SMALL
USER_CHARGES


@<TRIPOS>ATOM
  1 S       -0.1380    -0.3470    -1.1710 S.3   1 <1>  -0.0800 
  2 C        0.1420    -1.5990     0.0200 C.2   1 <1>   0.4340 
  3 C        1.0400     0.6310    -0.3390 C.2   1 <1>  -0.1100 
  4 S       -0.7880    -3.1200    -0.1270 S.3   1 <1>  -0.2860 
  5 N        0.9980    -1.3230     0.9200 N.2   1 <1>  -0.5650 
  6 C        1.5120    -0.0540     0.7160 C.2   1 <1>   0.0460 
  7 C       -1.9120    -2.8760    -1.5850 C.3   1 <1>   0.1310 
  8 C        2.5510     0.4250     1.7060 C.3   1 <1>  -0.0590 
  9 C       -2.7870    -4.1040    -1.8000 C.2   1 <1>   0.5690 
 10 O       -2.5310    -4.7880    -2.7640 O.2   1 <1>  -0.5700 
 11 N       -3.8460    -4.3980    -0.9710 N.am  1 <1>  -0.6600 
 12 C       -4.6700    -5.6230    -1.1930 C.3   1 <1>   0.1400 
 13 C       -4.2820    -3.5530     0.1750 C.3   1 <1>   0.1400 
 14 C       -6.1270    -5.2870    -1.5460 C.3   1 <1>   0.1400 
 15 C       -5.4650    -2.6880    -0.2650 C.3   1 <1>  -0.1600 
 16 N       -6.8950    -4.8150    -0.3470 N.am  1 <1>  -0.6600 
 17 C       -6.8390    -3.3430    -0.0610 C.3   1 <1>   0.1400 
 18 C       -7.7080    -5.6160     0.4270 C.2   1 <1>   0.5690 
 19 O       -8.2880    -5.1660     1.3880 O.2   1 <1>  -0.5700 
 20 C       -7.9270    -7.0960     0.1040 C.3   1 <1>  -0.0190 
 21 C       -9.1070    -7.7430     0.8580 C.3   1 <1>   0.1400 
 22 C       -6.7180    -7.9990     0.4190 C.3   1 <1>  -0.0990 
 23 N       -8.6760    -9.1390     1.0410 N.am  1 <1>  -0.6600 
 24 C       -7.3520    -9.2990     0.8200 C.2   1 <1>   0.5690 
 25 C       -9.6120   -10.1740     1.5400 C.3   1 <1>   0.0600 
 26 O       -6.7310   -10.3280     0.9180 O.2   1 <1>  -0.5700 
 27 H        1.2520     1.6090    -0.7300 H     1 <1>   0.1500 
 28 H       -1.2860    -2.7170    -2.4430 H     1 <1>   0.0800 
 29 H       -2.5130    -2.0070    -1.3990 H     1 <1>   0.0800 
 30 H        2.8820     1.4160     1.4570 H     1 <1>   0.0800 
 31 H        3.3950    -0.2410     1.6930 H     1 <1>   0.0800 
 32 H        2.1310     0.4320     2.6950 H     1 <1>   0.0800 
 33 H       -4.6350    -6.2350    -0.3090 H     1 <1>   0.0800 
 34 H       -4.2530    -6.2040    -1.9970 H     1 <1>   0.0800 
 35 H       -3.4780    -2.9190     0.5000 H     1 <1>   0.0800 
 36 H       -4.5560    -4.1750     1.0110 H     1 <1>   0.0800 
 37 H       -6.5870    -6.1630    -1.9610 H     1 <1>   0.0800 
 38 H       -6.1440    -4.5340    -2.3150 H     1 <1>   0.0800 
 39 H       -5.3480    -2.3940    -1.2930 H     1 <1>   0.0800 
 40 H       -5.4580    -1.7840     0.3170 H     1 <1>   0.0800 
 41 H       -7.5660    -2.8430    -0.6770 H     1 <1>   0.0800 
 42 H       -7.1250    -3.1720     0.9640 H     1 <1>   0.0800 
 43 H       -8.1660    -7.1850    -0.9380 H     1 <1>   0.0800 
 44 H      -10.0160    -7.6880     0.2840 H     1 <1>   0.0800 
 45 H       -9.2620    -7.3030     1.8290 H     1 <1>   0.0800 
 46 H       -6.1530    -7.6210     1.2510 H     1 <1>   0.0800 
 47 H       -6.0820    -8.1430    -0.4340 H     1 <1>   0.0800 
 48 H      -10.4220   -10.2990     0.8430 H     1 <1>   0.0800 
 49 H      -10.0040    -9.8780     2.4970 H     1 <1>   0.0800 
 50 H       -9.0950   -11.1120     1.6490 H     1 <1>   0.0800 
@<TRIPOS>BOND
  1   1   2  1   
  2   1   3  1   
  3   2   4  1   
  4   2   5  2   
  5   3   6  2   
  6   3  27  1   
  7   4   7  1   
  8   5   6  1   
  9   6   8  1   
 10   7   9  1   
 11   7  28  1   
 12   7  29  1   
 13   8  30  1   
 14   8  31  1   
 15   8  32  1   
 16   9  10  2   
 17   9  11  am  
 18  11  12  1   
 19  11  13  1   
 20  12  14  1   
 21  12  33  1   
 22  12  34  1   
 23  13  15  1   
 24  13  35  1   
 25  13  36  1   
 26  14  16  1   
 27  14  37  1   
 28  14  38  1   
 29  15  17  1   
 30  15  39  1   
 31  15  40  1   
 32  16  17  1   
 33  16  18  am  
 34  17  41  1   
 35  17  42  1   
 36  18  19  2   
 37  18  20  1   
 38  20  21  1   
 39  20  22  1   
 40  20  43  1   
 41  21  23  1   
 42  21  44  1   
 43  21  45  1   
 44  22  24  1   
 45  22  46  1   
 46  22  47  1   
 47  23  24  am  
 48  23  25  1   
 49  24  26  2   
 50  25  48  1   
 51  25  49  1   
 52  25  50  1   
@<TRIPOS>SUBSTRUCTURE
  1 ****  11 GROUP 4 **** **** 0

# MOE 2024.06 (io_trps.svl 2023.06)
