@<TRIPOS>MOLECULE
NONAME
42 45 1 0 0 
SMALL
USER_CHARGES


@<TRIPOS>ATOM
  1 O       -0.1780    -0.5400    -0.9500 O.2   1 <1>  -0.5700 
  2 C       -0.7850    -1.4560    -0.4240 C.2   1 <1>   0.6900 
  3 N       -0.8680    -2.7190    -0.8830 N.am  1 <1>  -0.5390 
  4 N       -1.4860    -1.3740     0.7270 N.am  1 <1>  -0.5390 
  5 C       -1.6400    -3.4800     0.0090 C.2   1 <1>   0.1230 
  6 C       -2.0030    -2.6240     0.9970 C.2   1 <1>  -0.0410 
  7 C       -1.9160    -4.8890    -0.1810 C.2   1 <1>   0.6160 
  8 O       -1.2540    -5.5360    -0.9750 O.2   1 <1>  -0.5700 
  9 N       -2.9290    -5.5310     0.4960 N.am  1 <1>  -0.6600 
 10 C       -2.9340    -7.0230     0.6380 C.3   1 <1>   0.1400 
 11 C       -4.3010    -4.9460     0.5940 C.3   1 <1>   0.1400 
 12 C       -3.9890    -7.6660    -0.2810 C.3   1 <1>   0.3430 
 13 C       -5.2880    -5.7040    -0.3190 C.3   1 <1>   0.2950 
 14 O       -5.2430    -7.0750    -0.0550 O.3   1 <1>  -0.5600 
 15 C       -4.0750    -9.1680    -0.0260 C.ar  1 <1>  -0.1430 
 16 C       -6.7280    -5.2370    -0.0920 C.3   1 <1>  -0.1950 
 17 C       -3.2780   -10.0330    -0.7640 C.ar  1 <1>  -0.1500 
 18 C       -4.9240    -9.6930     0.9390 C.ar  1 <1>  -0.1500 
 19 C       -7.7770    -5.4270    -1.1420 C.3   1 <1>  -0.2000 
 20 C       -7.2780    -4.0470    -0.8170 C.3   1 <1>  -0.2000 
 21 C       -3.3270   -11.3980    -0.5390 C.ar  1 <1>  -0.1500 
 22 C       -4.9740   -11.0580     1.1650 C.ar  1 <1>  -0.1500 
 23 C       -4.1750   -11.9110     0.4260 C.ar  1 <1>  -0.1500 
 24 H       -0.3690    -3.0690    -1.7000 H     1 <1>   0.3700 
 25 H       -1.5380    -0.5040     1.2580 H     1 <1>   0.3700 
 26 H       -2.5880    -2.8270     1.8790 H     1 <1>   0.1500 
 27 H       -1.9650    -7.4280     0.4020 H     1 <1>   0.0800 
 28 H       -3.1540    -7.2830     1.6580 H     1 <1>   0.0800 
 29 H       -4.6410    -5.0070     1.6130 H     1 <1>   0.0800 
 30 H       -4.2950    -3.9110     0.3040 H     1 <1>   0.0800 
 31 H       -3.7220    -7.4960    -1.3100 H     1 <1>   0.0800 
 32 H       -5.0200    -5.5530    -1.3510 H     1 <1>   0.0800 
 33 H       -7.0380    -5.3720     0.9300 H     1 <1>   0.1000 
 34 H       -2.6130    -9.6480    -1.5170 H     1 <1>   0.1500 
 35 H       -5.5530    -9.0380     1.5170 H     1 <1>   0.1500 
 36 H       -7.4950    -5.8840    -2.0750 H     1 <1>   0.1000 
 37 H       -8.7660    -5.7150    -0.8280 H     1 <1>   0.1000 
 38 H       -7.9360    -3.3750    -0.2930 H     1 <1>   0.1000 
 39 H       -6.6780    -3.5420    -1.5540 H     1 <1>   0.1000 
 40 H       -2.7060   -12.0600    -1.1160 H     1 <1>   0.1500 
 41 H       -5.6360   -11.4540     1.9140 H     1 <1>   0.1500 
 42 H       -4.2140   -12.9720     0.6000 H     1 <1>   0.1500 
@<TRIPOS>BOND
  1   1   2  2   
  2   2   3  am  
  3   2   4  am  
  4   3   5  1   
  5   3  24  1   
  6   4   6  1   
  7   4  25  1   
  8   5   6  2   
  9   5   7  1   
 10   6  26  1   
 11   7   8  2   
 12   7   9  am  
 13   9  10  1   
 14   9  11  1   
 15  10  12  1   
 16  10  27  1   
 17  10  28  1   
 18  11  13  1   
 19  11  29  1   
 20  11  30  1   
 21  12  14  1   
 22  12  15  1   
 23  12  31  1   
 24  13  14  1   
 25  13  16  1   
 26  13  32  1   
 27  15  17  ar  
 28  15  18  ar  
 29  16  19  1   
 30  16  20  1   
 31  16  33  1   
 32  17  21  ar  
 33  17  34  1   
 34  18  22  ar  
 35  18  35  1   
 36  19  20  1   
 37  19  36  1   
 38  19  37  1   
 39  20  38  1   
 40  20  39  1   
 41  21  23  ar  
 42  21  40  1   
 43  22  23  ar  
 44  22  41  1   
 45  23  42  1   
@<TRIPOS>SUBSTRUCTURE
  1 ****   9 GROUP 4 **** **** 0

# MOE 2024.06 (io_trps.svl 2023.06)
