@<TRIPOS>MOLECULE
NONAME
46 47 1 0 0 
SMALL
USER_CHARGES


@<TRIPOS>ATOM
  1 CL      -0.5020     1.4910     2.3330 Cl    1 <1>  -0.1230 
  2 C        0.7270     2.6270     1.8060 C.2   1 <1>   0.1230 
  3 C        0.7380     3.9890     2.0610 C.2   1 <1>   0.1390 
  4 C        1.8320     2.3640     1.0860 C.2   1 <1>  -0.3020 
  5 N        1.7870     4.5560     1.5330 N.2   1 <1>  -0.7070 
  6 N        2.4610     3.5470     0.9320 N.pl3 1 <1>   0.3140 
  7 C        3.7280     3.7890     0.2200 C.3   1 <1>   0.0960 
  8 C        3.8050     5.2780    -0.1470 C.3   1 <1>   0.3430 
  9 N        5.1430     5.7160    -0.6920 N.4   1 <1>  -0.9590 
 10 C        5.2230     7.2110    -0.8040 C.3   1 <1>   0.3430 
 11 C        5.4260     5.0790    -2.0220 C.3   1 <1>   0.2630 
 12 C        5.2530     7.9130     0.5740 C.3   1 <1>  -0.0800 
 13 C        5.2600     9.4530     0.4230 C.3   1 <1>   0.3430 
 14 C        6.3760     7.3810     1.4900 C.3   1 <1>  -0.2400 
 15 N        6.5800    10.0370     0.0210 N.4   1 <1>  -0.9590 
 16 C        7.4400    10.4080     1.1820 C.3   1 <1>   0.3430 
 17 C        6.4220    11.3090    -0.7380 C.3   1 <1>   0.3430 
 18 C        8.4380    11.4080     0.6170 C.3   1 <1>  -0.1600 
 19 C        7.7810    11.9860    -0.6380 C.3   1 <1>  -0.1600 
 20 H       -0.0210     4.5080     2.6220 H     1 <1>   0.1500 
 21 H        2.1830     1.4260     0.6960 H     1 <1>   0.1500 
 22 H        3.7470     3.1720    -0.6580 H     1 <1>   0.0800 
 23 H        4.5310     3.5190     0.8810 H     1 <1>   0.0800 
 24 H        3.5950     5.8370     0.7490 H     1 <1>   0.0800 
 25 H        3.0270     5.5000    -0.8600 H     1 <1>   0.0800 
 26 H        5.8740     5.4140    -0.0280 H     1 <1>   0.4500 
 27 H        4.3800     7.5710    -1.3740 H     1 <1>   0.0800 
 28 H        6.1190     7.4730    -1.3430 H     1 <1>   0.0800 
 29 H        4.6710     5.3550    -2.7410 H     1 <1>   0.0800 
 30 H        5.4370     4.0040    -1.9330 H     1 <1>   0.0800 
 31 H        6.3870     5.3950    -2.3950 H     1 <1>   0.0800 
 32 H        4.3170     7.6990     1.0620 H     1 <1>   0.0800 
 33 H        4.9580     9.8950     1.3600 H     1 <1>   0.0800 
 34 H        4.5140     9.7260    -0.3060 H     1 <1>   0.0800 
 35 H        7.3410     7.4550     1.0200 H     1 <1>   0.0800 
 36 H        6.2050     6.3510     1.7520 H     1 <1>   0.0800 
 37 H        6.3980     7.9350     2.4140 H     1 <1>   0.0800 
 38 H        7.1310     9.4040    -0.5690 H     1 <1>   0.4500 
 39 H        7.9390     9.5530     1.6100 H     1 <1>   0.0800 
 40 H        6.8450    10.8910     1.9410 H     1 <1>   0.0800 
 41 H        5.6800    11.9310    -0.2610 H     1 <1>   0.0800 
 42 H        6.1390    11.1370    -1.7640 H     1 <1>   0.0800 
 43 H        9.3590    10.9090     0.3650 H     1 <1>   0.0800 
 44 H        8.6550    12.1730     1.3430 H     1 <1>   0.0800 
 45 H        7.6660    13.0550    -0.5730 H     1 <1>   0.0800 
 46 H        8.3700    11.7600    -1.5100 H     1 <1>   0.0800 
@<TRIPOS>BOND
  1   1   2  1   
  2   2   3  1   
  3   2   4  2   
  4   3   5  2   
  5   3  20  1   
  6   4   6  1   
  7   4  21  1   
  8   5   6  1   
  9   6   7  1   
 10   7   8  1   
 11   7  22  1   
 12   7  23  1   
 13   8   9  1   
 14   8  24  1   
 15   8  25  1   
 16   9  10  1   
 17   9  11  1   
 18   9  26  1   
 19  10  12  1   
 20  10  27  1   
 21  10  28  1   
 22  11  29  1   
 23  11  30  1   
 24  11  31  1   
 25  12  13  1   
 26  12  14  1   
 27  12  32  1   
 28  13  15  1   
 29  13  33  1   
 30  13  34  1   
 31  14  35  1   
 32  14  36  1   
 33  14  37  1   
 34  15  16  1   
 35  15  17  1   
 36  15  38  1   
 37  16  18  1   
 38  16  39  1   
 39  16  40  1   
 40  17  19  1   
 41  17  41  1   
 42  17  42  1   
 43  18  19  1   
 44  18  43  1   
 45  18  44  1   
 46  19  45  1   
 47  19  46  1   
@<TRIPOS>SUBSTRUCTURE
  1 ****  12 GROUP 4 **** **** 0

# MOE 2024.06 (io_trps.svl 2023.06)
