@<TRIPOS>MOLECULE
NONAME
43 46 1 0 0 
SMALL
USER_CHARGES


@<TRIPOS>ATOM
  1 S        1.2130     0.3100     0.7950 S.3   1 <1>  -0.2420 
  2 C        1.3270    -0.8850    -0.4990 C.2   1 <1>   0.6410 
  3 C        0.2140    -0.7820     1.7820 C.2   1 <1>  -0.0490 
  4 N        1.9730    -0.6970    -1.5910 N.2   1 <1>  -0.6610 
  5 N        0.6210    -2.0220    -0.1430 N.pl3 1 <1>  -0.1080 
  6 C        0.0180    -1.9420     1.1320 C.2   1 <1>   0.2090 
  7 C        1.9090    -1.7750    -2.4370 C.2   1 <1>   0.7810 
  8 N        0.5280    -3.1140    -0.9710 N.2   1 <1>  -0.4920 
  9 N       -0.6950    -3.0670     1.5460 N.am  1 <1>  -0.5390 
 10 O        2.5020    -1.6790    -3.5050 O.2   1 <1>  -0.5700 
 11 C        1.1690    -2.9740    -2.0850 C.2   1 <1>   0.3890 
 12 C       -1.4790    -3.3140     2.6270 C.2   1 <1>   0.5690 
 13 C        1.1290    -4.1410    -3.0620 C.3   1 <1>  -0.1790 
 14 O       -1.6670    -2.5150     3.5120 O.2   1 <1>  -0.5700 
 15 C       -2.1380    -4.6970     2.6640 C.3   1 <1>   0.1710 
 16 N       -2.1570    -5.3330     1.3100 N.3   1 <1>  -0.8100 
 17 C       -2.1140    -6.8020     1.3470 C.3   1 <1>   0.2530 
 18 C       -3.2830    -4.8350     0.4890 C.3   1 <1>   0.1100 
 19 C       -1.4130    -7.3210     0.1030 C.ar  1 <1>  -0.1430 
 20 C       -3.0930    -5.0950    -1.0130 C.3   1 <1>   0.1200 
 21 C       -1.9770    -7.1520    -1.1560 C.ar  1 <1>   0.0820 
 22 C       -0.2010    -7.9880     0.2090 C.ar  1 <1>  -0.1500 
 23 O       -3.1320    -6.4750    -1.3150 O.3   1 <1>  -0.3630 
 24 C       -1.3620    -7.6720    -2.2830 C.ar  1 <1>  -0.1500 
 25 C        0.4250    -8.4940    -0.9190 C.ar  1 <1>  -0.1500 
 26 C       -0.1580    -8.3420    -2.1660 C.ar  1 <1>  -0.1500 
 27 H       -0.1150    -0.4330     2.7460 H     1 <1>   0.1500 
 28 H       -0.6910    -3.8490     0.8760 H     1 <1>   0.3700 
 29 H        2.1290    -4.4720    -3.2750 H     1 <1>   0.0800 
 30 H        0.6630    -3.8320    -3.9800 H     1 <1>   0.0800 
 31 H        0.5730    -4.9650    -2.6490 H     1 <1>   0.0800 
 32 H       -3.1360    -4.6110     3.0550 H     1 <1>   0.0800 
 33 H       -1.5610    -5.2970     3.3440 H     1 <1>   0.0800 
 34 H       -3.1100    -7.2100     1.4070 H     1 <1>   0.0800 
 35 H       -1.5680    -7.1340     2.2120 H     1 <1>   0.0800 
 36 H       -3.3660    -3.7690     0.6190 H     1 <1>   0.0800 
 37 H       -4.2110    -5.2740     0.8160 H     1 <1>   0.0800 
 38 H       -2.1570    -4.6880    -1.3540 H     1 <1>   0.0800 
 39 H       -3.8920    -4.6300    -1.5620 H     1 <1>   0.0800 
 40 H        0.2630    -8.1210     1.1700 H     1 <1>   0.1500 
 41 H       -1.8280    -7.5450    -3.2430 H     1 <1>   0.1500 
 42 H        1.3640    -9.0120    -0.8250 H     1 <1>   0.1500 
 43 H        0.3240    -8.7440    -3.0400 H     1 <1>   0.1500 
@<TRIPOS>BOND
  1   1   2  1   
  2   1   3  1   
  3   2   4  2   
  4   2   5  1   
  5   3   6  2   
  6   3  27  1   
  7   4   7  1   
  8   5   6  1   
  9   5   8  1   
 10   6   9  1   
 11   7  10  2   
 12   7  11  1   
 13   8  11  2   
 14   9  12  am  
 15   9  28  1   
 16  11  13  1   
 17  12  14  2   
 18  12  15  1   
 19  13  29  1   
 20  13  30  1   
 21  13  31  1   
 22  15  16  1   
 23  15  32  1   
 24  15  33  1   
 25  16  17  1   
 26  16  18  1   
 27  17  19  1   
 28  17  34  1   
 29  17  35  1   
 30  18  20  1   
 31  18  36  1   
 32  18  37  1   
 33  19  21  ar  
 34  19  22  ar  
 35  20  23  1   
 36  20  38  1   
 37  20  39  1   
 38  21  23  1   
 39  21  24  ar  
 40  22  25  ar  
 41  22  40  1   
 42  24  26  ar  
 43  24  41  1   
 44  25  26  ar  
 45  25  42  1   
 46  26  43  1   
@<TRIPOS>SUBSTRUCTURE
  1 ****   8 GROUP 4 **** **** 0

# MOE 2024.06 (io_trps.svl 2023.06)
