@<TRIPOS>MOLECULE
NONAME
44 46 1 0 0 
SMALL
USER_CHARGES


@<TRIPOS>ATOM
  1 O        0.0420     0.9590    -0.5990 O.2   1 <1>  -0.5700 
  2 C        0.7000     1.9540    -0.3790 C.2   1 <1>   0.6900 
  3 N        0.2390     3.2290    -0.5550 N.am  1 <1>  -0.4200 
  4 N        1.9810     1.9470     0.0880 N.am  1 <1>  -0.6600 
  5 C        1.2000     4.1170    -0.1830 C.2   1 <1>   0.5690 
  6 C       -1.1050     3.5610    -1.0810 C.3   1 <1>   0.0600 
  7 C        2.4260     3.3470     0.3140 C.3   1 <1>   0.2810 
  8 C        2.6910     0.7750     0.6620 C.3   1 <1>   0.0600 
  9 O        1.1320     5.3210    -0.2700 O.2   1 <1>  -0.5700 
 10 C        3.6870     3.6620    -0.4960 C.3   1 <1>  -0.0990 
 11 C        4.3760     4.8900     0.0550 C.2   1 <1>   0.5690 
 12 O        5.3910     4.7210     0.6830 O.2   1 <1>  -0.5700 
 13 N        3.8210     6.1190    -0.1590 N.am  1 <1>  -0.4940 
 14 C        4.2290     7.3980     0.2920 C.2   1 <1>  -0.0880 
 15 N        5.4900     7.9260     0.3470 N.pl3 1 <1>   0.3140 
 16 C        3.3890     8.3570     0.7440 C.2   1 <1>  -0.1500 
 17 N        5.4500     9.2000     0.8310 N.2   1 <1>  -0.7070 
 18 C        6.7560     7.2900    -0.1460 C.3   1 <1>   0.1760 
 19 C        4.1980     9.4360     1.0640 C.2   1 <1>   0.1390 
 20 C        7.6770     6.8980     1.0120 C.3   1 <1>  -0.1600 
 21 C        7.6130     8.2490    -0.9830 C.3   1 <1>  -0.1600 
 22 C        8.5370     8.1310     1.2960 C.3   1 <1>  -0.1600 
 23 C        8.5910     8.9260    -0.0130 C.3   1 <1>  -0.1600 
 24 H       -1.2120     3.1550    -2.0720 H     1 <1>   0.0800 
 25 H       -1.2380     4.6280    -1.1170 H     1 <1>   0.0800 
 26 H       -1.8560     3.1300    -0.4440 H     1 <1>   0.0800 
 27 H        2.5780     3.5160     1.3660 H     1 <1>   0.0800 
 28 H        2.0860    -0.1100     0.5560 H     1 <1>   0.0800 
 29 H        2.8880     0.9380     1.7070 H     1 <1>   0.0800 
 30 H        3.6210     0.6190     0.1440 H     1 <1>   0.0800 
 31 H        3.4470     3.8140    -1.5320 H     1 <1>   0.0800 
 32 H        4.3760     2.8410    -0.4260 H     1 <1>   0.0800 
 33 H        2.8470     6.0990    -0.4950 H     1 <1>   0.3700 
 34 H        2.3210     8.3150     0.8470 H     1 <1>   0.1500 
 35 H        6.4950     6.4320    -0.7350 H     1 <1>   0.0800 
 36 H        3.8390    10.3700     1.4600 H     1 <1>   0.1500 
 37 H        8.3130     6.0940     0.6880 H     1 <1>   0.0800 
 38 H        7.1240     6.5740     1.8770 H     1 <1>   0.0800 
 39 H        7.0120     8.9630    -1.5180 H     1 <1>   0.0800 
 40 H        8.1780     7.6720    -1.6920 H     1 <1>   0.0800 
 41 H        9.5180     7.8580     1.6430 H     1 <1>   0.0800 
 42 H        8.0550     8.7300     2.0510 H     1 <1>   0.0800 
 43 H        8.2810     9.9410     0.1710 H     1 <1>   0.0800 
 44 H        9.5860     8.9340    -0.4220 H     1 <1>   0.0800 
@<TRIPOS>BOND
  1   1   2  2   
  2   2   3  am  
  3   2   4  am  
  4   3   5  am  
  5   3   6  1   
  6   4   7  1   
  7   4   8  1   
  8   5   7  1   
  9   5   9  2   
 10   6  24  1   
 11   6  25  1   
 12   6  26  1   
 13   7  10  1   
 14   7  27  1   
 15   8  28  1   
 16   8  29  1   
 17   8  30  1   
 18  10  11  1   
 19  10  31  1   
 20  10  32  1   
 21  11  12  2   
 22  11  13  am  
 23  13  14  1   
 24  13  33  1   
 25  14  15  1   
 26  14  16  2   
 27  15  17  1   
 28  15  18  1   
 29  16  19  1   
 30  16  34  1   
 31  17  19  2   
 32  18  20  1   
 33  18  21  1   
 34  18  35  1   
 35  19  36  1   
 36  20  22  1   
 37  20  37  1   
 38  20  38  1   
 39  21  23  1   
 40  21  39  1   
 41  21  40  1   
 42  22  23  1   
 43  22  41  1   
 44  22  42  1   
 45  23  43  1   
 46  23  44  1   
@<TRIPOS>SUBSTRUCTURE
  1 ****  13 GROUP 4 **** **** 0

# MOE 2024.06 (io_trps.svl 2023.06)
