@<TRIPOS>MOLECULE
NONAME
46 48 1 0 0 
SMALL
USER_CHARGES


@<TRIPOS>ATOM
  1 F       -1.1670     1.1270    -0.4620 F     1 <1>  -0.1900 
  2 C       -0.6460     2.2900    -0.1720 C.ar  1 <1>   0.1900 
  3 C       -1.2130     3.4900    -0.6150 C.ar  1 <1>   0.0830 
  4 C        0.5030     2.2750     0.5960 C.ar  1 <1>  -0.1500 
  5 O       -2.3360     3.6370    -1.3730 O.3   1 <1>  -0.3630 
  6 C       -0.5820     4.6710    -0.2610 C.ar  1 <1>  -0.1500 
  7 C        1.1100     3.4730     0.9290 C.ar  1 <1>  -0.1500 
  8 C       -3.1720     2.5570    -1.7270 C.3   1 <1>   0.0400 
  9 C        0.5860     4.6960     0.5030 C.ar  1 <1>   0.0860 
 10 C        1.2290     5.9550     0.8380 C.2   1 <1>   0.5440 
 11 O        0.5790     6.9740     0.9790 O.2   1 <1>  -0.5700 
 12 N        2.5940     6.0730     0.9410 N.am  1 <1>  -0.6600 
 13 C        3.1980     7.0720     1.9010 C.3   1 <1>   0.1400 
 14 C        3.4840     5.5600    -0.1460 C.3   1 <1>   0.1400 
 15 C        3.5780     8.4170     1.2280 C.3   1 <1>   0.4230 
 16 C        4.0900     6.6600    -1.0570 C.3   1 <1>  -0.0800 
 17 N        2.7320     8.5770    -0.0100 N.4   1 <1>  -0.9590 
 18 C        5.1120     8.5250     1.0260 C.3   1 <1>   0.1200 
 19 C        5.5480     6.9900    -0.7040 C.3   1 <1>   0.1200 
 20 C        3.2770     7.9550    -1.2540 C.3   1 <1>   0.3430 
 21 C        2.3960    10.0410    -0.2580 C.3   1 <1>   0.2370 
 22 O        5.6800     7.3040     0.6390 O.3   1 <1>  -0.5600 
 23 C        3.6090    10.9450    -0.4790 C.2   1 <1>   0.9060 
 24 O        4.1040    11.4910     0.5100 O.co2 1 <1>  -0.9000 
 25 O        4.1340    10.9480    -1.5960 O.co2 1 <1>  -0.9000 
 26 H        0.9110     1.3360     0.9270 H     1 <1>   0.1500 
 27 H       -1.0150     5.6000    -0.5890 H     1 <1>   0.1500 
 28 H        2.0010     3.4630     1.5340 H     1 <1>   0.1500 
 29 H       -4.0150     2.9500    -2.2650 H     1 <1>   0.0800 
 30 H       -3.5090     2.0660    -0.8310 H     1 <1>   0.0800 
 31 H       -2.6220     1.8800    -2.3560 H     1 <1>   0.0800 
 32 H        2.4800     7.2830     2.6750 H     1 <1>   0.0800 
 33 H        4.0530     6.6370     2.3870 H     1 <1>   0.0800 
 34 H        4.2760     4.9800     0.2980 H     1 <1>   0.0800 
 35 H        2.9170     4.8900    -0.7690 H     1 <1>   0.0800 
 36 H        3.3130     9.2090     1.9100 H     1 <1>   0.0800 
 37 H        4.1570     6.2240    -2.0380 H     1 <1>   0.0800 
 38 H        1.8590     8.0660     0.2300 H     1 <1>   0.4500 
 39 H        5.5590     8.7800     1.9700 H     1 <1>   0.0800 
 40 H        5.3890     9.2920     0.3250 H     1 <1>   0.0800 
 41 H        5.9280     7.8100    -1.2940 H     1 <1>   0.0800 
 42 H        6.1720     6.1310    -0.8840 H     1 <1>   0.0800 
 43 H        2.4520     7.7480    -1.9150 H     1 <1>   0.0800 
 44 H        3.9100     8.6710    -1.7560 H     1 <1>   0.0800 
 45 H        1.7680    10.1280    -1.1250 H     1 <1>   0.0800 
 46 H        1.8600    10.4360     0.5860 H     1 <1>   0.0800 
@<TRIPOS>BOND
  1   1   2  1   
  2   2   3  ar  
  3   2   4  ar  
  4   3   5  1   
  5   3   6  ar  
  6   4   7  ar  
  7   4  26  1   
  8   5   8  1   
  9   6   9  ar  
 10   6  27  1   
 11   7   9  ar  
 12   7  28  1   
 13   8  29  1   
 14   8  30  1   
 15   8  31  1   
 16   9  10  1   
 17  10  11  2   
 18  10  12  am  
 19  12  13  1   
 20  12  14  1   
 21  13  15  1   
 22  13  32  1   
 23  13  33  1   
 24  14  16  1   
 25  14  34  1   
 26  14  35  1   
 27  15  17  1   
 28  15  18  1   
 29  15  36  1   
 30  16  19  1   
 31  16  20  1   
 32  16  37  1   
 33  17  20  1   
 34  17  21  1   
 35  17  38  1   
 36  18  22  1   
 37  18  39  1   
 38  18  40  1   
 39  19  22  1   
 40  19  41  1   
 41  19  42  1   
 42  20  43  1   
 43  20  44  1   
 44  21  23  1   
 45  21  45  1   
 46  21  46  1   
 47  23  24  ar  
 48  23  25  ar  
@<TRIPOS>SUBSTRUCTURE
  1 ****  10 GROUP 4 **** **** 0

# MOE 2024.06 (io_trps.svl 2023.06)
