@<TRIPOS>MOLECULE
NONAME
43 45 1 0 0 
SMALL
USER_CHARGES


@<TRIPOS>ATOM
  1 S        3.0700     0.5520     0.5790 S.3   1 <1>  -0.0800 
  2 C        1.4920     1.2730     0.8010 C.2   1 <1>   0.2280 
  3 C        3.5560     1.9670    -0.3060 C.2   1 <1>  -0.1100 
  4 N        1.3570     2.4260     0.2770 N.2   1 <1>  -0.5650 
  5 C        2.5320     2.8340    -0.3510 C.2   1 <1>   0.0460 
  6 C        2.5690     4.1920    -1.0500 C.3   1 <1>   0.3900 
  7 N        2.8800     5.3250    -0.1170 N.pl3 1 <1>  -0.8380 
  8 C        4.1340     5.8280    -0.0270 C.ar  1 <1>   0.4100 
  9 C        1.8520     5.5670     0.9360 C.3   1 <1>   0.1290 
 10 N        5.1080     4.9480     0.0830 N.ar  1 <1>  -0.6200 
 11 C        4.3820     7.2240    -0.0450 C.ar  1 <1>  -0.1430 
 12 C        6.3400     5.3940     0.2650 C.ar  1 <1>   0.7710 
 13 C        5.6610     7.6490     0.1360 C.ar  1 <1>   0.2180 
 14 C        3.2450     8.2200    -0.2870 C.3   1 <1>  -0.0160 
 15 N        6.6170     6.7060     0.2980 N.ar  1 <1>  -0.1790 
 16 N        7.3590     4.5040     0.4320 N.pl3 1 <1>  -0.8380 
 17 C        6.0830     9.1160     0.1460 C.3   1 <1>  -0.0170 
 18 C        3.7570     9.6050    -0.7030 C.3   1 <1>  -0.1600 
 19 C        7.0790     3.0480     0.6640 C.3   1 <1>   0.1290 
 20 C        8.8260     4.7930     0.3680 C.3   1 <1>   0.1290 
 21 C        4.8830    10.0690     0.2270 C.3   1 <1>  -0.1600 
 22 H        0.7660     0.7010     1.3510 H     1 <1>   0.1500 
 23 H        4.5550     2.0060    -0.6990 H     1 <1>   0.1500 
 24 H        1.6210     4.3690    -1.5260 H     1 <1>   0.0800 
 25 H        3.3190     4.1610    -1.8200 H     1 <1>   0.0800 
 26 H        0.9230     5.8660     0.4830 H     1 <1>   0.0800 
 27 H        2.1780     6.3340     1.6150 H     1 <1>   0.0800 
 28 H        1.6900     4.6710     1.5090 H     1 <1>   0.0800 
 29 H        2.6690     8.3210     0.6160 H     1 <1>   0.0800 
 30 H        2.5880     7.8480    -1.0550 H     1 <1>   0.0800 
 31 H        7.5840     6.9360     0.4730 H     1 <1>   0.4570 
 32 H        6.6280     9.3210    -0.7600 H     1 <1>   0.0800 
 33 H        6.7350     9.3120     0.9800 H     1 <1>   0.0800 
 34 H        2.9430    10.3100    -0.6720 H     1 <1>   0.0800 
 35 H        4.1160     9.5670    -1.7180 H     1 <1>   0.0800 
 36 H        6.1010     2.9010     1.0930 H     1 <1>   0.0800 
 37 H        7.8010     2.6330     1.3480 H     1 <1>   0.0800 
 38 H        7.1320     2.5120    -0.2680 H     1 <1>   0.0800 
 39 H        9.0290     5.7240    -0.1310 H     1 <1>   0.0800 
 40 H        9.3260     4.0140    -0.1850 H     1 <1>   0.0800 
 41 H        9.2380     4.8210     1.3630 H     1 <1>   0.0800 
 42 H        5.1920    11.0660    -0.0410 H     1 <1>   0.0800 
 43 H        4.5140    10.1010     1.2380 H     1 <1>   0.0800 
@<TRIPOS>BOND
  1   1   2  1   
  2   1   3  1   
  3   2   4  2   
  4   2  22  1   
  5   3   5  2   
  6   3  23  1   
  7   4   5  1   
  8   5   6  1   
  9   6   7  1   
 10   6  24  1   
 11   6  25  1   
 12   7   8  1   
 13   7   9  1   
 14   8  10  ar  
 15   8  11  ar  
 16   9  26  1   
 17   9  27  1   
 18   9  28  1   
 19  10  12  ar  
 20  11  13  ar  
 21  11  14  1   
 22  12  15  ar  
 23  12  16  1   
 24  13  15  ar  
 25  13  17  1   
 26  14  18  1   
 27  14  29  1   
 28  14  30  1   
 29  15  31  1   
 30  16  19  1   
 31  16  20  1   
 32  17  21  1   
 33  17  32  1   
 34  17  33  1   
 35  18  21  1   
 36  18  34  1   
 37  18  35  1   
 38  19  36  1   
 39  19  37  1   
 40  19  38  1   
 41  20  39  1   
 42  20  40  1   
 43  20  41  1   
 44  21  42  1   
 45  21  43  1   
@<TRIPOS>SUBSTRUCTURE
  1 ****   8 GROUP 4 **** **** 0

# MOE 2024.06 (io_trps.svl 2023.06)
