@<TRIPOS>MOLECULE
NONAME
54 57 1 0 0 
SMALL
USER_CHARGES


@<TRIPOS>ATOM
  1 O        0.5020     0.1020    -1.3970 O.2   1 <1>  -0.5700 
  2 C        1.3820    -0.4630    -0.7750 C.2   1 <1>   0.5440 
  3 N        2.3750     0.2870    -0.1720 N.am  1 <1>  -0.6600 
  4 C        1.3690    -1.9100    -0.6860 C.ar  1 <1>   0.0860 
  5 C        3.4540    -0.3380     0.6550 C.3   1 <1>   0.1400 
  6 C        2.3910     1.7760    -0.2890 C.3   1 <1>   0.1400 
  7 C        0.7230    -2.5900     0.3540 C.ar  1 <1>  -0.1440 
  8 C        2.0290    -2.6650    -1.6550 C.ar  1 <1>  -0.1500 
  9 C        4.6860    -0.6850    -0.1930 C.3   1 <1>   0.1400 
 10 C        3.7890     2.3620    -0.5320 C.3   1 <1>  -0.1600 
 11 C        0.7670    -3.9730     0.4210 C.ar  1 <1>  -0.1500 
 12 C       -0.0410    -1.8110     1.4170 C.3   1 <1>  -0.0960 
 13 C        2.0710    -4.0430    -1.5850 C.ar  1 <1>  -0.1500 
 14 N        5.4460     0.5290    -0.6280 N.am  1 <1>  -0.6600 
 15 C        4.6780     1.5110    -1.4460 C.3   1 <1>   0.1400 
 16 C        1.4460    -4.7100    -0.5450 C.ar  1 <1>   0.0820 
 17 C        6.7700     0.6810    -0.2930 C.2   1 <1>   0.6300 
 18 O        1.5360    -6.0590    -0.5420 O.3   1 <1>  -0.3630 
 19 O        7.3620    -0.1480     0.3600 O.2   1 <1>  -0.5700 
 20 C        7.5520     1.9090    -0.7520 C.3   1 <1>  -0.1000 
 21 C        0.9070    -6.8450     0.4460 C.3   1 <1>   0.0400 
 22 C        8.5620     2.5640     0.1360 C.3   1 <1>  -0.1520 
 23 C        7.2870     3.2800    -0.1650 C.3   1 <1>  -0.2000 
 24 C        9.0050     2.3290     1.5990 C.3   1 <1>   0.0760 
 25 C        9.9220     3.2500    -0.1280 C.3   1 <1>   0.0760 
 26 C        9.9700     3.5320     1.4010 C.3   1 <1>   0.0000 
 27 H        3.0850    -1.2410     1.1070 H     1 <1>   0.0800 
 28 H        3.7400     0.3230     1.4550 H     1 <1>   0.0800 
 29 H        1.9710     2.2010     0.6060 H     1 <1>   0.0800 
 30 H        1.7610     2.0740    -1.1100 H     1 <1>   0.0800 
 31 H        2.5100    -2.1570    -2.4710 H     1 <1>   0.1500 
 32 H        4.3850    -1.2450    -1.0600 H     1 <1>   0.0800 
 33 H        5.3210    -1.3250     0.3930 H     1 <1>   0.0800 
 34 H        4.2820     2.5290     0.4090 H     1 <1>   0.0800 
 35 H        3.6560     3.3260    -0.9870 H     1 <1>   0.0800 
 36 H        0.2670    -4.4720     1.2290 H     1 <1>   0.1500 
 37 H       -0.7970    -1.2030     0.9510 H     1 <1>   0.0800 
 38 H        0.6280    -1.1700     1.9620 H     1 <1>   0.0800 
 39 H       -0.5230    -2.4720     2.1140 H     1 <1>   0.0800 
 40 H        2.5860    -4.6150    -2.3360 H     1 <1>   0.1500 
 41 H        5.3520     2.1530    -1.9830 H     1 <1>   0.0800 
 42 H        4.0800     0.9920    -2.1770 H     1 <1>   0.0800 
 43 H        7.8170     1.8370    -1.7900 H     1 <1>   0.1000 
 44 H        1.1110    -7.8780     0.2300 H     1 <1>   0.0800 
 45 H       -0.1530    -6.6660     0.4110 H     1 <1>   0.0800 
 46 H        1.3130    -6.5850     1.4080 H     1 <1>   0.0800 
 47 H        6.5610     3.3790     0.6230 H     1 <1>   0.1000 
 48 H        7.3020     4.1300    -0.8250 H     1 <1>   0.1000 
 49 H        9.5290     1.3960     1.7240 H     1 <1>   0.0000 
 50 H        8.2340     2.4930     2.3300 H     1 <1>   0.0000 
 51 H        9.8650     4.1320    -0.7400 H     1 <1>   0.0000 
 52 H       10.6780     2.5510    -0.4430 H     1 <1>   0.0000 
 53 H       10.9410     3.3860     1.8390 H     1 <1>   0.0000 
 54 H        9.5170     4.4730     1.6620 H     1 <1>   0.0000 
@<TRIPOS>BOND
  1   1   2  2   
  2   2   3  am  
  3   2   4  1   
  4   3   5  1   
  5   3   6  1   
  6   4   7  ar  
  7   4   8  ar  
  8   5   9  1   
  9   5  27  1   
 10   5  28  1   
 11   6  10  1   
 12   6  29  1   
 13   6  30  1   
 14   7  11  ar  
 15   7  12  1   
 16   8  13  ar  
 17   8  31  1   
 18   9  14  1   
 19   9  32  1   
 20   9  33  1   
 21  10  15  1   
 22  10  34  1   
 23  10  35  1   
 24  11  16  ar  
 25  11  36  1   
 26  12  37  1   
 27  12  38  1   
 28  12  39  1   
 29  13  16  ar  
 30  13  40  1   
 31  14  15  1   
 32  14  17  am  
 33  15  41  1   
 34  15  42  1   
 35  16  18  1   
 36  17  19  2   
 37  17  20  1   
 38  18  21  1   
 39  20  22  1   
 40  20  23  1   
 41  20  43  1   
 42  21  44  1   
 43  21  45  1   
 44  21  46  1   
 45  22  23  1   
 46  22  24  1   
 47  22  25  1   
 48  23  47  1   
 49  23  48  1   
 50  24  26  1   
 51  24  49  1   
 52  24  50  1   
 53  25  26  1   
 54  25  51  1   
 55  25  52  1   
 56  26  53  1   
 57  26  54  1   
@<TRIPOS>SUBSTRUCTURE
  1 ****   9 GROUP 4 **** **** 0

# MOE 2024.06 (io_trps.svl 2023.06)
