@<TRIPOS>MOLECULE
NONAME
36 37 1 0 0 
SMALL
USER_CHARGES


@<TRIPOS>ATOM
  1 S       -1.8900     0.6990    -0.9750 S.3   1 <1>  -0.0800 
  2 C       -1.6780    -0.1900     0.5270 C.2   1 <1>  -0.1400 
  3 C       -0.2720     1.3690    -0.8610 C.2   1 <1>  -0.1100 
  4 C       -0.4530     0.0390     1.0370 C.2   1 <1>  -0.1500 
  5 C       -2.8300    -1.0490     1.0310 C.3   1 <1>   0.0810 
  6 C        0.3470     0.9250     0.2470 C.2   1 <1>  -0.1500 
  7 C       -3.0890    -2.2650     0.1460 C.2   1 <1>   0.5690 
  8 O       -2.4860    -3.2790     0.4260 O.2   1 <1>  -0.5700 
  9 N       -3.9960    -2.2510    -0.8900 N.am  1 <1>  -0.6600 
 10 C       -4.1930    -3.4660    -1.7200 C.3   1 <1>   0.3200 
 11 C       -4.9200    -1.1100    -1.1980 C.3   1 <1>   0.1400 
 12 C       -5.1360    -4.3960    -0.9880 C.2   1 <1>  -0.3320 
 13 C       -6.3280    -1.3040    -0.6090 C.3   1 <1>   0.1200 
 14 N       -4.8020    -4.9650     0.1830 N.pl3 1 <1>   0.0330 
 15 C       -6.3820    -4.8290    -1.2780 C.2   1 <1>   0.0770 
 16 O       -6.2560    -1.8090     0.6800 O.3   1 <1>  -0.6800 
 17 C       -5.8750    -5.6990     0.5420 C.2   1 <1>   0.0060 
 18 N       -6.8450    -5.6420    -0.3100 N.2   1 <1>  -0.5650 
 19 C       -5.9230    -6.5030     1.8230 C.3   1 <1>  -0.0600 
 20 H        0.0470     2.0300    -1.6470 H     1 <1>   0.1500 
 21 H       -0.0650    -0.3840     1.9470 H     1 <1>   0.1500 
 22 H       -3.7160    -0.4570     1.1450 H     1 <1>   0.0800 
 23 H       -2.5760    -1.4100     2.0100 H     1 <1>   0.0800 
 24 H        1.3460     1.1840     0.5510 H     1 <1>   0.1500 
 25 H       -3.2470    -3.9570    -1.8820 H     1 <1>   0.0800 
 26 H       -4.5990    -3.2000    -2.6800 H     1 <1>   0.0800 
 27 H       -4.9970    -0.9890    -2.2650 H     1 <1>   0.0800 
 28 H       -4.5220    -0.1890    -0.8200 H     1 <1>   0.0800 
 29 H       -6.9000    -1.9940    -1.2050 H     1 <1>   0.0800 
 30 H       -6.8510    -0.3640    -0.5730 H     1 <1>   0.0800 
 31 H       -3.9100    -4.8260     0.6800 H     1 <1>   0.2700 
 32 H       -6.9860    -4.5960    -2.1390 H     1 <1>   0.1500 
 33 H       -5.9840    -2.7520     0.6280 H     1 <1>   0.4000 
 34 H       -5.8050    -5.8530     2.6700 H     1 <1>   0.0800 
 35 H       -5.1400    -7.2390     1.8250 H     1 <1>   0.0800 
 36 H       -6.8700    -7.0050     1.9010 H     1 <1>   0.0800 
@<TRIPOS>BOND
  1   1   2  1   
  2   1   3  1   
  3   2   4  2   
  4   2   5  1   
  5   3   6  2   
  6   3  20  1   
  7   4   6  1   
  8   4  21  1   
  9   5   7  1   
 10   5  22  1   
 11   5  23  1   
 12   6  24  1   
 13   7   8  2   
 14   7   9  am  
 15   9  10  1   
 16   9  11  1   
 17  10  12  1   
 18  10  25  1   
 19  10  26  1   
 20  11  13  1   
 21  11  27  1   
 22  11  28  1   
 23  12  14  1   
 24  12  15  2   
 25  13  16  1   
 26  13  29  1   
 27  13  30  1   
 28  14  17  1   
 29  14  31  1   
 30  15  18  1   
 31  15  32  1   
 32  16  33  1   
 33  17  18  2   
 34  17  19  1   
 35  19  34  1   
 36  19  35  1   
 37  19  36  1   
@<TRIPOS>SUBSTRUCTURE
  1 ****   9 GROUP 4 **** **** 0

# MOE 2024.06 (io_trps.svl 2023.06)
