@<TRIPOS>MOLECULE
NONAME
46 47 1 0 0 
SMALL
USER_CHARGES


@<TRIPOS>ATOM
  1 F       -3.2970    -1.0570     2.1290 F     1 <1>  -0.1900 
  2 C       -3.2300    -0.0310     1.3220 C.ar  1 <1>   0.1900 
  3 C       -3.4610    -0.2300    -0.0290 C.ar  1 <1>  -0.1440 
  4 C       -2.9360     1.2080     1.8570 C.ar  1 <1>  -0.1500 
  5 C       -3.3970     0.8720    -0.8710 C.ar  1 <1>  -0.1500 
  6 C       -3.7770    -1.6120    -0.5630 C.3   1 <1>   0.4870 
  7 C       -2.8650     2.2980     1.0070 C.ar  1 <1>   0.0820 
  8 C       -3.1210     2.1330    -0.3620 C.ar  1 <1>   0.0820 
  9 N       -5.1680    -1.9850    -0.2020 N.4   1 <1>  -0.9590 
 10 O       -2.5390     3.4910     1.5560 O.3   1 <1>  -0.3620 
 11 O       -3.1160     3.1570    -1.2520 O.3   1 <1>  -0.3620 
 12 C       -5.4640    -3.3970    -0.5600 C.3   1 <1>   0.5240 
 13 C       -6.2160    -1.0190    -0.6520 C.3   1 <1>   0.3430 
 14 C       -1.2700     4.0080     1.2180 C.3   1 <1>   0.0400 
 15 C       -4.0120     4.2250    -1.0220 C.3   1 <1>   0.0400 
 16 C       -4.9980    -4.2370     0.6170 C.2   1 <1>   0.0460 
 17 C       -7.5000    -1.1400     0.1810 C.3   1 <1>   0.1200 
 18 N       -5.2640    -3.8040     1.8670 N.2   1 <1>  -0.5650 
 19 C       -4.3060    -5.4000     0.6420 C.2   1 <1>  -0.3320 
 20 O       -8.4670    -0.3540    -0.4200 O.3   1 <1>  -0.6800 
 21 C       -4.7380    -4.7100     2.6270 C.2   1 <1>   0.0360 
 22 N       -4.1410    -5.7090     1.9450 N.pl3 1 <1>   0.0330 
 23 C       -3.7710    -6.2830    -0.4740 C.3   1 <1>  -0.0600 
 24 H       -2.7580     1.3260     2.9100 H     1 <1>   0.1500 
 25 H       -3.5630     0.7800    -1.9310 H     1 <1>   0.1500 
 26 H       -3.0870    -2.3220    -0.1320 H     1 <1>   0.0800 
 27 H       -3.6550    -1.6230    -1.6340 H     1 <1>   0.0800 
 28 H       -5.1740    -2.0270     0.8380 H     1 <1>   0.4500 
 29 H       -4.9630    -3.6890    -1.4670 H     1 <1>   0.0800 
 30 H       -6.5240    -3.5390    -0.6800 H     1 <1>   0.0800 
 31 H       -6.4480    -1.1890    -1.6900 H     1 <1>   0.0800 
 32 H       -5.8540    -0.0090    -0.5470 H     1 <1>   0.0800 
 33 H       -1.1310     4.9320     1.7500 H     1 <1>   0.0800 
 34 H       -1.2270     4.1860     0.1580 H     1 <1>   0.0800 
 35 H       -0.5170     3.2980     1.5090 H     1 <1>   0.0800 
 36 H       -4.0490     4.8290    -1.9110 H     1 <1>   0.0800 
 37 H       -3.6620     4.8190    -0.1980 H     1 <1>   0.0800 
 38 H       -4.9880     3.8270    -0.8080 H     1 <1>   0.0800 
 39 H       -7.3420    -0.7760     1.1820 H     1 <1>   0.0800 
 40 H       -7.8680    -2.1500     0.2070 H     1 <1>   0.0800 
 41 H       -9.2960    -0.3380     0.1060 H     1 <1>   0.4000 
 42 H       -4.7620    -4.6910     3.7040 H     1 <1>   0.1500 
 43 H       -3.6680    -6.5270     2.3440 H     1 <1>   0.2700 
 44 H       -4.0120    -5.8760    -1.4390 H     1 <1>   0.0800 
 45 H       -4.2010    -7.2670    -0.4050 H     1 <1>   0.0800 
 46 H       -2.7010    -6.3710    -0.3990 H     1 <1>   0.0800 
@<TRIPOS>BOND
  1   1   2  1   
  2   2   3  ar  
  3   2   4  ar  
  4   3   5  ar  
  5   3   6  1   
  6   4   7  ar  
  7   4  24  1   
  8   5   8  ar  
  9   5  25  1   
 10   6   9  1   
 11   6  26  1   
 12   6  27  1   
 13   7   8  ar  
 14   7  10  1   
 15   8  11  1   
 16   9  12  1   
 17   9  13  1   
 18   9  28  1   
 19  10  14  1   
 20  11  15  1   
 21  12  16  1   
 22  12  29  1   
 23  12  30  1   
 24  13  17  1   
 25  13  31  1   
 26  13  32  1   
 27  14  33  1   
 28  14  34  1   
 29  14  35  1   
 30  15  36  1   
 31  15  37  1   
 32  15  38  1   
 33  16  18  1   
 34  16  19  2   
 35  17  20  1   
 36  17  39  1   
 37  17  40  1   
 38  18  21  2   
 39  19  22  1   
 40  19  23  1   
 41  20  41  1   
 42  21  22  1   
 43  21  42  1   
 44  22  43  1   
 45  23  44  1   
 46  23  45  1   
 47  23  46  1   
@<TRIPOS>SUBSTRUCTURE
  1 ****   3 GROUP 4 **** **** 0

# MOE 2024.06 (io_trps.svl 2023.06)
