@<TRIPOS>MOLECULE
NONAME
52 53 1 0 0 
SMALL
USER_CHARGES


@<TRIPOS>ATOM
  1 O       -1.0230    -1.3820     1.2420 O.2   1 <1>  -0.5700 
  2 C       -0.4850    -1.9280     0.2970 C.2   1 <1>   0.6900 
  3 N       -0.2260    -1.2460    -0.8640 N.am  1 <1>  -0.6600 
  4 N       -0.1780    -3.2420     0.3740 N.am  1 <1>  -0.7300 
  5 C       -0.7480     0.1320    -1.0800 C.3   1 <1>   0.0600 
  6 C        0.6670    -1.7500    -1.9430 C.3   1 <1>   0.0600 
  7 C       -0.5120    -4.1350     1.5240 C.3   1 <1>   0.2010 
  8 C       -1.4790    -5.2640     1.1520 C.2   1 <1>   0.5690 
  9 O       -0.9880    -6.3320     0.8600 O.2   1 <1>  -0.5700 
 10 N       -2.8420    -5.0880     1.1430 N.am  1 <1>  -0.6600 
 11 C       -3.7560    -6.2550     0.9470 C.3   1 <1>   0.1400 
 12 C       -3.5440    -3.7770     1.2780 C.3   1 <1>   0.1400 
 13 C       -4.2150    -6.4050    -0.5110 C.3   1 <1>   0.1400 
 14 C       -3.8330    -3.1150    -0.0780 C.3   1 <1>  -0.1600 
 15 N       -4.8840    -5.1690    -1.0290 N.am  1 <1>  -0.6600 
 16 C       -3.9350    -4.0500    -1.2870 C.3   1 <1>   0.1400 
 17 C       -6.2250    -5.0060    -1.2920 C.2   1 <1>   0.5690 
 18 O       -6.6580    -3.9300    -1.6400 O.2   1 <1>  -0.5700 
 19 C       -7.2180    -6.1710    -1.1550 C.3   1 <1>  -0.0190 
 20 C       -8.4920    -5.9880    -2.0030 C.3   1 <1>  -0.1600 
 21 C       -7.6370    -6.3970     0.3090 C.3   1 <1>  -0.1600 
 22 C       -9.4780    -7.1360    -1.7650 C.3   1 <1>   0.1200 
 23 C       -8.6750    -7.5200     0.4140 C.3   1 <1>   0.1200 
 24 O       -9.7630    -7.2270    -0.4030 O.3   1 <1>  -0.5600 
 25 H        0.1100    -3.7130    -0.4800 H     1 <1>   0.3700 
 26 H       -1.5150     0.3670    -0.3620 H     1 <1>   0.0800 
 27 H       -1.1690     0.2140    -2.0670 H     1 <1>   0.0800 
 28 H        0.0530     0.8430    -0.9740 H     1 <1>   0.0800 
 29 H        1.3520    -2.4850    -1.5590 H     1 <1>   0.0800 
 30 H        1.2440    -0.9370    -2.3490 H     1 <1>   0.0800 
 31 H        0.0750    -2.1870    -2.7280 H     1 <1>   0.0800 
 32 H       -0.9230    -3.5640     2.3360 H     1 <1>   0.0800 
 33 H        0.3980    -4.5810     1.8810 H     1 <1>   0.0800 
 34 H       -4.6140    -6.1480     1.5860 H     1 <1>   0.0800 
 35 H       -3.2520    -7.1590     1.2430 H     1 <1>   0.0800 
 36 H       -2.9750    -3.1000     1.8900 H     1 <1>   0.0800 
 37 H       -4.4810    -3.9410     1.7830 H     1 <1>   0.0800 
 38 H       -4.8690    -7.2520    -0.5740 H     1 <1>   0.0800 
 39 H       -3.3560    -6.6260    -1.1210 H     1 <1>   0.0800 
 40 H       -3.0620    -2.3980    -0.2830 H     1 <1>   0.0800 
 41 H       -4.7460    -2.5540     0.0030 H     1 <1>   0.0800 
 42 H       -2.9610    -4.4460    -1.5190 H     1 <1>   0.0800 
 43 H       -4.2660    -3.4860    -2.1430 H     1 <1>   0.0800 
 44 H       -6.7400    -7.0590    -1.5210 H     1 <1>   0.0800 
 45 H       -8.2330    -5.9410    -3.0450 H     1 <1>   0.0800 
 46 H       -8.9790    -5.0630    -1.7460 H     1 <1>   0.0800 
 47 H       -8.0640    -5.4920     0.7060 H     1 <1>   0.0800 
 48 H       -6.7840    -6.6470     0.9090 H     1 <1>   0.0800 
 49 H       -9.0750    -8.0770    -2.0970 H     1 <1>   0.0800 
 50 H      -10.4040    -6.9490    -2.2820 H     1 <1>   0.0800 
 51 H       -9.0380    -7.6040     1.4240 H     1 <1>   0.0800 
 52 H       -8.2630    -8.4670     0.1100 H     1 <1>   0.0800 
@<TRIPOS>BOND
  1   1   2  2   
  2   2   3  am  
  3   2   4  am  
  4   3   5  1   
  5   3   6  1   
  6   4   7  1   
  7   4  25  1   
  8   5  26  1   
  9   5  27  1   
 10   5  28  1   
 11   6  29  1   
 12   6  30  1   
 13   6  31  1   
 14   7   8  1   
 15   7  32  1   
 16   7  33  1   
 17   8   9  2   
 18   8  10  am  
 19  10  11  1   
 20  10  12  1   
 21  11  13  1   
 22  11  34  1   
 23  11  35  1   
 24  12  14  1   
 25  12  36  1   
 26  12  37  1   
 27  13  15  1   
 28  13  38  1   
 29  13  39  1   
 30  14  16  1   
 31  14  40  1   
 32  14  41  1   
 33  15  16  1   
 34  15  17  am  
 35  16  42  1   
 36  16  43  1   
 37  17  18  2   
 38  17  19  1   
 39  19  20  1   
 40  19  21  1   
 41  19  44  1   
 42  20  22  1   
 43  20  45  1   
 44  20  46  1   
 45  21  23  1   
 46  21  47  1   
 47  21  48  1   
 48  22  24  1   
 49  22  49  1   
 50  22  50  1   
 51  23  24  1   
 52  23  51  1   
 53  23  52  1   
@<TRIPOS>SUBSTRUCTURE
  1 ****  16 GROUP 4 **** **** 0

# MOE 2024.06 (io_trps.svl 2023.06)
