@<TRIPOS>MOLECULE
NONAME
55 59 1 0 0 
SMALL
USER_CHARGES


@<TRIPOS>ATOM
  1 O        0.1160     0.8520     0.7270 O.2   1 <1>  -0.5700 
  2 C       -0.6010     1.6740     0.1940 C.2   1 <1>   0.5440 
  3 N       -1.9500     1.4140     0.0600 N.am  1 <1>  -0.6600 
  4 C       -0.0210     2.9160    -0.2440 C.ar  1 <1>   0.0860 
  5 C       -2.9830     2.4640    -0.2210 C.3   1 <1>   0.1400 
  6 C       -2.5350     0.0920     0.4270 C.3   1 <1>   0.1400 
  7 C       -0.1340     3.3810    -1.5390 C.ar  1 <1>   0.1600 
  8 C        0.6820     3.7310     0.6180 C.ar  1 <1>   0.1600 
  9 C       -3.9000     2.6740     0.9990 C.3   1 <1>   0.1440 
 10 C       -3.4510     0.2490     1.6480 C.3   1 <1>  -0.1600 
 11 N        0.3530     4.5380    -1.9330 N.ar  1 <1>  -0.6200 
 12 N        1.1800     4.8970     0.2620 N.ar  1 <1>  -0.6200 
 13 C       -4.9390     3.7170     0.6320 C.ar  1 <1>   0.1670 
 14 C       -4.5270     1.3270     1.4200 C.3   1 <1>  -0.1600 
 15 C       -3.1480     3.3600     2.1730 C.3   1 <1>  -0.1600 
 16 C        0.9890     5.2370    -1.0040 C.ar  1 <1>   0.4770 
 17 N       -5.9650     3.5220    -0.1610 N.ar  1 <1>  -0.6200 
 18 C       -4.6700     4.9180     1.2130 C.ar  1 <1>  -0.1440 
 19 C       -3.4210     4.8690     2.0570 C.3   1 <1>  -0.0170 
 20 C        1.5660     6.5740    -1.4400 C.3   1 <1>  -0.0170 
 21 C       -6.7610     4.5820    -0.3590 C.ar  1 <1>   0.6200 
 22 C       -5.5270     5.9560     0.9570 C.ar  1 <1>   0.1600 
 23 C        3.0090     6.4440    -1.9490 C.3   1 <1>  -0.2400 
 24 N       -6.5720     5.7970     0.1760 N.ar  1 <1>  -0.6200 
 25 C       -7.9200     4.3990    -1.2250 C.ar  1 <1>   0.0000 
 26 C       -7.9430     3.4250    -2.2280 C.ar  1 <1>  -0.1500 
 27 C       -9.0660     5.1900    -1.0940 C.ar  1 <1>  -0.1500 
 28 C       -9.0410     3.2490    -3.0500 C.ar  1 <1>  -0.1500 
 29 C      -10.1680     5.0210    -1.9130 C.ar  1 <1>  -0.1500 
 30 C      -10.1580     4.0480    -2.8950 C.ar  1 <1>  -0.1500 
 31 H       -3.5800     2.1460    -1.0590 H     1 <1>   0.0800 
 32 H       -2.5310     3.4030    -0.4820 H     1 <1>   0.0800 
 33 H       -1.7600    -0.6240     0.6450 H     1 <1>   0.0800 
 34 H       -3.1020    -0.2820    -0.4080 H     1 <1>   0.0800 
 35 H       -0.6490     2.7780    -2.2670 H     1 <1>   0.1500 
 36 H        0.8310     3.4070     1.6350 H     1 <1>   0.1500 
 37 H       -2.8480     0.5010     2.5030 H     1 <1>   0.0800 
 38 H       -3.9260    -0.6930     1.8540 H     1 <1>   0.0800 
 39 H       -5.1890     0.9930     0.6390 H     1 <1>   0.0800 
 40 H       -5.1200     1.4540     2.3080 H     1 <1>   0.0800 
 41 H       -2.0950     3.1440     2.1800 H     1 <1>   0.0800 
 42 H       -3.5630     3.0210     3.1060 H     1 <1>   0.0800 
 43 H       -2.6150     5.3650     1.5420 H     1 <1>   0.0800 
 44 H       -3.5720     5.3200     3.0220 H     1 <1>   0.0800 
 45 H        1.5400     7.2540    -0.6070 H     1 <1>   0.0800 
 46 H        0.9480     6.9850    -2.2180 H     1 <1>   0.0800 
 47 H       -5.3570     6.9250     1.3930 H     1 <1>   0.1500 
 48 H        3.6390     6.0490    -1.1720 H     1 <1>   0.0800 
 49 H        3.3860     7.4050    -2.2480 H     1 <1>   0.0800 
 50 H        3.0430     5.7780    -2.7930 H     1 <1>   0.0800 
 51 H       -7.0840     2.7920    -2.3670 H     1 <1>   0.1500 
 52 H       -9.0950     5.9530    -0.3350 H     1 <1>   0.1500 
 53 H       -9.0260     2.4890    -3.8120 H     1 <1>   0.1500 
 54 H      -11.0340     5.6470    -1.7850 H     1 <1>   0.1500 
 55 H      -11.0140     3.9140    -3.5330 H     1 <1>   0.1500 
@<TRIPOS>BOND
  1   1   2  2   
  2   2   3  am  
  3   2   4  1   
  4   3   5  1   
  5   3   6  1   
  6   4   7  ar  
  7   4   8  ar  
  8   5   9  1   
  9   5  31  1   
 10   5  32  1   
 11   6  10  1   
 12   6  33  1   
 13   6  34  1   
 14   7  11  ar  
 15   7  35  1   
 16   8  12  ar  
 17   8  36  1   
 18   9  13  1   
 19   9  14  1   
 20   9  15  1   
 21  10  14  1   
 22  10  37  1   
 23  10  38  1   
 24  11  16  ar  
 25  12  16  ar  
 26  13  17  ar  
 27  13  18  ar  
 28  14  39  1   
 29  14  40  1   
 30  15  19  1   
 31  15  41  1   
 32  15  42  1   
 33  16  20  1   
 34  17  21  ar  
 35  18  19  1   
 36  18  22  ar  
 37  19  43  1   
 38  19  44  1   
 39  20  23  1   
 40  20  45  1   
 41  20  46  1   
 42  21  24  ar  
 43  21  25  1   
 44  22  24  ar  
 45  22  47  1   
 46  23  48  1   
 47  23  49  1   
 48  23  50  1   
 49  25  26  ar  
 50  25  27  ar  
 51  26  28  ar  
 52  26  51  1   
 53  27  29  ar  
 54  27  52  1   
 55  28  30  ar  
 56  28  53  1   
 57  29  30  ar  
 58  29  54  1   
 59  30  55  1   
@<TRIPOS>SUBSTRUCTURE
  1 ****   5 GROUP 4 **** **** 0

# MOE 2024.06 (io_trps.svl 2023.06)
