@<TRIPOS>MOLECULE
NONAME
56 60 1 0 0 
SMALL
USER_CHARGES


@<TRIPOS>ATOM
  1 S       -0.7160    -0.1960     2.2480 S.3   1 <1>  -0.0800 
  2 C       -0.2240    -1.5580     1.2550 C.2   1 <1>  -0.1400 
  3 C        0.8990     0.4810     2.1940 C.2   1 <1>  -0.1100 
  4 C        1.0810    -1.4570     0.9390 C.2   1 <1>  -0.1500 
  5 C       -1.2640    -2.6040     0.9150 C.3   1 <1>   0.5230 
  6 C        1.7310    -0.2930     1.4680 C.2   1 <1>   0.0190 
  7 N       -2.0810    -2.0870    -0.2140 N.4   1 <1>  -0.9590 
  8 C        3.1160    -0.0360     1.2180 C.1   1 <1>  -0.0190 
  9 C       -3.2360    -1.2580     0.2790 C.3   1 <1>   0.3430 
 10 C       -2.5490    -3.1840    -1.1080 C.3   1 <1>   0.3430 
 11 C        4.2690     0.1810     1.0160 C.1   1 <1>  -0.2000 
 12 C       -4.0110    -0.6070    -0.8800 C.3   1 <1>   0.1430 
 13 C       -3.2740    -2.5880    -2.3180 C.3   1 <1>  -0.1600 
 14 C        5.7100     0.4560     0.7740 C.3   1 <1>   0.3200 
 15 C       -5.2220     0.0910    -0.3090 C.ar  1 <1>   0.1670 
 16 C       -4.4440    -1.6770    -1.9040 C.3   1 <1>  -0.1600 
 17 C       -3.2320     0.5610    -1.5450 C.3   1 <1>  -0.1600 
 18 O        5.8380     1.8080     0.5390 O.3   1 <1>  -0.6800 
 19 N       -6.0500    -0.4470     0.5490 N.ar  1 <1>  -0.6200 
 20 C       -5.3470     1.3600    -0.7810 C.ar  1 <1>  -0.1440 
 21 C       -4.2420     1.7090    -1.7460 C.3   1 <1>  -0.0170 
 22 C       -7.0640     0.3390     0.9430 C.ar  1 <1>   0.6200 
 23 C       -6.4080     2.1010    -0.3280 C.ar  1 <1>   0.1600 
 24 N       -7.2650     1.5990     0.5320 N.ar  1 <1>  -0.6200 
 25 C       -8.0150    -0.2180     1.8940 C.ar  1 <1>   0.0000 
 26 C       -8.3590    -1.5720     1.8770 C.ar  1 <1>  -0.1500 
 27 C       -8.6250     0.5780     2.8670 C.ar  1 <1>  -0.1500 
 28 C       -9.2590    -2.1050     2.7830 C.ar  1 <1>  -0.1500 
 29 C       -9.5250     0.0520     3.7760 C.ar  1 <1>  -0.1500 
 30 C       -9.8440    -1.2930     3.7360 C.ar  1 <1>  -0.1500 
 31 H        1.0750     1.4040     2.7190 H     1 <1>   0.1500 
 32 H        1.6510    -2.1550     0.3480 H     1 <1>   0.1500 
 33 H       -1.8800    -2.8240     1.7720 H     1 <1>   0.0800 
 34 H       -0.7560    -3.5050     0.6150 H     1 <1>   0.0800 
 35 H       -1.4580    -1.4700    -0.7510 H     1 <1>   0.4500 
 36 H       -2.8930    -0.4820     0.9400 H     1 <1>   0.0800 
 37 H       -3.9180    -1.8820     0.8340 H     1 <1>   0.0800 
 38 H       -3.2240    -3.8300    -0.5700 H     1 <1>   0.0800 
 39 H       -1.7110    -3.7730    -1.4460 H     1 <1>   0.0800 
 40 H       -3.6550    -3.3920    -2.9250 H     1 <1>   0.0800 
 41 H       -2.5700    -2.0440    -2.9240 H     1 <1>   0.0800 
 42 H        6.0640    -0.0760    -0.0920 H     1 <1>   0.0800 
 43 H        6.3090     0.2020     1.6320 H     1 <1>   0.0800 
 44 H       -4.8740    -1.2060    -2.7720 H     1 <1>   0.0800 
 45 H       -5.2150    -2.2870    -1.4620 H     1 <1>   0.0800 
 46 H       -2.7740     0.2860    -2.4780 H     1 <1>   0.0800 
 47 H       -2.4630     0.9120    -0.8780 H     1 <1>   0.0800 
 48 H        5.0930     2.1030    -0.0180 H     1 <1>   0.4000 
 49 H       -4.6280     1.7100    -2.7510 H     1 <1>   0.0800 
 50 H       -3.8060     2.6680    -1.5230 H     1 <1>   0.0800 
 51 H       -6.5580     3.1120    -0.6700 H     1 <1>   0.1500 
 52 H       -7.9180    -2.2180     1.1380 H     1 <1>   0.1500 
 53 H       -8.3900     1.6270     2.9110 H     1 <1>   0.1500 
 54 H       -9.5070    -3.1510     2.7460 H     1 <1>   0.1500 
 55 H       -9.9790     0.6900     4.5140 H     1 <1>   0.1500 
 56 H      -10.5450    -1.7040     4.4420 H     1 <1>   0.1500 
@<TRIPOS>BOND
  1   1   2  1   
  2   1   3  1   
  3   2   4  2   
  4   2   5  1   
  5   3   6  2   
  6   3  31  1   
  7   4   6  1   
  8   4  32  1   
  9   5   7  1   
 10   5  33  1   
 11   5  34  1   
 12   6   8  1   
 13   7   9  1   
 14   7  10  1   
 15   7  35  1   
 16   8  11  3   
 17   9  12  1   
 18   9  36  1   
 19   9  37  1   
 20  10  13  1   
 21  10  38  1   
 22  10  39  1   
 23  11  14  1   
 24  12  15  1   
 25  12  16  1   
 26  12  17  1   
 27  13  16  1   
 28  13  40  1   
 29  13  41  1   
 30  14  18  1   
 31  14  42  1   
 32  14  43  1   
 33  15  19  ar  
 34  15  20  ar  
 35  16  44  1   
 36  16  45  1   
 37  17  21  1   
 38  17  46  1   
 39  17  47  1   
 40  18  48  1   
 41  19  22  ar  
 42  20  21  1   
 43  20  23  ar  
 44  21  49  1   
 45  21  50  1   
 46  22  24  ar  
 47  22  25  1   
 48  23  24  ar  
 49  23  51  1   
 50  25  26  ar  
 51  25  27  ar  
 52  26  28  ar  
 53  26  52  1   
 54  27  29  ar  
 55  27  53  1   
 56  28  30  ar  
 57  28  54  1   
 58  29  30  ar  
 59  29  55  1   
 60  30  56  1   
@<TRIPOS>SUBSTRUCTURE
  1 ****   9 GROUP 4 **** **** 0

# MOE 2024.06 (io_trps.svl 2023.06)
