@<TRIPOS>MOLECULE
NONAME
57 60 1 0 0 
SMALL
USER_CHARGES


@<TRIPOS>ATOM
  1 O       -1.2750    -0.5180    -0.9920 O.3   1 <1>  -0.3630 
  2 C       -0.8670    -1.7890    -0.7410 C.ar  1 <1>   0.0820 
  3 C       -0.3570     0.4820    -1.3710 C.3   1 <1>   0.0400 
  4 C       -1.8480    -2.7030    -0.4010 C.ar  1 <1>  -0.1500 
  5 C        0.4610    -2.2030    -0.8100 C.ar  1 <1>  -0.1500 
  6 C       -1.5360    -4.0270    -0.1240 C.ar  1 <1>   0.1000 
  7 C        0.7860    -3.5200    -0.5350 C.ar  1 <1>  -0.1500 
  8 N       -2.5520    -4.9180     0.2200 N.pl3 1 <1>  -0.8380 
  9 C       -0.2040    -4.4240    -0.1940 C.ar  1 <1>  -0.1500 
 10 C       -3.1730    -4.7600     1.5510 C.3   1 <1>   0.2090 
 11 C       -2.5460    -6.2860    -0.3360 C.3   1 <1>   0.2090 
 12 C       -4.6370    -5.1700     1.4240 C.3   1 <1>  -0.1600 
 13 C       -3.9990    -6.7190    -0.4990 C.3   1 <1>  -0.1600 
 14 C       -4.7450    -6.5830     0.8380 C.3   1 <1>   0.4230 
 15 N       -6.1830    -6.9550     0.7140 N.4   1 <1>  -0.9590 
 16 C       -7.0090    -6.1710    -0.2530 C.3   1 <1>   0.3430 
 17 C       -6.4570    -8.3960     0.4230 C.3   1 <1>   0.3430 
 18 C       -8.2750    -7.0110    -0.4020 C.3   1 <1>   0.2000 
 19 C       -7.7080    -8.4320    -0.4680 C.3   1 <1>  -0.0800 
 20 O       -9.0200    -6.8580     0.7650 O.3   1 <1>  -0.6800 
 21 C       -8.6710    -9.5790    -0.1050 C.3   1 <1>  -0.0170 
 22 C       -7.9250   -10.9030    -0.1120 C.ar  1 <1>  -0.1430 
 23 C       -7.5150   -11.5020    -1.2870 C.ar  1 <1>  -0.1500 
 24 C       -7.6110   -11.5710     1.0550 C.ar  1 <1>  -0.1500 
 25 C       -6.8110   -12.6930    -1.2390 C.ar  1 <1>   0.1600 
 26 C       -6.9030   -12.7600     0.9940 C.ar  1 <1>   0.1600 
 27 N       -6.4860   -13.3270    -0.1250 N.ar  1 <1>  -0.6200 
 28 H       -0.9030     1.3950    -1.5250 H     1 <1>   0.0800 
 29 H        0.1240     0.1850    -2.2860 H     1 <1>   0.0800 
 30 H        0.3610     0.6140    -0.5810 H     1 <1>   0.0800 
 31 H       -2.8690    -2.3810    -0.3570 H     1 <1>   0.1500 
 32 H        1.2470    -1.5210    -1.0710 H     1 <1>   0.1500 
 33 H        1.8110    -3.8420    -0.5850 H     1 <1>   0.1500 
 34 H        0.0600    -5.4400     0.0270 H     1 <1>   0.1500 
 35 H       -2.6580    -5.3800     2.2660 H     1 <1>   0.0800 
 36 H       -3.0990    -3.7340     1.8740 H     1 <1>   0.0800 
 37 H       -2.0480    -6.2870    -1.2930 H     1 <1>   0.0800 
 38 H       -2.0160    -6.9470     0.3300 H     1 <1>   0.0800 
 39 H       -5.1210    -4.4520     0.7880 H     1 <1>   0.0800 
 40 H       -5.0900    -5.1340     2.3980 H     1 <1>   0.0800 
 41 H       -4.0110    -7.7360    -0.8430 H     1 <1>   0.0800 
 42 H       -4.4360    -6.0900    -1.2520 H     1 <1>   0.0800 
 43 H       -4.2780    -7.2560     1.5390 H     1 <1>   0.0800 
 44 H       -6.6390    -6.7710     1.6210 H     1 <1>   0.4500 
 45 H       -7.2350    -5.1820     0.1130 H     1 <1>   0.0800 
 46 H       -6.5090    -6.1000    -1.2040 H     1 <1>   0.0800 
 47 H       -5.6310    -8.8610    -0.0890 H     1 <1>   0.0800 
 48 H       -6.6380    -8.9270     1.3430 H     1 <1>   0.0800 
 49 H       -8.8740    -6.7280    -1.2520 H     1 <1>   0.0800 
 50 H       -7.3650    -8.5980    -1.4740 H     1 <1>   0.0800 
 51 H       -9.9460    -7.1570     0.6380 H     1 <1>   0.4000 
 52 H       -9.4790    -9.6200    -0.8150 H     1 <1>   0.0800 
 53 H       -9.1000    -9.4240     0.8700 H     1 <1>   0.0800 
 54 H       -7.7360   -11.0620    -2.2430 H     1 <1>   0.1500 
 55 H       -7.9100   -11.1900     2.0140 H     1 <1>   0.1500 
 56 H       -6.4980   -13.1500    -2.1630 H     1 <1>   0.1500 
 57 H       -6.6680   -13.2730     1.9110 H     1 <1>   0.1500 
@<TRIPOS>BOND
  1   1   2  1   
  2   1   3  1   
  3   2   4  ar  
  4   2   5  ar  
  5   3  28  1   
  6   3  29  1   
  7   3  30  1   
  8   4   6  ar  
  9   4  31  1   
 10   5   7  ar  
 11   5  32  1   
 12   6   8  1   
 13   6   9  ar  
 14   7   9  ar  
 15   7  33  1   
 16   8  10  1   
 17   8  11  1   
 18   9  34  1   
 19  10  12  1   
 20  10  35  1   
 21  10  36  1   
 22  11  13  1   
 23  11  37  1   
 24  11  38  1   
 25  12  14  1   
 26  12  39  1   
 27  12  40  1   
 28  13  14  1   
 29  13  41  1   
 30  13  42  1   
 31  14  15  1   
 32  14  43  1   
 33  15  16  1   
 34  15  17  1   
 35  15  44  1   
 36  16  18  1   
 37  16  45  1   
 38  16  46  1   
 39  17  19  1   
 40  17  47  1   
 41  17  48  1   
 42  18  19  1   
 43  18  20  1   
 44  18  49  1   
 45  19  21  1   
 46  19  50  1   
 47  20  51  1   
 48  21  22  1   
 49  21  52  1   
 50  21  53  1   
 51  22  23  ar  
 52  22  24  ar  
 53  23  25  ar  
 54  23  54  1   
 55  24  26  ar  
 56  24  55  1   
 57  25  27  ar  
 58  25  56  1   
 59  26  27  ar  
 60  26  57  1   
@<TRIPOS>SUBSTRUCTURE
  1 ****  13 GROUP 4 **** **** 0

# MOE 2024.06 (io_trps.svl 2023.06)
