@<TRIPOS>MOLECULE
NONAME
52 54 1 0 0 
SMALL
USER_CHARGES


@<TRIPOS>ATOM
  1 O        1.9960    -1.0810     0.7300 O.3   1 <1>  -0.0190 
  2 N        2.4090     0.1080     1.0400 N.2   1 <1>  -0.4100 
  3 C        1.5580    -1.1370    -0.4970 C.2   1 <1>  -0.0400 
  4 C        2.2480     0.8370    -0.0100 C.2   1 <1>   0.1080 
  5 C        1.6950     0.0820    -1.0430 C.2   1 <1>  -0.1500 
  6 C        1.0140    -2.4530    -1.0080 C.3   1 <1>   0.5230 
  7 C        2.6090     2.3160    -0.1130 C.3   1 <1>   0.1010 
  8 N       -0.0390    -2.9410    -0.0660 N.4   1 <1>  -0.9590 
  9 C        4.1130     2.5360     0.1250 C.3   1 <1>  -0.1600 
 10 C        1.7750     3.1560     0.8710 C.3   1 <1>  -0.1600 
 11 C       -0.3860    -4.3700    -0.3480 C.3   1 <1>   0.3430 
 12 C       -1.2320    -2.0310    -0.0650 C.3   1 <1>   0.2630 
 13 C        4.4850     4.0240     0.0470 C.3   1 <1>  -0.1600 
 14 C        2.1440     4.6450     0.7950 C.3   1 <1>  -0.1600 
 15 C       -1.2180    -5.0040     0.7680 C.3   1 <1>   0.0210 
 16 C        3.6460     4.8560     1.0260 C.3   1 <1>  -0.1600 
 17 C       -1.3590    -6.4770     0.4550 C.2   1 <1>  -0.1810 
 18 C       -0.4600    -7.4850     0.8000 C.2   1 <1>   0.1080 
 19 C       -2.3460    -7.1080    -0.2210 C.2   1 <1>  -0.3320 
 20 N       -0.8390    -8.6420     0.3690 N.2   1 <1>  -0.7070 
 21 C        0.8220    -7.3230     1.5880 C.3   1 <1>  -0.0590 
 22 N       -2.0090    -8.4160    -0.2530 N.pl3 1 <1>   0.3000 
 23 C       -3.6230    -6.5840    -0.8580 C.3   1 <1>  -0.0600 
 24 H        1.4550     0.4440    -2.0270 H     1 <1>   0.1500 
 25 H        1.8220    -3.1640    -1.0560 H     1 <1>   0.0800 
 26 H        0.6070    -2.3260    -1.9980 H     1 <1>   0.0800 
 27 H        2.3790     2.6480    -1.1110 H     1 <1>   0.0800 
 28 H        0.3960    -2.8830     0.8690 H     1 <1>   0.4500 
 29 H        4.6780     1.9840    -0.6060 H     1 <1>   0.0800 
 30 H        4.3770     2.1570     1.0980 H     1 <1>   0.0800 
 31 H        1.9490     2.8010     1.8730 H     1 <1>   0.0800 
 32 H        0.7290     3.0330     0.6550 H     1 <1>   0.0800 
 33 H        0.5200    -4.9460    -0.4510 H     1 <1>   0.0800 
 34 H       -0.9280    -4.4470    -1.2770 H     1 <1>   0.0800 
 35 H       -1.7100    -2.0340    -1.0310 H     1 <1>   0.0800 
 36 H       -0.9310    -1.0210     0.1690 H     1 <1>   0.0800 
 37 H       -1.9470    -2.3480     0.6760 H     1 <1>   0.0800 
 38 H        4.3250     4.3830    -0.9550 H     1 <1>   0.0800 
 39 H        5.5300     4.1450     0.2770 H     1 <1>   0.0800 
 40 H        1.5860     5.1910     1.5360 H     1 <1>   0.0800 
 41 H        1.8740     5.0330    -0.1720 H     1 <1>   0.0800 
 42 H       -2.1940    -4.5580     0.8180 H     1 <1>   0.0800 
 43 H       -0.7330    -4.8880     1.7200 H     1 <1>   0.0800 
 44 H        3.8860     5.8990     0.9110 H     1 <1>   0.0800 
 45 H        3.8930     4.5720     2.0350 H     1 <1>   0.0800 
 46 H        1.5040    -6.6820     1.0640 H     1 <1>   0.0800 
 47 H        1.2880    -8.2830     1.7210 H     1 <1>   0.0800 
 48 H        0.6070    -6.9130     2.5570 H     1 <1>   0.0800 
 49 H       -2.5490    -9.1760    -0.6840 H     1 <1>   0.2700 
 50 H       -3.7070    -5.5200    -0.7400 H     1 <1>   0.0800 
 51 H       -4.4790    -7.0450    -0.3960 H     1 <1>   0.0800 
 52 H       -3.6350    -6.8140    -1.9090 H     1 <1>   0.0800 
@<TRIPOS>BOND
  1   1   2  1   
  2   1   3  1   
  3   2   4  2   
  4   3   5  2   
  5   3   6  1   
  6   4   5  1   
  7   4   7  1   
  8   5  24  1   
  9   6   8  1   
 10   6  25  1   
 11   6  26  1   
 12   7   9  1   
 13   7  10  1   
 14   7  27  1   
 15   8  11  1   
 16   8  12  1   
 17   8  28  1   
 18   9  13  1   
 19   9  29  1   
 20   9  30  1   
 21  10  14  1   
 22  10  31  1   
 23  10  32  1   
 24  11  15  1   
 25  11  33  1   
 26  11  34  1   
 27  12  35  1   
 28  12  36  1   
 29  12  37  1   
 30  13  16  1   
 31  13  38  1   
 32  13  39  1   
 33  14  16  1   
 34  14  40  1   
 35  14  41  1   
 36  15  17  1   
 37  15  42  1   
 38  15  43  1   
 39  16  44  1   
 40  16  45  1   
 41  17  18  1   
 42  17  19  2   
 43  18  20  2   
 44  18  21  1   
 45  19  22  1   
 46  19  23  1   
 47  20  22  1   
 48  21  46  1   
 49  21  47  1   
 50  21  48  1   
 51  22  49  1   
 52  23  50  1   
 53  23  51  1   
 54  23  52  1   
@<TRIPOS>SUBSTRUCTURE
  1 ****   8 GROUP 4 **** **** 0

# MOE 2024.06 (io_trps.svl 2023.06)
