@<TRIPOS>MOLECULE
NONAME
51 53 1 0 0 
SMALL
USER_CHARGES


@<TRIPOS>ATOM
  1 O        2.9850    -0.5330    -0.9780 O.2   1 <1>  -0.5700 
  2 C        3.1380    -0.5330     0.2400 C.2   1 <1>   0.6160 
  3 N        2.3960    -1.4210     1.0120 N.am  1 <1>  -0.4690 
  4 C        4.0780     0.3300     0.8920 C.2   1 <1>   0.0290 
  5 C        2.6000    -1.5090     2.3690 C.2   1 <1>  -0.0410 
  6 C        1.3980    -2.3070     0.3550 C.3   1 <1>   0.0600 
  7 C        4.8010     1.2820     0.1000 C.2   1 <1>   0.6160 
  8 C        4.2660     0.2100     2.2470 C.2   1 <1>  -0.1500 
  9 C        3.5170    -0.7200     2.9910 C.2   1 <1>  -0.1500 
 10 O        6.0110     1.4050     0.2000 O.2   1 <1>  -0.5700 
 11 N        4.1780     2.1570    -0.7540 N.am  1 <1>  -0.6600 
 12 C        4.3670     2.0370    -2.2350 C.3   1 <1>   0.1400 
 13 C        3.6430     3.4480    -0.2620 C.3   1 <1>   0.1400 
 14 C        5.7580     2.5220    -2.6940 C.3   1 <1>   0.3430 
 15 C        4.7560     4.5030    -0.1710 C.3   1 <1>  -0.1600 
 16 N        6.3850     3.4490    -1.7010 N.4   1 <1>  -0.9590 
 17 C        5.5910     4.6840    -1.4430 C.3   1 <1>   0.3430 
 18 C        7.8320     3.6770    -1.9480 C.3   1 <1>   0.4860 
 19 C        8.4270     4.4060    -0.7620 C.ar  1 <1>  -0.1430 
 20 C        8.8670     5.7140    -0.8980 C.ar  1 <1>   0.1600 
 21 C        8.5320     3.7910     0.4730 C.ar  1 <1>  -0.1500 
 22 N        9.3670     6.4490     0.0770 N.ar  1 <1>  -0.6200 
 23 C        9.0620     4.5420     1.4980 C.ar  1 <1>  -0.1500 
 24 C        9.4580     5.8490     1.2610 C.ar  1 <1>   0.3930 
 25 O        9.9610     6.5350     2.3080 O.3   1 <1>  -0.3630 
 26 C       10.4180     7.8650     2.1560 C.3   1 <1>   0.0400 
 27 H        2.0130    -2.2250     2.9230 H     1 <1>   0.1500 
 28 H        0.6960    -1.7090    -0.2000 H     1 <1>   0.0800 
 29 H        0.8640    -2.8860     1.0870 H     1 <1>   0.0800 
 30 H        1.9020    -2.9730    -0.3240 H     1 <1>   0.0800 
 31 H        4.9860     0.8230     2.7630 H     1 <1>   0.1500 
 32 H        3.6820    -0.7910     4.0530 H     1 <1>   0.1500 
 33 H        3.6030     2.6020    -2.7400 H     1 <1>   0.0800 
 34 H        4.2420     1.0090    -2.5320 H     1 <1>   0.0800 
 35 H        3.2050     3.3040     0.7120 H     1 <1>   0.0800 
 36 H        2.8600     3.7860    -0.9220 H     1 <1>   0.0800 
 37 H        5.6780     2.9930    -3.6600 H     1 <1>   0.0800 
 38 H        6.3850     1.6520    -2.8040 H     1 <1>   0.0800 
 39 H        5.4060     4.2710     0.6550 H     1 <1>   0.0800 
 40 H        4.2940     5.4470     0.0610 H     1 <1>   0.0800 
 41 H        6.3330     2.9030    -0.8130 H     1 <1>   0.4500 
 42 H        6.2520     5.5230    -1.2980 H     1 <1>   0.0800 
 43 H        4.9510     4.9020    -2.2820 H     1 <1>   0.0800 
 44 H        7.9690     4.2550    -2.8460 H     1 <1>   0.0800 
 45 H        8.3360     2.7310    -2.0680 H     1 <1>   0.0800 
 46 H        8.8040     6.1960    -1.8590 H     1 <1>   0.1500 
 47 H        8.2210     2.7720     0.6440 H     1 <1>   0.1500 
 48 H        9.1760     4.1330     2.4860 H     1 <1>   0.1500 
 49 H       10.7800     8.2090     3.1070 H     1 <1>   0.0800 
 50 H        9.5980     8.4790     1.8280 H     1 <1>   0.0800 
 51 H       11.2110     7.8790     1.4300 H     1 <1>   0.0800 
@<TRIPOS>BOND
  1   1   2  2   
  2   2   3  am  
  3   2   4  1   
  4   3   5  1   
  5   3   6  1   
  6   4   7  1   
  7   4   8  2   
  8   5   9  2   
  9   5  27  1   
 10   6  28  1   
 11   6  29  1   
 12   6  30  1   
 13   7  10  2   
 14   7  11  am  
 15   8   9  1   
 16   8  31  1   
 17   9  32  1   
 18  11  12  1   
 19  11  13  1   
 20  12  14  1   
 21  12  33  1   
 22  12  34  1   
 23  13  15  1   
 24  13  35  1   
 25  13  36  1   
 26  14  16  1   
 27  14  37  1   
 28  14  38  1   
 29  15  17  1   
 30  15  39  1   
 31  15  40  1   
 32  16  17  1   
 33  16  18  1   
 34  16  41  1   
 35  17  42  1   
 36  17  43  1   
 37  18  19  1   
 38  18  44  1   
 39  18  45  1   
 40  19  20  ar  
 41  19  21  ar  
 42  20  22  ar  
 43  20  46  1   
 44  21  23  ar  
 45  21  47  1   
 46  22  24  ar  
 47  23  24  ar  
 48  23  48  1   
 49  24  25  1   
 50  25  26  1   
 51  26  49  1   
 52  26  50  1   
 53  26  51  1   
@<TRIPOS>SUBSTRUCTURE
  1 ****  10 GROUP 4 **** **** 0

# MOE 2024.06 (io_trps.svl 2023.06)
