@<TRIPOS>MOLECULE
NONAME
47 49 1 0 0 
SMALL
USER_CHARGES


@<TRIPOS>ATOM
  1 O        1.3680     0.0110    -2.5730 O.2   1 <1>  -0.5700 
  2 C        2.1080     0.0030    -1.6150 C.2   1 <1>   0.7150 
  3 N        2.2690    -1.1760    -0.9640 N.am  1 <1>  -0.7300 
  4 C        2.7650     1.1860    -1.1430 C.2   1 <1>  -0.2370 
  5 C        2.7540    -1.2540     0.4390 C.3   1 <1>   0.1400 
  6 N        3.9670     1.1860    -0.5200 N.pl3 1 <1>   0.3140 
  7 C        2.3810     2.4870    -1.1700 C.2   1 <1>  -0.1500 
  8 C        4.2850    -1.0940     0.5070 C.3   1 <1>   0.2000 
  9 N        4.3420     2.4070    -0.1330 N.2   1 <1>  -0.7070 
 10 C        4.8700     0.0250    -0.3750 C.3   1 <1>   0.0960 
 11 C        3.3740     3.2260    -0.5280 C.2   1 <1>   0.2030 
 12 O        4.8510    -2.2900     0.0910 O.3   1 <1>  -0.6800 
 13 C        3.2890     4.6790    -0.3550 C.2   1 <1>   0.7160 
 14 O        2.2760     5.2620    -0.7120 O.2   1 <1>  -0.5700 
 15 N        4.2960     5.4540     0.1940 N.am  1 <1>  -0.6600 
 16 C        4.2430     6.9340     0.2440 C.3   1 <1>   0.1400 
 17 C        5.6220     4.9730     0.6290 C.3   1 <1>   0.1400 
 18 C        5.7050     7.3990     0.3560 C.3   1 <1>   0.0000 
 19 C        6.3530     6.2240     1.1080 C.3   1 <1>  -0.1600 
 20 C        6.2990     7.5390    -1.0750 C.3   1 <1>  -0.1600 
 21 C        5.8170     8.7010     1.1880 C.3   1 <1>  -0.1600 
 22 C        7.7560     8.0270    -1.1520 C.3   1 <1>  -0.2400 
 23 C        5.1340     9.9250     0.5580 C.3   1 <1>  -0.2400 
 24 H        1.6510    -1.9230    -1.2890 H     1 <1>   0.3700 
 25 H        2.4630    -2.1910     0.8820 H     1 <1>   0.0800 
 26 H        2.2910    -0.4670     1.0120 H     1 <1>   0.0800 
 27 H        1.4790     2.8950    -1.5950 H     1 <1>   0.1500 
 28 H        4.5850    -0.9410     1.5300 H     1 <1>   0.0800 
 29 H        5.7980     0.3640     0.0460 H     1 <1>   0.0800 
 30 H        5.0620    -0.3500    -1.3630 H     1 <1>   0.0800 
 31 H        4.4700    -2.5550    -0.7710 H     1 <1>   0.4000 
 32 H        3.6820     7.2230     1.1160 H     1 <1>   0.0800 
 33 H        3.7590     7.3350    -0.6310 H     1 <1>   0.0800 
 34 H        6.1330     4.5310    -0.2100 H     1 <1>   0.0800 
 35 H        5.5270     4.2470     1.4180 H     1 <1>   0.0800 
 36 H        7.4120     6.1430     0.9540 H     1 <1>   0.0800 
 37 H        6.1790     6.3200     2.1650 H     1 <1>   0.0800 
 38 H        5.6910     8.2210    -1.6430 H     1 <1>   0.0800 
 39 H        6.2360     6.5900    -1.5790 H     1 <1>   0.0800 
 40 H        6.8540     8.9290     1.3600 H     1 <1>   0.0800 
 41 H        5.3740     8.5360     2.1560 H     1 <1>   0.0800 
 42 H        7.8540     9.0150    -0.7420 H     1 <1>   0.0800 
 43 H        8.0670     8.0630    -2.1800 H     1 <1>   0.0800 
 44 H        8.4200     7.3650    -0.6280 H     1 <1>   0.0800 
 45 H        5.6030    10.1930    -0.3710 H     1 <1>   0.0800 
 46 H        5.2110    10.7650     1.2250 H     1 <1>   0.0800 
 47 H        4.0910     9.7340     0.3780 H     1 <1>   0.0800 
@<TRIPOS>BOND
  1   1   2  2   
  2   2   3  am  
  3   2   4  1   
  4   3   5  1   
  5   3  24  1   
  6   4   6  1   
  7   4   7  2   
  8   5   8  1   
  9   5  25  1   
 10   5  26  1   
 11   6   9  1   
 12   6  10  1   
 13   7  11  1   
 14   7  27  1   
 15   8  10  1   
 16   8  12  1   
 17   8  28  1   
 18   9  11  2   
 19  10  29  1   
 20  10  30  1   
 21  11  13  1   
 22  12  31  1   
 23  13  14  2   
 24  13  15  am  
 25  15  16  1   
 26  15  17  1   
 27  16  18  1   
 28  16  32  1   
 29  16  33  1   
 30  17  19  1   
 31  17  34  1   
 32  17  35  1   
 33  18  19  1   
 34  18  20  1   
 35  18  21  1   
 36  19  36  1   
 37  19  37  1   
 38  20  22  1   
 39  20  38  1   
 40  20  39  1   
 41  21  23  1   
 42  21  40  1   
 43  21  41  1   
 44  22  42  1   
 45  22  43  1   
 46  22  44  1   
 47  23  45  1   
 48  23  46  1   
 49  23  47  1   
@<TRIPOS>SUBSTRUCTURE
  1 ****  11 GROUP 4 **** **** 0

# MOE 2024.06 (io_trps.svl 2023.06)
