@<TRIPOS>MOLECULE
NONAME
44 45 1 0 0 
SMALL
USER_CHARGES


@<TRIPOS>ATOM
  1 S        1.1900     1.7370     0.4210 S.o2  1 <1>   1.3330 
  2 O        0.8880     2.8110     1.3390 O.2   1 <1>  -0.6500 
  3 O        0.1610     1.2360    -0.4620 O.2   1 <1>  -0.6500 
  4 N        1.7570     0.4300     1.3480 N.am  1 <1>  -0.8490 
  5 C        2.5970     2.2080    -0.5870 C.3   1 <1>  -0.0550 
  6 C        2.5700     0.8390     2.4990 C.3   1 <1>   0.1160 
  7 C        0.6650    -0.4380     1.7980 C.3   1 <1>   0.1160 
  8 C        3.0740     1.1290    -1.5870 C.3   1 <1>  -0.0800 
  9 C        4.1090     1.6110    -2.5990 C.3   1 <1>   0.2200 
 10 C        3.7620    -0.0820    -0.9430 C.3   1 <1>   0.1200 
 11 N        5.0760     2.5240    -1.9500 N.am  1 <1>  -0.7300 
 12 C        4.8080     0.3040    -2.9420 C.3   1 <1>   0.1200 
 13 O        4.8660    -0.3970    -1.7400 O.3   1 <1>  -0.5600 
 14 C        5.0580     3.8750    -2.0610 C.2   1 <1>   0.5690 
 15 O        4.3440     4.4390    -2.8540 O.2   1 <1>  -0.5700 
 16 C        5.9000     4.6970    -1.1060 C.3   1 <1>   0.0440 
 17 C        5.3180     4.5940     0.3020 C.ar  1 <1>  -0.1440 
 18 C        5.7570     3.6460     1.2150 C.ar  1 <1>   0.1900 
 19 C        4.2850     5.4400     0.6890 C.ar  1 <1>  -0.1500 
 20 F        6.7030     2.8090     0.8680 F     1 <1>  -0.1900 
 21 C        5.1890     3.5520     2.4750 C.ar  1 <1>   0.1900 
 22 C        3.7120     5.3420     1.9510 C.ar  1 <1>  -0.1500 
 23 F        5.6040     2.6440     3.3210 F     1 <1>  -0.1900 
 24 C        4.1630     4.3950     2.8570 C.ar  1 <1>  -0.1500 
 25 H        2.3250     3.0820    -1.1460 H     1 <1>   0.0800 
 26 H        3.4070     2.4830     0.0580 H     1 <1>   0.0800 
 27 H        2.9600    -0.0280     3.0040 H     1 <1>   0.0800 
 28 H        1.9800     1.4140     3.1930 H     1 <1>   0.0800 
 29 H        3.4000     1.4370     2.1700 H     1 <1>   0.0800 
 30 H        1.0550    -1.2640     2.3680 H     1 <1>   0.0800 
 31 H        0.1360    -0.8370     0.9490 H     1 <1>   0.0800 
 32 H       -0.0280     0.1190     2.4070 H     1 <1>   0.0800 
 33 H        2.2200     0.7680    -2.1340 H     1 <1>   0.0800 
 34 H        3.6640     2.0770    -3.4630 H     1 <1>   0.0800 
 35 H        3.1070    -0.9350    -0.8990 H     1 <1>   0.0800 
 36 H        4.1320     0.1400     0.0430 H     1 <1>   0.0800 
 37 H        5.6920     2.0630    -1.2720 H     1 <1>   0.3700 
 38 H        5.8010     0.4500    -3.3290 H     1 <1>   0.0800 
 39 H        4.2220    -0.2740    -3.6350 H     1 <1>   0.0800 
 40 H        6.9150     4.3470    -1.1360 H     1 <1>   0.0800 
 41 H        5.8980     5.7210    -1.4300 H     1 <1>   0.0800 
 42 H        3.9100     6.1810     0.0000 H     1 <1>   0.1500 
 43 H        2.9070     6.0040     2.2250 H     1 <1>   0.1500 
 44 H        3.7250     4.3120     3.8360 H     1 <1>   0.1500 
@<TRIPOS>BOND
  1   1   2  2   
  2   1   3  2   
  3   1   4  am  
  4   1   5  1   
  5   4   6  1   
  6   4   7  1   
  7   5   8  1   
  8   5  25  1   
  9   5  26  1   
 10   6  27  1   
 11   6  28  1   
 12   6  29  1   
 13   7  30  1   
 14   7  31  1   
 15   7  32  1   
 16   8   9  1   
 17   8  10  1   
 18   8  33  1   
 19   9  11  1   
 20   9  12  1   
 21   9  34  1   
 22  10  13  1   
 23  10  35  1   
 24  10  36  1   
 25  11  14  am  
 26  11  37  1   
 27  12  13  1   
 28  12  38  1   
 29  12  39  1   
 30  14  15  2   
 31  14  16  1   
 32  16  17  1   
 33  16  40  1   
 34  16  41  1   
 35  17  18  ar  
 36  17  19  ar  
 37  18  20  1   
 38  18  21  ar  
 39  19  22  ar  
 40  19  42  1   
 41  21  23  1   
 42  21  24  ar  
 43  22  24  ar  
 44  22  43  1   
 45  24  44  1   
@<TRIPOS>SUBSTRUCTURE
  1 ****   5 GROUP 4 **** **** 0

# MOE 2024.06 (io_trps.svl 2023.06)
