@<TRIPOS>MOLECULE
NONAME
56 58 1 0 0 
SMALL
USER_CHARGES


@<TRIPOS>ATOM
  1 O        0.7570     0.0600    -4.1320 O.2   1 <1>  -0.5700 
  2 C        0.6540    -0.3680    -3.0070 C.2   1 <1>   0.5690 
  3 N        0.9330     0.4290    -1.9180 N.am  1 <1>  -0.6600 
  4 C        0.2510    -1.8350    -2.8350 C.3   1 <1>   0.1810 
  5 C        0.9020    -0.0470    -0.5010 C.3   1 <1>   0.1400 
  6 C        1.5010     1.7880    -2.1050 C.3   1 <1>   0.1400 
  7 O        1.2960    -2.5740    -2.2460 O.3   1 <1>  -0.5600 
  8 C        2.2670    -0.5960    -0.0380 C.3   1 <1>   0.3430 
  9 C        3.0140     1.6960    -2.3420 C.3   1 <1>  -0.1600 
 10 C        0.9260    -3.8000    -1.6890 C.3   1 <1>   0.2640 
 11 N        3.4160     0.3480    -0.2770 N.4   1 <1>  -0.9590 
 12 C        3.6980     0.4640    -1.7420 C.3   1 <1>   0.3430 
 13 C        1.0510    -3.6540    -0.1810 C.ar  1 <1>  -0.1440 
 14 C        4.6150    -0.1100     0.4790 C.3   1 <1>   0.3430 
 15 C       -0.0430    -3.2900     0.5900 C.ar  1 <1>  -0.1500 
 16 C        2.2760    -3.8690     0.4340 C.ar  1 <1>  -0.1500 
 17 C        5.6700     1.0000     0.5920 C.3   1 <1>  -0.0800 
 18 C        0.0920    -3.1250     1.9580 C.ar  1 <1>  -0.1500 
 19 C        2.4110    -3.7080     1.8020 C.ar  1 <1>  -0.1500 
 20 C        6.8880     0.4660     1.3610 C.3   1 <1>   0.1200 
 21 C        5.1330     2.2690     1.2860 C.3   1 <1>  -0.1600 
 22 C        1.3190    -3.3310     2.5640 C.ar  1 <1>  -0.1500 
 23 O        7.8510     1.4670     1.4340 O.3   1 <1>  -0.5600 
 24 C        6.2800     3.2640     1.5130 C.3   1 <1>  -0.1600 
 25 C        7.4820     2.5870     2.1810 C.3   1 <1>   0.1200 
 26 H        0.0340    -2.2660    -3.7960 H     1 <1>   0.0800 
 27 H       -0.6260    -1.8890    -2.2150 H     1 <1>   0.0800 
 28 H        0.1620    -0.8180    -0.3920 H     1 <1>   0.0800 
 29 H        0.6010     0.7590     0.1440 H     1 <1>   0.0800 
 30 H        1.2940     2.3890    -1.2370 H     1 <1>   0.0800 
 31 H        1.0290     2.2680    -2.9480 H     1 <1>   0.0800 
 32 H        2.4560    -1.5210    -0.5550 H     1 <1>   0.0800 
 33 H        2.1950    -0.8290     1.0120 H     1 <1>   0.0800 
 34 H        3.4910     2.5950    -1.9940 H     1 <1>   0.0800 
 35 H        3.1710     1.6610    -3.4060 H     1 <1>   0.0800 
 36 H        1.6080    -4.5480    -2.0550 H     1 <1>   0.0800 
 37 H       -0.0750    -4.0690    -1.9840 H     1 <1>   0.0800 
 38 H        3.1540     1.2780     0.0680 H     1 <1>   0.4500 
 39 H        4.7590     0.5420    -1.9160 H     1 <1>   0.0800 
 40 H        3.3470    -0.4210    -2.2510 H     1 <1>   0.0800 
 41 H        5.0440    -0.9730    -0.0060 H     1 <1>   0.0800 
 42 H        4.3200    -0.4020     1.4750 H     1 <1>   0.0800 
 43 H       -1.0060    -3.1380     0.1330 H     1 <1>   0.1500 
 44 H        3.1280    -4.1690    -0.1530 H     1 <1>   0.1500 
 45 H        6.0180     1.2550    -0.3930 H     1 <1>   0.0800 
 46 H       -0.7620    -2.8480     2.5540 H     1 <1>   0.1500 
 47 H        3.3600    -3.8890     2.2780 H     1 <1>   0.1500 
 48 H        7.3350    -0.3670     0.8450 H     1 <1>   0.0800 
 49 H        6.6340     0.1640     2.3630 H     1 <1>   0.0800 
 50 H        4.7070     2.0100     2.2410 H     1 <1>   0.0800 
 51 H        4.3740     2.7460     0.6930 H     1 <1>   0.0800 
 52 H        1.4180    -3.2130     3.6300 H     1 <1>   0.1500 
 53 H        5.9440     4.0820     2.1280 H     1 <1>   0.0800 
 54 H        6.6020     3.6750     0.5720 H     1 <1>   0.0800 
 55 H        8.3260     3.2550     2.2090 H     1 <1>   0.0800 
 56 H        7.2520     2.2730     3.1850 H     1 <1>   0.0800 
@<TRIPOS>BOND
  1   1   2  2   
  2   2   3  am  
  3   2   4  1   
  4   3   5  1   
  5   3   6  1   
  6   4   7  1   
  7   4  26  1   
  8   4  27  1   
  9   5   8  1   
 10   5  28  1   
 11   5  29  1   
 12   6   9  1   
 13   6  30  1   
 14   6  31  1   
 15   7  10  1   
 16   8  11  1   
 17   8  32  1   
 18   8  33  1   
 19   9  12  1   
 20   9  34  1   
 21   9  35  1   
 22  10  13  1   
 23  10  36  1   
 24  10  37  1   
 25  11  12  1   
 26  11  14  1   
 27  11  38  1   
 28  12  39  1   
 29  12  40  1   
 30  13  15  ar  
 31  13  16  ar  
 32  14  17  1   
 33  14  41  1   
 34  14  42  1   
 35  15  18  ar  
 36  15  43  1   
 37  16  19  ar  
 38  16  44  1   
 39  17  20  1   
 40  17  21  1   
 41  17  45  1   
 42  18  22  ar  
 43  18  46  1   
 44  19  22  ar  
 45  19  47  1   
 46  20  23  1   
 47  20  48  1   
 48  20  49  1   
 49  21  24  1   
 50  21  50  1   
 51  21  51  1   
 52  22  52  1   
 53  23  25  1   
 54  24  25  1   
 55  24  53  1   
 56  24  54  1   
 57  25  55  1   
 58  25  56  1   
@<TRIPOS>SUBSTRUCTURE
  1 ****   8 GROUP 4 **** **** 0

# MOE 2024.06 (io_trps.svl 2023.06)
