@<TRIPOS>MOLECULE
NONAME
53 55 1 0 0 
SMALL
USER_CHARGES


@<TRIPOS>ATOM
  1 O       -1.8690     0.7290    -2.1230 O.2   1 <1>  -0.5700 
  2 C       -2.0350     1.0110    -0.9500 C.2   1 <1>   0.5440 
  3 N       -2.5030     0.0170    -0.1110 N.am  1 <1>  -0.6600 
  4 C       -1.7750     2.3580    -0.4810 C.ar  1 <1>   0.0860 
  5 C       -2.6230    -1.3820    -0.6270 C.3   1 <1>   0.1400 
  6 C       -2.8770     0.2700     1.3160 C.3   1 <1>   0.1400 
  7 C       -0.6540     2.6190     0.3180 C.ar  1 <1>   0.0820 
  8 C       -2.6330     3.4210    -0.7970 C.ar  1 <1>  -0.1440 
  9 C       -3.5820    -2.2300     0.2340 C.3   1 <1>   0.4230 
 10 C       -4.2530    -0.3290     1.6850 C.3   1 <1>  -0.1600 
 11 O        0.1560     1.5750     0.6330 O.3   1 <1>  -0.3630 
 12 C       -0.3990     3.9100     0.7730 C.ar  1 <1>  -0.1500 
 13 C       -2.3660     4.6980    -0.3360 C.ar  1 <1>  -0.1500 
 14 C       -3.8750     3.1910    -1.6500 C.3   1 <1>  -0.0960 
 15 N       -3.9220    -3.6200    -0.2980 N.4   1 <1>  -0.9590 
 16 C       -4.8060    -1.3820     0.6840 C.3   1 <1>   0.0000 
 17 C        1.4200     1.7530     1.2330 C.3   1 <1>   0.0400 
 18 C       -1.2520     4.9440     0.4450 C.ar  1 <1>  -0.1500 
 19 C       -5.3460    -3.7990    -0.7010 C.3   1 <1>   0.3430 
 20 C       -3.0050    -4.1170    -1.3750 C.3   1 <1>   0.2630 
 21 C       -5.7930    -2.3350     1.3970 C.3   1 <1>  -0.1600 
 22 C       -5.5030    -0.6310    -0.4970 C.3   1 <1>   0.1200 
 23 C       -6.2900    -3.4590     0.4630 C.3   1 <1>  -0.1600 
 24 O       -6.6370     0.0420    -0.0650 O.3   1 <1>  -0.6800 
 25 H       -2.9930    -1.3460    -1.6370 H     1 <1>   0.0800 
 26 H       -1.6410    -1.8210    -0.6320 H     1 <1>   0.0800 
 27 H       -2.1140    -0.1630     1.9410 H     1 <1>   0.0800 
 28 H       -2.8930     1.3270     1.5250 H     1 <1>   0.0800 
 29 H       -3.0250    -2.4080     1.1390 H     1 <1>   0.0800 
 30 H       -4.1540    -0.7640     2.6640 H     1 <1>   0.0800 
 31 H       -4.9550     0.4800     1.7980 H     1 <1>   0.0800 
 32 H        0.4550     4.1290     1.3850 H     1 <1>   0.1500 
 33 H       -3.0230     5.5140    -0.5820 H     1 <1>   0.1500 
 34 H       -4.4050     4.1100    -1.8220 H     1 <1>   0.0800 
 35 H       -4.5410     2.5050    -1.1580 H     1 <1>   0.0800 
 36 H       -3.5970     2.7820    -2.6060 H     1 <1>   0.0800 
 37 H       -3.8000    -4.2470     0.5100 H     1 <1>   0.4500 
 38 H        1.9020     0.7940     1.2880 H     1 <1>   0.0800 
 39 H        1.2850     2.1510     2.2230 H     1 <1>   0.0800 
 40 H        2.0040     2.4200     0.6240 H     1 <1>   0.0800 
 41 H       -1.0540     5.9420     0.7970 H     1 <1>   0.1500 
 42 H       -5.5600    -3.1610    -1.5420 H     1 <1>   0.0800 
 43 H       -5.5210    -4.8170    -1.0140 H     1 <1>   0.0800 
 44 H       -3.1050    -3.5120    -2.2630 H     1 <1>   0.0800 
 45 H       -3.2410    -5.1380    -1.6290 H     1 <1>   0.0800 
 46 H       -1.9790    -4.0770    -1.0450 H     1 <1>   0.0800 
 47 H       -5.2910    -2.7900     2.2340 H     1 <1>   0.0800 
 48 H       -6.6310    -1.7940     1.8040 H     1 <1>   0.0800 
 49 H       -5.8060    -1.2870    -1.2890 H     1 <1>   0.0800 
 50 H       -4.8580     0.1140    -0.9280 H     1 <1>   0.0800 
 51 H       -7.2390    -3.1750     0.0400 H     1 <1>   0.0800 
 52 H       -6.4710    -4.3460     1.0450 H     1 <1>   0.0800 
 53 H       -7.3110    -0.5680     0.2920 H     1 <1>   0.4000 
@<TRIPOS>BOND
  1   1   2  2   
  2   2   3  am  
  3   2   4  1   
  4   3   5  1   
  5   3   6  1   
  6   4   7  ar  
  7   4   8  ar  
  8   5   9  1   
  9   5  25  1   
 10   5  26  1   
 11   6  10  1   
 12   6  27  1   
 13   6  28  1   
 14   7  11  1   
 15   7  12  ar  
 16   8  13  ar  
 17   8  14  1   
 18   9  15  1   
 19   9  16  1   
 20   9  29  1   
 21  10  16  1   
 22  10  30  1   
 23  10  31  1   
 24  11  17  1   
 25  12  18  ar  
 26  12  32  1   
 27  13  18  ar  
 28  13  33  1   
 29  14  34  1   
 30  14  35  1   
 31  14  36  1   
 32  15  19  1   
 33  15  20  1   
 34  15  37  1   
 35  16  21  1   
 36  16  22  1   
 37  17  38  1   
 38  17  39  1   
 39  17  40  1   
 40  18  41  1   
 41  19  23  1   
 42  19  42  1   
 43  19  43  1   
 44  20  44  1   
 45  20  45  1   
 46  20  46  1   
 47  21  23  1   
 48  21  47  1   
 49  21  48  1   
 50  22  24  1   
 51  22  49  1   
 52  22  50  1   
 53  23  51  1   
 54  23  52  1   
 55  24  53  1   
@<TRIPOS>SUBSTRUCTURE
  1 ****   3 GROUP 4 **** **** 0

# MOE 2024.06 (io_trps.svl 2023.06)
