@<TRIPOS>MOLECULE
NONAME
47 48 1 0 0 
SMALL
USER_CHARGES


@<TRIPOS>ATOM
  1 S       -0.3080     0.8250     0.5170 S.o2  1 <1>   1.3330 
  2 O       -0.2390     0.3450     1.8790 O.2   1 <1>  -0.6500 
  3 O       -1.0200     2.0490     0.2290 O.2   1 <1>  -0.6500 
  4 N       -0.9860    -0.4130    -0.4280 N.am  1 <1>  -0.8490 
  5 C        1.3400     0.9810    -0.1710 C.3   1 <1>  -0.0550 
  6 C       -2.4420    -0.2930    -0.5380 C.3   1 <1>   0.1160 
  7 C       -0.6310    -1.7590     0.0380 C.3   1 <1>   0.1160 
  8 C        2.1850     2.0910     0.4860 C.3   1 <1>  -0.0800 
  9 C        3.4620     2.3380    -0.3000 C.3   1 <1>   0.2200 
 10 C        2.7500     1.6490     1.8360 C.3   1 <1>   0.1200 
 11 N        3.9520     3.7030    -0.0150 N.am  1 <1>  -0.7300 
 12 C        4.4240     1.3060     0.2920 C.3   1 <1>   0.1200 
 13 O        3.9090     0.9340     1.5400 O.3   1 <1>  -0.5600 
 14 C        4.3590     4.6070    -0.9410 C.2   1 <1>   0.5690 
 15 O        4.3100     4.3720    -2.1250 O.2   1 <1>  -0.5700 
 16 C        4.8960     5.9560    -0.4720 C.3   1 <1>   0.2010 
 17 N        6.1570     5.8280     0.3260 N.am  1 <1>  -0.4690 
 18 C        6.0930     5.4350     1.6530 C.2   1 <1>   0.6900 
 19 C        7.3870     6.0660    -0.2770 C.2   1 <1>  -0.0410 
 20 O        5.0390     5.1660     2.1940 O.2   1 <1>  -0.5700 
 21 N        7.2480     5.3310     2.3570 N.am  1 <1>  -0.4900 
 22 C        8.5340     5.9460     0.4330 C.2   1 <1>  -0.1240 
 23 C        8.4730     5.5680     1.8150 C.2   1 <1>   0.6160 
 24 C        9.8990     6.1980    -0.1940 C.3   1 <1>  -0.1020 
 25 O        9.4470     5.4450     2.5300 O.2   1 <1>  -0.5700 
 26 H        1.8540     0.0440    -0.0880 H     1 <1>   0.0800 
 27 H        1.2370     1.2040    -1.2160 H     1 <1>   0.0800 
 28 H       -2.8370    -1.0830    -1.1530 H     1 <1>   0.0800 
 29 H       -2.7020     0.6480    -0.9940 H     1 <1>   0.0800 
 30 H       -2.8970    -0.3410     0.4380 H     1 <1>   0.0800 
 31 H       -1.0060    -2.4980    -0.6480 H     1 <1>   0.0800 
 32 H       -1.0490    -1.9420     1.0150 H     1 <1>   0.0800 
 33 H        0.4390    -1.8620     0.0970 H     1 <1>   0.0800 
 34 H        1.5950     2.9880     0.5720 H     1 <1>   0.0800 
 35 H        3.3380     2.2040    -1.3620 H     1 <1>   0.0800 
 36 H        2.0870     1.0240     2.4070 H     1 <1>   0.0800 
 37 H        3.0350     2.5020     2.4290 H     1 <1>   0.0800 
 38 H        4.0970     3.9280     0.9810 H     1 <1>   0.3700 
 39 H        5.4170     1.6980     0.4180 H     1 <1>   0.0800 
 40 H        4.4560     0.4210    -0.3190 H     1 <1>   0.0800 
 41 H        4.1430     6.4360     0.1260 H     1 <1>   0.0800 
 42 H        5.0760     6.5730    -1.3330 H     1 <1>   0.0800 
 43 H        7.3820     6.3420    -1.3200 H     1 <1>   0.1500 
 44 H        7.2020     5.0460     3.3280 H     1 <1>   0.3700 
 45 H       10.4000     6.9950     0.3270 H     1 <1>   0.0800 
 46 H        9.8060     6.4680    -1.2310 H     1 <1>   0.0800 
 47 H       10.5040     5.3110    -0.1220 H     1 <1>   0.0800 
@<TRIPOS>BOND
  1   1   2  2   
  2   1   3  2   
  3   1   4  am  
  4   1   5  1   
  5   4   6  1   
  6   4   7  1   
  7   5   8  1   
  8   5  26  1   
  9   5  27  1   
 10   6  28  1   
 11   6  29  1   
 12   6  30  1   
 13   7  31  1   
 14   7  32  1   
 15   7  33  1   
 16   8   9  1   
 17   8  10  1   
 18   8  34  1   
 19   9  11  1   
 20   9  12  1   
 21   9  35  1   
 22  10  13  1   
 23  10  36  1   
 24  10  37  1   
 25  11  14  am  
 26  11  38  1   
 27  12  13  1   
 28  12  39  1   
 29  12  40  1   
 30  14  15  2   
 31  14  16  1   
 32  16  17  1   
 33  16  41  1   
 34  16  42  1   
 35  17  18  am  
 36  17  19  1   
 37  18  20  2   
 38  18  21  am  
 39  19  22  2   
 40  19  43  1   
 41  21  23  am  
 42  21  44  1   
 43  22  23  1   
 44  22  24  1   
 45  23  25  2   
 46  24  45  1   
 47  24  46  1   
 48  24  47  1   
@<TRIPOS>SUBSTRUCTURE
  1 ****  11 GROUP 4 **** **** 0

# MOE 2024.06 (io_trps.svl 2023.06)
