@<TRIPOS>MOLECULE
NONAME
51 54 1 0 0 
SMALL
USER_CHARGES


@<TRIPOS>ATOM
  1 F       -2.1210    -1.3630    -1.5750 F     1 <1>  -0.1900 
  2 C       -3.0980    -0.6470    -1.0880 C.ar  1 <1>   0.1900 
  3 C       -3.7650     0.2290    -1.9210 C.ar  1 <1>  -0.1500 
  4 C       -3.4290    -0.7900     0.2460 C.ar  1 <1>  -0.1500 
  5 C       -4.8060     0.9750    -1.3970 C.ar  1 <1>  -0.1500 
  6 C       -4.4720    -0.0340     0.7540 C.ar  1 <1>  -0.1500 
  7 C       -5.1880     0.8450    -0.0610 C.ar  1 <1>   0.0540 
  8 C       -6.3190     1.5890     0.4470 C.2   1 <1>   0.2350 
  9 N       -6.4100     2.8900     0.4100 N.2   1 <1>  -0.7070 
 10 C       -7.4720     1.0270     1.0060 C.2   1 <1>  -0.1810 
 11 N       -7.5940     3.1870     0.9680 N.pl3 1 <1>   0.3000 
 12 C       -8.2610     2.0730     1.3290 C.2   1 <1>  -0.3020 
 13 C       -7.7410    -0.4540     1.1680 C.3   1 <1>   0.5240 
 14 N       -7.6450    -1.1070    -0.1650 N.4   1 <1>  -0.9590 
 15 C       -8.7460    -0.6300    -1.0620 C.3   1 <1>   0.3430 
 16 C       -7.7970    -2.5890    -0.0440 C.3   1 <1>   0.3430 
 17 C       -9.8320    -1.7030    -0.9820 C.3   1 <1>   0.2000 
 18 C       -9.0010    -2.9810    -0.9060 C.3   1 <1>  -0.0800 
 19 O      -10.5130    -1.5320     0.2290 O.3   1 <1>  -0.5600 
 20 C       -9.7320    -4.2350    -0.3890 C.3   1 <1>   0.0200 
 21 C      -11.9060    -1.5000     0.1250 C.3   1 <1>   0.0400 
 22 C       -8.7410    -5.3550    -0.1380 C.2   1 <1>  -0.0400 
 23 O       -7.8260    -5.6270    -1.0290 O.3   1 <1>  -0.0190 
 24 C       -8.5680    -6.1900     0.8980 C.2   1 <1>  -0.1500 
 25 N       -7.0390    -6.5830    -0.6380 N.2   1 <1>  -0.4100 
 26 C       -7.4680    -6.9520     0.5150 C.2   1 <1>   0.1080 
 27 C       -6.8520    -8.0650     1.3350 C.3   1 <1>  -0.0590 
 28 H       -3.4670     0.3260    -2.9500 H     1 <1>   0.1500 
 29 H       -2.8710    -1.4690     0.8660 H     1 <1>   0.1500 
 30 H       -5.3300     1.6790    -2.0230 H     1 <1>   0.1500 
 31 H       -4.7230    -0.1150     1.7970 H     1 <1>   0.1500 
 32 H       -7.9160     4.1580     1.0850 H     1 <1>   0.2700 
 33 H       -9.2360     2.1040     1.7840 H     1 <1>   0.1500 
 34 H       -8.7250    -0.6030     1.5840 H     1 <1>   0.0800 
 35 H       -7.0150    -0.8770     1.8420 H     1 <1>   0.0800 
 36 H       -6.7300    -0.8600    -0.5680 H     1 <1>   0.4500 
 37 H       -9.1280     0.3350    -0.7700 H     1 <1>   0.0800 
 38 H       -8.3830    -0.5730    -2.0750 H     1 <1>   0.0800 
 39 H       -6.9100    -3.1070    -0.3740 H     1 <1>   0.0800 
 40 H       -7.9950    -2.8580     0.9820 H     1 <1>   0.0800 
 41 H      -10.5110    -1.6740    -1.8190 H     1 <1>   0.0800 
 42 H       -8.6280    -3.1980    -1.8920 H     1 <1>   0.0800 
 43 H      -10.4530    -4.5590    -1.1190 H     1 <1>   0.0800 
 44 H      -10.2540    -4.0300     0.5290 H     1 <1>   0.0800 
 45 H      -12.3160    -1.3880     1.1140 H     1 <1>   0.0800 
 46 H      -12.2560    -2.4220    -0.3070 H     1 <1>   0.0800 
 47 H      -12.2010    -0.6620    -0.4840 H     1 <1>   0.0800 
 48 H       -9.1180    -6.2830     1.8170 H     1 <1>   0.1500 
 49 H       -6.5700    -7.6960     2.3040 H     1 <1>   0.0800 
 50 H       -5.9770    -8.4460     0.8400 H     1 <1>   0.0800 
 51 H       -7.5590    -8.8650     1.4520 H     1 <1>   0.0800 
@<TRIPOS>BOND
  1   1   2  1   
  2   2   3  ar  
  3   2   4  ar  
  4   3   5  ar  
  5   3  28  1   
  6   4   6  ar  
  7   4  29  1   
  8   5   7  ar  
  9   5  30  1   
 10   6   7  ar  
 11   6  31  1   
 12   7   8  1   
 13   8   9  2   
 14   8  10  1   
 15   9  11  1   
 16  10  12  2   
 17  10  13  1   
 18  11  12  1   
 19  11  32  1   
 20  12  33  1   
 21  13  14  1   
 22  13  34  1   
 23  13  35  1   
 24  14  15  1   
 25  14  16  1   
 26  14  36  1   
 27  15  17  1   
 28  15  37  1   
 29  15  38  1   
 30  16  18  1   
 31  16  39  1   
 32  16  40  1   
 33  17  18  1   
 34  17  19  1   
 35  17  41  1   
 36  18  20  1   
 37  18  42  1   
 38  19  21  1   
 39  20  22  1   
 40  20  43  1   
 41  20  44  1   
 42  21  45  1   
 43  21  46  1   
 44  21  47  1   
 45  22  23  1   
 46  22  24  2   
 47  23  25  1   
 48  24  26  1   
 49  24  48  1   
 50  25  26  2   
 51  26  27  1   
 52  27  49  1   
 53  27  50  1   
 54  27  51  1   
@<TRIPOS>SUBSTRUCTURE
  1 ****  14 GROUP 4 **** **** 0

# MOE 2024.06 (io_trps.svl 2023.06)
