@<TRIPOS>MOLECULE
NONAME
44 46 1 0 0 
SMALL
USER_CHARGES


@<TRIPOS>ATOM
  1 O        1.5730    -0.5590     3.1860 O.2   1 <1>  -0.5700 
  2 C        1.3360    -0.9700     2.0740 C.2   1 <1>   0.5690 
  3 N        1.5980    -0.2770     0.9340 N.am  1 <1>  -0.4930 
  4 C        0.7020    -2.3520     1.9070 C.3   1 <1>   0.1710 
  5 C        2.1640     1.0090     0.7590 C.2   1 <1>   0.0630 
  6 N        0.0020    -2.5310     0.6000 N.3   1 <1>  -0.8100 
  7 C        2.6230     1.9080     1.7210 C.2   1 <1>   0.1390 
  8 C        2.3740     1.6350    -0.4160 C.2   1 <1>  -0.3020 
  9 C       -0.1930    -3.9630     0.2990 C.3   1 <1>   0.2530 
 10 C       -1.2950    -1.8330     0.5840 C.3   1 <1>   0.1100 
 11 N        3.0810     3.0050     1.1930 N.2   1 <1>  -0.7070 
 12 N        2.9280     2.8370    -0.1350 N.pl3 1 <1>   0.3140 
 13 C       -1.0250    -4.1860    -0.9610 C.ar  1 <1>  -0.1430 
 14 C       -1.8470    -1.8020    -0.8440 C.3   1 <1>  -0.0170 
 15 C        3.3410     3.8870    -1.1070 C.3   1 <1>   0.1760 
 16 C       -1.8190    -3.1770    -1.4940 C.ar  1 <1>  -0.1430 
 17 C       -1.0000    -5.4280    -1.5780 C.ar  1 <1>  -0.1500 
 18 C        2.1320     4.3940    -1.9060 C.3   1 <1>  -0.2400 
 19 C        4.4380     3.3600    -2.0430 C.3   1 <1>  -0.2400 
 20 C       -2.5770    -3.4190    -2.6290 C.ar  1 <1>  -0.1500 
 21 C       -1.7570    -5.6670    -2.7110 C.ar  1 <1>  -0.1500 
 22 C       -2.5480    -4.6610    -3.2370 C.ar  1 <1>  -0.1500 
 23 H        1.2870    -0.7670     0.0900 H     1 <1>   0.3700 
 24 H        0.0180    -2.5250     2.7200 H     1 <1>   0.0800 
 25 H        1.4980    -3.0700     1.9860 H     1 <1>   0.0800 
 26 H        2.6020     1.7180     2.7810 H     1 <1>   0.1500 
 27 H        2.1670     1.3020    -1.4140 H     1 <1>   0.1500 
 28 H       -0.6920    -4.4420     1.1250 H     1 <1>   0.0800 
 29 H        0.7690    -4.4280     0.1700 H     1 <1>   0.0800 
 30 H       -1.1840    -0.8210     0.9370 H     1 <1>   0.0800 
 31 H       -1.9930    -2.3410     1.2300 H     1 <1>   0.0800 
 32 H       -1.2530    -1.1270    -1.4330 H     1 <1>   0.0800 
 33 H       -2.8540    -1.4270    -0.8230 H     1 <1>   0.0800 
 34 H        3.7420     4.7050    -0.5350 H     1 <1>   0.0800 
 35 H       -0.3900    -6.2180    -1.1770 H     1 <1>   0.1500 
 36 H        1.7110     3.6070    -2.5060 H     1 <1>   0.0800 
 37 H        2.4320     5.1960    -2.5560 H     1 <1>   0.0800 
 38 H        1.3810     4.7680    -1.2330 H     1 <1>   0.0800 
 39 H        4.0720     2.5490    -2.6450 H     1 <1>   0.0800 
 40 H        5.2790     3.0200    -1.4640 H     1 <1>   0.0800 
 41 H        4.7740     4.1470    -2.6940 H     1 <1>   0.0800 
 42 H       -3.1910    -2.6400    -3.0460 H     1 <1>   0.1500 
 43 H       -1.7320    -6.6330    -3.1830 H     1 <1>   0.1500 
 44 H       -3.1380    -4.8450    -4.1170 H     1 <1>   0.1500 
@<TRIPOS>BOND
  1   1   2  2   
  2   2   3  am  
  3   2   4  1   
  4   3   5  1   
  5   3  23  1   
  6   4   6  1   
  7   4  24  1   
  8   4  25  1   
  9   5   7  1   
 10   5   8  2   
 11   6   9  1   
 12   6  10  1   
 13   7  11  2   
 14   7  26  1   
 15   8  12  1   
 16   8  27  1   
 17   9  13  1   
 18   9  28  1   
 19   9  29  1   
 20  10  14  1   
 21  10  30  1   
 22  10  31  1   
 23  11  12  1   
 24  12  15  1   
 25  13  16  ar  
 26  13  17  ar  
 27  14  16  1   
 28  14  32  1   
 29  14  33  1   
 30  15  18  1   
 31  15  19  1   
 32  15  34  1   
 33  16  20  ar  
 34  17  21  ar  
 35  17  35  1   
 36  18  36  1   
 37  18  37  1   
 38  18  38  1   
 39  19  39  1   
 40  19  40  1   
 41  19  41  1   
 42  20  22  ar  
 43  20  42  1   
 44  21  22  ar  
 45  21  43  1   
 46  22  44  1   
@<TRIPOS>SUBSTRUCTURE
  1 ****   3 GROUP 4 **** **** 0

# MOE 2024.06 (io_trps.svl 2023.06)
