@<TRIPOS>MOLECULE
NONAME
38 40 1 0 0 
SMALL
USER_CHARGES


@<TRIPOS>ATOM
  1 O        1.2640    -0.1260     1.4610 O.3   1 <1>  -0.6800 
  2 C        1.5900    -0.1790     0.1060 C.3   1 <1>   0.2000 
  3 C        2.3210    -1.4890    -0.2160 C.3   1 <1>  -0.0800 
  4 C        2.6150     0.9170    -0.2180 C.3   1 <1>   0.2090 
  5 C        3.7890    -1.1850     0.0830 C.3   1 <1>   0.2090 
  6 C        1.8020    -2.7550     0.4930 C.3   1 <1>  -0.0170 
  7 N        3.9480     0.2510    -0.2270 N.pl3 1 <1>  -0.8380 
  8 C        2.6220    -3.9740     0.1000 C.ar  1 <1>  -0.1440 
  9 C        5.1270     0.9630    -0.1400 C.ar  1 <1>   0.4100 
 10 C        2.4630    -4.5980    -1.1220 C.ar  1 <1>  -0.1500 
 11 C        3.5700    -4.5180     0.9430 C.ar  1 <1>  -0.1500 
 12 N        5.0610     2.2710    -0.3050 N.ar  1 <1>  -0.6200 
 13 C        6.3450     0.3500     0.0980 C.ar  1 <1>  -0.1500 
 14 C        3.2430    -5.6990    -1.4340 C.ar  1 <1>   0.1600 
 15 C        4.2970    -5.6240     0.5330 C.ar  1 <1>   0.1600 
 16 C        6.1980     2.9300    -0.2220 C.ar  1 <1>   0.4770 
 17 C        7.4600     1.1380     0.1630 C.ar  1 <1>   0.1600 
 18 N        4.1580    -6.2250    -0.6360 N.ar  1 <1>  -0.6200 
 19 N        7.4060     2.4450     0.0050 N.ar  1 <1>  -0.6200 
 20 C        6.1070     4.4250    -0.4040 C.3   1 <1>  -0.0970 
 21 H        0.5370    -0.7420     1.6660 H     1 <1>   0.4000 
 22 H        0.6850    -0.0510    -0.4620 H     1 <1>   0.0800 
 23 H        2.2500    -1.6430    -1.2780 H     1 <1>   0.0800 
 24 H        2.5830     1.7120     0.5080 H     1 <1>   0.0800 
 25 H        2.4310     1.3210    -1.1980 H     1 <1>   0.0800 
 26 H        4.4430    -1.7880    -0.5240 H     1 <1>   0.0800 
 27 H        4.0020    -1.3430     1.1260 H     1 <1>   0.0800 
 28 H        0.7720    -2.9200     0.2290 H     1 <1>   0.0800 
 29 H        1.8520    -2.6300     1.5600 H     1 <1>   0.0800 
 30 H        1.7430    -4.2390    -1.8340 H     1 <1>   0.1500 
 31 H        3.7520    -4.0950     1.9140 H     1 <1>   0.1500 
 32 H        6.4130    -0.7090     0.2260 H     1 <1>   0.1500 
 33 H        3.1060    -6.1730    -2.3920 H     1 <1>   0.1500 
 34 H        5.0320    -6.0350     1.2040 H     1 <1>   0.1500 
 35 H        8.4250     0.6970     0.3470 H     1 <1>   0.1500 
 36 H        7.0440     4.8140    -0.7570 H     1 <1>   0.0800 
 37 H        5.8670     4.8810     0.5370 H     1 <1>   0.0800 
 38 H        5.3410     4.6610    -1.1180 H     1 <1>   0.0800 
@<TRIPOS>BOND
  1   1   2  1   
  2   1  21  1   
  3   2   3  1   
  4   2   4  1   
  5   2  22  1   
  6   3   5  1   
  7   3   6  1   
  8   3  23  1   
  9   4   7  1   
 10   4  24  1   
 11   4  25  1   
 12   5   7  1   
 13   5  26  1   
 14   5  27  1   
 15   6   8  1   
 16   6  28  1   
 17   6  29  1   
 18   7   9  1   
 19   8  10  ar  
 20   8  11  ar  
 21   9  12  ar  
 22   9  13  ar  
 23  10  14  ar  
 24  10  30  1   
 25  11  15  ar  
 26  11  31  1   
 27  12  16  ar  
 28  13  17  ar  
 29  13  32  1   
 30  14  18  ar  
 31  14  33  1   
 32  15  18  ar  
 33  15  34  1   
 34  16  19  ar  
 35  16  20  1   
 36  17  19  ar  
 37  17  35  1   
 38  20  36  1   
 39  20  37  1   
 40  20  38  1   
@<TRIPOS>SUBSTRUCTURE
  1 ****   5 GROUP 4 **** **** 0

# MOE 2024.06 (io_trps.svl 2023.06)
