@<TRIPOS>MOLECULE
NONAME
51 54 1 0 0 
SMALL
USER_CHARGES


@<TRIPOS>ATOM
  1 CL      -0.5640     0.0580     1.4280 Cl    1 <1>  -0.1230 
  2 C       -1.9690     0.4470     0.4510 C.2   1 <1>   0.1230 
  3 C       -2.4270     1.7610     0.2310 C.ar  1 <1>   0.0000 
  4 C       -2.7730    -0.4280    -0.1920 C.2   1 <1>  -0.3320 
  5 C       -3.5540     1.6230    -0.5780 C.ar  1 <1>  -0.1520 
  6 C       -2.0110     3.0350     0.6310 C.ar  1 <1>  -0.1500 
  7 N       -3.7520     0.2840    -0.8310 N.pl3 1 <1>   0.0330 
  8 C       -2.6960    -1.9360    -0.2460 C.3   1 <1>   0.2900 
  9 C       -4.2790     2.7440    -0.9890 C.ar  1 <1>  -0.1500 
 10 C       -2.7260     4.1380     0.2210 C.ar  1 <1>  -0.1500 
 11 N       -4.0380    -2.5090    -0.0470 N.3   1 <1>  -0.8100 
 12 C       -3.8600     3.9910    -0.5880 C.ar  1 <1>  -0.1500 
 13 C       -4.0840    -3.9480    -0.3930 C.3   1 <1>   0.1100 
 14 C       -4.5940    -2.2110     1.2910 C.3   1 <1>   0.1100 
 15 C       -5.3010    -4.6690     0.2470 C.3   1 <1>   0.4230 
 16 C       -6.0870    -2.6030     1.3740 C.3   1 <1>  -0.1600 
 17 N       -5.6250    -6.0700    -0.2630 N.4   1 <1>  -0.9590 
 18 C       -6.5200    -3.7140     0.3750 C.3   1 <1>   0.0000 
 19 C       -6.9690    -6.2120    -0.8950 C.3   1 <1>   0.3430 
 20 C       -4.5710    -6.6910    -1.1270 C.3   1 <1>   0.2630 
 21 C       -7.6900    -4.5390     0.9580 C.3   1 <1>  -0.1600 
 22 C       -6.9100    -3.0430    -0.9800 C.3   1 <1>   0.1200 
 23 C       -8.0800    -5.7220     0.0460 C.3   1 <1>  -0.1600 
 24 O       -8.0850    -2.3140    -0.8640 O.3   1 <1>  -0.6800 
 25 H       -1.1400     3.1300     1.2530 H     1 <1>   0.1500 
 26 H       -4.5410    -0.1220    -1.3450 H     1 <1>   0.2700 
 27 H       -2.0160    -2.3010     0.5060 H     1 <1>   0.0800 
 28 H       -2.3210    -2.2230    -1.2140 H     1 <1>   0.0800 
 29 H       -5.1490     2.6230    -1.6100 H     1 <1>   0.1500 
 30 H       -2.4200     5.1250     0.5200 H     1 <1>   0.1500 
 31 H       -4.4020     4.8690    -0.8930 H     1 <1>   0.1500 
 32 H       -4.1330    -4.0230    -1.4650 H     1 <1>   0.0800 
 33 H       -3.1820    -4.4250    -0.0470 H     1 <1>   0.0800 
 34 H       -4.0290    -2.7450     2.0370 H     1 <1>   0.0800 
 35 H       -4.5050    -1.1600     1.5130 H     1 <1>   0.0800 
 36 H       -4.9880    -4.8220     1.2660 H     1 <1>   0.0800 
 37 H       -6.2780    -2.9100     2.3870 H     1 <1>   0.0800 
 38 H       -6.6790    -1.7170     1.2190 H     1 <1>   0.0800 
 39 H       -5.6840    -6.6450     0.5900 H     1 <1>   0.4500 
 40 H       -6.9930    -5.6450    -1.8100 H     1 <1>   0.0800 
 41 H       -7.1530    -7.2440    -1.1520 H     1 <1>   0.0800 
 42 H       -4.4790    -6.1490    -2.0550 H     1 <1>   0.0800 
 43 H       -4.8260    -7.7140    -1.3530 H     1 <1>   0.0800 
 44 H       -3.6170    -6.6810    -0.6240 H     1 <1>   0.0800 
 45 H       -7.3900    -4.9370     1.9130 H     1 <1>   0.0800 
 46 H       -8.5490    -3.9170     1.1460 H     1 <1>   0.0800 
 47 H       -7.0560    -3.7530    -1.7700 H     1 <1>   0.0800 
 48 H       -6.1560    -2.3500    -1.3070 H     1 <1>   0.0800 
 49 H       -8.9200    -5.4370    -0.5640 H     1 <1>   0.0800 
 50 H       -8.4140    -6.5430     0.6580 H     1 <1>   0.0800 
 51 H       -8.8290    -2.8650    -0.5540 H     1 <1>   0.4000 
@<TRIPOS>BOND
  1   1   2  1   
  2   2   3  1   
  3   2   4  2   
  4   3   5  ar  
  5   3   6  ar  
  6   4   7  1   
  7   4   8  1   
  8   5   7  1   
  9   5   9  ar  
 10   6  10  ar  
 11   6  25  1   
 12   7  26  1   
 13   8  11  1   
 14   8  27  1   
 15   8  28  1   
 16   9  12  ar  
 17   9  29  1   
 18  10  12  ar  
 19  10  30  1   
 20  11  13  1   
 21  11  14  1   
 22  12  31  1   
 23  13  15  1   
 24  13  32  1   
 25  13  33  1   
 26  14  16  1   
 27  14  34  1   
 28  14  35  1   
 29  15  17  1   
 30  15  18  1   
 31  15  36  1   
 32  16  18  1   
 33  16  37  1   
 34  16  38  1   
 35  17  19  1   
 36  17  20  1   
 37  17  39  1   
 38  18  21  1   
 39  18  22  1   
 40  19  23  1   
 41  19  40  1   
 42  19  41  1   
 43  20  42  1   
 44  20  43  1   
 45  20  44  1   
 46  21  23  1   
 47  21  45  1   
 48  21  46  1   
 49  22  24  1   
 50  22  47  1   
 51  22  48  1   
 52  23  49  1   
 53  23  50  1   
 54  24  51  1   
@<TRIPOS>SUBSTRUCTURE
  1 ****  11 GROUP 4 **** **** 0

# MOE 2024.06 (io_trps.svl 2023.06)
