@<TRIPOS>MOLECULE
NONAME
64 64 1 0 0 
SMALL
USER_CHARGES


@<TRIPOS>ATOM
  1 O       -0.6710     2.1120     1.3110 O.2   1 <1>  -0.5700 
  2 C       -0.1120     2.1580     0.2180 C.2   1 <1>   0.5690 
  3 N       -0.7490     1.7000    -0.8980 N.am  1 <1>  -0.7300 
  4 C        1.3520     2.6660     0.0910 C.3   1 <1>   0.2810 
  5 C       -2.1730     1.2820    -0.9630 C.3   1 <1>   0.1400 
  6 N        2.2910     1.5340     0.0840 N.am  1 <1>  -0.7300 
  7 C        1.7390     3.7190     1.1740 C.3   1 <1>  -0.0800 
  8 C       -2.2990    -0.2410    -0.8650 C.3   1 <1>  -0.1600 
  9 C        3.4080     1.4710    -0.6500 C.2   1 <1>   0.5690 
 10 C        0.7800     4.9270     1.1870 C.3   1 <1>  -0.2400 
 11 C        3.1700     4.2750     1.0400 C.3   1 <1>  -0.2400 
 12 C       -2.0270    -0.7430     0.5600 C.3   1 <1>   0.1400 
 13 O        3.7310     2.3900    -1.3950 O.2   1 <1>  -0.5700 
 14 C        4.2920     0.1940    -0.5480 C.3   1 <1>   0.2810 
 15 N       -1.9210    -2.2400     0.5920 N.am  1 <1>  -0.6600 
 16 N        3.5410    -1.0060    -0.1600 N.am  1 <1>  -0.7300 
 17 C        5.4140     0.3760     0.4780 C.3   1 <1>  -0.2400 
 18 C       -2.9500    -2.9710     1.1440 C.2   1 <1>   0.5690 
 19 C       -0.7260    -2.8630    -0.0690 C.3   1 <1>   0.1400 
 20 C        2.7430    -1.6540    -1.0410 C.2   1 <1>   0.5690 
 21 O       -3.9200    -2.4380     1.6290 O.2   1 <1>  -0.5700 
 22 C       -2.9340    -4.4950     1.1770 C.3   1 <1>  -0.0990 
 23 C        0.5510    -2.0280     0.0880 C.3   1 <1>  -0.1600 
 24 O        2.7210    -1.3700    -2.2120 O.2   1 <1>  -0.5700 
 25 C        1.7800    -2.7080    -0.5390 C.3   1 <1>  -0.0990 
 26 C       -3.2310    -5.1610    -0.1830 C.3   1 <1>  -0.0800 
 27 C       -4.6200    -4.7740    -0.7050 C.3   1 <1>  -0.2400 
 28 C       -3.1340    -6.6860    -0.0560 C.3   1 <1>  -0.2400 
 29 H       -0.2220     1.6240    -1.7730 H     1 <1>   0.3700 
 30 H        1.4150     3.1700    -0.8750 H     1 <1>   0.0800 
 31 H       -2.7280     1.7470    -0.1650 H     1 <1>   0.0800 
 32 H       -2.5900     1.6200    -1.8970 H     1 <1>   0.0800 
 33 H        2.0570     0.7380     0.6510 H     1 <1>   0.3700 
 34 H        1.6640     3.2300     2.1480 H     1 <1>   0.0800 
 35 H       -1.6330    -0.6930    -1.5760 H     1 <1>   0.0800 
 36 H       -3.3040    -0.5200    -1.1240 H     1 <1>   0.0800 
 37 H        0.8020     5.4350     0.2210 H     1 <1>   0.0800 
 38 H        1.0790     5.6320     1.9640 H     1 <1>   0.0800 
 39 H       -0.2420     4.6150     1.4030 H     1 <1>   0.0800 
 40 H        3.3110     4.7140     0.0520 H     1 <1>   0.0800 
 41 H        3.9000     3.4790     1.1820 H     1 <1>   0.0800 
 42 H        3.3540     5.0360     1.8000 H     1 <1>   0.0800 
 43 H       -2.8230    -0.4050     1.2030 H     1 <1>   0.0800 
 44 H       -1.1290    -0.3120     0.9580 H     1 <1>   0.0800 
 45 H        4.7440     0.0360    -1.5300 H     1 <1>   0.0800 
 46 H        3.6000    -1.3160     0.7940 H     1 <1>   0.3700 
 47 H        4.9930     0.5540     1.4680 H     1 <1>   0.0800 
 48 H        6.0210     1.2360     0.1920 H     1 <1>   0.0800 
 49 H        6.0460    -0.5120     0.4960 H     1 <1>   0.0800 
 50 H       -0.5420    -3.8380     0.3420 H     1 <1>   0.0800 
 51 H       -0.9430    -2.9830    -1.1180 H     1 <1>   0.0800 
 52 H       -1.9900    -4.8290     1.5620 H     1 <1>   0.0800 
 53 H       -3.6780    -4.8140     1.8850 H     1 <1>   0.0800 
 54 H        0.4100    -1.0900    -0.4190 H     1 <1>   0.0800 
 55 H        0.7380    -1.8340     1.1290 H     1 <1>   0.0800 
 56 H        1.4830    -3.3040    -1.3840 H     1 <1>   0.0800 
 57 H        2.2650    -3.3520     0.1700 H     1 <1>   0.0800 
 58 H       -2.5000    -4.8390    -0.9040 H     1 <1>   0.0800 
 59 H       -5.3830    -5.0570    -0.0010 H     1 <1>   0.0800 
 60 H       -4.8190    -5.2620    -1.6430 H     1 <1>   0.0800 
 61 H       -4.6830    -3.7110    -0.8620 H     1 <1>   0.0800 
 62 H       -3.8600    -7.0560     0.6470 H     1 <1>   0.0800 
 63 H       -2.1530    -6.9740     0.2800 H     1 <1>   0.0800 
 64 H       -3.3130    -7.1520    -1.0090 H     1 <1>   0.0800 
@<TRIPOS>BOND
  1   1   2  2   
  2   2   3  am  
  3   2   4  1   
  4   3   5  1   
  5   3  29  1   
  6   4   6  1   
  7   4   7  1   
  8   4  30  1   
  9   5   8  1   
 10   5  31  1   
 11   5  32  1   
 12   6   9  am  
 13   6  33  1   
 14   7  10  1   
 15   7  11  1   
 16   7  34  1   
 17   8  12  1   
 18   8  35  1   
 19   8  36  1   
 20   9  13  2   
 21   9  14  1   
 22  10  37  1   
 23  10  38  1   
 24  10  39  1   
 25  11  40  1   
 26  11  41  1   
 27  11  42  1   
 28  12  15  1   
 29  12  43  1   
 30  12  44  1   
 31  14  16  1   
 32  14  17  1   
 33  14  45  1   
 34  15  18  am  
 35  15  19  1   
 36  16  20  am  
 37  16  46  1   
 38  17  47  1   
 39  17  48  1   
 40  17  49  1   
 41  18  21  2   
 42  18  22  1   
 43  19  23  1   
 44  19  50  1   
 45  19  51  1   
 46  20  24  2   
 47  20  25  1   
 48  22  26  1   
 49  22  52  1   
 50  22  53  1   
 51  23  25  1   
 52  23  54  1   
 53  23  55  1   
 54  25  56  1   
 55  25  57  1   
 56  26  27  1   
 57  26  28  1   
 58  26  58  1   
 59  27  59  1   
 60  27  60  1   
 61  27  61  1   
 62  28  62  1   
 63  28  63  1   
 64  28  64  1   
@<TRIPOS>SUBSTRUCTURE
  1 ****  23 GROUP 4 **** **** 0

# MOE 2024.06 (io_trps.svl 2023.06)
