@<TRIPOS>MOLECULE
NONAME
48 50 1 0 0 
SMALL
USER_CHARGES


@<TRIPOS>ATOM
  1 O        0.6540    -0.0550    -0.6850 O.3   1 <1>  -0.5600 
  2 C        1.8500    -0.2780    -0.0100 C.3   1 <1>   0.2000 
  3 C        0.2320    -1.2200    -1.3170 C.3   1 <1>   0.1200 
  4 C        1.7080    -1.6990     0.5180 C.3   1 <1>  -0.1600 
  5 C        2.0830     0.7750     1.0940 C.3   1 <1>   0.2090 
  6 C        0.8670    -2.3780    -0.5500 C.3   1 <1>  -0.1600 
  7 N        2.4180     2.1360     0.5520 N.pl3 1 <1>  -0.8380 
  8 C        3.6780     2.6400     0.4380 C.ar  1 <1>   0.4100 
  9 C        1.2050     2.9570     0.2420 C.3   1 <1>   0.1290 
 10 N        3.8100     3.9520     0.3690 N.ar  1 <1>  -0.6200 
 11 C        4.8050     1.7950     0.3920 C.ar  1 <1>  -0.1500 
 12 C        5.0270     4.4620     0.2640 C.ar  1 <1>   0.7710 
 13 C        6.0430     2.3370     0.2880 C.ar  1 <1>   0.2180 
 14 N        6.1210     3.6860     0.2300 N.ar  1 <1>  -0.1790 
 15 N        5.1770     5.8070     0.1910 N.pl3 1 <1>  -0.8380 
 16 C        7.3240     1.5150     0.2300 C.3   1 <1>  -0.0170 
 17 C        4.0010     6.7210     0.2600 C.3   1 <1>   0.2090 
 18 C        6.4240     6.5980     0.0050 C.3   1 <1>   0.2090 
 19 C        8.0570     1.6810    -1.1080 C.3   1 <1>  -0.2400 
 20 C        4.5890     8.1230     0.3440 C.3   1 <1>  -0.1600 
 21 C        5.9520     8.0070    -0.3270 C.3   1 <1>  -0.1600 
 22 H        2.6440    -0.2350    -0.7360 H     1 <1>   0.0800 
 23 H        0.5710    -1.1910    -2.3390 H     1 <1>   0.0800 
 24 H       -0.8440    -1.2530    -1.2870 H     1 <1>   0.0800 
 25 H        1.1740    -1.6890     1.4530 H     1 <1>   0.0800 
 26 H        2.6620    -2.1760     0.6570 H     1 <1>   0.0800 
 27 H        2.8820     0.4430     1.7310 H     1 <1>   0.0800 
 28 H        1.2010     0.8370     1.7080 H     1 <1>   0.0800 
 29 H        1.4790    -2.9590    -1.2180 H     1 <1>   0.0800 
 30 H        0.1160    -3.0170    -0.1190 H     1 <1>   0.0800 
 31 H        0.4380     2.3470    -0.2000 H     1 <1>   0.0800 
 32 H        1.4420     3.7430    -0.4530 H     1 <1>   0.0800 
 33 H        0.8240     3.3960     1.1480 H     1 <1>   0.0800 
 34 H        4.6630     0.7340     0.4280 H     1 <1>   0.1500 
 35 H        7.0010     4.1750     0.1520 H     1 <1>   0.4570 
 36 H        7.0860     0.4730     0.3650 H     1 <1>   0.0800 
 37 H        7.9750     1.8010     1.0390 H     1 <1>   0.0800 
 38 H        3.3850     6.5040     1.1180 H     1 <1>   0.0800 
 39 H        3.4140     6.6140    -0.6370 H     1 <1>   0.0800 
 40 H        7.0320     6.2070    -0.7930 H     1 <1>   0.0800 
 41 H        6.9810     6.6130     0.9280 H     1 <1>   0.0800 
 42 H        7.4160     1.3980    -1.9260 H     1 <1>   0.0800 
 43 H        8.9240     1.0430    -1.1290 H     1 <1>   0.0800 
 44 H        8.3840     2.6940    -1.2580 H     1 <1>   0.0800 
 45 H        4.7080     8.3920     1.3790 H     1 <1>   0.0800 
 46 H        3.9560     8.8500    -0.1340 H     1 <1>   0.0800 
 47 H        5.8420     8.1010    -1.3940 H     1 <1>   0.0800 
 48 H        6.6430     8.7560     0.0190 H     1 <1>   0.0800 
@<TRIPOS>BOND
  1   1   2  1   
  2   1   3  1   
  3   2   4  1   
  4   2   5  1   
  5   2  22  1   
  6   3   6  1   
  7   3  23  1   
  8   3  24  1   
  9   4   6  1   
 10   4  25  1   
 11   4  26  1   
 12   5   7  1   
 13   5  27  1   
 14   5  28  1   
 15   6  29  1   
 16   6  30  1   
 17   7   8  1   
 18   7   9  1   
 19   8  10  ar  
 20   8  11  ar  
 21   9  31  1   
 22   9  32  1   
 23   9  33  1   
 24  10  12  ar  
 25  11  13  ar  
 26  11  34  1   
 27  12  14  ar  
 28  12  15  1   
 29  13  14  ar  
 30  13  16  1   
 31  14  35  1   
 32  15  17  1   
 33  15  18  1   
 34  16  19  1   
 35  16  36  1   
 36  16  37  1   
 37  17  20  1   
 38  17  38  1   
 39  17  39  1   
 40  18  21  1   
 41  18  40  1   
 42  18  41  1   
 43  19  42  1   
 44  19  43  1   
 45  19  44  1   
 46  20  21  1   
 47  20  45  1   
 48  20  46  1   
 49  21  47  1   
 50  21  48  1   
@<TRIPOS>SUBSTRUCTURE
  1 ****   8 GROUP 4 **** **** 0

# MOE 2024.06 (io_trps.svl 2023.06)
