@<TRIPOS>MOLECULE
NONAME
43 44 1 0 0 
SMALL
USER_CHARGES


@<TRIPOS>ATOM
  1 S        0.9920     0.0220    -1.4090 S.o2  1 <1>   1.3330 
  2 O        0.5860     0.8530    -2.5200 O.2   1 <1>  -0.6500 
  3 O        0.9340    -1.4170    -1.5420 O.2   1 <1>  -0.6500 
  4 N        0.0300     0.4530    -0.0780 N.am  1 <1>  -0.8490 
  5 C        2.6530     0.4720    -0.9090 C.3   1 <1>  -0.0550 
  6 C       -0.1280     1.9030     0.0810 C.3   1 <1>   0.1160 
  7 C       -1.2860    -0.1880    -0.1300 C.3   1 <1>   0.1160 
  8 C        3.1020    -0.1480     0.4260 C.3   1 <1>  -0.0800 
  9 C        4.4640     0.3470     0.8580 C.3   1 <1>   0.2890 
 10 C        3.2950    -1.6630     0.3960 C.3   1 <1>   0.1200 
 11 N        4.3440     1.6380     1.5700 N.pl3 1 <1>  -0.8690 
 12 C        4.9550    -0.7890     1.7450 C.3   1 <1>   0.1200 
 13 O        4.3580    -1.9540     1.2560 O.3   1 <1>  -0.5600 
 14 C        4.7380     2.8270     1.0670 C.ar  1 <1>   0.7200 
 15 N        4.8260     2.9530    -0.2520 N.ar  1 <1>  -0.6200 
 16 N        4.9860     3.7460     1.9840 N.ar  1 <1>  -0.6200 
 17 C        5.2020     4.1300    -0.6850 C.ar  1 <1>   0.1670 
 18 C        5.3630     4.9150     1.5290 C.ar  1 <1>   0.1670 
 19 C        5.4870     5.1600     0.1810 C.ar  1 <1>  -0.1500 
 20 C        5.3100     4.3080    -2.1840 C.3   1 <1>  -0.0970 
 21 C        5.6560     5.9890     2.5550 C.3   1 <1>  -0.0970 
 22 H        3.3420     0.1920    -1.6820 H     1 <1>   0.0800 
 23 H        2.6980     1.5390    -0.8170 H     1 <1>   0.0800 
 24 H       -0.7050     2.1170     0.9640 H     1 <1>   0.0800 
 25 H       -0.6270     2.3250    -0.7760 H     1 <1>   0.0800 
 26 H        0.8350     2.3730     0.1890 H     1 <1>   0.0800 
 27 H       -1.8650     0.0770     0.7370 H     1 <1>   0.0800 
 28 H       -1.1730    -1.2590    -0.1450 H     1 <1>   0.0800 
 29 H       -1.8150     0.1150    -1.0190 H     1 <1>   0.0800 
 30 H        2.3850     0.0780     1.1960 H     1 <1>   0.0800 
 31 H        5.1270     0.4340     0.0120 H     1 <1>   0.0800 
 32 H        3.5680    -2.0090    -0.5860 H     1 <1>   0.0800 
 33 H        2.4160    -2.1880     0.7310 H     1 <1>   0.0800 
 34 H        4.3910     1.6140     2.5870 H     1 <1>   0.4000 
 35 H        4.6250    -0.6580     2.7600 H     1 <1>   0.0800 
 36 H        6.0240    -0.9000     1.7050 H     1 <1>   0.0800 
 37 H        5.7960     6.1220    -0.1820 H     1 <1>   0.1500 
 38 H        5.6170     5.3060    -2.4340 H     1 <1>   0.0800 
 39 H        4.3550     4.1140    -2.6390 H     1 <1>   0.0800 
 40 H        6.0280     3.6130    -2.5780 H     1 <1>   0.0800 
 41 H        5.9550     6.9060     2.0810 H     1 <1>   0.0800 
 42 H        6.4460     5.6590     3.2040 H     1 <1>   0.0800 
 43 H        4.7770     6.1720     3.1450 H     1 <1>   0.0800 
@<TRIPOS>BOND
  1   1   2  2   
  2   1   3  2   
  3   1   4  am  
  4   1   5  1   
  5   4   6  1   
  6   4   7  1   
  7   5   8  1   
  8   5  22  1   
  9   5  23  1   
 10   6  24  1   
 11   6  25  1   
 12   6  26  1   
 13   7  27  1   
 14   7  28  1   
 15   7  29  1   
 16   8   9  1   
 17   8  10  1   
 18   8  30  1   
 19   9  11  1   
 20   9  12  1   
 21   9  31  1   
 22  10  13  1   
 23  10  32  1   
 24  10  33  1   
 25  11  14  1   
 26  11  34  1   
 27  12  13  1   
 28  12  35  1   
 29  12  36  1   
 30  14  15  ar  
 31  14  16  ar  
 32  15  17  ar  
 33  16  18  ar  
 34  17  19  ar  
 35  17  20  1   
 36  18  19  ar  
 37  18  21  1   
 38  19  37  1   
 39  20  38  1   
 40  20  39  1   
 41  20  40  1   
 42  21  41  1   
 43  21  42  1   
 44  21  43  1   
@<TRIPOS>SUBSTRUCTURE
  1 ****   5 GROUP 4 **** **** 0

# MOE 2024.06 (io_trps.svl 2023.06)
