@<TRIPOS>MOLECULE
NONAME
51 53 1 0 0 
SMALL
USER_CHARGES


@<TRIPOS>ATOM
  1 O       -0.9350    -0.5410    -0.5780 O.3   1 <1>  -0.6800 
  2 C       -0.5220    -1.3460     0.4780 C.3   1 <1>   0.1200 
  3 C        0.9760    -1.8250     0.2040 C.3   1 <1>   0.0000 
  4 C        2.4980    -2.3070     0.0110 C.3   1 <1>   0.4230 
  5 C        1.5510    -0.4690     0.8730 C.3   1 <1>  -0.1600 
  6 C        0.4270    -3.1410    -0.5420 C.3   1 <1>  -0.1600 
  7 N        2.9420    -3.7060     0.4280 N.4   1 <1>  -0.9590 
  8 C        3.0530    -1.6780    -1.2740 C.3   1 <1>   0.2090 
  9 C        2.2800     0.4260    -0.1760 C.3   1 <1>   0.2090 
 10 C        0.7070    -4.4860     0.1310 C.3   1 <1>  -0.1600 
 11 C        2.1600    -4.8260    -0.1160 C.3   1 <1>   0.3430 
 12 C        4.4130    -3.9040     0.2310 C.3   1 <1>   0.2630 
 13 N        3.4010    -0.3000    -0.8520 N.pl3 1 <1>  -0.8380 
 14 C        4.7030     0.0770    -0.6200 C.ar  1 <1>   0.7200 
 15 N        4.9580     1.3780    -0.6550 N.ar  1 <1>  -0.6200 
 16 N        5.5750    -0.8980    -0.3570 N.ar  1 <1>  -0.6200 
 17 C        6.2010     1.7290    -0.4390 C.ar  1 <1>   0.1600 
 18 C        6.8120    -0.5090    -0.1470 C.ar  1 <1>   0.1600 
 19 C        7.1950     0.8130    -0.1760 C.ar  1 <1>  -0.1430 
 20 C        8.6430     1.2270     0.0710 C.3   1 <1>   0.0630 
 21 C        8.7500     2.1180     1.3130 C.3   1 <1>  -0.2400 
 22 C        9.2230     1.9390    -1.1560 C.3   1 <1>  -0.2400 
 23 H       -1.8550    -0.2300    -0.4490 H     1 <1>   0.4000 
 24 H       -0.6860    -0.8090     1.3970 H     1 <1>   0.0800 
 25 H       -1.2540    -2.1260     0.6060 H     1 <1>   0.0800 
 26 H        3.1050    -1.7740     0.7180 H     1 <1>   0.0800 
 27 H        2.1820    -0.6460     1.7290 H     1 <1>   0.0800 
 28 H        0.8630     0.2520     1.2820 H     1 <1>   0.0800 
 29 H       -0.6090    -3.1740    -0.8440 H     1 <1>   0.0800 
 30 H        0.8700    -3.1780    -1.5230 H     1 <1>   0.0800 
 31 H        2.7770    -3.7250     1.4430 H     1 <1>   0.4500 
 32 H        2.3090    -1.6250    -2.0490 H     1 <1>   0.0800 
 33 H        3.9150    -2.1900    -1.6600 H     1 <1>   0.0800 
 34 H        2.6480     1.3150     0.3100 H     1 <1>   0.0800 
 35 H        1.5750     0.7420    -0.9290 H     1 <1>   0.0800 
 36 H        0.0980    -5.2510    -0.3200 H     1 <1>   0.0800 
 37 H        0.4800    -4.4550     1.1820 H     1 <1>   0.0800 
 38 H        2.3400    -4.9270    -1.1750 H     1 <1>   0.0800 
 39 H        2.4200    -5.7500     0.3750 H     1 <1>   0.0800 
 40 H        4.6530    -3.9350    -0.8190 H     1 <1>   0.0800 
 41 H        4.7340    -4.8270     0.6860 H     1 <1>   0.0800 
 42 H        4.9610    -3.0900     0.6800 H     1 <1>   0.0800 
 43 H        6.4330     2.7800    -0.4740 H     1 <1>   0.1500 
 44 H        7.5480    -1.2680     0.0550 H     1 <1>   0.1500 
 45 H        9.2330     0.3430     0.2480 H     1 <1>   0.0800 
 46 H        8.2160     3.0410     1.1730 H     1 <1>   0.0800 
 47 H        9.7810     2.3480     1.5180 H     1 <1>   0.0800 
 48 H        8.3390     1.6100     2.1680 H     1 <1>   0.0800 
 49 H        8.7030     2.8590    -1.3510 H     1 <1>   0.0800 
 50 H        9.1390     1.3070    -2.0230 H     1 <1>   0.0800 
 51 H       10.2640     2.1620    -0.9990 H     1 <1>   0.0800 
@<TRIPOS>BOND
  1   1   2  1   
  2   1  23  1   
  3   2   3  1   
  4   2  24  1   
  5   2  25  1   
  6   3   4  1   
  7   3   5  1   
  8   3   6  1   
  9   4   7  1   
 10   4   8  1   
 11   4  26  1   
 12   5   9  1   
 13   5  27  1   
 14   5  28  1   
 15   6  10  1   
 16   6  29  1   
 17   6  30  1   
 18   7  11  1   
 19   7  12  1   
 20   7  31  1   
 21   8  13  1   
 22   8  32  1   
 23   8  33  1   
 24   9  13  1   
 25   9  34  1   
 26   9  35  1   
 27  10  11  1   
 28  10  36  1   
 29  10  37  1   
 30  11  38  1   
 31  11  39  1   
 32  12  40  1   
 33  12  41  1   
 34  12  42  1   
 35  13  14  1   
 36  14  15  ar  
 37  14  16  ar  
 38  15  17  ar  
 39  16  18  ar  
 40  17  19  ar  
 41  17  43  1   
 42  18  19  ar  
 43  18  44  1   
 44  19  20  1   
 45  20  21  1   
 46  20  22  1   
 47  20  45  1   
 48  21  46  1   
 49  21  47  1   
 50  21  48  1   
 51  22  49  1   
 52  22  50  1   
 53  22  51  1   
@<TRIPOS>SUBSTRUCTURE
  1 ****  13 GROUP 4 **** **** 0

# MOE 2024.06 (io_trps.svl 2023.06)
