@<TRIPOS>MOLECULE
Untitled Document
41 44 1 0 0 
SMALL
USER_CHARGES


@<TRIPOS>ATOM
  1 F       -0.8120    -1.9000     2.9330 F     1 <1>  -0.1900 
  2 C       -0.2940    -2.8080     2.1500 C.ar  1 <1>   0.1900 
  3 C       -0.5970    -2.7770     0.8030 C.ar  1 <1>  -0.1500 
  4 C        0.5370    -3.7650     2.6980 C.ar  1 <1>  -0.1500 
  5 C       -0.0440    -3.7400    -0.0250 C.ar  1 <1>  -0.1500 
  6 C        1.0830    -4.7230     1.8600 C.ar  1 <1>  -0.1500 
  7 C        0.8000    -4.7160     0.4970 C.ar  1 <1>  -0.1430 
  8 C        1.4170    -5.7640    -0.4210 C.3   1 <1>   0.6140 
  9 O        1.0670    -7.0340    -0.0120 O.3   1 <1>  -0.5600 
 10 N        2.8660    -5.7410    -0.3350 N.3   1 <1>  -0.8100 
 11 C        1.9820    -7.9060    -0.5700 C.3   1 <1>   0.1200 
 12 C        3.2840    -7.1030    -0.6400 C.3   1 <1>   0.2700 
 13 C        3.3690    -4.9040    -1.4110 C.3   1 <1>   0.6130 
 14 C        3.8510    -7.0100    -2.0580 C.3   1 <1>   0.1200 
 15 C        4.2940    -7.6230     0.4070 C.3   1 <1>   0.1200 
 16 O        3.4470    -5.7590    -2.5060 O.3   1 <1>  -0.5600 
 17 C        4.7310    -4.2970    -1.0490 C.ar  1 <1>  -0.1440 
 18 O        5.4780    -6.8960     0.3930 O.3   1 <1>  -0.6800 
 19 C        5.7850    -4.2670    -1.9600 C.ar  1 <1>  -0.1500 
 20 C        4.9130    -3.7480     0.2180 C.ar  1 <1>  -0.1500 
 21 C        7.0050    -3.7130    -1.6100 C.ar  1 <1>  -0.1500 
 22 C        6.1280    -3.1920     0.5810 C.ar  1 <1>  -0.1500 
 23 C        7.1540    -3.1860    -0.3430 C.ar  1 <1>   0.1900 
 24 F        8.3020    -2.6620    -0.0080 F     1 <1>  -0.1900 
 25 H       -1.2510    -2.0170     0.4160 H     1 <1>   0.1500 
 26 H        0.7480    -3.7600     3.7510 H     1 <1>   0.1500 
 27 H       -0.2760    -3.7270    -1.0760 H     1 <1>   0.1500 
 28 H        1.7340    -5.4820     2.2600 H     1 <1>   0.1500 
 29 H        1.0750    -5.6460    -1.4380 H     1 <1>   0.0800 
 30 H        2.0580    -8.7780     0.0550 H     1 <1>   0.0800 
 31 H        1.6290    -8.1890    -1.5460 H     1 <1>   0.0800 
 32 H        2.6850    -4.1050    -1.6480 H     1 <1>   0.0800 
 33 H        3.4720    -7.7680    -2.7190 H     1 <1>   0.0800 
 34 H        4.9270    -7.0410    -2.0600 H     1 <1>   0.0800 
 35 H        4.5450    -8.6510     0.2150 H     1 <1>   0.0800 
 36 H        3.8690    -7.5470     1.3930 H     1 <1>   0.0800 
 37 H        5.2690    -5.9340     0.3720 H     1 <1>   0.4000 
 38 H        5.6610    -4.6760    -2.9490 H     1 <1>   0.1500 
 39 H        4.1030    -3.7530     0.9300 H     1 <1>   0.1500 
 40 H        7.8260    -3.6890    -2.3030 H     1 <1>   0.1500 
 41 H        6.2800    -2.7690     1.5580 H     1 <1>   0.1500 
@<TRIPOS>BOND
  1   1   2  1   
  2   2   3  ar  
  3   2   4  ar  
  4   3   5  ar  
  5   3  25  1   
  6   4   6  ar  
  7   4  26  1   
  8   5   7  ar  
  9   5  27  1   
 10   6   7  ar  
 11   6  28  1   
 12   7   8  1   
 13   8   9  1   
 14   8  10  1   
 15   8  29  1   
 16   9  11  1   
 17  10  12  1   
 18  10  13  1   
 19  11  12  1   
 20  11  30  1   
 21  11  31  1   
 22  12  14  1   
 23  12  15  1   
 24  13  16  1   
 25  13  17  1   
 26  13  32  1   
 27  14  16  1   
 28  14  33  1   
 29  14  34  1   
 30  15  18  1   
 31  15  35  1   
 32  15  36  1   
 33  17  19  ar  
 34  17  20  ar  
 35  18  37  1   
 36  19  21  ar  
 37  19  38  1   
 38  20  22  ar  
 39  20  39  1   
 40  21  23  ar  
 41  21  40  1   
 42  22  23  ar  
 43  22  41  1   
 44  23  24  1   
@<TRIPOS>SUBSTRUCTURE
  1 ****  10 GROUP 4 **** **** 0

# MOE 2024.06 (io_trps.svl 2023.06)
