@<TRIPOS>MOLECULE
NONAME
39 41 1 0 0 
SMALL
USER_CHARGES


@<TRIPOS>ATOM
  1 CL      -0.3600    -0.3300    -1.4630 Cl    1 <1>  -0.1770 
  2 C       -1.6760    -0.9860    -0.5160 C.ar  1 <1>   0.1770 
  3 C       -2.6570    -0.1600     0.0060 C.ar  1 <1>   0.1900 
  4 C       -1.7320    -2.3470    -0.2920 C.ar  1 <1>  -0.1500 
  5 F       -2.6130     1.1270    -0.2050 F     1 <1>  -0.1900 
  6 C       -3.6970    -0.6740     0.7580 C.ar  1 <1>  -0.1500 
  7 C       -2.7750    -2.9040     0.4530 C.ar  1 <1>   0.0860 
  8 C       -3.7440    -2.0410     0.9770 C.ar  1 <1>  -0.1500 
  9 C       -2.8290    -4.3360     0.6790 C.2   1 <1>   0.5440 
 10 O       -1.8530    -4.9090     1.1190 O.2   1 <1>  -0.5700 
 11 N       -3.9540    -5.0750     0.3930 N.am  1 <1>  -0.6600 
 12 C       -5.0450    -4.6530    -0.5250 C.3   1 <1>   0.1400 
 13 C       -4.0150    -6.5450     0.6140 C.3   1 <1>   0.1400 
 14 C       -6.0230    -5.8260    -0.5230 C.3   1 <1>   0.2000 
 15 C       -5.1230    -7.0490    -0.3200 C.3   1 <1>  -0.0800 
 16 O       -6.8640    -5.6810     0.5700 O.3   1 <1>  -0.6800 
 17 C       -5.8450    -8.3100     0.1900 C.3   1 <1>   0.0200 
 18 C       -4.9450    -9.5340     0.2460 C.2   1 <1>  -0.0400 
 19 O       -5.4120   -10.6290     0.7850 O.3   1 <1>  -0.0190 
 20 C       -3.6890    -9.7830    -0.1580 C.2   1 <1>  -0.1500 
 21 N       -4.5380   -11.5930     0.7670 N.2   1 <1>  -0.4100 
 22 C       -3.4890   -11.1120     0.2040 C.2   1 <1>   0.1080 
 23 C       -2.2150   -11.8920    -0.0270 C.3   1 <1>  -0.0590 
 24 H       -0.9630    -2.9860    -0.6900 H     1 <1>   0.1500 
 25 H       -4.4460    -0.0150     1.1610 H     1 <1>   0.1500 
 26 H       -4.5420    -2.4550     1.5720 H     1 <1>   0.1500 
 27 H       -5.5240    -3.7450    -0.2020 H     1 <1>   0.0800 
 28 H       -4.6390    -4.5160    -1.5120 H     1 <1>   0.0800 
 29 H       -3.0680    -7.0060     0.3900 H     1 <1>   0.0800 
 30 H       -4.2620    -6.7330     1.6450 H     1 <1>   0.0800 
 31 H       -6.6250    -5.8780    -1.4140 H     1 <1>   0.0800 
 32 H       -4.6710    -7.2770    -1.2690 H     1 <1>   0.0800 
 33 H       -6.3210    -5.5210     1.3680 H     1 <1>   0.4000 
 34 H       -6.6770    -8.5310    -0.4560 H     1 <1>   0.0800 
 35 H       -6.2400    -8.1370     1.1760 H     1 <1>   0.0800 
 36 H       -2.9720    -9.1510    -0.6470 H     1 <1>   0.1500 
 37 H       -1.9930   -11.9270    -1.0770 H     1 <1>   0.0800 
 38 H       -2.3280   -12.8970     0.3380 H     1 <1>   0.0800 
 39 H       -1.4000   -11.4230     0.4940 H     1 <1>   0.0800 
@<TRIPOS>BOND
  1   1   2  1   
  2   2   3  ar  
  3   2   4  ar  
  4   3   5  1   
  5   3   6  ar  
  6   4   7  ar  
  7   4  24  1   
  8   6   8  ar  
  9   6  25  1   
 10   7   8  ar  
 11   7   9  1   
 12   8  26  1   
 13   9  10  2   
 14   9  11  am  
 15  11  12  1   
 16  11  13  1   
 17  12  14  1   
 18  12  27  1   
 19  12  28  1   
 20  13  15  1   
 21  13  29  1   
 22  13  30  1   
 23  14  15  1   
 24  14  16  1   
 25  14  31  1   
 26  15  17  1   
 27  15  32  1   
 28  16  33  1   
 29  17  18  1   
 30  17  34  1   
 31  17  35  1   
 32  18  19  1   
 33  18  20  2   
 34  19  21  1   
 35  20  22  1   
 36  20  36  1   
 37  21  22  2   
 38  22  23  1   
 39  23  37  1   
 40  23  38  1   
 41  23  39  1   
@<TRIPOS>SUBSTRUCTURE
  1 ****  11 GROUP 4 **** **** 0

# MOE 2024.06 (io_trps.svl 2023.06)
