@<TRIPOS>MOLECULE
NONAME
54 57 1 0 0 
SMALL
USER_CHARGES


@<TRIPOS>ATOM
  1 S       -0.3860    -0.2840    -0.6850 S.3   1 <1>  -0.0800 
  2 C        0.2390     1.1970     0.0400 C.2   1 <1>  -0.0130 
  3 C       -2.0560     0.1930    -0.4490 C.2   1 <1>  -0.1400 
  4 C        1.6670     1.4070     0.1280 C.ar  1 <1>   0.0530 
  5 C       -0.8140     1.9620     0.4170 C.2   1 <1>  -0.1500 
  6 C       -2.0980     1.4050     0.1460 C.2   1 <1>  -0.1500 
  7 C       -3.0660    -0.8320    -0.9510 C.3   1 <1>   0.5230 
  8 C        2.5790     0.3500     0.1330 C.ar  1 <1>  -0.1500 
  9 C        2.1850     2.6980     0.2180 C.ar  1 <1>  -0.1500 
 10 N       -4.4900    -0.4230    -0.7560 N.4   1 <1>  -0.9590 
 11 C        3.9410     0.5730     0.2190 C.ar  1 <1>  -0.1500 
 12 C        3.5460     2.9290     0.3050 C.ar  1 <1>  -0.1500 
 13 C       -4.8100     0.8110    -1.5330 C.3   1 <1>   0.3430 
 14 C       -4.8180    -0.2790     0.6940 C.3   1 <1>   0.3430 
 15 C        4.4290     1.8640     0.3060 C.ar  1 <1>  -0.1500 
 16 C       -6.2850     1.1620    -1.3790 C.3   1 <1>  -0.1600 
 17 C       -6.2930     0.0620     0.8630 C.3   1 <1>  -0.1600 
 18 C       -6.6630     1.3420     0.1000 C.3   1 <1>   0.2800 
 19 O       -5.8030     2.3450     0.5930 O.3   1 <1>  -0.5600 
 20 C       -8.1710     1.6750     0.3140 C.3   1 <1>   0.2000 
 21 C       -6.3580     3.5110     1.1410 C.3   1 <1>   0.1200 
 22 O       -8.9860     0.7400    -0.3320 O.3   1 <1>  -0.6800 
 23 C       -8.5580     3.1420    -0.0480 C.3   1 <1>   0.2800 
 24 C       -7.3700     4.0970     0.1560 C.3   1 <1>  -0.1600 
 25 O       -9.5390     3.5140     0.8490 O.3   1 <1>  -0.6800 
 26 C       -9.1850     3.3460    -1.4350 C.3   1 <1>  -0.2400 
 27 H       -0.7260     2.9240     0.8920 H     1 <1>   0.1500 
 28 H       -2.9750     1.9640     0.4220 H     1 <1>   0.1500 
 29 H       -2.8880    -1.7620    -0.4370 H     1 <1>   0.0800 
 30 H       -2.8830    -1.0010    -2.0000 H     1 <1>   0.0800 
 31 H        2.2270    -0.6620     0.0740 H     1 <1>   0.1500 
 32 H        1.5150     3.5380     0.2140 H     1 <1>   0.1500 
 33 H       -5.0840    -1.1750    -1.1260 H     1 <1>   0.4500 
 34 H        4.6240    -0.2590     0.2210 H     1 <1>   0.1500 
 35 H        3.9200     3.9360     0.3720 H     1 <1>   0.1500 
 36 H       -4.2190     1.6380    -1.1750 H     1 <1>   0.0800 
 37 H       -4.5820     0.6630    -2.5770 H     1 <1>   0.0800 
 38 H       -4.5970    -1.1950     1.2180 H     1 <1>   0.0800 
 39 H       -4.2290     0.5090     1.1320 H     1 <1>   0.0800 
 40 H        5.4880     2.0400     0.3730 H     1 <1>   0.1500 
 41 H       -6.8850     0.3920    -1.8300 H     1 <1>   0.0800 
 42 H       -6.4760     2.0710    -1.9150 H     1 <1>   0.0800 
 43 H       -6.5050     0.1970     1.9080 H     1 <1>   0.0800 
 44 H       -6.8960    -0.7610     0.5200 H     1 <1>   0.0800 
 45 H       -8.3610     1.5480     1.3670 H     1 <1>   0.0800 
 46 H       -6.8200     3.2700     2.0850 H     1 <1>   0.0800 
 47 H       -5.5550     4.2060     1.3160 H     1 <1>   0.0800 
 48 H       -9.9220     0.9620    -0.1410 H     1 <1>   0.4000 
 49 H       -6.8590     4.2610    -0.7750 H     1 <1>   0.0800 
 50 H       -7.7090     5.0560     0.5050 H     1 <1>   0.0800 
 51 H       -9.8960     4.3890     0.6050 H     1 <1>   0.4000 
 52 H       -8.5210     3.0050    -2.2050 H     1 <1>   0.0800 
 53 H       -9.3870     4.3880    -1.6110 H     1 <1>   0.0800 
 54 H      -10.1050     2.7960    -1.5260 H     1 <1>   0.0800 
@<TRIPOS>BOND
  1   1   2  1   
  2   1   3  1   
  3   2   4  1   
  4   2   5  2   
  5   3   6  2   
  6   3   7  1   
  7   4   8  ar  
  8   4   9  ar  
  9   5   6  1   
 10   5  27  1   
 11   6  28  1   
 12   7  10  1   
 13   7  29  1   
 14   7  30  1   
 15   8  11  ar  
 16   8  31  1   
 17   9  12  ar  
 18   9  32  1   
 19  10  13  1   
 20  10  14  1   
 21  10  33  1   
 22  11  15  ar  
 23  11  34  1   
 24  12  15  ar  
 25  12  35  1   
 26  13  16  1   
 27  13  36  1   
 28  13  37  1   
 29  14  17  1   
 30  14  38  1   
 31  14  39  1   
 32  15  40  1   
 33  16  18  1   
 34  16  41  1   
 35  16  42  1   
 36  17  18  1   
 37  17  43  1   
 38  17  44  1   
 39  18  19  1   
 40  18  20  1   
 41  19  21  1   
 42  20  22  1   
 43  20  23  1   
 44  20  45  1   
 45  21  24  1   
 46  21  46  1   
 47  21  47  1   
 48  22  48  1   
 49  23  24  1   
 50  23  25  1   
 51  23  26  1   
 52  24  49  1   
 53  24  50  1   
 54  25  51  1   
 55  26  52  1   
 56  26  53  1   
 57  26  54  1   
@<TRIPOS>SUBSTRUCTURE
  1 ****   6 GROUP 4 **** **** 0

# MOE 2024.06 (io_trps.svl 2023.06)
