@<TRIPOS>MOLECULE
NONAME
53 55 1 0 0 
SMALL
USER_CHARGES


@<TRIPOS>ATOM
  1 S        1.7390     0.4930     0.4470 S.o2  1 <1>   1.3330 
  2 O        2.4110     0.0770    -0.7600 O.2   1 <1>  -0.6500 
  3 O        2.5080     1.1120     1.5050 O.2   1 <1>  -0.6500 
  4 N        0.8510    -0.8010     1.0810 N.am  1 <1>  -0.8490 
  5 C        0.4890     1.6940    -0.0040 C.3   1 <1>  -0.0550 
  6 C        1.6050    -1.5590     2.0860 C.3   1 <1>   0.1160 
  7 C        0.3400    -1.7170     0.0530 C.3   1 <1>   0.1160 
  8 C        1.0990     2.9520    -0.6640 C.3   1 <1>  -0.0800 
  9 C        0.1110     4.0780    -0.9720 C.3   1 <1>   0.2000 
 10 C        2.1730     3.6420     0.1780 C.3   1 <1>   0.3430 
 11 O       -0.7710     4.2340     0.0910 O.3   1 <1>  -0.6800 
 12 C        0.9880     5.3310    -1.0930 C.3   1 <1>   0.3430 
 13 N        2.2560     5.0260    -0.3520 N.4   1 <1>  -0.9590 
 14 C        2.6860     6.0180     0.6690 C.3   1 <1>   0.4860 
 15 C        2.4960     7.4460     0.1660 C.ar  1 <1>  -0.1440 
 16 C        3.2120     8.0520    -0.8770 C.ar  1 <1>  -0.1440 
 17 C        1.5170     8.1750     0.8310 C.ar  1 <1>  -0.1500 
 18 C        2.9100     9.3670    -1.2120 C.ar  1 <1>  -0.1500 
 19 C        4.3140     7.4200    -1.7440 C.3   1 <1>   0.2390 
 20 C        1.2330     9.4790     0.4820 C.ar  1 <1>  -0.1500 
 21 C        1.9320    10.0770    -0.5440 C.ar  1 <1>  -0.1500 
 22 N        5.1000     6.3490    -1.0970 N.pl3 1 <1>   0.3140 
 23 N        4.8900     5.0430    -1.3800 N.2   1 <1>  -0.7070 
 24 C        6.0880     6.4960    -0.1930 C.2   1 <1>  -0.3020 
 25 C        5.7770     4.4030    -0.6740 C.2   1 <1>   0.1390 
 26 C        6.5480     5.2610     0.0980 C.2   1 <1>  -0.1500 
 27 H       -0.2060     1.2460    -0.6870 H     1 <1>   0.0800 
 28 H       -0.0560     1.9630     0.8810 H     1 <1>   0.0800 
 29 H        1.0010    -2.3550     2.4850 H     1 <1>   0.0800 
 30 H        1.8880    -0.9130     2.9010 H     1 <1>   0.0800 
 31 H        2.4980    -1.9760     1.6490 H     1 <1>   0.0800 
 32 H       -0.2810    -2.4710     0.5050 H     1 <1>   0.0800 
 33 H        1.1560    -2.1980    -0.4620 H     1 <1>   0.0800 
 34 H       -0.2520    -1.1780    -0.6660 H     1 <1>   0.0800 
 35 H        1.5660     2.6500    -1.5870 H     1 <1>   0.0800 
 36 H       -0.4700     3.8980    -1.8620 H     1 <1>   0.0800 
 37 H        3.1230     3.1350     0.1020 H     1 <1>   0.0800 
 38 H        1.8660     3.6560     1.2110 H     1 <1>   0.0800 
 39 H       -0.3250     4.4680     0.9270 H     1 <1>   0.4000 
 40 H        0.4760     6.1900    -0.6930 H     1 <1>   0.0800 
 41 H        1.2190     5.5110    -2.1300 H     1 <1>   0.0800 
 42 H        3.0440     5.0080    -1.0350 H     1 <1>   0.4500 
 43 H        2.1040     5.8850     1.5650 H     1 <1>   0.0800 
 44 H        3.7200     5.8550     0.9260 H     1 <1>   0.0800 
 45 H        0.9550     7.7380     1.6410 H     1 <1>   0.1500 
 46 H        3.4360     9.8660    -2.0100 H     1 <1>   0.1500 
 47 H        5.0110     8.1790    -2.0510 H     1 <1>   0.0800 
 48 H        3.8710     7.0130    -2.6350 H     1 <1>   0.0800 
 49 H        0.4710    10.0320     1.0080 H     1 <1>   0.1500 
 50 H        1.7170    11.0960    -0.8210 H     1 <1>   0.1500 
 51 H        6.4130     7.4520     0.1790 H     1 <1>   0.1500 
 52 H        5.8980     3.3300    -0.6890 H     1 <1>   0.1500 
 53 H        7.3410     4.9730     0.7680 H     1 <1>   0.1500 
@<TRIPOS>BOND
  1   1   2  2   
  2   1   3  2   
  3   1   4  am  
  4   1   5  1   
  5   4   6  1   
  6   4   7  1   
  7   5   8  1   
  8   5  27  1   
  9   5  28  1   
 10   6  29  1   
 11   6  30  1   
 12   6  31  1   
 13   7  32  1   
 14   7  33  1   
 15   7  34  1   
 16   8   9  1   
 17   8  10  1   
 18   8  35  1   
 19   9  11  1   
 20   9  12  1   
 21   9  36  1   
 22  10  13  1   
 23  10  37  1   
 24  10  38  1   
 25  11  39  1   
 26  12  13  1   
 27  12  40  1   
 28  12  41  1   
 29  13  14  1   
 30  13  42  1   
 31  14  15  1   
 32  14  43  1   
 33  14  44  1   
 34  15  16  ar  
 35  15  17  ar  
 36  16  18  ar  
 37  16  19  1   
 38  17  20  ar  
 39  17  45  1   
 40  18  21  ar  
 41  18  46  1   
 42  19  22  1   
 43  19  47  1   
 44  19  48  1   
 45  20  21  ar  
 46  20  49  1   
 47  21  50  1   
 48  22  23  1   
 49  22  24  1   
 50  23  25  2   
 51  24  26  2   
 52  24  51  1   
 53  25  26  1   
 54  25  52  1   
 55  26  53  1   
@<TRIPOS>SUBSTRUCTURE
  1 ****  13 GROUP 4 **** **** 0

# MOE 2024.06 (io_trps.svl 2023.06)
