@<TRIPOS>MOLECULE
NONAME
47 49 1 0 0 
SMALL
USER_CHARGES


@<TRIPOS>ATOM
  1 CL       0.9150    -0.6970     4.0310 Cl    1 <1>  -0.1770 
  2 C        1.2200    -1.2610     2.4090 C.ar  1 <1>   0.1770 
  3 C        1.2100    -0.3530     1.3700 C.ar  1 <1>  -0.1500 
  4 C        1.4490    -2.6060     2.1950 C.ar  1 <1>  -0.1500 
  5 C        1.4520    -0.8150     0.0820 C.ar  1 <1>   0.0830 
  6 C        1.6750    -3.0900     0.9080 C.ar  1 <1>   0.0860 
  7 O        1.4340    -0.0130    -1.0070 O.3   1 <1>  -0.3630 
  8 C        1.7080    -2.1600    -0.1290 C.ar  1 <1>  -0.1500 
  9 C        1.8890    -4.5090     0.6830 C.2   1 <1>   0.5440 
 10 C        0.6910     1.1880    -0.9980 C.3   1 <1>   0.0400 
 11 O        2.8200    -5.0350     1.2620 O.2   1 <1>  -0.5700 
 12 N        1.0990    -5.2960    -0.1440 N.am  1 <1>  -0.6600 
 13 C       -0.3530    -5.1220    -0.4710 C.3   1 <1>   0.2200 
 14 C        1.6530    -6.5840    -0.6570 C.3   1 <1>   0.0600 
 15 C       -1.2170    -4.5470     0.6560 C.3   1 <1>  -0.1600 
 16 C       -0.5550    -4.2570    -1.7120 C.3   1 <1>  -0.1600 
 17 C       -2.1200    -3.4650     0.0440 C.3   1 <1>  -0.0800 
 18 C       -1.7850    -3.3760    -1.4590 C.3   1 <1>  -0.0800 
 19 C       -2.0180    -2.1290     0.7970 C.3   1 <1>   0.1400 
 20 C       -1.5960    -1.9380    -1.9900 C.3   1 <1>  -0.0990 
 21 N       -2.7040    -1.0590     0.0350 N.am  1 <1>  -0.6600 
 22 C       -2.5140    -0.9420    -1.3130 C.2   1 <1>   0.5690 
 23 C       -3.5490    -0.1180     0.8160 C.3   1 <1>   0.0600 
 24 O       -3.0180    -0.0680    -1.9770 O.2   1 <1>  -0.5700 
 25 H        1.0230     0.6820     1.5780 H     1 <1>   0.1500 
 26 H        1.4550    -3.2880     3.0270 H     1 <1>   0.1500 
 27 H        1.9430    -2.4870    -1.1240 H     1 <1>   0.1500 
 28 H        0.6590     1.5690    -2.0030 H     1 <1>   0.0800 
 29 H        1.1790     1.8990    -0.3560 H     1 <1>   0.0800 
 30 H       -0.3090     0.9820    -0.6570 H     1 <1>   0.0800 
 31 H       -0.7650    -6.0930    -0.6950 H     1 <1>   0.0800 
 32 H        1.3580    -6.7310    -1.6810 H     1 <1>   0.0800 
 33 H        1.2880    -7.3990    -0.0570 H     1 <1>   0.0800 
 34 H        2.7290    -6.5780    -0.6130 H     1 <1>   0.0800 
 35 H       -1.8310    -5.3350     1.0540 H     1 <1>   0.0800 
 36 H       -0.6360    -4.1630     1.4690 H     1 <1>   0.0800 
 37 H        0.3150    -3.6630    -1.8980 H     1 <1>   0.0800 
 38 H       -0.7160    -4.8800    -2.5740 H     1 <1>   0.0800 
 39 H       -3.1430    -3.7920     0.1350 H     1 <1>   0.0800 
 40 H       -2.6190    -3.8090    -1.9880 H     1 <1>   0.0800 
 41 H       -0.9880    -1.8530     0.9120 H     1 <1>   0.0800 
 42 H       -2.4550    -2.2280     1.7760 H     1 <1>   0.0800 
 43 H       -1.7650    -1.9160    -3.0510 H     1 <1>   0.0800 
 44 H       -0.5940    -1.6010    -1.8140 H     1 <1>   0.0800 
 45 H       -2.9530     0.3690     1.5680 H     1 <1>   0.0800 
 46 H       -4.3500    -0.6570     1.2900 H     1 <1>   0.0800 
 47 H       -3.9740     0.6330     0.1720 H     1 <1>   0.0800 
@<TRIPOS>BOND
  1   1   2  1   
  2   2   3  ar  
  3   2   4  ar  
  4   3   5  ar  
  5   3  25  1   
  6   4   6  ar  
  7   4  26  1   
  8   5   7  1   
  9   5   8  ar  
 10   6   8  ar  
 11   6   9  1   
 12   7  10  1   
 13   8  27  1   
 14   9  11  2   
 15   9  12  am  
 16  10  28  1   
 17  10  29  1   
 18  10  30  1   
 19  12  13  1   
 20  12  14  1   
 21  13  15  1   
 22  13  16  1   
 23  13  31  1   
 24  14  32  1   
 25  14  33  1   
 26  14  34  1   
 27  15  17  1   
 28  15  35  1   
 29  15  36  1   
 30  16  18  1   
 31  16  37  1   
 32  16  38  1   
 33  17  18  1   
 34  17  19  1   
 35  17  39  1   
 36  18  20  1   
 37  18  40  1   
 38  19  21  1   
 39  19  41  1   
 40  19  42  1   
 41  20  22  1   
 42  20  43  1   
 43  20  44  1   
 44  21  22  am  
 45  21  23  1   
 46  22  24  2   
 47  23  45  1   
 48  23  46  1   
 49  23  47  1   
@<TRIPOS>SUBSTRUCTURE
  1 ****   8 GROUP 4 **** **** 0

# MOE 2024.06 (io_trps.svl 2023.06)
