@<TRIPOS>MOLECULE
NONAME
52 55 1 0 0 
SMALL
USER_CHARGES


@<TRIPOS>ATOM
  1 O       -0.2650    -0.3960    -0.0120 O.2   1 <1>  -0.5700 
  2 C       -1.2480     0.2840    -0.2340 C.2   1 <1>   0.7160 
  3 N       -2.3630    -0.3310    -0.7130 N.am  1 <1>  -0.7300 
  4 C       -1.2680     1.6950     0.0160 C.2   1 <1>  -0.0860 
  5 C       -2.6100    -1.7870    -0.8030 C.3   1 <1>   0.1400 
  6 C       -2.4180     2.4970     0.0840 C.2   1 <1>   0.3720 
  7 C       -0.2620     2.5780     0.2710 C.2   1 <1>   0.0870 
  8 C       -3.5650    -2.2350     0.3170 C.3   1 <1>   0.0000 
  9 N       -2.1230     3.7160     0.3640 N.2   1 <1>  -0.4100 
 10 N       -3.7370     2.0550    -0.1050 N.pl3 1 <1>  -0.8210 
 11 O       -0.8220     3.7450     0.4730 O.3   1 <1>  -0.0190 
 12 C        1.1730     2.4680     0.3450 C.ar  1 <1>   0.0530 
 13 C       -5.0200    -1.7880     0.0980 C.3   1 <1>   0.2580 
 14 C       -4.1640    -3.6270     0.0610 C.3   1 <1>   0.2580 
 15 C       -3.0350    -2.0260     1.7490 C.3   1 <1>  -0.2400 
 16 C       -4.4480     2.7190    -1.2340 C.3   1 <1>   0.2090 
 17 C       -4.5850     2.1650     1.1160 C.3   1 <1>   0.2090 
 18 C        1.8930     3.2000     1.2900 C.ar  1 <1>  -0.1500 
 19 C        1.9030     1.6540    -0.5230 C.ar  1 <1>  -0.1500 
 20 O       -5.2080    -2.9790    -0.6570 O.3   1 <1>  -0.5160 
 21 C       -5.8900     2.8730    -0.7750 C.3   1 <1>  -0.1600 
 22 C       -5.7750     3.0360     0.7330 C.3   1 <1>  -0.1600 
 23 C        3.2700     3.1160     1.3710 C.ar  1 <1>  -0.1500 
 24 C        3.2800     1.5620    -0.4470 C.ar  1 <1>  -0.1500 
 25 C        3.9780     2.2960     0.5070 C.ar  1 <1>   0.0830 
 26 O        5.3230     2.2650     0.6510 O.3   1 <1>  -0.3630 
 27 C        6.1300     1.4300    -0.1490 C.3   1 <1>   0.0400 
 28 H       -3.1930     0.2800    -0.7440 H     1 <1>   0.3700 
 29 H       -1.6790    -2.3220    -0.7200 H     1 <1>   0.0800 
 30 H       -3.0360    -2.0080    -1.7680 H     1 <1>   0.0800 
 31 H       -5.1510    -0.9210    -0.5250 H     1 <1>   0.0000 
 32 H       -5.6420    -1.8090     0.9770 H     1 <1>   0.0000 
 33 H       -4.5680    -4.1200     0.9290 H     1 <1>   0.0000 
 34 H       -3.5940    -4.2630    -0.5930 H     1 <1>   0.0000 
 35 H       -2.8940    -0.9780     1.9460 H     1 <1>   0.0800 
 36 H       -2.0880    -2.5230     1.8670 H     1 <1>   0.0800 
 37 H       -3.7230    -2.4190     2.4750 H     1 <1>   0.0800 
 38 H       -4.3850     2.1210    -2.1270 H     1 <1>   0.0800 
 39 H       -4.0200     3.6890    -1.4270 H     1 <1>   0.0800 
 40 H       -4.0440     2.5960     1.9430 H     1 <1>   0.0800 
 41 H       -4.9220     1.1810     1.3930 H     1 <1>   0.0800 
 42 H        1.3640     3.8420     1.9720 H     1 <1>   0.1500 
 43 H        1.3820     1.0820    -1.2700 H     1 <1>   0.1500 
 44 H       -6.4330     1.9750    -1.0110 H     1 <1>   0.0800 
 45 H       -6.3700     3.7130    -1.2440 H     1 <1>   0.0800 
 46 H       -5.5460     4.0590     0.9740 H     1 <1>   0.0800 
 47 H       -6.6700     2.7430     1.2500 H     1 <1>   0.0800 
 48 H        3.8090     3.6850     2.1070 H     1 <1>   0.1500 
 49 H        3.7910     0.9160    -1.1340 H     1 <1>   0.1500 
 50 H        7.1520     1.5620     0.1550 H     1 <1>   0.0800 
 51 H        6.0140     1.7160    -1.1790 H     1 <1>   0.0800 
 52 H        5.8310     0.4070     0.0040 H     1 <1>   0.0800 
@<TRIPOS>BOND
  1   1   2  2   
  2   2   3  am  
  3   2   4  1   
  4   3   5  1   
  5   3  28  1   
  6   4   6  1   
  7   4   7  2   
  8   5   8  1   
  9   5  29  1   
 10   5  30  1   
 11   6   9  2   
 12   6  10  1   
 13   7  11  1   
 14   7  12  1   
 15   8  13  1   
 16   8  14  1   
 17   8  15  1   
 18   9  11  1   
 19  10  16  1   
 20  10  17  1   
 21  12  18  ar  
 22  12  19  ar  
 23  13  20  1   
 24  13  31  1   
 25  13  32  1   
 26  14  20  1   
 27  14  33  1   
 28  14  34  1   
 29  15  35  1   
 30  15  36  1   
 31  15  37  1   
 32  16  21  1   
 33  16  38  1   
 34  16  39  1   
 35  17  22  1   
 36  17  40  1   
 37  17  41  1   
 38  18  23  ar  
 39  18  42  1   
 40  19  24  ar  
 41  19  43  1   
 42  21  22  1   
 43  21  44  1   
 44  21  45  1   
 45  22  46  1   
 46  22  47  1   
 47  23  25  ar  
 48  23  48  1   
 49  24  25  ar  
 50  24  49  1   
 51  25  26  1   
 52  26  27  1   
 53  27  50  1   
 54  27  51  1   
 55  27  52  1   
@<TRIPOS>SUBSTRUCTURE
  1 ****   4 GROUP 4 **** **** 0

# MOE 2024.06 (io_trps.svl 2023.06)
