@<TRIPOS>MOLECULE
NONAME
45 48 1 0 0 
SMALL
USER_CHARGES


@<TRIPOS>ATOM
  1 O       -4.4030     0.5580    -1.9410 O.2   1 <1>  -0.5700 
  2 C       -3.8560    -0.2650    -1.2420 C.2   1 <1>   0.5690 
  3 N       -3.3970     0.0340     0.0130 N.am  1 <1>  -0.6600 
  4 C       -3.7360    -1.6770    -1.7870 C.3   1 <1>  -0.0190 
  5 C       -2.7480    -1.0000     0.8790 C.3   1 <1>   0.2200 
  6 C       -3.4200     1.4210     0.5520 C.3   1 <1>   0.0600 
  7 C       -2.2770    -2.1560    -1.9380 C.3   1 <1>   0.1200 
  8 C       -4.6330    -2.6470    -1.0010 C.3   1 <1>   0.1400 
  9 C       -1.4660    -1.6040     0.2500 C.3   1 <1>   0.1200 
 10 C       -3.7710    -2.0750     1.2960 C.3   1 <1>   0.1400 
 11 O       -1.3760    -1.4450    -1.1420 O.3   1 <1>  -0.5600 
 12 N       -3.9950    -3.1340     0.2590 N.am  1 <1>  -0.6600 
 13 C       -3.6530    -4.4440     0.5200 C.2   1 <1>   0.5690 
 14 O       -2.9820    -4.7270     1.4850 O.2   1 <1>  -0.5700 
 15 C       -4.0460    -5.5990    -0.3890 C.3   1 <1>   0.1570 
 16 N       -5.5130    -5.7510    -0.4980 N.pl3 1 <1>   0.0480 
 17 C       -6.4100    -5.9030     0.5360 C.ar  1 <1>  -0.1520 
 18 C       -6.2210    -5.7750    -1.6690 C.2   1 <1>  -0.3020 
 19 C       -7.6880    -6.0050    -0.0040 C.ar  1 <1>   0.0000 
 20 C       -6.2210    -5.9660     1.9220 C.ar  1 <1>  -0.1500 
 21 C       -7.5400    -5.9220    -1.4030 C.2   1 <1>  -0.1500 
 22 C       -8.7930    -6.1620     0.8380 C.ar  1 <1>  -0.1500 
 23 C       -7.3160    -6.1230     2.7400 C.ar  1 <1>  -0.1500 
 24 C       -8.6030    -6.2200     2.1990 C.ar  1 <1>  -0.1500 
 25 H       -4.1490    -1.6510    -2.7790 H     1 <1>   0.0800 
 26 H       -2.4470    -0.5190     1.7930 H     1 <1>   0.0800 
 27 H       -3.9660     1.4450     1.4780 H     1 <1>   0.0800 
 28 H       -3.8940     2.0930    -0.1430 H     1 <1>   0.0800 
 29 H       -2.4130     1.7610     0.7200 H     1 <1>   0.0800 
 30 H       -1.9640    -1.9900    -2.9540 H     1 <1>   0.0800 
 31 H       -2.1720    -3.2040    -1.7250 H     1 <1>   0.0800 
 32 H       -4.8620    -3.4740    -1.6450 H     1 <1>   0.0800 
 33 H       -5.5670    -2.1650    -0.7620 H     1 <1>   0.0800 
 34 H       -1.3630    -2.6480     0.4900 H     1 <1>   0.0800 
 35 H       -0.6140    -1.0950     0.6650 H     1 <1>   0.0800 
 36 H       -4.7090    -1.6020     1.5300 H     1 <1>   0.0800 
 37 H       -3.4200    -2.5300     2.2050 H     1 <1>   0.0800 
 38 H       -3.6450    -6.5110     0.0110 H     1 <1>   0.0800 
 39 H       -3.6300    -5.4430    -1.3640 H     1 <1>   0.0800 
 40 H       -5.7470    -5.6890    -2.6300 H     1 <1>   0.1500 
 41 H       -5.2330    -5.8950     2.3410 H     1 <1>   0.1500 
 42 H       -8.3600    -5.9760    -2.0980 H     1 <1>   0.1500 
 43 H       -9.7740    -6.2380     0.4070 H     1 <1>   0.1500 
 44 H       -7.1910    -6.1740     3.8080 H     1 <1>   0.1500 
 45 H       -9.4420    -6.3420     2.8610 H     1 <1>   0.1500 
@<TRIPOS>BOND
  1   1   2  2   
  2   2   3  am  
  3   2   4  1   
  4   3   5  1   
  5   3   6  1   
  6   4   7  1   
  7   4   8  1   
  8   4  25  1   
  9   5   9  1   
 10   5  10  1   
 11   5  26  1   
 12   6  27  1   
 13   6  28  1   
 14   6  29  1   
 15   7  11  1   
 16   7  30  1   
 17   7  31  1   
 18   8  12  1   
 19   8  32  1   
 20   8  33  1   
 21   9  11  1   
 22   9  34  1   
 23   9  35  1   
 24  10  12  1   
 25  10  36  1   
 26  10  37  1   
 27  12  13  am  
 28  13  14  2   
 29  13  15  1   
 30  15  16  1   
 31  15  38  1   
 32  15  39  1   
 33  16  17  1   
 34  16  18  1   
 35  17  19  ar  
 36  17  20  ar  
 37  18  21  2   
 38  18  40  1   
 39  19  21  1   
 40  19  22  ar  
 41  20  23  ar  
 42  20  41  1   
 43  21  42  1   
 44  22  24  ar  
 45  22  43  1   
 46  23  24  ar  
 47  23  44  1   
 48  24  45  1   
@<TRIPOS>SUBSTRUCTURE
  1 ****  12 GROUP 4 **** **** 0

# MOE 2024.06 (io_trps.svl 2023.06)
