@<TRIPOS>MOLECULE
NONAME
47 49 1 0 0 
SMALL
USER_CHARGES


@<TRIPOS>ATOM
  1 O        0.3700    -0.9430     2.1790 O.2   1 <1>  -0.5700 
  2 C        1.0930    -1.7980     1.7310 C.2   1 <1>   0.5690 
  3 N        0.8330    -3.1370     1.8290 N.am  1 <1>  -0.6600 
  4 C        2.3670    -1.3830     1.0230 C.3   1 <1>  -0.0990 
  5 C        1.7790    -4.1360     1.2770 C.3   1 <1>   0.1400 
  6 C       -0.3680    -3.6660     2.5320 C.3   1 <1>   0.0600 
  7 C        2.5440    -2.1850    -0.2790 C.3   1 <1>  -0.0800 
  8 C        2.2560    -3.6970    -0.1230 C.3   1 <1>  -0.0800 
  9 C        3.9510    -2.0640    -0.8810 C.3   1 <1>  -0.1600 
 10 C        3.5300    -4.4210    -0.5830 C.3   1 <1>  -0.1600 
 11 C        4.2110    -3.4250    -1.5200 C.3   1 <1>   0.4230 
 12 N        5.6530    -3.7090    -1.7580 N.4   1 <1>  -0.9590 
 13 C        6.5580    -3.6240    -0.5740 C.3   1 <1>   0.5230 
 14 C        5.8750    -4.9520    -2.5540 C.3   1 <1>   0.2630 
 15 C        7.3360    -2.3260    -0.6990 C.2   1 <1>   0.0070 
 16 N        7.4180    -1.6370    -1.7860 N.2   1 <1>  -0.5650 
 17 N        8.0130    -1.7460     0.3030 N.pl3 1 <1>   0.3140 
 18 C        8.1850    -0.6100    -1.3930 C.2   1 <1>   0.3660 
 19 N        8.5590    -0.6340    -0.1580 N.2   1 <1>  -0.7070 
 20 C        8.1820    -2.1580     1.7160 C.3   1 <1>   0.0960 
 21 C        6.9250    -1.8540     2.5430 C.3   1 <1>  -0.2400 
 22 H        2.3270    -0.3300     0.8080 H     1 <1>   0.0800 
 23 H        3.1830    -1.5570     1.6990 H     1 <1>   0.0800 
 24 H        2.6110    -4.2160     1.9540 H     1 <1>   0.0800 
 25 H        1.3020    -5.1000     1.2130 H     1 <1>   0.0800 
 26 H       -0.0650    -4.2900     3.3550 H     1 <1>   0.0800 
 27 H       -0.9670    -4.2420     1.8490 H     1 <1>   0.0800 
 28 H       -0.9680    -2.8590     2.9170 H     1 <1>   0.0800 
 29 H        1.8320    -1.7980    -0.9920 H     1 <1>   0.0800 
 30 H        1.4660    -3.9440    -0.8140 H     1 <1>   0.0800 
 31 H        4.6520    -1.8560    -0.0950 H     1 <1>   0.0800 
 32 H        3.9930    -1.2730    -1.6100 H     1 <1>   0.0800 
 33 H        3.2860    -5.3390    -1.0870 H     1 <1>   0.0800 
 34 H        4.1490    -4.6300     0.2690 H     1 <1>   0.0800 
 35 H        3.6860    -3.4450    -2.4630 H     1 <1>   0.0800 
 36 H        6.0090    -2.9120    -2.3250 H     1 <1>   0.4500 
 37 H        5.9900    -3.6310     0.3400 H     1 <1>   0.0800 
 38 H        7.2480    -4.4520    -0.5660 H     1 <1>   0.0800 
 39 H        5.5730    -5.8200    -1.9910 H     1 <1>   0.0800 
 40 H        6.9180    -5.0490    -2.8110 H     1 <1>   0.0800 
 41 H        5.3030    -4.9170    -3.4670 H     1 <1>   0.0800 
 42 H        8.4630     0.1770    -2.0790 H     1 <1>   0.1500 
 43 H        8.4190    -3.2050     1.7530 H     1 <1>   0.0800 
 44 H        9.0170    -1.6130     2.1220 H     1 <1>   0.0800 
 45 H        6.0760    -2.4090     2.1940 H     1 <1>   0.0800 
 46 H        6.7050    -0.8000     2.5030 H     1 <1>   0.0800 
 47 H        7.1000    -2.1160     3.5720 H     1 <1>   0.0800 
@<TRIPOS>BOND
  1   1   2  2   
  2   2   3  am  
  3   2   4  1   
  4   3   5  1   
  5   3   6  1   
  6   4   7  1   
  7   4  22  1   
  8   4  23  1   
  9   5   8  1   
 10   5  24  1   
 11   5  25  1   
 12   6  26  1   
 13   6  27  1   
 14   6  28  1   
 15   7   8  1   
 16   7   9  1   
 17   7  29  1   
 18   8  10  1   
 19   8  30  1   
 20   9  11  1   
 21   9  31  1   
 22   9  32  1   
 23  10  11  1   
 24  10  33  1   
 25  10  34  1   
 26  11  12  1   
 27  11  35  1   
 28  12  13  1   
 29  12  14  1   
 30  12  36  1   
 31  13  15  1   
 32  13  37  1   
 33  13  38  1   
 34  14  39  1   
 35  14  40  1   
 36  14  41  1   
 37  15  16  2   
 38  15  17  1   
 39  16  18  1   
 40  17  19  1   
 41  17  20  1   
 42  18  19  2   
 43  18  42  1   
 44  20  21  1   
 45  20  43  1   
 46  20  44  1   
 47  21  45  1   
 48  21  46  1   
 49  21  47  1   
@<TRIPOS>SUBSTRUCTURE
  1 ****   9 GROUP 4 **** **** 0

# MOE 2024.06 (io_trps.svl 2023.06)
