@<TRIPOS>MOLECULE
NONAME
45 47 1 0 0 
SMALL
USER_CHARGES


@<TRIPOS>ATOM
  1 CL      -3.4880     0.2840    -1.3430 Cl    1 <1>  -0.1770 
  2 C       -3.1870    -1.0590    -0.2700 C.ar  1 <1>   0.1770 
  3 C       -3.2540    -2.3490    -0.7640 C.ar  1 <1>  -0.1500 
  4 C       -2.8860    -0.8110     1.0560 C.ar  1 <1>  -0.1500 
  5 C       -3.0160    -3.4190     0.0850 C.ar  1 <1>  -0.1440 
  6 C       -2.6480    -1.8790     1.9040 C.ar  1 <1>  -0.1500 
  7 C       -2.7130    -3.1760     1.4180 C.ar  1 <1>  -0.1500 
  8 C       -3.0910    -4.8430    -0.4410 C.3   1 <1>  -0.0160 
  9 C       -4.5290    -5.3660    -0.3620 C.3   1 <1>  -0.0990 
 10 C       -4.6110    -6.7970    -0.8420 C.2   1 <1>   0.5690 
 11 O       -4.6720    -7.0190    -2.0250 O.2   1 <1>  -0.5700 
 12 N       -4.6160    -7.7920     0.0750 N.am  1 <1>  -0.7300 
 13 C       -4.6550    -9.2390    -0.2430 C.3   1 <1>   0.2200 
 14 C       -6.0280    -9.8320     0.0450 C.3   1 <1>  -0.0800 
 15 C       -3.8100    -9.9850     0.7790 C.3   1 <1>   0.1200 
 16 C       -5.9620   -10.1460     1.5450 C.3   1 <1>   0.1200 
 17 C       -7.2350    -8.9720    -0.3730 C.3   1 <1>  -0.0170 
 18 O       -4.6150   -10.0670     1.9160 O.3   1 <1>  -0.5600 
 19 C       -8.5400    -9.7100    -0.1190 C.ar  1 <1>  -0.1430 
 20 C       -9.0210   -10.6550    -1.0010 C.ar  1 <1>  -0.1500 
 21 C       -9.3100    -9.4760     1.0030 C.ar  1 <1>  -0.1500 
 22 C      -10.2110   -11.3080    -0.7250 C.ar  1 <1>   0.1600 
 23 C      -10.4860   -10.1840     1.1860 C.ar  1 <1>   0.1600 
 24 N      -10.9540   -11.0970     0.3490 N.ar  1 <1>  -0.6200 
 25 H       -3.4910    -2.5050    -1.8000 H     1 <1>   0.1500 
 26 H       -2.8410     0.2010     1.4140 H     1 <1>   0.1500 
 27 H       -2.4120    -1.7030     2.9390 H     1 <1>   0.1500 
 28 H       -2.5250    -3.9980     2.0880 H     1 <1>   0.1500 
 29 H       -2.7530    -4.8730    -1.4630 H     1 <1>   0.0800 
 30 H       -2.4400    -5.4790     0.1340 H     1 <1>   0.0800 
 31 H       -5.1660    -4.7600    -0.9800 H     1 <1>   0.0800 
 32 H       -4.8870    -5.3010     0.6480 H     1 <1>   0.0800 
 33 H       -4.5870    -7.5930     1.0780 H     1 <1>   0.3700 
 34 H       -4.3280    -9.4160    -1.2540 H     1 <1>   0.0800 
 35 H       -6.0920   -10.7720    -0.4750 H     1 <1>   0.0800 
 36 H       -2.8920    -9.4780     1.0170 H     1 <1>   0.0800 
 37 H       -3.6020   -10.9880     0.4470 H     1 <1>   0.0800 
 38 H       -6.3280   -11.1350     1.7610 H     1 <1>   0.0800 
 39 H       -6.5030    -9.4220     2.1300 H     1 <1>   0.0800 
 40 H       -7.1570    -8.7340    -1.4200 H     1 <1>   0.0800 
 41 H       -7.2410    -8.0430     0.1690 H     1 <1>   0.0800 
 42 H       -8.4820   -10.8900    -1.9010 H     1 <1>   0.1500 
 43 H       -9.0090    -8.7520     1.7370 H     1 <1>   0.1500 
 44 H      -10.5710   -12.0420    -1.4250 H     1 <1>   0.1500 
 45 H      -11.0730    -9.9900     2.0660 H     1 <1>   0.1500 
@<TRIPOS>BOND
  1   1   2  1   
  2   2   3  ar  
  3   2   4  ar  
  4   3   5  ar  
  5   3  25  1   
  6   4   6  ar  
  7   4  26  1   
  8   5   7  ar  
  9   5   8  1   
 10   6   7  ar  
 11   6  27  1   
 12   7  28  1   
 13   8   9  1   
 14   8  29  1   
 15   8  30  1   
 16   9  10  1   
 17   9  31  1   
 18   9  32  1   
 19  10  11  2   
 20  10  12  am  
 21  12  13  1   
 22  12  33  1   
 23  13  14  1   
 24  13  15  1   
 25  13  34  1   
 26  14  16  1   
 27  14  17  1   
 28  14  35  1   
 29  15  18  1   
 30  15  36  1   
 31  15  37  1   
 32  16  18  1   
 33  16  38  1   
 34  16  39  1   
 35  17  19  1   
 36  17  40  1   
 37  17  41  1   
 38  19  20  ar  
 39  19  21  ar  
 40  20  22  ar  
 41  20  42  1   
 42  21  23  ar  
 43  21  43  1   
 44  22  24  ar  
 45  22  44  1   
 46  23  24  ar  
 47  23  45  1   
@<TRIPOS>SUBSTRUCTURE
  1 ****  12 GROUP 4 **** **** 0

# MOE 2024.06 (io_trps.svl 2023.06)
