@<TRIPOS>MOLECULE
NONAME
30 31 1 0 0 
SMALL
USER_CHARGES


@<TRIPOS>ATOM
  1 CL      -0.0810     2.4920    -1.0150 Cl    1 <1>  -0.1770 
  2 C        1.6200     2.7940    -0.7380 C.ar  1 <1>   0.1770 
  3 C        2.0320     3.7860     0.1200 C.ar  1 <1>   0.1600 
  4 C        2.5860     2.0500    -1.3710 C.ar  1 <1>   0.1600 
  5 N        3.3090     4.0260     0.3380 N.ar  1 <1>  -0.6200 
  6 N        3.8690     2.2690    -1.1710 N.ar  1 <1>  -0.6200 
  7 C        4.1610     3.2460    -0.3230 C.ar  1 <1>   0.7200 
  8 N        5.4800     3.4530    -0.1480 N.pl3 1 <1>  -0.8690 
  9 C        6.0890     4.0820     1.0470 C.3   1 <1>   0.3890 
 10 C        7.1170     5.1230     0.6370 C.2   1 <1>   0.0070 
 11 N        8.3600     5.0770     0.9810 N.2   1 <1>  -0.3380 
 12 N        6.8540     6.2040    -0.1090 N.pl3 1 <1>   0.0480 
 13 N        8.9530     6.1500     0.4560 N.2   1 <1>  -0.3380 
 14 C        8.0440     6.8000    -0.1840 C.2   1 <1>   0.0370 
 15 C        5.5890     6.6650    -0.7230 C.3   1 <1>   0.0960 
 16 C        4.7160     7.3960     0.3050 C.3   1 <1>  -0.1600 
 17 C        3.4020     7.8690    -0.3250 C.3   1 <1>  -0.2400 
 18 H        1.2990     4.3860     0.6310 H     1 <1>   0.1500 
 19 H        2.2960     1.2670    -2.0490 H     1 <1>   0.1500 
 20 H        6.0730     2.7820    -0.6350 H     1 <1>   0.4000 
 21 H        6.5740     3.3220     1.6340 H     1 <1>   0.0800 
 22 H        5.3430     4.5480     1.6650 H     1 <1>   0.0800 
 23 H        8.2110     7.7170    -0.7190 H     1 <1>   0.1500 
 24 H        5.0620     5.8180    -1.1230 H     1 <1>   0.0800 
 25 H        5.8230     7.3240    -1.5390 H     1 <1>   0.0800 
 26 H        5.2500     8.2470     0.6920 H     1 <1>   0.0800 
 27 H        4.4880     6.7330     1.1220 H     1 <1>   0.0800 
 28 H        3.5920     8.5490    -1.1370 H     1 <1>   0.0800 
 29 H        2.8030     8.3750     0.4110 H     1 <1>   0.0800 
 30 H        2.8420     7.0280    -0.6990 H     1 <1>   0.0800 
@<TRIPOS>BOND
  1   1   2  1   
  2   2   3  ar  
  3   2   4  ar  
  4   3   5  ar  
  5   3  18  1   
  6   4   6  ar  
  7   4  19  1   
  8   5   7  ar  
  9   6   7  ar  
 10   7   8  1   
 11   8   9  1   
 12   8  20  1   
 13   9  10  1   
 14   9  21  1   
 15   9  22  1   
 16  10  11  2   
 17  10  12  1   
 18  11  13  1   
 19  12  14  1   
 20  12  15  1   
 21  13  14  2   
 22  14  23  1   
 23  15  16  1   
 24  15  24  1   
 25  15  25  1   
 26  16  17  1   
 27  16  26  1   
 28  16  27  1   
 29  17  28  1   
 30  17  29  1   
 31  17  30  1   
@<TRIPOS>SUBSTRUCTURE
  1 ****   8 GROUP 4 **** **** 0

# MOE 2024.06 (io_trps.svl 2023.06)
