@<TRIPOS>MOLECULE
NONAME
55 58 1 0 0 
SMALL
USER_CHARGES


@<TRIPOS>ATOM
  1 O       -0.0160    -0.8240     2.4770 O.2   1 <1>  -0.5700 
  2 C       -0.5210     0.1780     2.0270 C.2   1 <1>   0.5690 
  3 N       -1.5190     0.0890     1.0820 N.am  1 <1>  -0.6600 
  4 C       -0.0080     1.5160     2.5500 C.3   1 <1>   0.0440 
  5 C       -1.8140    -1.2100     0.4140 C.3   1 <1>   0.1400 
  6 C       -2.3450     1.2320     0.6000 C.3   1 <1>   0.1400 
  7 C        0.5110     2.4280     1.4420 C.ar  1 <1>  -0.1440 
  8 C       -3.3080    -1.5690     0.5720 C.3   1 <1>   0.4230 
  9 C       -3.8280     0.8820     0.7740 C.3   1 <1>  -0.1600 
 10 C        0.0540     3.7120     1.2970 C.ar  1 <1>  -0.1500 
 11 C        1.4720     1.9390     0.5460 C.ar  1 <1>  -0.1500 
 12 N       -3.6650    -2.9530     0.0430 N.4   1 <1>  -0.9590 
 13 C       -4.2460    -0.4350     0.0610 C.3   1 <1>   0.0000 
 14 C        0.5070     4.5470     0.2560 C.ar  1 <1>   0.0000 
 15 C        1.9330     2.7270    -0.4720 C.ar  1 <1>  -0.1500 
 16 C       -5.1300    -3.1580    -0.2010 C.3   1 <1>   0.3430 
 17 C       -2.8820    -3.4110    -1.1530 C.3   1 <1>   0.2630 
 18 C       -5.7160    -0.7680     0.4550 C.3   1 <1>  -0.1600 
 19 C       -4.1160    -0.2790    -1.4810 C.3   1 <1>   0.1200 
 20 C        1.4630     4.0420    -0.6500 C.ar  1 <1>   0.0000 
 21 C        0.0390     5.8650     0.0820 C.ar  1 <1>  -0.1500 
 22 C       -5.9670    -2.2660     0.7150 C.3   1 <1>  -0.1600 
 23 O       -4.7760     0.8480    -1.9390 O.3   1 <1>  -0.6800 
 24 C        1.9080     4.8730    -1.6980 C.ar  1 <1>  -0.1500 
 25 C        0.4890     6.6500    -0.9440 C.ar  1 <1>  -0.1500 
 26 C        1.4340     6.1470    -1.8450 C.ar  1 <1>  -0.1500 
 27 H       -0.7960     1.9950     3.1000 H     1 <1>   0.0800 
 28 H        0.7950     1.3300     3.2400 H     1 <1>   0.0800 
 29 H       -1.5440    -1.1190    -0.6220 H     1 <1>   0.0800 
 30 H       -1.2190    -1.9940     0.8460 H     1 <1>   0.0800 
 31 H       -2.1360     2.1250     1.1600 H     1 <1>   0.0800 
 32 H       -2.1170     1.4360    -0.4340 H     1 <1>   0.0800 
 33 H       -3.4690    -1.6050     1.6370 H     1 <1>   0.0800 
 34 H       -4.0160     0.8040     1.8310 H     1 <1>   0.0800 
 35 H       -4.4190     1.7090     0.4180 H     1 <1>   0.0800 
 36 H       -0.6720     4.1180     1.9780 H     1 <1>   0.1500 
 37 H        1.8460     0.9360     0.6670 H     1 <1>   0.1500 
 38 H       -3.4170    -3.5910     0.8150 H     1 <1>   0.4500 
 39 H        2.6690     2.3500    -1.1580 H     1 <1>   0.1500 
 40 H       -5.3680    -2.9130    -1.2230 H     1 <1>   0.0800 
 41 H       -5.3880    -4.1920    -0.0390 H     1 <1>   0.0800 
 42 H       -3.0580    -2.7580    -1.9920 H     1 <1>   0.0800 
 43 H       -3.1750    -4.4110    -1.4300 H     1 <1>   0.0800 
 44 H       -1.8260    -3.4180    -0.9350 H     1 <1>   0.0800 
 45 H       -6.0000    -0.2370     1.3480 H     1 <1>   0.0800 
 46 H       -6.3890    -0.4310    -0.3150 H     1 <1>   0.0800 
 47 H       -4.5270    -1.1250    -2.0010 H     1 <1>   0.0800 
 48 H       -3.0880    -0.1660    -1.7790 H     1 <1>   0.0800 
 49 H       -0.6860     6.2480     0.7770 H     1 <1>   0.1500 
 50 H       -7.0110    -2.4800     0.5600 H     1 <1>   0.0800 
 51 H       -5.7460    -2.5080     1.7410 H     1 <1>   0.0800 
 52 H       -5.7400     0.8050    -1.7830 H     1 <1>   0.4000 
 53 H        2.6350     4.4820    -2.3870 H     1 <1>   0.1500 
 54 H        0.1260     7.6550    -1.0730 H     1 <1>   0.1500 
 55 H        1.7770     6.7770    -2.6480 H     1 <1>   0.1500 
@<TRIPOS>BOND
  1   1   2  2   
  2   2   3  am  
  3   2   4  1   
  4   3   5  1   
  5   3   6  1   
  6   4   7  1   
  7   4  27  1   
  8   4  28  1   
  9   5   8  1   
 10   5  29  1   
 11   5  30  1   
 12   6   9  1   
 13   6  31  1   
 14   6  32  1   
 15   7  10  ar  
 16   7  11  ar  
 17   8  12  1   
 18   8  13  1   
 19   8  33  1   
 20   9  13  1   
 21   9  34  1   
 22   9  35  1   
 23  10  14  ar  
 24  10  36  1   
 25  11  15  ar  
 26  11  37  1   
 27  12  16  1   
 28  12  17  1   
 29  12  38  1   
 30  13  18  1   
 31  13  19  1   
 32  14  20  ar  
 33  14  21  ar  
 34  15  20  ar  
 35  15  39  1   
 36  16  22  1   
 37  16  40  1   
 38  16  41  1   
 39  17  42  1   
 40  17  43  1   
 41  17  44  1   
 42  18  22  1   
 43  18  45  1   
 44  18  46  1   
 45  19  23  1   
 46  19  47  1   
 47  19  48  1   
 48  20  24  ar  
 49  21  25  ar  
 50  21  49  1   
 51  22  50  1   
 52  22  51  1   
 53  23  52  1   
 54  24  26  ar  
 55  24  53  1   
 56  25  26  ar  
 57  25  54  1   
 58  26  55  1   
@<TRIPOS>SUBSTRUCTURE
  1 ****   6 GROUP 4 **** **** 0

# MOE 2024.06 (io_trps.svl 2023.06)
