@<TRIPOS>MOLECULE
NONAME
54 57 1 0 0 
SMALL
USER_CHARGES


@<TRIPOS>ATOM
  1 O        1.7490     1.4790    -1.3020 O.3   1 <1>  -0.0190 
  2 N        2.7030     0.6070    -1.1710 N.2   1 <1>  -0.4100 
  3 C        1.1180     1.6810    -0.1760 C.2   1 <1>  -0.0400 
  4 C        2.6710     0.2210     0.0540 C.2   1 <1>   0.1080 
  5 C        1.6670     0.8850     0.7540 C.2   1 <1>  -0.1500 
  6 C       -0.0020     2.7020    -0.1100 C.3   1 <1>   0.0200 
  7 C        3.6030    -0.8150     0.6440 C.3   1 <1>  -0.0590 
  8 C        0.4270     4.0090    -0.8050 C.3   1 <1>  -0.0800 
  9 C       -0.4950     5.2050    -0.5980 C.3   1 <1>   0.2000 
 10 C        1.7970     4.5150    -0.3460 C.3   1 <1>   0.3430 
 11 O       -0.7790     5.3150     0.7680 O.3   1 <1>  -0.5600 
 12 C        0.4130     6.3700    -0.9980 C.3   1 <1>   0.3430 
 13 N        1.7770     6.0050    -0.4920 N.4   1 <1>  -0.9590 
 14 C       -2.0170     5.8850     1.0700 C.3   1 <1>   0.0400 
 15 C        2.0420     6.6620     0.8140 C.3   1 <1>   0.5240 
 16 C        2.1860     8.1480     0.5670 C.2   1 <1>  -0.1810 
 17 C        3.2630     8.7930    -0.0320 C.2   1 <1>   0.1080 
 18 C        1.3230     9.1430     0.8690 C.2   1 <1>  -0.3020 
 19 N        3.0740    10.0650    -0.1130 N.2   1 <1>  -0.7070 
 20 C        4.5410     8.1640    -0.5490 C.3   1 <1>  -0.0590 
 21 N        1.8670    10.3170     0.4530 N.pl3 1 <1>   0.5930 
 22 C        1.3070    11.6230     0.5790 C.ar  1 <1>  -0.0230 
 23 C       -0.0730    11.8240     0.5880 C.ar  1 <1>  -0.1500 
 24 C        2.1350    12.7370     0.6960 C.ar  1 <1>  -0.1500 
 25 C       -0.6050    13.0940     0.7190 C.ar  1 <1>  -0.1500 
 26 C        1.6050    14.0080     0.8270 C.ar  1 <1>  -0.1500 
 27 C        0.2330    14.1880     0.8400 C.ar  1 <1>  -0.1500 
 28 H        1.4250     0.7590     1.7930 H     1 <1>   0.1500 
 29 H       -0.8740     2.3020    -0.5980 H     1 <1>   0.0800 
 30 H       -0.2490     2.8710     0.9230 H     1 <1>   0.0800 
 31 H        4.1430    -0.3950     1.4720 H     1 <1>   0.0800 
 32 H        4.3060    -1.1430    -0.1000 H     1 <1>   0.0800 
 33 H        3.0370    -1.6630     0.9830 H     1 <1>   0.0800 
 34 H        0.4960     3.8150    -1.8610 H     1 <1>   0.0800 
 35 H       -1.4040     5.1420    -1.1740 H     1 <1>   0.0800 
 36 H        2.5830     4.0680    -0.9360 H     1 <1>   0.0800 
 37 H        1.9430     4.2470     0.6880 H     1 <1>   0.0800 
 38 H        0.0590     7.3030    -0.5920 H     1 <1>   0.0800 
 39 H        0.4380     6.4420    -2.0730 H     1 <1>   0.0800 
 40 H        2.4880     6.3320    -1.1560 H     1 <1>   0.4500 
 41 H       -2.1110     5.9390     2.1410 H     1 <1>   0.0800 
 42 H       -2.8030     5.2630     0.6750 H     1 <1>   0.0800 
 43 H       -2.0730     6.8760     0.6530 H     1 <1>   0.0800 
 44 H        1.2270     6.4770     1.4960 H     1 <1>   0.0800 
 45 H        2.9500     6.2810     1.2510 H     1 <1>   0.0800 
 46 H        0.3670     9.1060     1.3570 H     1 <1>   0.1500 
 47 H        4.7130     7.2020    -0.1070 H     1 <1>   0.0800 
 48 H        5.3720     8.8030    -0.3050 H     1 <1>   0.0800 
 49 H        4.4930     8.0700    -1.6180 H     1 <1>   0.0800 
 50 H       -0.7450    10.9910     0.4880 H     1 <1>   0.1500 
 51 H        3.2040    12.6090     0.6840 H     1 <1>   0.1500 
 52 H       -1.6720    13.2370     0.7260 H     1 <1>   0.1500 
 53 H        2.2600    14.8580     0.9170 H     1 <1>   0.1500 
 54 H       -0.1790    15.1770     0.9420 H     1 <1>   0.1500 
@<TRIPOS>BOND
  1   1   2  1   
  2   1   3  1   
  3   2   4  2   
  4   3   5  2   
  5   3   6  1   
  6   4   5  1   
  7   4   7  1   
  8   5  28  1   
  9   6   8  1   
 10   6  29  1   
 11   6  30  1   
 12   7  31  1   
 13   7  32  1   
 14   7  33  1   
 15   8   9  1   
 16   8  10  1   
 17   8  34  1   
 18   9  11  1   
 19   9  12  1   
 20   9  35  1   
 21  10  13  1   
 22  10  36  1   
 23  10  37  1   
 24  11  14  1   
 25  12  13  1   
 26  12  38  1   
 27  12  39  1   
 28  13  15  1   
 29  13  40  1   
 30  14  41  1   
 31  14  42  1   
 32  14  43  1   
 33  15  16  1   
 34  15  44  1   
 35  15  45  1   
 36  16  17  1   
 37  16  18  2   
 38  17  19  2   
 39  17  20  1   
 40  18  21  1   
 41  18  46  1   
 42  19  21  1   
 43  20  47  1   
 44  20  48  1   
 45  20  49  1   
 46  21  22  1   
 47  22  23  ar  
 48  22  24  ar  
 49  23  25  ar  
 50  23  50  1   
 51  24  26  ar  
 52  24  51  1   
 53  25  27  ar  
 54  25  52  1   
 55  26  27  ar  
 56  26  53  1   
 57  27  54  1   
@<TRIPOS>SUBSTRUCTURE
  1 ****  15 GROUP 4 **** **** 0

# MOE 2024.06 (io_trps.svl 2023.06)
