@<TRIPOS>MOLECULE
NONAME
48 50 1 0 0 
SMALL
USER_CHARGES


@<TRIPOS>ATOM
  1 F       -0.7590    -0.0850    -0.3250 F     1 <1>  -0.1900 
  2 C       -2.0000     0.3300    -0.3070 C.ar  1 <1>   0.1900 
  3 C       -2.3380     1.6720    -0.5110 C.ar  1 <1>   0.0830 
  4 C       -2.9650    -0.6310    -0.0770 C.ar  1 <1>  -0.1500 
  5 O       -1.4820     2.7070    -0.7460 O.3   1 <1>  -0.3630 
  6 C       -3.6810     2.0080    -0.4740 C.ar  1 <1>  -0.1500 
  7 C       -4.2970    -0.2600    -0.0490 C.ar  1 <1>  -0.1500 
  8 C       -0.0800     2.5550    -0.7810 C.3   1 <1>   0.0400 
  9 C       -4.6890     1.0670    -0.2440 C.ar  1 <1>   0.0530 
 10 C       -6.0770     1.4690    -0.2180 C.2   1 <1>   0.0870 
 11 O       -6.4500     2.5910    -0.7810 O.3   1 <1>  -0.0190 
 12 C       -7.2010     0.9020     0.2940 C.2   1 <1>  -0.0860 
 13 N       -7.7330     2.8160    -0.6790 N.2   1 <1>  -0.4100 
 14 C       -8.2100     1.8160    -0.0240 C.2   1 <1>   0.3720 
 15 C       -7.3790    -0.3250     0.9990 C.2   1 <1>   0.7160 
 16 N       -9.5640     1.6790     0.3200 N.pl3 1 <1>  -0.8210 
 17 O       -6.9540    -0.4400     2.1350 O.2   1 <1>  -0.5700 
 18 N       -7.9720    -1.4150     0.4070 N.am  1 <1>  -0.6600 
 19 C      -10.5170     2.4880    -0.4910 C.3   1 <1>   0.1290 
 20 C       -9.8350     1.8030     1.7780 C.3   1 <1>   0.1290 
 21 C       -8.1730    -2.7030     1.1010 C.3   1 <1>   0.1400 
 22 C       -8.5950    -1.4200    -0.9330 C.3   1 <1>   0.1400 
 23 C       -8.7520    -3.6350     0.0380 C.3   1 <1>  -0.0800 
 24 C       -9.4360    -2.6910    -0.9580 C.3   1 <1>  -0.1600 
 25 C       -9.6820    -4.6920     0.6430 C.3   1 <1>   0.1200 
 26 O      -10.1810    -5.4930    -0.3680 O.3   1 <1>  -0.6800 
 27 H       -2.6750    -1.6550     0.0770 H     1 <1>   0.1500 
 28 H       -3.9460     3.0390    -0.6280 H     1 <1>   0.1500 
 29 H       -5.0340    -1.0210     0.1270 H     1 <1>   0.1500 
 30 H        0.3560     3.5210    -0.9630 H     1 <1>   0.0800 
 31 H        0.1800     1.8820    -1.5790 H     1 <1>   0.0800 
 32 H        0.2550     2.1770     0.1690 H     1 <1>   0.0800 
 33 H      -10.3040     2.3620    -1.5390 H     1 <1>   0.0800 
 34 H      -10.4230     3.5310    -0.2410 H     1 <1>   0.0800 
 35 H      -11.5260     2.1660    -0.3040 H     1 <1>   0.0800 
 36 H       -9.1520     1.1960     2.3450 H     1 <1>   0.0800 
 37 H      -10.8380     1.4770     1.9930 H     1 <1>   0.0800 
 38 H       -9.7220     2.8290     2.0870 H     1 <1>   0.0800 
 39 H       -8.8690    -2.5550     1.9090 H     1 <1>   0.0800 
 40 H       -7.2420    -3.0760     1.4920 H     1 <1>   0.0800 
 41 H       -7.8220    -1.4620    -1.6820 H     1 <1>   0.0800 
 42 H       -9.2060    -0.5470    -1.0890 H     1 <1>   0.0800 
 43 H       -7.9270    -4.1300    -0.4450 H     1 <1>   0.0800 
 44 H       -9.4900    -3.1090    -1.9480 H     1 <1>   0.0800 
 45 H      -10.4290    -2.4480    -0.6230 H     1 <1>   0.0800 
 46 H      -10.5130    -4.2370     1.1560 H     1 <1>   0.0800 
 47 H       -9.1450    -5.3250     1.3300 H     1 <1>   0.0800 
 48 H      -10.6820    -4.9570    -1.0120 H     1 <1>   0.4000 
@<TRIPOS>BOND
  1   1   2  1   
  2   2   3  ar  
  3   2   4  ar  
  4   3   5  1   
  5   3   6  ar  
  6   4   7  ar  
  7   4  27  1   
  8   5   8  1   
  9   6   9  ar  
 10   6  28  1   
 11   7   9  ar  
 12   7  29  1   
 13   8  30  1   
 14   8  31  1   
 15   8  32  1   
 16   9  10  1   
 17  10  11  1   
 18  10  12  2   
 19  11  13  1   
 20  12  14  1   
 21  12  15  1   
 22  13  14  2   
 23  14  16  1   
 24  15  17  2   
 25  15  18  am  
 26  16  19  1   
 27  16  20  1   
 28  18  21  1   
 29  18  22  1   
 30  19  33  1   
 31  19  34  1   
 32  19  35  1   
 33  20  36  1   
 34  20  37  1   
 35  20  38  1   
 36  21  23  1   
 37  21  39  1   
 38  21  40  1   
 39  22  24  1   
 40  22  41  1   
 41  22  42  1   
 42  23  24  1   
 43  23  25  1   
 44  23  43  1   
 45  24  44  1   
 46  24  45  1   
 47  25  26  1   
 48  25  46  1   
 49  25  47  1   
 50  26  48  1   
@<TRIPOS>SUBSTRUCTURE
  1 ****  12 GROUP 4 **** **** 0

# MOE 2024.06 (io_trps.svl 2023.06)
