@<TRIPOS>MOLECULE
NONAME
43 44 1 0 0 
SMALL
USER_CHARGES


@<TRIPOS>ATOM
  1 O        2.3740    -1.5430     0.4910 O.co2 1 <1>  -0.9000 
  2 C        2.2860    -0.4570     1.0870 C.2   1 <1>   0.9060 
  3 O        2.2580    -0.4110     2.3240 O.co2 1 <1>  -0.9000 
  4 C        2.1780     0.8530     0.2700 C.3   1 <1>  -0.1060 
  5 C        3.0610     0.7490    -1.0050 C.3   1 <1>   0.2000 
  6 C        2.7220     2.0490     1.1070 C.3   1 <1>  -0.1600 
  7 C        0.6730     1.0710    -0.0670 C.3   1 <1>  -0.1600 
  8 O        2.6770    -0.3420    -1.7690 O.3   1 <1>  -0.6800 
  9 C        4.5570     0.6320    -0.6600 C.3   1 <1>   0.2090 
 10 C        4.2110     1.8840     1.4390 C.3   1 <1>   0.2090 
 11 C        0.3300     2.2880    -0.9460 C.3   1 <1>  -0.1600 
 12 N        4.9740     1.8100     0.1670 N.pl3 1 <1>  -0.8380 
 13 C       -1.1800     2.3750    -1.1850 C.3   1 <1>  -0.2400 
 14 C        6.3130     2.1710     0.2010 C.ar  1 <1>   0.4100 
 15 N        7.1820     1.1690     0.2450 N.ar  1 <1>  -0.6200 
 16 C        6.7230     3.5260     0.2040 C.ar  1 <1>   0.1670 
 17 C        8.4350     1.5680     0.3140 C.ar  1 <1>   0.1670 
 18 N        7.9800     3.9240     0.2780 N.ar  1 <1>  -0.6200 
 19 C        5.7000     4.6470     0.1140 C.3   1 <1>  -0.0970 
 20 C        8.8200     2.9030     0.3330 C.ar  1 <1>   0.1600 
 21 C        9.4690     0.4630     0.3750 C.3   1 <1>  -0.0970 
 22 H        2.9390     1.6210    -1.6200 H     1 <1>   0.0800 
 23 H        2.1700     2.1250     2.0280 H     1 <1>   0.0800 
 24 H        2.6050     2.9740     0.5770 H     1 <1>   0.0800 
 25 H        0.3130     0.1840    -0.5610 H     1 <1>   0.0800 
 26 H        0.1330     1.1450     0.8610 H     1 <1>   0.0800 
 27 H        2.5210    -1.0780    -1.1000 H     1 <1>   0.4000 
 28 H        5.1340     0.6100    -1.5670 H     1 <1>   0.0800 
 29 H        4.7410    -0.2740    -0.1070 H     1 <1>   0.0800 
 30 H        4.3760     0.9850     2.0120 H     1 <1>   0.0800 
 31 H        4.5510     2.7180     2.0260 H     1 <1>   0.0800 
 32 H        0.6570     3.1960    -0.4750 H     1 <1>   0.0800 
 33 H        0.8240     2.2010    -1.8980 H     1 <1>   0.0800 
 34 H       -1.7010     2.4780    -0.2500 H     1 <1>   0.0800 
 35 H       -1.5300     1.4850    -1.6800 H     1 <1>   0.0800 
 36 H       -1.4080     3.2240    -1.8040 H     1 <1>   0.0800 
 37 H        4.8360     4.3320    -0.4420 H     1 <1>   0.0800 
 38 H        6.1290     5.4980    -0.3830 H     1 <1>   0.0800 
 39 H        5.3980     4.9360     1.1030 H     1 <1>   0.0800 
 40 H        9.8660     3.1440     0.3940 H     1 <1>   0.1500 
 41 H       10.4640     0.8620     0.4360 H     1 <1>   0.0800 
 42 H        9.3900    -0.1490    -0.5050 H     1 <1>   0.0800 
 43 H        9.2830    -0.1500     1.2380 H     1 <1>   0.0800 
@<TRIPOS>BOND
  1   1   2  ar  
  2   2   3  ar  
  3   2   4  1   
  4   4   5  1   
  5   4   6  1   
  6   4   7  1   
  7   5   8  1   
  8   5   9  1   
  9   5  22  1   
 10   6  10  1   
 11   6  23  1   
 12   6  24  1   
 13   7  11  1   
 14   7  25  1   
 15   7  26  1   
 16   8  27  1   
 17   9  12  1   
 18   9  28  1   
 19   9  29  1   
 20  10  12  1   
 21  10  30  1   
 22  10  31  1   
 23  11  13  1   
 24  11  32  1   
 25  11  33  1   
 26  12  14  1   
 27  13  34  1   
 28  13  35  1   
 29  13  36  1   
 30  14  15  ar  
 31  14  16  ar  
 32  15  17  ar  
 33  16  18  ar  
 34  16  19  1   
 35  17  20  ar  
 36  17  21  1   
 37  18  20  ar  
 38  19  37  1   
 39  19  38  1   
 40  19  39  1   
 41  20  40  1   
 42  21  41  1   
 43  21  42  1   
 44  21  43  1   
@<TRIPOS>SUBSTRUCTURE
  1 ****  12 GROUP 4 **** **** 0

# MOE 2024.06 (io_trps.svl 2023.06)
