@<TRIPOS>MOLECULE
NONAME
51 54 1 0 0 
SMALL
USER_CHARGES


@<TRIPOS>ATOM
  1 O       -3.8540    -0.9020     1.1780 O.2   1 <1>  -0.5700 
  2 C       -3.6960    -0.0200     0.3360 C.2   1 <1>   0.6160 
  3 N       -3.6950     1.3140     0.7550 N.am  1 <1>  -0.4690 
  4 C       -3.5330    -0.3240    -1.0580 C.2   1 <1>   0.0290 
  5 C       -3.5960     2.3370    -0.1700 C.2   1 <1>  -0.0290 
  6 C       -3.8310     1.6240     2.2140 C.3   1 <1>   0.0600 
  7 C       -3.4940    -1.6930    -1.5140 C.2   1 <1>   0.6160 
  8 C       -3.4300     0.7210    -1.9420 C.2   1 <1>  -0.1500 
  9 C       -3.4660     2.0520    -1.4940 C.2   1 <1>  -0.1500 
 10 C       -3.6390     3.7870     0.2950 C.3   1 <1>  -0.1020 
 11 O       -3.7720    -1.9600    -2.6690 O.2   1 <1>  -0.5700 
 12 N       -3.1520    -2.7300    -0.6970 N.am  1 <1>  -0.7300 
 13 C       -3.2640    -4.1710    -1.0220 C.3   1 <1>   0.2200 
 14 C       -4.4770    -4.7950    -0.3430 C.3   1 <1>  -0.0800 
 15 C       -2.1310    -4.9310    -0.3440 C.3   1 <1>   0.1200 
 16 C       -3.9490    -5.0800     1.0660 C.3   1 <1>   0.1200 
 17 C       -5.7620    -3.9400    -0.3710 C.3   1 <1>  -0.0170 
 18 O       -2.5590    -5.1890     0.9620 O.3   1 <1>  -0.5600 
 19 C       -7.0340    -4.5890     0.1880 C.ar  1 <1>  -0.1440 
 20 C       -8.1940    -3.7980     0.3840 C.ar  1 <1>   0.0000 
 21 C       -7.1290    -5.9150     0.5100 C.ar  1 <1>  -0.1500 
 22 C       -9.3470    -4.4270     0.9160 C.ar  1 <1>   0.3100 
 23 C       -8.2810    -2.4190     0.0770 C.ar  1 <1>  -0.1500 
 24 C       -8.3210    -6.4380     1.0250 C.ar  1 <1>   0.1600 
 25 N       -9.3940    -5.7450     1.2310 N.ar  1 <1>  -0.6200 
 26 C      -10.5060    -3.6620     1.1280 C.ar  1 <1>  -0.1500 
 27 C       -9.4270    -1.7020     0.2940 C.ar  1 <1>  -0.1500 
 28 C      -10.5550    -2.3290     0.8270 C.ar  1 <1>  -0.1500 
 29 H       -4.8150     2.0120     2.4070 H     1 <1>   0.0800 
 30 H       -3.0950     2.3510     2.5060 H     1 <1>   0.0800 
 31 H       -3.6820     0.7490     2.8210 H     1 <1>   0.0800 
 32 H       -3.3190     0.5390    -2.9990 H     1 <1>   0.1500 
 33 H       -3.3880     2.8320    -2.2320 H     1 <1>   0.1500 
 34 H       -2.7960     4.0010     0.9270 H     1 <1>   0.0800 
 35 H       -4.5480     3.9780     0.8370 H     1 <1>   0.0800 
 36 H       -3.6040     4.4580    -0.5440 H     1 <1>   0.0800 
 37 H       -3.0750    -2.5270     0.3090 H     1 <1>   0.3700 
 38 H       -3.2640    -4.3200    -2.0890 H     1 <1>   0.0800 
 39 H       -4.6670    -5.7320    -0.8350 H     1 <1>   0.0800 
 40 H       -1.2130    -4.3710    -0.3200 H     1 <1>   0.0800 
 41 H       -1.9700    -5.8790    -0.8260 H     1 <1>   0.0800 
 42 H       -4.3400    -5.9930     1.4780 H     1 <1>   0.0800 
 43 H       -4.1590    -4.2620     1.7340 H     1 <1>   0.0800 
 44 H       -5.9550    -3.6470    -1.3890 H     1 <1>   0.0800 
 45 H       -5.5770    -3.0450     0.1970 H     1 <1>   0.0800 
 46 H       -6.3170    -6.6030     0.3850 H     1 <1>   0.1500 
 47 H       -7.4310    -1.9130    -0.3390 H     1 <1>   0.1500 
 48 H       -8.3460    -7.4870     1.2660 H     1 <1>   0.1500 
 49 H      -11.3610    -4.1670     1.5370 H     1 <1>   0.1500 
 50 H       -9.4740    -0.6530     0.0560 H     1 <1>   0.1500 
 51 H      -11.4500    -1.7550     0.9950 H     1 <1>   0.1500 
@<TRIPOS>BOND
  1   1   2  2   
  2   2   3  am  
  3   2   4  1   
  4   3   5  1   
  5   3   6  1   
  6   4   7  1   
  7   4   8  2   
  8   5   9  2   
  9   5  10  1   
 10   6  29  1   
 11   6  30  1   
 12   6  31  1   
 13   7  11  2   
 14   7  12  am  
 15   8   9  1   
 16   8  32  1   
 17   9  33  1   
 18  10  34  1   
 19  10  35  1   
 20  10  36  1   
 21  12  13  1   
 22  12  37  1   
 23  13  14  1   
 24  13  15  1   
 25  13  38  1   
 26  14  16  1   
 27  14  17  1   
 28  14  39  1   
 29  15  18  1   
 30  15  40  1   
 31  15  41  1   
 32  16  18  1   
 33  16  42  1   
 34  16  43  1   
 35  17  19  1   
 36  17  44  1   
 37  17  45  1   
 38  19  20  ar  
 39  19  21  ar  
 40  20  22  ar  
 41  20  23  ar  
 42  21  24  ar  
 43  21  46  1   
 44  22  25  ar  
 45  22  26  ar  
 46  23  27  ar  
 47  23  47  1   
 48  24  25  ar  
 49  24  48  1   
 50  26  28  ar  
 51  26  49  1   
 52  27  28  ar  
 53  27  50  1   
 54  28  51  1   
@<TRIPOS>SUBSTRUCTURE
  1 ****  17 GROUP 4 **** **** 0

# MOE 2024.06 (io_trps.svl 2023.06)
