@<TRIPOS>MOLECULE
NONAME
46 49 1 0 0 
SMALL
USER_CHARGES


@<TRIPOS>ATOM
  1 F        0.3780     1.1850     1.4770 F     1 <1>  -0.1900 
  2 C        0.2760     2.3210     0.8430 C.ar  1 <1>   0.1900 
  3 C        1.3960     3.0600     0.5980 C.ar  1 <1>  -0.1500 
  4 C       -0.9930     2.7320     0.4390 C.ar  1 <1>  -0.1500 
  5 C        1.2960     4.2820    -0.0840 C.ar  1 <1>   0.3100 
  6 C       -1.1140     3.9220    -0.2290 C.ar  1 <1>  -0.1500 
  7 N        2.4390     4.9740    -0.2960 N.ar  1 <1>  -0.6200 
  8 C        0.0160     4.7260    -0.5080 C.ar  1 <1>   0.0000 
  9 C        2.3400     6.1030    -0.9360 C.ar  1 <1>   0.4100 
 10 C       -0.0500     5.9600    -1.1940 C.ar  1 <1>  -0.1440 
 11 N        3.4800     6.8400    -1.1370 N.pl3 1 <1>  -0.8380 
 12 C        1.1190     6.6240    -1.3970 C.ar  1 <1>  -0.1500 
 13 C       -1.3660     6.5370    -1.6930 C.3   1 <1>  -0.0970 
 14 C        3.7680     7.8560    -0.0870 C.3   1 <1>   0.4690 
 15 C        4.7370     6.1640    -1.5450 C.3   1 <1>   0.2090 
 16 C        3.0440     9.1860    -0.3100 C.2   1 <1>   0.2980 
 17 C        5.2900     7.9960    -0.0880 C.3   1 <1>  -0.1600 
 18 C        5.7920     6.6330    -0.5510 C.3   1 <1>  -0.1600 
 19 O        3.1250     9.7570    -1.4870 O.3   1 <1>  -0.0190 
 20 N        2.3470     9.8170     0.5540 N.2   1 <1>  -0.5650 
 21 N        2.4160    10.8370    -1.3640 N.2   1 <1>  -0.4100 
 22 C        1.9660    10.8600    -0.1710 C.2   1 <1>   0.3350 
 23 C        1.0650    11.9400     0.4320 C.3   1 <1>   0.1010 
 24 C       -0.4070    11.5090     0.3680 C.3   1 <1>  -0.2400 
 25 C        1.2440    13.3060    -0.2510 C.3   1 <1>  -0.2400 
 26 H        2.3640     2.7260     0.9180 H     1 <1>   0.1500 
 27 H       -1.8420     2.1100     0.6580 H     1 <1>   0.1500 
 28 H       -2.0860     4.2510    -0.5460 H     1 <1>   0.1500 
 29 H        1.1550     7.5650    -1.9140 H     1 <1>   0.1500 
 30 H       -1.2070     7.4810    -2.1820 H     1 <1>   0.0800 
 31 H       -2.0360     6.6950    -0.8670 H     1 <1>   0.0800 
 32 H       -1.8220     5.8640    -2.3960 H     1 <1>   0.0800 
 33 H        3.4590     7.4570     0.8640 H     1 <1>   0.0800 
 34 H        4.6410     5.0900    -1.5400 H     1 <1>   0.0800 
 35 H        4.9930     6.4870    -2.5400 H     1 <1>   0.0800 
 36 H        5.5810     8.7510    -0.7970 H     1 <1>   0.0800 
 37 H        5.6610     8.2640     0.8840 H     1 <1>   0.0800 
 38 H        5.8150     5.9460     0.2770 H     1 <1>   0.0800 
 39 H        6.7690     6.6810    -0.9980 H     1 <1>   0.0800 
 40 H        1.3420    12.0480     1.4660 H     1 <1>   0.0800 
 41 H       -0.7120    11.3810    -0.6550 H     1 <1>   0.0800 
 42 H       -1.0360    12.2470     0.8320 H     1 <1>   0.0800 
 43 H       -0.5360    10.5740     0.8830 H     1 <1>   0.0800 
 44 H        0.9560    13.2490    -1.2860 H     1 <1>   0.0800 
 45 H        2.2750    13.6080    -0.2000 H     1 <1>   0.0800 
 46 H        0.6420    14.0520     0.2360 H     1 <1>   0.0800 
@<TRIPOS>BOND
  1   1   2  1   
  2   2   3  ar  
  3   2   4  ar  
  4   3   5  ar  
  5   3  26  1   
  6   4   6  ar  
  7   4  27  1   
  8   5   7  ar  
  9   5   8  ar  
 10   6   8  ar  
 11   6  28  1   
 12   7   9  ar  
 13   8  10  ar  
 14   9  11  1   
 15   9  12  ar  
 16  10  12  ar  
 17  10  13  1   
 18  11  14  1   
 19  11  15  1   
 20  12  29  1   
 21  13  30  1   
 22  13  31  1   
 23  13  32  1   
 24  14  16  1   
 25  14  17  1   
 26  14  33  1   
 27  15  18  1   
 28  15  34  1   
 29  15  35  1   
 30  16  19  1   
 31  16  20  2   
 32  17  18  1   
 33  17  36  1   
 34  17  37  1   
 35  18  38  1   
 36  18  39  1   
 37  19  21  1   
 38  20  22  1   
 39  21  22  2   
 40  22  23  1   
 41  23  24  1   
 42  23  25  1   
 43  23  40  1   
 44  24  41  1   
 45  24  42  1   
 46  24  43  1   
 47  25  44  1   
 48  25  45  1   
 49  25  46  1   
@<TRIPOS>SUBSTRUCTURE
  1 ****   9 GROUP 4 **** **** 0

# MOE 2024.06 (io_trps.svl 2023.06)
