@<TRIPOS>MOLECULE
NONAME
50 53 1 0 0 
SMALL
USER_CHARGES


@<TRIPOS>ATOM
  1 S       -0.3920     0.7350     1.3030 S.3   1 <1>  -0.0800 
  2 C       -1.8250     0.9790     0.3100 C.2   1 <1>   0.4620 
  3 C        0.5720     1.5030     0.0840 C.2   1 <1>  -0.1100 
  4 N       -1.5720     1.5740    -0.8000 N.2   1 <1>  -0.5650 
  5 N       -3.0560     0.5370     0.7500 N.pl3 1 <1>  -0.8220 
  6 C       -0.2110     1.8790    -0.9490 C.2   1 <1>   0.1410 
  7 C       -3.2670    -0.3410     1.9310 C.3   1 <1>   0.2090 
  8 C       -4.2640     0.6740    -0.1020 C.3   1 <1>   0.2090 
  9 C        0.2620     2.5490    -2.1520 C.2   1 <1>   0.7160 
 10 C       -3.6220    -1.7410     1.4320 C.3   1 <1>  -0.1600 
 11 C       -4.6370    -0.7070    -0.6370 C.3   1 <1>  -0.1600 
 12 O        1.4320     2.8220    -2.3230 O.2   1 <1>  -0.5700 
 13 N       -0.5980     2.8950    -3.1360 N.am  1 <1>  -0.8000 
 14 C       -4.8450    -1.7210     0.5020 C.3   1 <1>   0.4240 
 15 O       -5.9100    -1.2660     1.3050 O.3   1 <1>  -0.5600 
 16 C       -5.1150    -3.1350    -0.0570 C.ar  1 <1>  -0.1430 
 17 C       -7.2050    -1.5750     0.8950 C.3   1 <1>   0.1200 
 18 C       -6.3210    -3.7840     0.1670 C.ar  1 <1>  -0.1430 
 19 C       -4.1470    -3.7890    -0.8090 C.ar  1 <1>  -0.1500 
 20 C       -7.3990    -3.0870     0.9740 C.3   1 <1>  -0.0170 
 21 C       -6.5460    -5.0520    -0.3420 C.ar  1 <1>  -0.1500 
 22 C       -4.3510    -5.0590    -1.3210 C.ar  1 <1>   0.0830 
 23 C       -5.5760    -5.7060    -1.0970 C.ar  1 <1>   0.0830 
 24 O       -3.2970    -5.5640    -2.0240 O.3   1 <1>  -0.3630 
 25 O       -5.8030    -6.9430    -1.6300 O.3   1 <1>  -0.3620 
 26 C       -3.0270    -6.9480    -2.0440 C.3   1 <1>   0.0400 
 27 C       -7.0670    -7.5670    -1.5700 C.3   1 <1>   0.0400 
 28 H        1.6290     1.6010     0.2500 H     1 <1>   0.1500 
 29 H       -4.0740     0.0540     2.5250 H     1 <1>   0.0800 
 30 H       -2.3940    -0.3870     2.5550 H     1 <1>   0.0800 
 31 H       -4.0810     1.3490    -0.9200 H     1 <1>   0.0800 
 32 H       -5.0710     1.0760     0.4880 H     1 <1>   0.0800 
 33 H       -3.8240    -2.3880     2.2660 H     1 <1>   0.0800 
 34 H       -2.7680    -2.1350     0.9150 H     1 <1>   0.0800 
 35 H       -3.8390    -1.0390    -1.2740 H     1 <1>   0.0800 
 36 H       -5.5190    -0.6430    -1.2440 H     1 <1>   0.0800 
 37 H       -0.2670     3.3690    -3.9740 H     1 <1>   0.3700 
 38 H       -1.5930     2.6860    -3.0410 H     1 <1>   0.3700 
 39 H       -7.3560    -1.2170    -0.1070 H     1 <1>   0.0800 
 40 H       -7.8890    -1.0730     1.5570 H     1 <1>   0.0800 
 41 H       -3.2030    -3.3180    -1.0110 H     1 <1>   0.1500 
 42 H       -8.3720    -3.3380     0.5920 H     1 <1>   0.0800 
 43 H       -7.3450    -3.4010     2.0010 H     1 <1>   0.0800 
 44 H       -7.4910    -5.5170    -0.1390 H     1 <1>   0.1500 
 45 H       -2.0000    -7.0840    -2.3300 H     1 <1>   0.0800 
 46 H       -3.6700    -7.4160    -2.7670 H     1 <1>   0.0800 
 47 H       -3.1950    -7.3540    -1.0620 H     1 <1>   0.0800 
 48 H       -7.0070    -8.4930    -2.1140 H     1 <1>   0.0800 
 49 H       -7.7970    -6.9230    -2.0270 H     1 <1>   0.0800 
 50 H       -7.3120    -7.7650    -0.5420 H     1 <1>   0.0800 
@<TRIPOS>BOND
  1   1   2  1   
  2   1   3  1   
  3   2   4  2   
  4   2   5  1   
  5   3   6  2   
  6   3  28  1   
  7   4   6  1   
  8   5   7  1   
  9   5   8  1   
 10   6   9  1   
 11   7  10  1   
 12   7  29  1   
 13   7  30  1   
 14   8  11  1   
 15   8  31  1   
 16   8  32  1   
 17   9  12  2   
 18   9  13  am  
 19  10  14  1   
 20  10  33  1   
 21  10  34  1   
 22  11  14  1   
 23  11  35  1   
 24  11  36  1   
 25  13  37  1   
 26  13  38  1   
 27  14  15  1   
 28  14  16  1   
 29  15  17  1   
 30  16  18  ar  
 31  16  19  ar  
 32  17  20  1   
 33  17  39  1   
 34  17  40  1   
 35  18  20  1   
 36  18  21  ar  
 37  19  22  ar  
 38  19  41  1   
 39  20  42  1   
 40  20  43  1   
 41  21  23  ar  
 42  21  44  1   
 43  22  23  ar  
 44  22  24  1   
 45  23  25  1   
 46  24  26  1   
 47  25  27  1   
 48  26  45  1   
 49  26  46  1   
 50  26  47  1   
 51  27  48  1   
 52  27  49  1   
 53  27  50  1   
@<TRIPOS>SUBSTRUCTURE
  1 ****  11 GROUP 4 **** **** 0

# MOE 2024.06 (io_trps.svl 2023.06)
