@<TRIPOS>MOLECULE
NONAME
45 47 1 0 0 
SMALL
USER_CHARGES


@<TRIPOS>ATOM
  1 CL      -1.4260     0.8730    -0.4420 Cl    1 <1>  -0.1770 
  2 C       -0.6500     2.3890    -0.0560 C.ar  1 <1>   0.1770 
  3 C       -1.2560     3.5930    -0.3830 C.ar  1 <1>  -0.1440 
  4 C        0.5740     2.3560     0.5830 C.ar  1 <1>  -0.1500 
  5 C       -0.6020     4.7720    -0.0600 C.ar  1 <1>  -0.1500 
  6 C       -2.6100     3.6280    -1.0760 C.3   1 <1>  -0.0960 
  7 C        1.2110     3.5430     0.8970 C.ar  1 <1>  -0.1500 
  8 C        0.6430     4.7780     0.5760 C.ar  1 <1>   0.0860 
  9 C        1.3140     6.0290     0.8910 C.2   1 <1>   0.5440 
 10 O        0.6820     7.0540     1.0690 O.2   1 <1>  -0.5700 
 11 N        2.6840     6.1340     0.9400 N.am  1 <1>  -0.6600 
 12 C        3.3350     7.0870     1.9140 C.3   1 <1>   0.1400 
 13 C        3.5230     5.6530    -0.2010 C.3   1 <1>   0.1400 
 14 C        3.7120     8.4510     1.2800 C.3   1 <1>   0.4230 
 15 C        4.1190     6.7770    -1.0870 C.3   1 <1>  -0.0800 
 16 N        2.8270     8.6680     0.0800 N.4   1 <1>  -0.9590 
 17 C        5.2400     8.5450     1.0280 C.3   1 <1>   0.1200 
 18 C        5.5940     7.0690    -0.7700 C.3   1 <1>   0.1200 
 19 C        3.3240     8.0920    -1.2060 C.3   1 <1>   0.3430 
 20 C        2.5000    10.1440    -0.0980 C.3   1 <1>   0.2370 
 21 O        5.7760     7.3310     0.5780 O.3   1 <1>  -0.5600 
 22 C        3.7170    11.0440    -0.3180 C.2   1 <1>   0.9060 
 23 O        4.2060    11.0900    -1.4500 O.co2 1 <1>  -0.9000 
 24 O        4.2520    11.5370     0.6780 O.co2 1 <1>  -0.9000 
 25 H        1.0170     1.4070     0.8310 H     1 <1>   0.1500 
 26 H       -1.0600     5.7160    -0.2990 H     1 <1>   0.1500 
 27 H       -2.9310     4.6390    -1.2540 H     1 <1>   0.0800 
 28 H       -3.3480     3.1410    -0.4640 H     1 <1>   0.0800 
 29 H       -2.5530     3.1170    -2.0210 H     1 <1>   0.0800 
 30 H        2.1600     3.5130     1.4040 H     1 <1>   0.1500 
 31 H        2.6480     7.2780     2.7200 H     1 <1>   0.0800 
 32 H        4.2000     6.6210     2.3540 H     1 <1>   0.0800 
 33 H        4.3170     5.0370     0.1880 H     1 <1>   0.0800 
 34 H        2.9170     5.0220    -0.8300 H     1 <1>   0.0800 
 35 H        3.4830     9.2200     2.0000 H     1 <1>   0.0800 
 36 H        4.1470     6.3800    -2.0860 H     1 <1>   0.0800 
 37 H        1.9570     8.1560     0.3280 H     1 <1>   0.4500 
 38 H        5.7230     8.7590     1.9650 H     1 <1>   0.0800 
 39 H        5.5040     9.3330     0.3460 H     1 <1>   0.0800 
 40 H        5.9690     7.9030    -1.3420 H     1 <1>   0.0800 
 41 H        6.1950     6.2060    -1.0010 H     1 <1>   0.0800 
 42 H        2.4770     7.9270    -1.8500 H     1 <1>   0.0800 
 43 H        3.9540     8.8190    -1.6950 H     1 <1>   0.0800 
 44 H        1.8480    10.2750    -0.9420 H     1 <1>   0.0800 
 45 H        1.9950    10.5100     0.7780 H     1 <1>   0.0800 
@<TRIPOS>BOND
  1   1   2  1   
  2   2   3  ar  
  3   2   4  ar  
  4   3   5  ar  
  5   3   6  1   
  6   4   7  ar  
  7   4  25  1   
  8   5   8  ar  
  9   5  26  1   
 10   6  27  1   
 11   6  28  1   
 12   6  29  1   
 13   7   8  ar  
 14   7  30  1   
 15   8   9  1   
 16   9  10  2   
 17   9  11  am  
 18  11  12  1   
 19  11  13  1   
 20  12  14  1   
 21  12  31  1   
 22  12  32  1   
 23  13  15  1   
 24  13  33  1   
 25  13  34  1   
 26  14  16  1   
 27  14  17  1   
 28  14  35  1   
 29  15  18  1   
 30  15  19  1   
 31  15  36  1   
 32  16  19  1   
 33  16  20  1   
 34  16  37  1   
 35  17  21  1   
 36  17  38  1   
 37  17  39  1   
 38  18  21  1   
 39  18  40  1   
 40  18  41  1   
 41  19  42  1   
 42  19  43  1   
 43  20  22  1   
 44  20  44  1   
 45  20  45  1   
 46  22  23  ar  
 47  22  24  ar  
@<TRIPOS>SUBSTRUCTURE
  1 ****  11 GROUP 4 **** **** 0

# MOE 2024.06 (io_trps.svl 2023.06)
