@<TRIPOS>MOLECULE
NONAME
49 51 1 0 0 
SMALL
USER_CHARGES


@<TRIPOS>ATOM
  1 S        0.3620     0.9080    -0.9720 S.o2  1 <1>   1.3330 
  2 O        0.4550    -0.4900    -1.3290 O.2   1 <1>  -0.6500 
  3 O       -0.3900     1.8140    -1.8100 O.2   1 <1>  -0.6500 
  4 N       -0.3000     1.0030     0.5900 N.am  1 <1>  -0.8490 
  5 C        2.0300     1.5370    -0.7650 C.3   1 <1>  -0.0550 
  6 C       -0.7980     2.3420     0.9280 C.3   1 <1>   0.1160 
  7 C       -1.3640     0.0150     0.7980 C.3   1 <1>   0.1160 
  8 C        2.9660     0.6010     0.0330 C.3   1 <1>  -0.0800 
  9 C        4.4250     1.0340     0.0860 C.3   1 <1>   0.2200 
 10 C        2.6100     0.4240     1.5160 C.3   1 <1>   0.1200 
 11 N        4.5370     2.4870     0.3570 N.am  1 <1>  -0.7300 
 12 C        4.8850     0.2800     1.3240 C.3   1 <1>   0.1200 
 13 O        3.8210     0.3930     2.2170 O.3   1 <1>  -0.5600 
 14 C        4.7300     3.4500    -0.5820 C.2   1 <1>   0.7150 
 15 O        4.7690     3.1260    -1.7510 O.2   1 <1>  -0.5700 
 16 C        4.8380     4.8270    -0.1860 C.2   1 <1>  -0.2370 
 17 N        5.2360     5.2310     1.0680 N.pl3 1 <1>   0.0330 
 18 C        4.5970     5.9510    -0.9220 C.2   1 <1>  -0.1500 
 19 C        5.2310     6.5990     1.1230 C.ar  1 <1>  -0.1520 
 20 C        4.8330     7.0800    -0.1180 C.ar  1 <1>   0.0000 
 21 C        5.5500     7.4740     2.1640 C.ar  1 <1>  -0.1500 
 22 C        4.7450     8.4610    -0.3340 C.ar  1 <1>  -0.1500 
 23 C        5.4590     8.8270     1.9410 C.ar  1 <1>  -0.1500 
 24 C        5.0580     9.3290     0.6950 C.ar  1 <1>   0.0820 
 25 O        5.0050    10.6860     0.5910 O.3   1 <1>  -0.3630 
 26 C        4.6280    11.2960    -0.6230 C.3   1 <1>   0.0400 
 27 H        2.4570     1.6760    -1.7400 H     1 <1>   0.0800 
 28 H        1.9880     2.5000    -0.2970 H     1 <1>   0.0800 
 29 H       -1.1220     2.3680     1.9540 H     1 <1>   0.0800 
 30 H       -1.6280     2.6070     0.2920 H     1 <1>   0.0800 
 31 H       -0.0190     3.0730     0.7990 H     1 <1>   0.0800 
 32 H       -1.7570     0.0930     1.7980 H     1 <1>   0.0800 
 33 H       -0.9740    -0.9810     0.6680 H     1 <1>   0.0800 
 34 H       -2.1610     0.1690     0.0900 H     1 <1>   0.0800 
 35 H        2.9320    -0.3730    -0.4240 H     1 <1>   0.0800 
 36 H        4.9790     0.7610    -0.7970 H     1 <1>   0.0800 
 37 H        2.0780    -0.4960     1.6910 H     1 <1>   0.0800 
 38 H        2.0370     1.2520     1.8950 H     1 <1>   0.0800 
 39 H        4.2800     2.7430     1.3090 H     1 <1>   0.3700 
 40 H        5.7770     0.6940     1.7620 H     1 <1>   0.0800 
 41 H        5.0310    -0.7650     1.1080 H     1 <1>   0.0800 
 42 H        5.5590     4.6200     1.8240 H     1 <1>   0.2700 
 43 H        4.2810     5.9940    -1.9500 H     1 <1>   0.1500 
 44 H        5.8600     7.0910     3.1200 H     1 <1>   0.1500 
 45 H        4.4350     8.7970    -1.3040 H     1 <1>   0.1500 
 46 H        5.6960     9.5310     2.7180 H     1 <1>   0.1500 
 47 H        4.6600    12.3610    -0.4860 H     1 <1>   0.0800 
 48 H        3.6280    10.9890    -0.8720 H     1 <1>   0.0800 
 49 H        5.3240    11.0050    -1.3910 H     1 <1>   0.0800 
@<TRIPOS>BOND
  1   1   2  2   
  2   1   3  2   
  3   1   4  am  
  4   1   5  1   
  5   4   6  1   
  6   4   7  1   
  7   5   8  1   
  8   5  27  1   
  9   5  28  1   
 10   6  29  1   
 11   6  30  1   
 12   6  31  1   
 13   7  32  1   
 14   7  33  1   
 15   7  34  1   
 16   8   9  1   
 17   8  10  1   
 18   8  35  1   
 19   9  11  1   
 20   9  12  1   
 21   9  36  1   
 22  10  13  1   
 23  10  37  1   
 24  10  38  1   
 25  11  14  am  
 26  11  39  1   
 27  12  13  1   
 28  12  40  1   
 29  12  41  1   
 30  14  15  2   
 31  14  16  1   
 32  16  17  1   
 33  16  18  2   
 34  17  19  1   
 35  17  42  1   
 36  18  20  1   
 37  18  43  1   
 38  19  20  ar  
 39  19  21  ar  
 40  20  22  ar  
 41  21  23  ar  
 42  21  44  1   
 43  22  24  ar  
 44  22  45  1   
 45  23  24  ar  
 46  23  46  1   
 47  24  25  1   
 48  25  26  1   
 49  26  47  1   
 50  26  48  1   
 51  26  49  1   
@<TRIPOS>SUBSTRUCTURE
  1 ****  14 GROUP 4 **** **** 0

# MOE 2024.06 (io_trps.svl 2023.06)
