@<TRIPOS>MOLECULE
NONAME
46 48 1 0 0 
SMALL
USER_CHARGES


@<TRIPOS>ATOM
  1 O       -1.4050     0.2770     2.8780 O.co2 1 <1>  -0.9000 
  2 C       -1.8730     1.3600     2.5410 C.2   1 <1>   0.9060 
  3 O       -1.9440     2.3510     3.2650 O.co2 1 <1>  -0.9000 
  4 C       -2.5280     1.4600     1.2090 C.3   1 <1>  -0.2660 
  5 C       -3.9630     1.7880     1.5430 C.3   1 <1>   0.3430 
  6 N       -4.7270     1.9980     0.2870 N.4   1 <1>  -0.9590 
  7 C       -5.9920     2.7490     0.5810 C.3   1 <1>   0.3430 
  8 C       -5.0060     0.7050    -0.3990 C.3   1 <1>   0.3430 
  9 C       -6.7700     3.0760    -0.7070 C.3   1 <1>   0.1430 
 10 C       -5.7380     0.9660    -1.7190 C.3   1 <1>  -0.1600 
 11 C       -8.0810     3.7240    -0.3320 C.ar  1 <1>   0.1670 
 12 C       -7.0250     1.7880    -1.5180 C.3   1 <1>  -0.1600 
 13 C       -6.0850     4.1780    -1.5610 C.3   1 <1>  -0.1600 
 14 N       -8.8970     3.2690     0.5840 N.ar  1 <1>  -0.6200 
 15 C       -8.3150     4.8530    -1.0540 C.ar  1 <1>  -0.1430 
 16 C       -7.2000     5.1340    -2.0290 C.3   1 <1>  -0.0170 
 17 C      -10.0020     4.0000     0.7670 C.ar  1 <1>   0.7200 
 18 C       -9.4750     5.5390    -0.7980 C.ar  1 <1>   0.1600 
 19 N      -10.3220     5.1210     0.1130 N.ar  1 <1>  -0.6200 
 20 N      -10.8900     3.5570     1.7260 N.pl3 1 <1>  -0.8380 
 21 C      -11.9830     4.4280     2.2410 C.3   1 <1>   0.1290 
 22 C      -10.9380     2.1400     2.1790 C.3   1 <1>   0.1290 
 23 H       -2.4220     0.5190     0.7050 H     1 <1>   0.0800 
 24 H       -2.0510     2.2500     0.6640 H     1 <1>   0.0800 
 25 H       -3.9740     2.6870     2.1410 H     1 <1>   0.0800 
 26 H       -4.3950     0.9930     2.1310 H     1 <1>   0.0800 
 27 H       -4.1330     2.5740    -0.3180 H     1 <1>   0.4500 
 28 H       -5.7680     3.6650     1.1020 H     1 <1>   0.0800 
 29 H       -6.6240     2.1540     1.2200 H     1 <1>   0.0800 
 30 H       -5.6160     0.0830     0.2360 H     1 <1>   0.0800 
 31 H       -4.0830     0.1820    -0.5940 H     1 <1>   0.0800 
 32 H       -5.9910     0.0200    -2.1660 H     1 <1>   0.0800 
 33 H       -5.0720     1.4680    -2.3990 H     1 <1>   0.0800 
 34 H       -7.4650     2.0300    -2.4710 H     1 <1>   0.0800 
 35 H       -7.7390     1.1820    -0.9840 H     1 <1>   0.0800 
 36 H       -5.5380     3.7850    -2.3990 H     1 <1>   0.0800 
 37 H       -5.4050     4.7420    -0.9450 H     1 <1>   0.0800 
 38 H       -7.5240     4.8880    -3.0260 H     1 <1>   0.0800 
 39 H       -6.8870     6.1640    -1.9910 H     1 <1>   0.0800 
 40 H       -9.7120     6.4380    -1.3410 H     1 <1>   0.1500 
 41 H      -11.6770     5.4600     2.2370 H     1 <1>   0.0800 
 42 H      -12.2320     4.1530     3.2500 H     1 <1>   0.0800 
 43 H      -12.8530     4.3200     1.6170 H     1 <1>   0.0800 
 44 H      -10.4470     1.4950     1.4710 H     1 <1>   0.0800 
 45 H      -11.9600     1.8180     2.2730 H     1 <1>   0.0800 
 46 H      -10.4490     2.0510     3.1330 H     1 <1>   0.0800 
@<TRIPOS>BOND
  1   1   2  ar  
  2   2   3  ar  
  3   2   4  1   
  4   4   5  1   
  5   4  23  1   
  6   4  24  1   
  7   5   6  1   
  8   5  25  1   
  9   5  26  1   
 10   6   7  1   
 11   6   8  1   
 12   6  27  1   
 13   7   9  1   
 14   7  28  1   
 15   7  29  1   
 16   8  10  1   
 17   8  30  1   
 18   8  31  1   
 19   9  11  1   
 20   9  12  1   
 21   9  13  1   
 22  10  12  1   
 23  10  32  1   
 24  10  33  1   
 25  11  14  ar  
 26  11  15  ar  
 27  12  34  1   
 28  12  35  1   
 29  13  16  1   
 30  13  36  1   
 31  13  37  1   
 32  14  17  ar  
 33  15  16  1   
 34  15  18  ar  
 35  16  38  1   
 36  16  39  1   
 37  17  19  ar  
 38  17  20  1   
 39  18  19  ar  
 40  18  40  1   
 41  20  21  1   
 42  20  22  1   
 43  21  41  1   
 44  21  42  1   
 45  21  43  1   
 46  22  44  1   
 47  22  45  1   
 48  22  46  1   
@<TRIPOS>SUBSTRUCTURE
  1 ****   7 GROUP 4 **** **** 0

# MOE 2024.06 (io_trps.svl 2023.06)
