@<TRIPOS>MOLECULE
NONAME
52 55 1 0 0 
SMALL
USER_CHARGES


@<TRIPOS>ATOM
  1 O        1.2210    -0.8040    -3.1160 O.2   1 <1>  -0.5700 
  2 C        1.3720    -1.3420    -2.0360 C.2   1 <1>   0.9370 
  3 N        2.5010    -1.0170    -1.2700 N.pl3 1 <1>  -0.5760 
  4 C        0.3840    -2.1940    -1.4930 C.2   1 <1>  -0.1360 
  5 C        2.5750    -1.4550     0.0120 C.cat 1 <1>   0.7390 
  6 C        3.5690    -0.3650    -1.8290 C.2   1 <1>   0.1910 
  7 C        0.4780    -2.5890    -0.2110 C.2   1 <1>   0.2030 
  8 N        1.5170    -2.1080     0.5440 N.pl3 1 <1>  -0.6450 
  9 C        3.7390    -1.2110     0.7760 C.2   1 <1>  -0.1680 
 10 C        4.7020    -0.1120    -1.1100 C.2   1 <1>  -0.1500 
 11 C       -0.4430    -3.6150     0.4440 C.3   1 <1>   0.2480 
 12 C        4.7960    -0.5360     0.2190 C.2   1 <1>  -0.1500 
 13 C        3.8480    -1.7030     2.2180 C.3   1 <1>  -0.1020 
 14 N        0.2550    -4.5830     1.3530 N.3   1 <1>  -0.8100 
 15 C        1.5380    -5.1810     0.8800 C.3   1 <1>   0.1100 
 16 C       -0.6640    -5.6670     1.7770 C.3   1 <1>   0.1100 
 17 C        1.4280    -6.0070    -0.4250 C.3   1 <1>  -0.1060 
 18 C       -0.5420    -6.9520     0.9280 C.3   1 <1>  -0.1600 
 19 C        1.6000    -5.0520    -1.6120 C.2   1 <1>   0.9060 
 20 C        0.0150    -6.6660    -0.4700 C.3   1 <1>   0.2000 
 21 C        2.5570    -7.0830    -0.4420 C.3   1 <1>  -0.0650 
 22 O        2.5060    -4.2040    -1.6050 O.co2 1 <1>  -0.9000 
 23 O        0.7540    -5.0260    -2.5130 O.co2 1 <1>  -0.9000 
 24 O        0.0180    -7.8410    -1.1970 O.3   1 <1>  -0.6800 
 25 C        3.9710    -6.5760    -0.1070 C.3   1 <1>  -0.1950 
 26 C        5.0380    -7.5530     0.2680 C.3   1 <1>  -0.2000 
 27 C        4.5110    -6.5870     1.2890 C.3   1 <1>  -0.2000 
 28 H       -0.3790    -2.5330    -2.1650 H     1 <1>   0.1500 
 29 H        3.5010    -0.0570    -2.8630 H     1 <1>   0.1500 
 30 H        1.6220    -2.5560     1.4580 H     1 <1>   0.4500 
 31 H        5.5330     0.4050    -1.5580 H     1 <1>   0.1500 
 32 H       -0.9720    -4.1350    -0.3320 H     1 <1>   0.0800 
 33 H       -1.1770    -3.0840     1.0240 H     1 <1>   0.0800 
 34 H        5.7000    -0.3330     0.7690 H     1 <1>   0.1500 
 35 H        3.0670    -1.2760     2.8230 H     1 <1>   0.0800 
 36 H        4.7930    -1.4240     2.6490 H     1 <1>   0.0800 
 37 H        3.7740    -2.7770     2.2500 H     1 <1>   0.0800 
 38 H        2.3080    -4.4410     0.7820 H     1 <1>   0.0800 
 39 H        1.8760    -5.8390     1.6620 H     1 <1>   0.0800 
 40 H       -0.4480    -5.9170     2.8020 H     1 <1>   0.0800 
 41 H       -1.6810    -5.3130     1.7480 H     1 <1>   0.0800 
 42 H       -1.5090    -7.4150     0.8480 H     1 <1>   0.0800 
 43 H        0.1120    -7.6410     1.4310 H     1 <1>   0.0800 
 44 H       -0.6900    -6.0250    -0.9660 H     1 <1>   0.0800 
 45 H        2.3050    -7.8700     0.2470 H     1 <1>   0.0800 
 46 H        2.5950    -7.5230    -1.4230 H     1 <1>   0.0800 
 47 H        0.2420    -7.6040    -2.1230 H     1 <1>   0.4000 
 48 H        4.2830    -5.7750    -0.7570 H     1 <1>   0.1000 
 49 H        4.7820    -8.5940     0.3600 H     1 <1>   0.1000 
 50 H        6.0270    -7.4050    -0.1300 H     1 <1>   0.1000 
 51 H        5.1370    -5.7700     1.6020 H     1 <1>   0.1000 
 52 H        3.9110    -6.9800     2.0910 H     1 <1>   0.1000 
@<TRIPOS>BOND
  1   1   2  2   
  2   2   3  1   
  3   2   4  1   
  4   3   5  ar  
  5   3   6  1   
  6   4   7  2   
  7   4  28  1   
  8   5   8  ar  
  9   5   9  1   
 10   6  10  2   
 11   6  29  1   
 12   7   8  1   
 13   7  11  1   
 14   8  30  1   
 15   9  12  2   
 16   9  13  1   
 17  10  12  1   
 18  10  31  1   
 19  11  14  1   
 20  11  32  1   
 21  11  33  1   
 22  12  34  1   
 23  13  35  1   
 24  13  36  1   
 25  13  37  1   
 26  14  15  1   
 27  14  16  1   
 28  15  17  1   
 29  15  38  1   
 30  15  39  1   
 31  16  18  1   
 32  16  40  1   
 33  16  41  1   
 34  17  19  1   
 35  17  20  1   
 36  17  21  1   
 37  18  20  1   
 38  18  42  1   
 39  18  43  1   
 40  19  22  ar  
 41  19  23  ar  
 42  20  24  1   
 43  20  44  1   
 44  21  25  1   
 45  21  45  1   
 46  21  46  1   
 47  24  47  1   
 48  25  26  1   
 49  25  27  1   
 50  25  48  1   
 51  26  27  1   
 52  26  49  1   
 53  26  50  1   
 54  27  51  1   
 55  27  52  1   
@<TRIPOS>SUBSTRUCTURE
  1 ****  22 GROUP 4 **** **** 0

# MOE 2024.06 (io_trps.svl 2023.06)
