@<TRIPOS>MOLECULE
NONAME
56 58 1 0 0 
SMALL
USER_CHARGES


@<TRIPOS>ATOM
  1 O        1.4600     1.5670     2.6840 O.co2 1 <1>  -0.9000 
  2 C        1.5150     0.6560     1.8500 C.2   1 <1>   0.9060 
  3 O        1.2300    -0.5150     2.1470 O.co2 1 <1>  -0.9000 
  4 C        2.0130     0.9300     0.4200 C.3   1 <1>  -0.1060 
  5 C        3.2960     0.0630     0.3330 C.3   1 <1>   0.2000 
  6 C        2.3880     2.4320     0.2090 C.3   1 <1>  -0.1600 
  7 C        0.8690     0.5530    -0.5790 C.3   1 <1>  -0.1600 
  8 O        2.9790    -1.2520     0.0340 O.3   1 <1>  -0.6800 
  9 C        4.3530     0.6140    -0.6320 C.3   1 <1>   0.2090 
 10 C        3.8210     2.7450     0.6460 C.3   1 <1>   0.2090 
 11 C        1.2320     0.4850    -2.0750 C.3   1 <1>  -0.1600 
 12 N        4.7950     2.0020    -0.2350 N.pl3 1 <1>  -0.8380 
 13 C       -0.0080     0.1810    -2.9200 C.3   1 <1>  -0.2400 
 14 C        6.0170     2.5140    -0.5420 C.ar  1 <1>   0.4100 
 15 N        6.4490     3.5460     0.1580 N.ar  1 <1>  -0.6200 
 16 C        6.7990     1.9640    -1.5760 C.ar  1 <1>  -0.1500 
 17 C        7.6440     4.0490    -0.1070 C.ar  1 <1>   0.7710 
 18 C        8.0160     2.4920    -1.8420 C.ar  1 <1>   0.2180 
 19 N        8.4140     3.5400    -1.0840 N.ar  1 <1>  -0.1790 
 20 N        8.1050     5.1080     0.6160 N.pl3 1 <1>  -0.8380 
 21 C        8.9390     1.9790    -2.9340 C.3   1 <1>  -0.0970 
 22 C        9.4330     5.7880     0.4930 C.3   1 <1>   0.2090 
 23 C        7.2500     5.7780     1.6540 C.3   1 <1>   0.2090 
 24 C        9.2150     7.2300     0.0270 C.3   1 <1>  -0.1600 
 25 C        6.9900     7.2260     1.2270 C.3   1 <1>  -0.1600 
 26 C        8.2970     7.9970     0.9910 C.3   1 <1>  -0.1600 
 27 H        3.7630     0.0340     1.3050 H     1 <1>   0.0800 
 28 H        1.7060     3.0590     0.7560 H     1 <1>   0.0800 
 29 H        2.3030     2.7210    -0.8190 H     1 <1>   0.0800 
 30 H        0.4710    -0.4070    -0.2970 H     1 <1>   0.0800 
 31 H        0.0690     1.2600    -0.4430 H     1 <1>   0.0800 
 32 H        2.2760    -1.4980     0.6910 H     1 <1>   0.4000 
 33 H        3.9460     0.6470    -1.6250 H     1 <1>   0.0800 
 34 H        5.1960    -0.0530    -0.6150 H     1 <1>   0.0800 
 35 H        3.9610     2.4550     1.6750 H     1 <1>   0.0800 
 36 H        3.9820     3.8060     0.5710 H     1 <1>   0.0800 
 37 H        1.6590     1.4100    -2.4130 H     1 <1>   0.0800 
 38 H        1.9530    -0.2980    -2.2340 H     1 <1>   0.0800 
 39 H       -0.7440     0.9560    -2.7980 H     1 <1>   0.0800 
 40 H       -0.4400    -0.7580    -2.6210 H     1 <1>   0.0800 
 41 H        0.2600     0.1200    -3.9600 H     1 <1>   0.0800 
 42 H        6.4100     1.1400    -2.1420 H     1 <1>   0.1500 
 43 H        9.3000     4.0030    -1.2240 H     1 <1>   0.4570 
 44 H        8.4870     1.1470    -3.4470 H     1 <1>   0.0800 
 45 H        9.8710     1.6460    -2.5140 H     1 <1>   0.0800 
 46 H        9.1330     2.7520    -3.6570 H     1 <1>   0.0800 
 47 H        9.9150     5.7950     1.4570 H     1 <1>   0.0800 
 48 H       10.0880     5.2820    -0.1920 H     1 <1>   0.0800 
 49 H        6.3070     5.2790     1.7970 H     1 <1>   0.0800 
 50 H        7.7650     5.7650     2.6000 H     1 <1>   0.0800 
 51 H       10.1640     7.7340    -0.0340 H     1 <1>   0.0800 
 52 H        8.7820     7.2270    -0.9580 H     1 <1>   0.0800 
 53 H        6.3990     7.2210     0.3280 H     1 <1>   0.0800 
 54 H        6.4150     7.7210     1.9900 H     1 <1>   0.0800 
 55 H        8.0770     8.9720     0.5900 H     1 <1>   0.0800 
 56 H        8.8020     8.1330     1.9320 H     1 <1>   0.0800 
@<TRIPOS>BOND
  1   1   2  ar  
  2   2   3  ar  
  3   2   4  1   
  4   4   5  1   
  5   4   6  1   
  6   4   7  1   
  7   5   8  1   
  8   5   9  1   
  9   5  27  1   
 10   6  10  1   
 11   6  28  1   
 12   6  29  1   
 13   7  11  1   
 14   7  30  1   
 15   7  31  1   
 16   8  32  1   
 17   9  12  1   
 18   9  33  1   
 19   9  34  1   
 20  10  12  1   
 21  10  35  1   
 22  10  36  1   
 23  11  13  1   
 24  11  37  1   
 25  11  38  1   
 26  12  14  1   
 27  13  39  1   
 28  13  40  1   
 29  13  41  1   
 30  14  15  ar  
 31  14  16  ar  
 32  15  17  ar  
 33  16  18  ar  
 34  16  42  1   
 35  17  19  ar  
 36  17  20  1   
 37  18  19  ar  
 38  18  21  1   
 39  19  43  1   
 40  20  22  1   
 41  20  23  1   
 42  21  44  1   
 43  21  45  1   
 44  21  46  1   
 45  22  24  1   
 46  22  47  1   
 47  22  48  1   
 48  23  25  1   
 49  23  49  1   
 50  23  50  1   
 51  24  26  1   
 52  24  51  1   
 53  24  52  1   
 54  25  26  1   
 55  25  53  1   
 56  25  54  1   
 57  26  55  1   
 58  26  56  1   
@<TRIPOS>SUBSTRUCTURE
  1 ****  12 GROUP 4 **** **** 0

# MOE 2024.06 (io_trps.svl 2023.06)
