@<TRIPOS>MOLECULE
NONAME
31 33 1 0 0 
SMALL
USER_CHARGES


@<TRIPOS>ATOM
  1 CL       0.4750    -0.6590    -2.7500 Cl    1 <1>  -0.1770 
  2 C        1.4590    -1.3230    -1.4720 C.ar  1 <1>   0.1770 
  3 C        1.4640    -2.6890    -1.2630 C.ar  1 <1>  -0.1500 
  4 C        2.2170    -0.4640    -0.6930 C.ar  1 <1>  -0.1500 
  5 C        2.2470    -3.2450    -0.2510 C.ar  1 <1>   0.0860 
  6 C        3.0000    -0.9920     0.3190 C.ar  1 <1>  -0.1500 
  7 C        3.0000    -2.3620     0.5200 C.ar  1 <1>   0.1900 
  8 C        2.2620    -4.6710    -0.0320 C.2   1 <1>   0.5440 
  9 F        3.7440    -2.8260     1.4860 F     1 <1>  -0.1900 
 10 O        3.2100    -5.3220    -0.4290 O.2   1 <1>  -0.5700 
 11 N        1.2080    -5.3000     0.5750 N.am  1 <1>  -0.6600 
 12 C       -0.0220    -4.6300     1.0900 C.3   1 <1>   0.2350 
 13 C        0.9320    -6.7560     0.4180 C.3   1 <1>   0.2350 
 14 C       -1.1680    -5.5160     0.6440 C.3   1 <1>  -0.2420 
 15 C       -0.5770    -6.8470     0.2460 C.3   1 <1>  -0.2420 
 16 C       -2.4510    -5.1260     1.3820 C.2   1 <1>   0.9470 
 17 C       -1.2780    -5.9960    -0.7820 C.3   1 <1>  -0.2000 
 18 C       -1.0670    -8.2750     0.4930 C.2   1 <1>   0.9470 
 19 O       -2.4050    -4.9550     2.6080 O.co2 1 <1>  -0.9000 
 20 O       -3.4560    -4.8070     0.7320 O.co2 1 <1>  -0.9000 
 21 O       -0.7310    -8.8520     1.5360 O.co2 1 <1>  -0.9000 
 22 O       -1.6560    -8.8820    -0.4120 O.co2 1 <1>  -0.9000 
 23 H        0.8600    -3.3320    -1.8790 H     1 <1>   0.1500 
 24 H        2.1890     0.5950    -0.8810 H     1 <1>   0.1500 
 25 H        3.6010    -0.3560     0.9450 H     1 <1>   0.1500 
 26 H        0.0190    -4.5980     2.1660 H     1 <1>   0.0800 
 27 H       -0.1490    -3.6350     0.7060 H     1 <1>   0.0800 
 28 H        1.4410    -7.1670    -0.4360 H     1 <1>   0.0800 
 29 H        1.2390    -7.2750     1.3090 H     1 <1>   0.0800 
 30 H       -0.7050    -5.5220    -1.5550 H     1 <1>   0.1000 
 31 H       -2.2430    -6.3280    -1.1290 H     1 <1>   0.1000 
@<TRIPOS>BOND
  1   1   2  1   
  2   2   3  ar  
  3   2   4  ar  
  4   3   5  ar  
  5   3  23  1   
  6   4   6  ar  
  7   4  24  1   
  8   5   7  ar  
  9   5   8  1   
 10   6   7  ar  
 11   6  25  1   
 12   7   9  1   
 13   8  10  2   
 14   8  11  am  
 15  11  12  1   
 16  11  13  1   
 17  12  14  1   
 18  12  26  1   
 19  12  27  1   
 20  13  15  1   
 21  13  28  1   
 22  13  29  1   
 23  14  15  1   
 24  14  16  1   
 25  14  17  1   
 26  15  17  1   
 27  15  18  1   
 28  16  19  ar  
 29  16  20  ar  
 30  17  30  1   
 31  17  31  1   
 32  18  21  ar  
 33  18  22  ar  
@<TRIPOS>SUBSTRUCTURE
  1 ****  12 GROUP 4 **** **** 0

# MOE 2024.06 (io_trps.svl 2023.06)
