@<TRIPOS>MOLECULE
NONAME
54 57 1 0 0 
SMALL
USER_CHARGES


@<TRIPOS>ATOM
  1 O       -1.1650     0.4060    -0.3780 O.2   1 <1>  -0.5700 
  2 C       -1.8470     1.0790     0.3770 C.2   1 <1>   0.7160 
  3 N       -2.9020     0.4200     0.9920 N.am  1 <1>  -0.6600 
  4 C       -1.5360     2.4950     0.5730 C.2   1 <1>   0.2030 
  5 C       -4.2480     1.0310     1.2110 C.3   1 <1>   0.1400 
  6 C       -2.8630    -1.0570     1.2080 C.3   1 <1>   0.1400 
  7 N       -2.2510     3.3900     1.2360 N.2   1 <1>  -0.7070 
  8 C       -0.3790     3.0990     0.0710 C.2   1 <1>  -0.1500 
  9 C       -5.3340     0.3160     0.3740 C.3   1 <1>   0.4230 
 10 C       -3.9190    -1.7540     0.3350 C.3   1 <1>   0.3430 
 11 N       -1.5470     4.5310     1.1640 N.pl3 1 <1>   0.3000 
 12 C       -0.4020     4.3960     0.4610 C.2   1 <1>  -0.2050 
 13 N       -5.3080    -1.1930     0.5560 N.4   1 <1>  -0.9590 
 14 C       -5.1990     0.6920    -1.1210 C.3   1 <1>   0.1200 
 15 C        0.5340     5.4710     0.2410 C.ar  1 <1>   0.0530 
 16 C       -6.3490    -1.8130    -0.3380 C.3   1 <1>   0.4230 
 17 O       -6.1920     0.0550    -1.8730 O.3   1 <1>  -0.5600 
 18 C        0.8880     5.8970    -1.0430 C.ar  1 <1>   0.0830 
 19 C        1.1160     6.1300     1.3220 C.ar  1 <1>  -0.1500 
 20 C       -6.1870    -1.3430    -1.8050 C.3   1 <1>   0.1200 
 21 C       -6.3420    -3.3440    -0.1970 C.3   1 <1>  -0.1600 
 22 O        0.3540     5.2990    -2.1190 O.3   1 <1>  -0.5330 
 23 C        1.7770     6.9380    -1.2380 C.ar  1 <1>  -0.1500 
 24 C        2.0060     7.1730     1.1320 C.ar  1 <1>  -0.1500 
 25 C       -7.6080    -3.9920    -0.7790 C.3   1 <1>  -0.1600 
 26 C        2.3380     7.5800    -0.1490 C.ar  1 <1>  -0.1500 
 27 C       -7.6030    -5.5050    -0.5460 C.3   1 <1>  -0.2400 
 28 H       -4.4950     0.9730     2.2570 H     1 <1>   0.0800 
 29 H       -4.2510     2.0700     0.9410 H     1 <1>   0.0800 
 30 H       -1.8880    -1.4490     0.9690 H     1 <1>   0.0800 
 31 H       -3.0470    -1.2700     2.2470 H     1 <1>   0.0800 
 32 H        0.3830     2.5960    -0.5010 H     1 <1>   0.1500 
 33 H       -6.2900     0.6910     0.7000 H     1 <1>   0.0800 
 34 H       -3.9080    -2.8090     0.5560 H     1 <1>   0.0800 
 35 H       -3.6350    -1.6320    -0.6980 H     1 <1>   0.0800 
 36 H       -1.8590     5.4100     1.5970 H     1 <1>   0.2700 
 37 H       -5.5760    -1.3910     1.5260 H     1 <1>   0.4500 
 38 H       -4.2340     0.4170    -1.5130 H     1 <1>   0.0800 
 39 H       -5.3260     1.7530    -1.2500 H     1 <1>   0.0800 
 40 H       -7.3170    -1.4700    -0.0110 H     1 <1>   0.0800 
 41 H        0.8770     5.8190     2.3230 H     1 <1>   0.1500 
 42 H       -7.0100    -1.6910    -2.4030 H     1 <1>   0.0800 
 43 H       -5.2730    -1.7080    -2.2400 H     1 <1>   0.0800 
 44 H       -5.4860    -3.7630    -0.6960 H     1 <1>   0.0800 
 45 H       -6.2910    -3.6010     0.8470 H     1 <1>   0.0800 
 46 H       -0.2460     4.5720    -1.8680 H     1 <1>   0.4500 
 47 H        2.0260     7.2400    -2.2400 H     1 <1>   0.1500 
 48 H        2.4450     7.6690     1.9810 H     1 <1>   0.1500 
 49 H       -8.4860    -3.5730    -0.3150 H     1 <1>   0.0800 
 50 H       -7.6740    -3.8130    -1.8390 H     1 <1>   0.0800 
 51 H        3.0310     8.3900    -0.2980 H     1 <1>   0.1500 
 52 H       -7.5770    -5.7310     0.5060 H     1 <1>   0.0800 
 53 H       -6.7520    -5.9630    -1.0200 H     1 <1>   0.0800 
 54 H       -8.4940    -5.9440    -0.9600 H     1 <1>   0.0800 
@<TRIPOS>BOND
  1   1   2  2   
  2   2   3  am  
  3   2   4  1   
  4   3   5  1   
  5   3   6  1   
  6   4   7  2   
  7   4   8  1   
  8   5   9  1   
  9   5  28  1   
 10   5  29  1   
 11   6  10  1   
 12   6  30  1   
 13   6  31  1   
 14   7  11  1   
 15   8  12  2   
 16   8  32  1   
 17   9  13  1   
 18   9  14  1   
 19   9  33  1   
 20  10  13  1   
 21  10  34  1   
 22  10  35  1   
 23  11  12  1   
 24  11  36  1   
 25  12  15  1   
 26  13  16  1   
 27  13  37  1   
 28  14  17  1   
 29  14  38  1   
 30  14  39  1   
 31  15  18  ar  
 32  15  19  ar  
 33  16  20  1   
 34  16  21  1   
 35  16  40  1   
 36  17  20  1   
 37  18  22  1   
 38  18  23  ar  
 39  19  24  ar  
 40  19  41  1   
 41  20  42  1   
 42  20  43  1   
 43  21  25  1   
 44  21  44  1   
 45  21  45  1   
 46  22  46  1   
 47  23  26  ar  
 48  23  47  1   
 49  24  26  ar  
 50  24  48  1   
 51  25  27  1   
 52  25  49  1   
 53  25  50  1   
 54  26  51  1   
 55  27  52  1   
 56  27  53  1   
 57  27  54  1   
@<TRIPOS>SUBSTRUCTURE
  1 ****   2 GROUP 4 **** **** 0

# MOE 2024.06 (io_trps.svl 2023.06)
