@<TRIPOS>MOLECULE
NONAME
46 48 1 0 0 
SMALL
USER_CHARGES


@<TRIPOS>ATOM
  1 CL      -1.0730    -2.3280    -3.4350 Cl    1 <1>  -0.1770 
  2 C       -1.7880    -3.3830    -2.2440 C.ar  1 <1>   0.1770 
  3 C       -3.0240    -3.0740    -1.7130 C.ar  1 <1>  -0.1500 
  4 C       -1.1080    -4.5180    -1.8450 C.ar  1 <1>  -0.1500 
  5 C       -3.5840    -3.9150    -0.7680 C.ar  1 <1>  -0.1500 
  6 C       -1.6800    -5.3510    -0.9010 C.ar  1 <1>  -0.1500 
  7 C       -2.9310    -5.0730    -0.3400 C.ar  1 <1>   0.0530 
  8 C       -3.5060    -5.9570     0.6470 C.2   1 <1>   0.0870 
  9 O       -2.7170    -6.7120     1.3800 O.3   1 <1>  -0.0190 
 10 C       -4.7790    -6.2290     1.0360 C.2   1 <1>  -0.2330 
 11 N       -3.3700    -7.4670     2.2240 N.2   1 <1>  -0.4100 
 12 C       -4.6090    -7.1880     2.0330 C.2   1 <1>   0.3720 
 13 C       -6.0540    -5.7920     0.5620 C.2   1 <1>   1.0330 
 14 N       -5.6580    -7.7790     2.7210 N.pl3 1 <1>  -0.8520 
 15 O       -6.2380    -5.4950    -0.6300 O.co2 1 <1>  -0.9000 
 16 O       -7.0680    -5.8450     1.2860 O.co2 1 <1>  -0.9000 
 17 C       -5.8660    -9.2430     2.4970 C.3   1 <1>   0.2090 
 18 C       -6.2600    -9.6510     1.0460 C.3   1 <1>   0.1900 
 19 N       -5.1270    -9.5090     0.0820 N.3   1 <1>  -0.8100 
 20 C       -7.5200    -8.8290     0.6570 C.3   1 <1>   0.3430 
 21 C       -5.5300    -9.5270    -1.3300 C.3   1 <1>   0.1100 
 22 C       -3.9970   -10.4150     0.3340 C.3   1 <1>   0.0300 
 23 N       -7.8300    -8.6730    -0.8110 N.4   1 <1>  -0.9590 
 24 C       -6.5780    -8.4430    -1.6050 C.3   1 <1>   0.3430 
 25 C       -8.7030    -7.4680    -0.9720 C.3   1 <1>   0.2630 
 26 H       -3.5420    -2.1890    -2.0350 H     1 <1>   0.1500 
 27 H       -0.1470    -4.7420    -2.2700 H     1 <1>   0.1500 
 28 H       -4.5480    -3.6690    -0.3570 H     1 <1>   0.1500 
 29 H       -1.1520    -6.2360    -0.5900 H     1 <1>   0.1500 
 30 H       -6.4960    -7.1980     2.5200 H     1 <1>   0.4000 
 31 H       -6.6490    -9.5600     3.1620 H     1 <1>   0.0800 
 32 H       -4.9790    -9.7680     2.8010 H     1 <1>   0.0800 
 33 H       -6.5430   -10.6890     1.0640 H     1 <1>   0.0800 
 34 H       -7.3900    -7.8560     1.0700 H     1 <1>   0.0800 
 35 H       -8.3740    -9.2470     1.1610 H     1 <1>   0.0800 
 36 H       -5.9130   -10.4950    -1.6000 H     1 <1>   0.0800 
 37 H       -4.6680    -9.3190    -1.9400 H     1 <1>   0.0800 
 38 H       -3.5690   -10.2190     1.3020 H     1 <1>   0.0800 
 39 H       -3.2230   -10.2470    -0.3950 H     1 <1>   0.0800 
 40 H       -4.3120   -11.4420     0.2820 H     1 <1>   0.0800 
 41 H       -8.2950    -9.5160    -1.1570 H     1 <1>   0.4500 
 42 H       -6.8100    -8.4220    -2.6550 H     1 <1>   0.0800 
 43 H       -6.1440    -7.4950    -1.3490 H     1 <1>   0.0800 
 44 H       -8.2050    -6.5900    -0.5910 H     1 <1>   0.0800 
 45 H       -9.6240    -7.5920    -0.4270 H     1 <1>   0.0800 
 46 H       -8.9290    -7.3010    -2.0110 H     1 <1>   0.0800 
@<TRIPOS>BOND
  1   1   2  1   
  2   2   3  ar  
  3   2   4  ar  
  4   3   5  ar  
  5   3  26  1   
  6   4   6  ar  
  7   4  27  1   
  8   5   7  ar  
  9   5  28  1   
 10   6   7  ar  
 11   6  29  1   
 12   7   8  1   
 13   8   9  1   
 14   8  10  2   
 15   9  11  1   
 16  10  12  1   
 17  10  13  1   
 18  11  12  2   
 19  12  14  1   
 20  13  15  ar  
 21  13  16  ar  
 22  14  17  1   
 23  14  30  1   
 24  17  18  1   
 25  17  31  1   
 26  17  32  1   
 27  18  19  1   
 28  18  20  1   
 29  18  33  1   
 30  19  21  1   
 31  19  22  1   
 32  20  23  1   
 33  20  34  1   
 34  20  35  1   
 35  21  24  1   
 36  21  36  1   
 37  21  37  1   
 38  22  38  1   
 39  22  39  1   
 40  22  40  1   
 41  23  24  1   
 42  23  25  1   
 43  23  41  1   
 44  24  42  1   
 45  24  43  1   
 46  25  44  1   
 47  25  45  1   
 48  25  46  1   
@<TRIPOS>SUBSTRUCTURE
  1 ****  10 GROUP 4 **** **** 0

# MOE 2024.06 (io_trps.svl 2023.06)
