@<TRIPOS>MOLECULE
NONAME
46 48 1 0 0 
SMALL
USER_CHARGES


@<TRIPOS>ATOM
  1 O        3.9260    -2.4230     0.1140 O.2   1 <1>  -0.5700 
  2 C        3.2160    -2.0000    -0.7690 C.2   1 <1>   0.5690 
  3 N        3.0420    -0.6680    -0.9540 N.am  1 <1>  -0.7300 
  4 C        2.5000    -2.9860    -1.7020 C.3   1 <1>   0.1710 
  5 C        3.5190     0.3830    -0.0410 C.3   1 <1>   0.3200 
  6 N        1.1300    -3.3910    -1.2860 N.3   1 <1>  -0.8100 
  7 C        2.3910     1.3760     0.1640 C.2   1 <1>  -0.0400 
  8 C        1.1310    -4.1710    -0.0310 C.3   1 <1>   0.2530 
  9 C        0.1100    -2.3390    -1.3860 C.3   1 <1>   0.1100 
 10 O        1.8880     2.0000    -0.8860 O.3   1 <1>  -0.2800 
 11 C        1.7550     1.7640     1.2910 C.2   1 <1>  -0.1500 
 12 C       -0.2350    -4.6220     0.5030 C.ar  1 <1>  -0.1440 
 13 C       -0.8300    -2.6900    -2.5440 C.3   1 <1>  -0.1600 
 14 C        0.9300     2.7970    -0.4550 C.2   1 <1>  -0.0100 
 15 C        0.7950     2.6990     0.8840 C.2   1 <1>  -0.1500 
 16 C       -1.3260    -4.9840    -0.2880 C.ar  1 <1>   0.0820 
 17 C       -0.3690    -4.6890     1.8840 C.ar  1 <1>  -0.1500 
 18 C       -1.8570    -3.7890    -2.2280 C.3   1 <1>   0.1200 
 19 O       -1.2400    -4.9150    -1.6400 O.3   1 <1>  -0.3630 
 20 C       -2.5240    -5.4140     0.2950 C.ar  1 <1>   0.0820 
 21 C       -1.5510    -5.1050     2.4690 C.ar  1 <1>  -0.1500 
 22 O       -3.5600    -5.7610    -0.5250 O.3   1 <1>  -0.3630 
 23 C       -2.6260    -5.4690     1.6810 C.ar  1 <1>  -0.1500 
 24 C       -4.6830    -6.4580    -0.0350 C.3   1 <1>   0.0400 
 25 H        2.3860    -0.3210    -1.6550 H     1 <1>   0.3700 
 26 H        3.1080    -3.8700    -1.7770 H     1 <1>   0.0800 
 27 H        2.4490    -2.5560    -2.6860 H     1 <1>   0.0800 
 28 H        4.3660     0.8810    -0.4780 H     1 <1>   0.0800 
 29 H        3.8140    -0.0440     0.9020 H     1 <1>   0.0800 
 30 H        1.6130    -3.5840     0.7310 H     1 <1>   0.0800 
 31 H        1.7290    -5.0520    -0.1840 H     1 <1>   0.0800 
 32 H        0.5710    -1.3890    -1.5850 H     1 <1>   0.0800 
 33 H       -0.4470    -2.2440    -0.4690 H     1 <1>   0.0800 
 34 H        1.9210     1.4420     2.3050 H     1 <1>   0.1500 
 35 H       -0.2510    -2.9820    -3.4010 H     1 <1>   0.0800 
 36 H       -1.3770    -1.8060    -2.8170 H     1 <1>   0.0800 
 37 H        0.3950     3.4000    -1.1680 H     1 <1>   0.1500 
 38 H        0.1090     3.2140     1.5330 H     1 <1>   0.1500 
 39 H        0.4570    -4.4170     2.5190 H     1 <1>   0.1500 
 40 H       -2.3360    -4.1220    -3.1300 H     1 <1>   0.0800 
 41 H       -2.6130    -3.4170    -1.5570 H     1 <1>   0.0800 
 42 H       -1.6310    -5.1480     3.5420 H     1 <1>   0.1500 
 43 H       -3.5300    -5.7850     2.1640 H     1 <1>   0.1500 
 44 H       -5.3010    -6.7230    -0.8740 H     1 <1>   0.0800 
 45 H       -5.2290    -5.8160     0.6330 H     1 <1>   0.0800 
 46 H       -4.3480    -7.3470     0.4680 H     1 <1>   0.0800 
@<TRIPOS>BOND
  1   1   2  2   
  2   2   3  am  
  3   2   4  1   
  4   3   5  1   
  5   3  25  1   
  6   4   6  1   
  7   4  26  1   
  8   4  27  1   
  9   5   7  1   
 10   5  28  1   
 11   5  29  1   
 12   6   8  1   
 13   6   9  1   
 14   7  10  1   
 15   7  11  2   
 16   8  12  1   
 17   8  30  1   
 18   8  31  1   
 19   9  13  1   
 20   9  32  1   
 21   9  33  1   
 22  10  14  1   
 23  11  15  1   
 24  11  34  1   
 25  12  16  ar  
 26  12  17  ar  
 27  13  18  1   
 28  13  35  1   
 29  13  36  1   
 30  14  15  2   
 31  14  37  1   
 32  15  38  1   
 33  16  19  1   
 34  16  20  ar  
 35  17  21  ar  
 36  17  39  1   
 37  18  19  1   
 38  18  40  1   
 39  18  41  1   
 40  20  22  1   
 41  20  23  ar  
 42  21  23  ar  
 43  21  42  1   
 44  22  24  1   
 45  23  43  1   
 46  24  44  1   
 47  24  45  1   
 48  24  46  1   
@<TRIPOS>SUBSTRUCTURE
  1 ****   9 GROUP 4 **** **** 0

# MOE 2024.06 (io_trps.svl 2023.06)
