@<TRIPOS>MOLECULE
NONAME
57 60 1 0 0 
SMALL
USER_CHARGES


@<TRIPOS>ATOM
  1 O        0.0790    -1.4100     2.9510 O.2   1 <1>  -0.5700 
  2 C        0.4110    -1.9900     1.9450 C.2   1 <1>   0.5690 
  3 N        1.4500    -1.5240     1.1790 N.am  1 <1>  -0.6600 
  4 C       -0.4190    -3.2190     1.6070 C.3   1 <1>  -0.0990 
  5 C        1.9960    -2.2220    -0.0290 C.3   1 <1>   0.1400 
  6 C        2.1350    -0.2470     1.5530 C.3   1 <1>   0.2840 
  7 C        0.1100    -4.1910     0.5540 C.3   1 <1>   0.1200 
  8 C        2.4350    -3.6960     0.2040 C.3   1 <1>   0.2800 
  9 C        2.3190     0.6540     0.3380 C.ar  1 <1>  -0.1440 
 10 O        1.4460    -4.4760     0.8200 O.3   1 <1>  -0.5600 
 11 C        3.6410    -3.7610     1.1670 C.3   1 <1>  -0.1600 
 12 C        2.7560    -4.3560    -1.1550 C.3   1 <1>  -0.1600 
 13 C        3.5900     1.0100    -0.0910 C.ar  1 <1>  -0.1500 
 14 C        1.2130     1.1210    -0.3550 C.ar  1 <1>  -0.1500 
 15 C        4.9800    -3.6470     0.4360 C.3   1 <1>   0.1400 
 16 C        3.8670    -5.3980    -1.0420 C.3   1 <1>   0.1400 
 17 C        3.7520     1.8150    -1.2050 C.ar  1 <1>  -0.1500 
 18 C        1.3740     1.9260    -1.4690 C.ar  1 <1>  -0.1500 
 19 N        5.1210    -4.7330    -0.5780 N.am  1 <1>  -0.6600 
 20 C        2.6440     2.2730    -1.8950 C.ar  1 <1>  -0.1500 
 21 C        6.3530    -5.2510    -0.9210 C.2   1 <1>   0.7160 
 22 O        6.4010    -6.3410    -1.4620 O.2   1 <1>  -0.5700 
 23 C        7.5770    -4.5320    -0.6470 C.2   1 <1>  -0.0860 
 24 C        8.7460    -4.9830    -0.1140 C.2   1 <1>  -0.0400 
 25 C        7.8230    -3.1650    -0.8980 C.2   1 <1>  -0.1500 
 26 O        9.6270    -4.0180    -0.0190 O.3   1 <1>  -0.2800 
 27 C        9.1460    -6.3660     0.3580 C.3   1 <1>  -0.0600 
 28 C        9.0830    -2.9190    -0.4910 C.2   1 <1>  -0.0400 
 29 C        9.9090    -1.6520    -0.5070 C.3   1 <1>  -0.0600 
 30 H       -1.3930    -2.8830     1.3040 H     1 <1>   0.0800 
 31 H       -0.5520    -3.7720     2.5180 H     1 <1>   0.0800 
 32 H        2.8590    -1.6940    -0.3890 H     1 <1>   0.0800 
 33 H        1.2690    -2.1660    -0.8180 H     1 <1>   0.0800 
 34 H        3.0880    -0.4810     1.9910 H     1 <1>   0.0800 
 35 H        1.5630     0.2920     2.2890 H     1 <1>   0.0800 
 36 H       -0.0050    -3.8150    -0.4470 H     1 <1>   0.0800 
 37 H       -0.4320    -5.1180     0.6230 H     1 <1>   0.0800 
 38 H        3.6360    -4.6990     1.6930 H     1 <1>   0.0800 
 39 H        3.5720    -2.9860     1.9070 H     1 <1>   0.0800 
 40 H        3.0900    -3.6150    -1.8600 H     1 <1>   0.0800 
 41 H        1.8760    -4.8130    -1.5680 H     1 <1>   0.0800 
 42 H        4.4600     0.6630     0.4390 H     1 <1>   0.1500 
 43 H        0.2230     0.8540    -0.0260 H     1 <1>   0.1500 
 44 H        5.7810    -3.7130     1.1530 H     1 <1>   0.0800 
 45 H        5.0440    -2.6930    -0.0580 H     1 <1>   0.0800 
 46 H        4.0310    -5.8600    -2.0020 H     1 <1>   0.0800 
 47 H        3.5870    -6.1670    -0.3400 H     1 <1>   0.0800 
 48 H        4.7390     2.0890    -1.5350 H     1 <1>   0.1500 
 49 H        0.5100     2.2840    -2.0030 H     1 <1>   0.1500 
 50 H        2.7680     2.9000    -2.7610 H     1 <1>   0.1500 
 51 H        7.1180    -2.4850    -1.3410 H     1 <1>   0.1500 
 52 H        8.3330    -7.0590     0.2400 H     1 <1>   0.0800 
 53 H        9.4250    -6.3290     1.3950 H     1 <1>   0.0800 
 54 H        9.9840    -6.7130    -0.2170 H     1 <1>   0.0800 
 55 H        9.3400    -0.8410    -0.9220 H     1 <1>   0.0800 
 56 H       10.7910    -1.8040    -1.1020 H     1 <1>   0.0800 
 57 H       10.2040    -1.4000     0.4950 H     1 <1>   0.0800 
@<TRIPOS>BOND
  1   1   2  2   
  2   2   3  am  
  3   2   4  1   
  4   3   5  1   
  5   3   6  1   
  6   4   7  1   
  7   4  30  1   
  8   4  31  1   
  9   5   8  1   
 10   5  32  1   
 11   5  33  1   
 12   6   9  1   
 13   6  34  1   
 14   6  35  1   
 15   7  10  1   
 16   7  36  1   
 17   7  37  1   
 18   8  10  1   
 19   8  11  1   
 20   8  12  1   
 21   9  13  ar  
 22   9  14  ar  
 23  11  15  1   
 24  11  38  1   
 25  11  39  1   
 26  12  16  1   
 27  12  40  1   
 28  12  41  1   
 29  13  17  ar  
 30  13  42  1   
 31  14  18  ar  
 32  14  43  1   
 33  15  19  1   
 34  15  44  1   
 35  15  45  1   
 36  16  19  1   
 37  16  46  1   
 38  16  47  1   
 39  17  20  ar  
 40  17  48  1   
 41  18  20  ar  
 42  18  49  1   
 43  19  21  am  
 44  20  50  1   
 45  21  22  2   
 46  21  23  1   
 47  23  24  2   
 48  23  25  1   
 49  24  26  1   
 50  24  27  1   
 51  25  28  2   
 52  25  51  1   
 53  26  28  1   
 54  27  52  1   
 55  27  53  1   
 56  27  54  1   
 57  28  29  1   
 58  29  55  1   
 59  29  56  1   
 60  29  57  1   
@<TRIPOS>SUBSTRUCTURE
  1 ****  15 GROUP 4 **** **** 0

# MOE 2024.06 (io_trps.svl 2023.06)
