@<TRIPOS>MOLECULE
NONAME
50 53 1 0 0 
SMALL
USER_CHARGES


@<TRIPOS>ATOM
  1 F       -2.1740     0.3360    -2.1750 F     1 <1>  -0.1900 
  2 C       -3.0050    -0.2750    -1.3690 C.ar  1 <1>   0.1900 
  3 C       -4.0650    -0.9670    -1.9040 C.ar  1 <1>  -0.1500 
  4 C       -2.7640    -0.1870     0.0060 C.ar  1 <1>  -0.1500 
  5 C       -4.9290    -1.6040    -1.0160 C.ar  1 <1>   0.2270 
  6 C       -3.6200    -0.8190     0.8810 C.ar  1 <1>  -0.1500 
  7 N       -6.0420    -2.3460    -1.2750 N.2   1 <1>  -0.5650 
  8 C       -4.7030    -1.5270     0.3490 C.ar  1 <1>  -0.1520 
  9 C       -6.4670    -2.7000    -0.1100 C.2   1 <1>   0.0060 
 10 N       -5.7080    -2.2420     0.9150 N.pl3 1 <1>   0.0330 
 11 C       -7.6970    -3.5510     0.1420 C.3   1 <1>   0.3000 
 12 O       -8.1440    -3.3400     1.4530 O.3   1 <1>  -0.5600 
 13 C       -9.3800    -3.9390     1.7690 C.3   1 <1>   0.1810 
 14 C       -9.3830    -5.4690     1.6360 C.2   1 <1>   0.5690 
 15 O       -9.0040    -6.1210     2.5810 O.2   1 <1>  -0.5700 
 16 N       -9.8100    -6.0840     0.4860 N.am  1 <1>  -0.6600 
 17 C      -10.5010    -5.4720    -0.6820 C.3   1 <1>   0.1400 
 18 C       -9.7950    -7.5650     0.3360 C.3   1 <1>   0.1400 
 19 C      -11.3770    -6.5970    -1.2280 C.3   1 <1>   0.2000 
 20 C      -10.5400    -7.8520    -0.9740 C.3   1 <1>  -0.0800 
 21 O      -12.5330    -6.6430    -0.4620 O.3   1 <1>  -0.6800 
 22 C      -11.3170    -9.1810    -0.9690 C.3   1 <1>   0.0210 
 23 C      -10.3850   -10.3480    -0.7080 C.2   1 <1>   0.1080 
 24 N       -9.4210   -10.6720    -1.5130 N.2   1 <1>  -0.7070 
 25 C      -10.4460   -11.1820     0.4030 C.2   1 <1>  -0.1500 
 26 N       -8.8370   -11.7370    -0.9320 N.pl3 1 <1>   0.3000 
 27 C       -9.4380   -12.0630     0.2310 C.2   1 <1>  -0.3320 
 28 C       -9.0060   -13.2140     1.1210 C.3   1 <1>  -0.0600 
 29 H       -4.2390    -1.0260    -2.9600 H     1 <1>   0.1500 
 30 H       -1.9150     0.3720     0.3550 H     1 <1>   0.1500 
 31 H       -3.4680    -0.7750     1.9450 H     1 <1>   0.1500 
 32 H       -5.9050    -2.3940     1.9080 H     1 <1>   0.2700 
 33 H       -7.4480    -4.5900     0.0180 H     1 <1>   0.0800 
 34 H       -8.4730    -3.2700    -0.5470 H     1 <1>   0.0800 
 35 H       -9.5920    -3.6930     2.7940 H     1 <1>   0.0800 
 36 H      -10.1400    -3.4930     1.1590 H     1 <1>   0.0800 
 37 H      -11.0930    -4.6150    -0.4160 H     1 <1>   0.0800 
 38 H       -9.7680    -5.1970    -1.4200 H     1 <1>   0.0800 
 39 H       -8.7840    -7.9350     0.2980 H     1 <1>   0.0800 
 40 H      -10.3010    -8.0120     1.1760 H     1 <1>   0.0800 
 41 H      -11.6510    -6.4630    -2.2610 H     1 <1>   0.0800 
 42 H       -9.7970    -7.9110    -1.7510 H     1 <1>   0.0800 
 43 H      -12.2820    -6.6990     0.4820 H     1 <1>   0.4000 
 44 H      -11.7890    -9.3250    -1.9240 H     1 <1>   0.0800 
 45 H      -12.0850    -9.1720    -0.2170 H     1 <1>   0.0800 
 46 H      -11.1530   -11.1170     1.2100 H     1 <1>   0.1500 
 47 H       -8.0330   -12.2170    -1.3540 H     1 <1>   0.2700 
 48 H       -9.6400   -13.2680     1.9880 H     1 <1>   0.0800 
 49 H       -7.9910   -13.0720     1.4470 H     1 <1>   0.0800 
 50 H       -9.0770   -14.1450     0.5860 H     1 <1>   0.0800 
@<TRIPOS>BOND
  1   1   2  1   
  2   2   3  ar  
  3   2   4  ar  
  4   3   5  ar  
  5   3  29  1   
  6   4   6  ar  
  7   4  30  1   
  8   5   7  1   
  9   5   8  ar  
 10   6   8  ar  
 11   6  31  1   
 12   7   9  2   
 13   8  10  1   
 14   9  10  1   
 15   9  11  1   
 16  10  32  1   
 17  11  12  1   
 18  11  33  1   
 19  11  34  1   
 20  12  13  1   
 21  13  14  1   
 22  13  35  1   
 23  13  36  1   
 24  14  15  2   
 25  14  16  am  
 26  16  17  1   
 27  16  18  1   
 28  17  19  1   
 29  17  37  1   
 30  17  38  1   
 31  18  20  1   
 32  18  39  1   
 33  18  40  1   
 34  19  20  1   
 35  19  21  1   
 36  19  41  1   
 37  20  22  1   
 38  20  42  1   
 39  21  43  1   
 40  22  23  1   
 41  22  44  1   
 42  22  45  1   
 43  23  24  2   
 44  23  25  1   
 45  24  26  1   
 46  25  27  2   
 47  25  46  1   
 48  26  27  1   
 49  26  47  1   
 50  27  28  1   
 51  28  48  1   
 52  28  49  1   
 53  28  50  1   
@<TRIPOS>SUBSTRUCTURE
  1 ****  11 GROUP 4 **** **** 0

# MOE 2024.06 (io_trps.svl 2023.06)
