@<TRIPOS>MOLECULE
NONAME
45 48 1 0 0 
SMALL
USER_CHARGES


@<TRIPOS>ATOM
  1 CL      -1.1160    -1.0840    -3.8030 Cl    1 <1>  -0.1230 
  2 C       -1.2780    -2.1730    -2.4380 C.2   1 <1>   0.1230 
  3 C       -0.5550    -2.1490    -1.2940 C.2   1 <1>  -0.3020 
  4 C       -2.1880    -3.2170    -2.3660 C.2   1 <1>  -0.1500 
  5 N       -0.9880    -3.1580    -0.4950 N.pl3 1 <1>   0.0480 
  6 C       -2.0090    -3.8220    -1.1430 C.2   1 <1>  -0.2370 
  7 C       -0.4300    -3.4750     0.8350 C.3   1 <1>   0.0160 
  8 C       -2.7120    -4.9500    -0.5850 C.2   1 <1>   0.7150 
  9 O       -2.0930    -5.7930     0.0400 O.2   1 <1>  -0.5700 
 10 N       -4.0780    -5.0880    -0.7140 N.am  1 <1>  -0.6600 
 11 C       -5.0040    -3.9420    -0.9850 C.3   1 <1>   0.1400 
 12 C       -4.7770    -6.3540    -0.3580 C.3   1 <1>   0.1400 
 13 C       -5.9140    -3.6690     0.2270 C.3   1 <1>   0.1430 
 14 C       -5.6810    -6.1280     0.8600 C.3   1 <1>  -0.1600 
 15 C       -6.8620    -2.5400    -0.1360 C.ar  1 <1>   0.1670 
 16 C       -6.6580    -4.9600     0.6320 C.3   1 <1>  -0.1600 
 17 C       -5.1150    -3.0600     1.4120 C.3   1 <1>  -0.1600 
 18 N       -7.8950    -2.6400    -0.9430 N.ar  1 <1>  -0.6200 
 19 C       -6.5040    -1.3710     0.4660 C.ar  1 <1>  -0.1430 
 20 C       -5.2710    -1.5320     1.3190 C.3   1 <1>  -0.0170 
 21 C       -8.5700    -1.5120    -1.1110 C.ar  1 <1>   0.4770 
 22 C       -7.2730    -0.2620     0.2190 C.ar  1 <1>   0.1600 
 23 N       -8.3210    -0.3230    -0.5760 N.ar  1 <1>  -0.6200 
 24 C       -9.7720    -1.5840    -2.0210 C.3   1 <1>  -0.0970 
 25 H        0.2350    -1.4740    -1.0230 H     1 <1>   0.1500 
 26 H       -2.8870    -3.4810    -3.1390 H     1 <1>   0.1500 
 27 H        0.2500    -2.7010     1.1390 H     1 <1>   0.0800 
 28 H        0.0920    -4.4130     0.7820 H     1 <1>   0.0800 
 29 H       -1.2300    -3.5540     1.5480 H     1 <1>   0.0800 
 30 H       -5.6130    -4.1840    -1.8390 H     1 <1>   0.0800 
 31 H       -4.4600    -3.0450    -1.2140 H     1 <1>   0.0800 
 32 H       -4.0680    -7.1370    -0.1450 H     1 <1>   0.0800 
 33 H       -5.3710    -6.6700    -1.1980 H     1 <1>   0.0800 
 34 H       -5.0620    -5.9340     1.7190 H     1 <1>   0.0800 
 35 H       -6.2360    -7.0270     1.0580 H     1 <1>   0.0800 
 36 H       -7.3380    -5.2300    -0.1580 H     1 <1>   0.0800 
 37 H       -7.2460    -4.7880     1.5160 H     1 <1>   0.0800 
 38 H       -4.0810    -3.3540     1.4120 H     1 <1>   0.0800 
 39 H       -5.5540    -3.3820     2.3400 H     1 <1>   0.0800 
 40 H       -4.4250    -1.0930     0.8180 H     1 <1>   0.0800 
 41 H       -5.3950    -1.0860     2.2910 H     1 <1>   0.0800 
 42 H       -7.0310     0.6840     0.6730 H     1 <1>   0.1500 
 43 H       -9.7040    -2.4420    -2.6630 H     1 <1>   0.0800 
 44 H       -9.8250    -0.6980    -2.6260 H     1 <1>   0.0800 
 45 H      -10.6620    -1.6580    -1.4250 H     1 <1>   0.0800 
@<TRIPOS>BOND
  1   1   2  1   
  2   2   3  2   
  3   2   4  1   
  4   3   5  1   
  5   3  25  1   
  6   4   6  2   
  7   4  26  1   
  8   5   6  1   
  9   5   7  1   
 10   6   8  1   
 11   7  27  1   
 12   7  28  1   
 13   7  29  1   
 14   8   9  2   
 15   8  10  am  
 16  10  11  1   
 17  10  12  1   
 18  11  13  1   
 19  11  30  1   
 20  11  31  1   
 21  12  14  1   
 22  12  32  1   
 23  12  33  1   
 24  13  15  1   
 25  13  16  1   
 26  13  17  1   
 27  14  16  1   
 28  14  34  1   
 29  14  35  1   
 30  15  18  ar  
 31  15  19  ar  
 32  16  36  1   
 33  16  37  1   
 34  17  20  1   
 35  17  38  1   
 36  17  39  1   
 37  18  21  ar  
 38  19  20  1   
 39  19  22  ar  
 40  20  40  1   
 41  20  41  1   
 42  21  23  ar  
 43  21  24  1   
 44  22  23  ar  
 45  22  42  1   
 46  24  43  1   
 47  24  44  1   
 48  24  45  1   
@<TRIPOS>SUBSTRUCTURE
  1 ****  11 GROUP 4 **** **** 0

# MOE 2024.06 (io_trps.svl 2023.06)
