@<TRIPOS>MOLECULE
NONAME
49 52 1 0 0 
SMALL
USER_CHARGES


@<TRIPOS>ATOM
  1 S        0.1160    -1.0750    -1.4990 S.3   1 <1>  -0.0800 
  2 C        0.9500    -2.2300    -0.4930 C.2   1 <1>  -0.1400 
  3 C        1.4630     0.0230    -1.3090 C.2   1 <1>   0.1980 
  4 C        2.1300    -1.7050    -0.1260 C.2   1 <1>   0.0460 
  5 C        0.2850    -3.5550    -0.2130 C.3   1 <1>   0.5230 
  6 N        2.4030    -0.4320    -0.5850 N.2   1 <1>  -0.5650 
  7 C        1.3820     1.3630    -2.0020 C.3   1 <1>  -0.0600 
  8 C        3.2060    -2.3390     0.7320 C.3   1 <1>  -0.0590 
  9 N       -0.7890    -3.3500     0.8020 N.4   1 <1>  -0.9590 
 10 C       -2.0640    -2.8430     0.1890 C.3   1 <1>   0.3430 
 11 C       -1.1100    -4.6300     1.4970 C.3   1 <1>   0.3430 
 12 C       -3.1750    -3.8080     0.6300 C.3   1 <1>   0.2000 
 13 C       -2.4430    -5.1150     0.9150 C.3   1 <1>  -0.0800 
 14 O       -3.7590    -3.3510     1.8050 O.3   1 <1>  -0.6800 
 15 C       -2.2780    -5.9440    -0.3810 C.3   1 <1>  -0.0160 
 16 C       -1.1430    -6.9500    -0.2890 C.ar  1 <1>   0.1670 
 17 N        0.0400    -6.5340    -0.6310 N.ar  1 <1>  -0.6200 
 18 C       -1.4160    -8.2490     0.1650 C.ar  1 <1>  -0.1500 
 19 C        1.0640    -7.4280    -0.5650 C.ar  1 <1>   0.3100 
 20 C       -0.4040    -9.1540     0.2650 C.ar  1 <1>  -0.1500 
 21 C        0.8900    -8.7510    -0.1030 C.ar  1 <1>   0.0000 
 22 C        2.3490    -7.0230    -0.9630 C.ar  1 <1>  -0.1500 
 23 C        2.0080    -9.6060    -0.0360 C.ar  1 <1>  -0.1500 
 24 C        3.4220    -7.8720    -0.8930 C.ar  1 <1>  -0.1500 
 25 C        3.2480    -9.1760    -0.4200 C.ar  1 <1>  -0.1500 
 26 H        1.0230    -4.2380     0.1760 H     1 <1>   0.0800 
 27 H       -0.1150    -3.9810    -1.1190 H     1 <1>   0.0800 
 28 H        2.2740     1.9280    -1.8020 H     1 <1>   0.0800 
 29 H        0.5320     1.9120    -1.6420 H     1 <1>   0.0800 
 30 H        1.2900     1.2200    -3.0630 H     1 <1>   0.0800 
 31 H        2.9290    -3.3260     1.0480 H     1 <1>   0.0800 
 32 H        3.3810    -1.7280     1.6000 H     1 <1>   0.0800 
 33 H        4.1220    -2.3980     0.1710 H     1 <1>   0.0800 
 34 H       -0.4240    -2.6560     1.4690 H     1 <1>   0.4500 
 35 H       -2.2870    -1.8350     0.4970 H     1 <1>   0.0800 
 36 H       -1.9850    -2.8700    -0.8850 H     1 <1>   0.0800 
 37 H       -0.3240    -5.3600     1.3910 H     1 <1>   0.0800 
 38 H       -1.2450    -4.4370     2.5490 H     1 <1>   0.0800 
 39 H       -3.9550    -3.9020    -0.1080 H     1 <1>   0.0800 
 40 H       -2.9680    -5.7170     1.6380 H     1 <1>   0.0800 
 41 H       -3.1290    -3.2540     2.5450 H     1 <1>   0.4000 
 42 H       -2.0810    -5.3040    -1.2230 H     1 <1>   0.0800 
 43 H       -3.1990    -6.4600    -0.5940 H     1 <1>   0.0800 
 44 H       -2.4220    -8.5230     0.4300 H     1 <1>   0.1500 
 45 H       -0.5700   -10.1600     0.6110 H     1 <1>   0.1500 
 46 H        2.4720    -6.0240    -1.3350 H     1 <1>   0.1500 
 47 H        1.8690   -10.6120     0.3230 H     1 <1>   0.1500 
 48 H        4.4040    -7.5530    -1.2000 H     1 <1>   0.1500 
 49 H        4.1010    -9.8330    -0.3690 H     1 <1>   0.1500 
@<TRIPOS>BOND
  1   1   2  1   
  2   1   3  1   
  3   2   4  2   
  4   2   5  1   
  5   3   6  2   
  6   3   7  1   
  7   4   6  1   
  8   4   8  1   
  9   5   9  1   
 10   5  26  1   
 11   5  27  1   
 12   7  28  1   
 13   7  29  1   
 14   7  30  1   
 15   8  31  1   
 16   8  32  1   
 17   8  33  1   
 18   9  10  1   
 19   9  11  1   
 20   9  34  1   
 21  10  12  1   
 22  10  35  1   
 23  10  36  1   
 24  11  13  1   
 25  11  37  1   
 26  11  38  1   
 27  12  13  1   
 28  12  14  1   
 29  12  39  1   
 30  13  15  1   
 31  13  40  1   
 32  14  41  1   
 33  15  16  1   
 34  15  42  1   
 35  15  43  1   
 36  16  17  ar  
 37  16  18  ar  
 38  17  19  ar  
 39  18  20  ar  
 40  18  44  1   
 41  19  21  ar  
 42  19  22  ar  
 43  20  21  ar  
 44  20  45  1   
 45  21  23  ar  
 46  22  24  ar  
 47  22  46  1   
 48  23  25  ar  
 49  23  47  1   
 50  24  25  ar  
 51  24  48  1   
 52  25  49  1   
@<TRIPOS>SUBSTRUCTURE
  1 ****   5 GROUP 4 **** **** 0

# MOE 2024.06 (io_trps.svl 2023.06)
