@<TRIPOS>MOLECULE
NONAME
52 54 1 0 0 
SMALL
USER_CHARGES


@<TRIPOS>ATOM
  1 O       -2.8210     2.1840    -0.0140 O.2   1 <1>  -0.5700 
  2 C       -1.9310     2.8910     0.3820 C.2   1 <1>   0.5690 
  3 N       -1.9410     4.2180     0.1180 N.am  1 <1>  -0.7300 
  4 C       -0.7580     2.2830     1.1660 C.3   1 <1>   0.1810 
  5 C       -0.9320     5.1520     0.6690 C.3   1 <1>   0.3640 
  6 O        0.0230     3.2390     1.8550 O.3   1 <1>  -0.5600 
  7 C       -0.5860     6.2130    -0.3680 C.ar  1 <1>  -0.1440 
  8 C        0.3450     4.3930     1.0990 C.3   1 <1>   0.2610 
  9 C       -0.2920     5.8740    -1.6820 C.ar  1 <1>   0.1600 
 10 C       -0.5140     7.5430     0.0010 C.ar  1 <1>  -0.1500 
 11 C        1.2820     5.3520     1.8490 C.2   1 <1>   0.5690 
 12 N        0.0810     6.7260    -2.6220 N.ar  1 <1>  -0.6200 
 13 C       -0.1270     8.4460    -0.9660 C.ar  1 <1>  -0.1500 
 14 O        0.8050     6.0730     2.7000 O.2   1 <1>  -0.5700 
 15 N        2.6090     5.4530     1.4970 N.am  1 <1>  -0.6600 
 16 C        0.1590     7.9920    -2.2410 C.ar  1 <1>   0.1600 
 17 C        3.3730     6.6920     1.8090 C.3   1 <1>   0.1400 
 18 C        3.3670     4.3780     0.8040 C.3   1 <1>   0.1400 
 19 C        2.8310     7.8350     0.9440 C.3   1 <1>  -0.1600 
 20 C        3.5360     4.7220    -0.6760 C.3   1 <1>  -0.2400 
 21 C        3.6960     9.0950     0.9870 C.3   1 <1>  -0.0170 
 22 C        3.0460    10.1680     0.1270 C.ar  1 <1>  -0.1430 
 23 C        3.2690    10.1970    -1.2410 C.ar  1 <1>  -0.1500 
 24 C        2.2100    11.1150     0.6990 C.ar  1 <1>  -0.1500 
 25 C        2.6640    11.1610    -2.0290 C.ar  1 <1>  -0.1500 
 26 C        1.6050    12.0800    -0.0870 C.ar  1 <1>  -0.1500 
 27 C        1.8310    12.1030    -1.4520 C.ar  1 <1>  -0.1500 
 28 H       -2.7530     4.6190    -0.3530 H     1 <1>   0.3700 
 29 H       -0.1170     1.7520     0.4870 H     1 <1>   0.0800 
 30 H       -1.1400     1.5890     1.8920 H     1 <1>   0.0800 
 31 H       -1.3600     5.6290     1.5350 H     1 <1>   0.0800 
 32 H        0.8400     4.0580     0.2090 H     1 <1>   0.0800 
 33 H       -0.3590     4.8410    -1.9800 H     1 <1>   0.1500 
 34 H       -0.7280     7.8690     1.0050 H     1 <1>   0.1500 
 35 H       -0.0330     9.4930    -0.7350 H     1 <1>   0.1500 
 36 H        0.4670     8.7090    -2.9830 H     1 <1>   0.1500 
 37 H        3.2590     6.9330     2.8530 H     1 <1>   0.0800 
 38 H        4.4200     6.5400     1.6080 H     1 <1>   0.0800 
 39 H        4.3330     4.2680     1.2670 H     1 <1>   0.0800 
 40 H        2.8530     3.4380     0.9100 H     1 <1>   0.0800 
 41 H        2.7490     7.5080    -0.0780 H     1 <1>   0.0800 
 42 H        1.8490     8.0930     1.2940 H     1 <1>   0.0800 
 43 H        4.1520     5.5950    -0.7910 H     1 <1>   0.0800 
 44 H        2.5830     4.9000    -1.1410 H     1 <1>   0.0800 
 45 H        4.0160     3.9050    -1.1830 H     1 <1>   0.0800 
 46 H        4.6830     8.8810     0.6160 H     1 <1>   0.0800 
 47 H        3.7890     9.4440     2.0010 H     1 <1>   0.0800 
 48 H        3.9120     9.4660    -1.6980 H     1 <1>   0.1500 
 49 H        2.0250    11.1020     1.7590 H     1 <1>   0.1500 
 50 H        2.8430    11.1780    -3.0900 H     1 <1>   0.1500 
 51 H        0.9590    12.8130     0.3640 H     1 <1>   0.1500 
 52 H        1.3620    12.8540    -2.0640 H     1 <1>   0.1500 
@<TRIPOS>BOND
  1   1   2  2   
  2   2   3  am  
  3   2   4  1   
  4   3   5  1   
  5   3  28  1   
  6   4   6  1   
  7   4  29  1   
  8   4  30  1   
  9   5   7  1   
 10   5   8  1   
 11   5  31  1   
 12   6   8  1   
 13   7   9  ar  
 14   7  10  ar  
 15   8  11  1   
 16   8  32  1   
 17   9  12  ar  
 18   9  33  1   
 19  10  13  ar  
 20  10  34  1   
 21  11  14  2   
 22  11  15  am  
 23  12  16  ar  
 24  13  16  ar  
 25  13  35  1   
 26  15  17  1   
 27  15  18  1   
 28  16  36  1   
 29  17  19  1   
 30  17  37  1   
 31  17  38  1   
 32  18  20  1   
 33  18  39  1   
 34  18  40  1   
 35  19  21  1   
 36  19  41  1   
 37  19  42  1   
 38  20  43  1   
 39  20  44  1   
 40  20  45  1   
 41  21  22  1   
 42  21  46  1   
 43  21  47  1   
 44  22  23  ar  
 45  22  24  ar  
 46  23  25  ar  
 47  23  48  1   
 48  24  26  ar  
 49  24  49  1   
 50  25  27  ar  
 51  25  50  1   
 52  26  27  ar  
 53  26  51  1   
 54  27  52  1   
@<TRIPOS>SUBSTRUCTURE
  1 ****  10 GROUP 4 **** **** 0

# MOE 2024.06 (io_trps.svl 2023.06)
