@<TRIPOS>MOLECULE
NONAME
52 53 1 0 0 
SMALL
USER_CHARGES


@<TRIPOS>ATOM
  1 O       -0.4320    -0.1980     1.1580 O.2   1 <1>  -0.5700 
  2 C       -1.1110     0.3710     0.3380 C.2   1 <1>   0.5690 
  3 N       -1.8610    -0.3080    -0.5640 N.am  1 <1>  -0.7300 
  4 C       -1.1440     1.8970     0.3320 C.3   1 <1>  -0.0190 
  5 C       -2.0170    -1.7720    -0.5990 C.3   1 <1>   0.2840 
  6 C       -2.5680     2.4370     0.5750 C.3   1 <1>  -0.1600 
  7 C       -0.5260     2.4880    -0.9580 C.3   1 <1>  -0.1600 
  8 C       -3.4970    -2.0870    -0.4630 C.ar  1 <1>  -0.1440 
  9 C       -2.5900     3.9720     0.7260 C.3   1 <1>   0.2000 
 10 C       -1.0120     3.9150    -1.2830 C.3   1 <1>  -0.1600 
 11 C       -4.1050    -2.0020     0.7790 C.ar  1 <1>  -0.1500 
 12 C       -4.2540    -2.4460    -1.5660 C.ar  1 <1>  -0.1500 
 13 O       -3.8130     4.4370     0.2090 O.3   1 <1>  -0.5600 
 14 C       -1.4210     4.6720    -0.0170 C.3   1 <1>   0.2000 
 15 C       -5.4530    -2.2780     0.9200 C.ar  1 <1>  -0.1500 
 16 C       -5.6030    -2.7220    -1.4280 C.ar  1 <1>  -0.1500 
 17 C       -4.8920     4.3650     1.0890 C.3   1 <1>   0.0400 
 18 O       -1.8140     5.9410    -0.3880 O.3   1 <1>  -0.6800 
 19 C       -6.2100    -2.6460    -0.1820 C.ar  1 <1>  -0.1430 
 20 C       -7.6840    -2.9640    -0.0250 C.3   1 <1>   0.4860 
 21 N       -7.8610    -4.4440    -0.0860 N.4   1 <1>  -0.9590 
 22 C       -9.3030    -4.8210    -0.1880 C.3   1 <1>   0.2630 
 23 C       -7.2010    -5.1260     1.0730 C.3   1 <1>   0.2630 
 24 H       -2.4720     0.2060    -1.1990 H     1 <1>   0.3700 
 25 H       -0.5380     2.2200     1.1620 H     1 <1>   0.0800 
 26 H       -1.6310    -2.1500    -1.5290 H     1 <1>   0.0800 
 27 H       -1.4670    -2.2280     0.2070 H     1 <1>   0.0800 
 28 H       -2.9720     1.9890     1.4650 H     1 <1>   0.0800 
 29 H       -3.1890     2.1560    -0.2580 H     1 <1>   0.0800 
 30 H        0.5450     2.4940    -0.8430 H     1 <1>   0.0800 
 31 H       -0.7460     1.8600    -1.8040 H     1 <1>   0.0800 
 32 H       -2.5240     4.2440     1.7660 H     1 <1>   0.0800 
 33 H       -1.8690     3.8530    -1.9330 H     1 <1>   0.0800 
 34 H       -0.2360     4.4530    -1.7970 H     1 <1>   0.0800 
 35 H       -3.5200    -1.7130     1.6380 H     1 <1>   0.1500 
 36 H       -3.7950    -2.5080    -2.5390 H     1 <1>   0.1500 
 37 H       -0.5680     4.7660     0.6320 H     1 <1>   0.0800 
 38 H       -5.8960    -2.1980     1.8990 H     1 <1>   0.1500 
 39 H       -6.1680    -2.9900    -2.3060 H     1 <1>   0.1500 
 40 H       -5.7610     4.7460     0.5840 H     1 <1>   0.0800 
 41 H       -4.6840     4.9690     1.9550 H     1 <1>   0.0800 
 42 H       -5.0590     3.3400     1.3720 H     1 <1>   0.0800 
 43 H       -2.7870     5.8860    -0.5320 H     1 <1>   0.4000 
 44 H       -8.2330    -2.4910    -0.8230 H     1 <1>   0.0800 
 45 H       -8.0470    -2.5810     0.9140 H     1 <1>   0.0800 
 46 H       -7.3680    -4.7490    -0.9380 H     1 <1>   0.4500 
 47 H       -9.8380    -4.5020     0.6920 H     1 <1>   0.0800 
 48 H       -9.4030    -5.8900    -0.2830 H     1 <1>   0.0800 
 49 H       -9.7520    -4.3590    -1.0530 H     1 <1>   0.0800 
 50 H       -7.6470    -4.8080     2.0010 H     1 <1>   0.0800 
 51 H       -6.1490    -4.8890     1.0970 H     1 <1>   0.0800 
 52 H       -7.3060    -6.1950     0.9880 H     1 <1>   0.0800 
@<TRIPOS>BOND
  1   1   2  2   
  2   2   3  am  
  3   2   4  1   
  4   3   5  1   
  5   3  24  1   
  6   4   6  1   
  7   4   7  1   
  8   4  25  1   
  9   5   8  1   
 10   5  26  1   
 11   5  27  1   
 12   6   9  1   
 13   6  28  1   
 14   6  29  1   
 15   7  10  1   
 16   7  30  1   
 17   7  31  1   
 18   8  11  ar  
 19   8  12  ar  
 20   9  13  1   
 21   9  14  1   
 22   9  32  1   
 23  10  14  1   
 24  10  33  1   
 25  10  34  1   
 26  11  15  ar  
 27  11  35  1   
 28  12  16  ar  
 29  12  36  1   
 30  13  17  1   
 31  14  18  1   
 32  14  37  1   
 33  15  19  ar  
 34  15  38  1   
 35  16  19  ar  
 36  16  39  1   
 37  17  40  1   
 38  17  41  1   
 39  17  42  1   
 40  18  43  1   
 41  19  20  1   
 42  20  21  1   
 43  20  44  1   
 44  20  45  1   
 45  21  22  1   
 46  21  23  1   
 47  21  46  1   
 48  22  47  1   
 49  22  48  1   
 50  22  49  1   
 51  23  50  1   
 52  23  51  1   
 53  23  52  1   
@<TRIPOS>SUBSTRUCTURE
  1 ****   3 GROUP 4 **** **** 0

# MOE 2024.06 (io_trps.svl 2023.06)
