@<TRIPOS>MOLECULE
NONAME
53 56 1 0 0 
SMALL
USER_CHARGES


@<TRIPOS>ATOM
  1 O       -0.5400     0.0850     1.0070 O.2   1 <1>  -0.5700 
  2 C       -1.3920     0.7520     0.4550 C.2   1 <1>   0.5440 
  3 N       -2.6070     0.1560     0.1740 N.am  1 <1>  -0.6600 
  4 C       -1.1090     2.1380     0.1420 C.ar  1 <1>   0.0860 
  5 C       -2.6710    -1.3380     0.3110 C.3   1 <1>   0.3200 
  6 C       -3.8440     0.9620    -0.1310 C.3   1 <1>   0.1400 
  7 C       -1.1460     2.6170    -1.1660 C.ar  1 <1>  -0.1500 
  8 C       -0.7870     3.0500     1.1440 C.ar  1 <1>  -0.1500 
  9 C       -4.0500    -1.8840     0.0070 C.2   1 <1>  -0.3320 
 10 C       -4.8100     1.0410     1.0710 C.3   1 <1>   0.3430 
 11 C       -0.9040     3.9470    -1.4520 C.ar  1 <1>  -0.1500 
 12 C       -0.5460     4.3800     0.8580 C.ar  1 <1>  -0.1500 
 13 N       -4.5540    -2.0550    -1.2320 N.pl3 1 <1>   0.0330 
 14 C       -5.0030    -2.2900     0.8720 C.2   1 <1>   0.0770 
 15 N       -6.1630     0.4390     0.8010 N.4   1 <1>  -0.9590 
 16 C       -0.6050     4.8710    -0.4480 C.ar  1 <1>   0.0540 
 17 C       -5.8180    -2.4840    -1.0330 C.2   1 <1>   0.0360 
 18 N       -6.1350    -2.6000     0.2170 N.2   1 <1>  -0.5650 
 19 C       -6.9530     1.1770    -0.2310 C.3   1 <1>   0.2630 
 20 C       -6.9530     0.3100     2.0620 C.3   1 <1>   0.2630 
 21 C       -0.3640     6.2690    -0.7550 C.2   1 <1>   0.4620 
 22 N       -0.4100     6.7970    -1.9280 N.2   1 <1>  -0.4100 
 23 N       -0.0660     7.1720     0.1830 N.2   1 <1>  -0.5650 
 24 O       -0.1430     8.0590    -1.8050 O.3   1 <1>  -0.0190 
 25 C        0.0530     8.2200    -0.5220 C.2   1 <1>   0.3930 
 26 C        0.3970     9.6120    -0.0150 C.3   1 <1>  -0.0150 
 27 C        0.0420    10.0560     1.3720 C.3   1 <1>  -0.2000 
 28 C       -0.6800    10.6330     0.1910 C.3   1 <1>  -0.2000 
 29 H       -2.4020    -1.6040     1.3200 H     1 <1>   0.0800 
 30 H       -1.9420    -1.7880    -0.3440 H     1 <1>   0.0800 
 31 H       -4.3340     0.5560    -0.9950 H     1 <1>   0.0800 
 32 H       -3.5680     1.9700    -0.3810 H     1 <1>   0.0800 
 33 H       -1.3590     1.9320    -1.9690 H     1 <1>   0.1500 
 34 H       -0.7190     2.7020     2.1620 H     1 <1>   0.1500 
 35 H       -4.9330     2.0750     1.3500 H     1 <1>   0.0800 
 36 H       -4.3500     0.5300     1.9010 H     1 <1>   0.0800 
 37 H       -0.9410     4.2810    -2.4760 H     1 <1>   0.1500 
 38 H       -0.3010     5.0540     1.6610 H     1 <1>   0.1500 
 39 H       -4.0780    -1.9210    -2.1320 H     1 <1>   0.2700 
 40 H       -4.9410    -2.3540     1.9490 H     1 <1>   0.1500 
 41 H       -6.0170    -0.5410     0.4610 H     1 <1>   0.4500 
 42 H       -6.4820    -2.7080    -1.8520 H     1 <1>   0.1500 
 43 H       -7.1450     2.1860     0.0940 H     1 <1>   0.0800 
 44 H       -7.8970     0.6820    -0.3960 H     1 <1>   0.0800 
 45 H       -6.4190     1.2090    -1.1660 H     1 <1>   0.0800 
 46 H       -7.1660     1.2810     2.4770 H     1 <1>   0.0800 
 47 H       -6.4030    -0.2670     2.7880 H     1 <1>   0.0800 
 48 H       -7.8840    -0.1970     1.8640 H     1 <1>   0.0800 
 49 H        1.3350     9.9570    -0.4140 H     1 <1>   0.1000 
 50 H        0.7420    10.6730     1.9090 H     1 <1>   0.1000 
 51 H       -0.4810     9.3690     2.0150 H     1 <1>   0.1000 
 52 H       -1.7050    10.3470     0.0270 H     1 <1>   0.1000 
 53 H       -0.4850    11.6530    -0.0910 H     1 <1>   0.1000 
@<TRIPOS>BOND
  1   1   2  2   
  2   2   3  am  
  3   2   4  1   
  4   3   5  1   
  5   3   6  1   
  6   4   7  ar  
  7   4   8  ar  
  8   5   9  1   
  9   5  29  1   
 10   5  30  1   
 11   6  10  1   
 12   6  31  1   
 13   6  32  1   
 14   7  11  ar  
 15   7  33  1   
 16   8  12  ar  
 17   8  34  1   
 18   9  13  1   
 19   9  14  2   
 20  10  15  1   
 21  10  35  1   
 22  10  36  1   
 23  11  16  ar  
 24  11  37  1   
 25  12  16  ar  
 26  12  38  1   
 27  13  17  1   
 28  13  39  1   
 29  14  18  1   
 30  14  40  1   
 31  15  19  1   
 32  15  20  1   
 33  15  41  1   
 34  16  21  1   
 35  17  18  2   
 36  17  42  1   
 37  19  43  1   
 38  19  44  1   
 39  19  45  1   
 40  20  46  1   
 41  20  47  1   
 42  20  48  1   
 43  21  22  2   
 44  21  23  1   
 45  22  24  1   
 46  23  25  2   
 47  24  25  1   
 48  25  26  1   
 49  26  27  1   
 50  26  28  1   
 51  26  49  1   
 52  27  28  1   
 53  27  50  1   
 54  27  51  1   
 55  28  52  1   
 56  28  53  1   
@<TRIPOS>SUBSTRUCTURE
  1 ****   4 GROUP 4 **** **** 0

# MOE 2024.06 (io_trps.svl 2023.06)
