@<TRIPOS>MOLECULE
NONAME
51 53 1 0 0 
SMALL
USER_CHARGES


@<TRIPOS>ATOM
  1 F       -1.4500     0.6040     1.0310 F     1 <1>  -0.1900 
  2 C       -2.3470     1.2100     0.2950 C.ar  1 <1>   0.1900 
  3 C       -2.2900     2.5840     0.0420 C.ar  1 <1>   0.0820 
  4 C       -3.3580     0.4120    -0.2090 C.ar  1 <1>  -0.1500 
  5 O       -1.3510     3.4660     0.4850 O.3   1 <1>  -0.3630 
  6 C       -3.2920     3.1310    -0.7450 C.ar  1 <1>  -0.1500 
  7 C       -4.3570     0.9810    -0.9870 C.ar  1 <1>  -0.1430 
  8 C       -0.2160     3.0750     1.2260 C.3   1 <1>   0.0400 
  9 C       -4.3120     2.3440    -1.2560 C.ar  1 <1>  -0.1500 
 10 C       -5.4900     0.1280    -1.5260 C.3   1 <1>   0.4870 
 11 N       -6.7380     0.5010    -0.8150 N.4   1 <1>  -0.9590 
 12 C       -6.6930     0.2870     0.6530 C.3   1 <1>   0.3430 
 13 C       -7.9700    -0.0700    -1.4210 C.3   1 <1>   0.3430 
 14 C       -7.8160     1.0900     1.3180 C.3   1 <1>  -0.1600 
 15 C       -9.2150     0.3320    -0.6190 C.3   1 <1>  -0.1600 
 16 C       -8.9670     1.4900     0.3690 C.3   1 <1>   0.2800 
 17 O       -8.4760     2.5660    -0.4120 O.3   1 <1>  -0.5600 
 18 C      -10.2300     1.8810     1.1990 C.3   1 <1>   0.2000 
 19 C       -9.1510     3.7940    -0.3830 C.3   1 <1>   0.1200 
 20 O      -10.7940     0.7570     1.8110 O.3   1 <1>  -0.6800 
 21 C      -11.2900     2.7100     0.4110 C.3   1 <1>   0.2800 
 22 C      -10.6300     3.5550    -0.6900 C.3   1 <1>  -0.1600 
 23 O      -11.8470     3.5870     1.3190 O.3   1 <1>  -0.6800 
 24 C      -12.4760     1.9150    -0.1570 C.3   1 <1>  -0.2400 
 25 H       -3.3470    -0.6400     0.0170 H     1 <1>   0.1500 
 26 H       -3.2640     4.1860    -0.9560 H     1 <1>   0.1500 
 27 H        0.3810     3.9510     1.4080 H     1 <1>   0.0800 
 28 H        0.3500     2.3620     0.6530 H     1 <1>   0.0800 
 29 H       -0.5360     2.6530     2.1620 H     1 <1>   0.0800 
 30 H       -5.0670     2.8130    -1.8640 H     1 <1>   0.1500 
 31 H       -5.2730    -0.9160    -1.3750 H     1 <1>   0.0800 
 32 H       -5.5990     0.3080    -2.5830 H     1 <1>   0.0800 
 33 H       -6.8610     1.5270    -0.9050 H     1 <1>   0.4500 
 34 H       -6.8190    -0.7620     0.8690 H     1 <1>   0.0800 
 35 H       -5.7460     0.6070     1.0570 H     1 <1>   0.0800 
 36 H       -8.0710     0.3020    -2.4280 H     1 <1>   0.0800 
 37 H       -7.9030    -1.1460    -1.4640 H     1 <1>   0.0800 
 38 H       -7.4060     1.9750     1.7720 H     1 <1>   0.0800 
 39 H       -8.2010     0.4850     2.1200 H     1 <1>   0.0800 
 40 H       -9.5550    -0.5310    -0.0740 H     1 <1>   0.0800 
 41 H       -9.9990     0.5880    -1.3060 H     1 <1>   0.0800 
 42 H       -9.8760     2.5030     2.0050 H     1 <1>   0.0800 
 43 H       -9.0170     4.2490     0.5860 H     1 <1>   0.0800 
 44 H       -8.7090     4.4320    -1.1290 H     1 <1>   0.0800 
 45 H      -11.5560     1.0510     2.3540 H     1 <1>   0.4000 
 46 H      -10.6870     3.0460    -1.6360 H     1 <1>   0.0800 
 47 H      -11.1380     4.4960    -0.8040 H     1 <1>   0.0800 
 48 H      -12.5990     4.0560     0.9100 H     1 <1>   0.4000 
 49 H      -12.1330     1.1460    -0.8210 H     1 <1>   0.0800 
 50 H      -13.1350     2.5600    -0.7100 H     1 <1>   0.0800 
 51 H      -13.0350     1.4440     0.6320 H     1 <1>   0.0800 
@<TRIPOS>BOND
  1   1   2  1   
  2   2   3  ar  
  3   2   4  ar  
  4   3   5  1   
  5   3   6  ar  
  6   4   7  ar  
  7   4  25  1   
  8   5   8  1   
  9   6   9  ar  
 10   6  26  1   
 11   7   9  ar  
 12   7  10  1   
 13   8  27  1   
 14   8  28  1   
 15   8  29  1   
 16   9  30  1   
 17  10  11  1   
 18  10  31  1   
 19  10  32  1   
 20  11  12  1   
 21  11  13  1   
 22  11  33  1   
 23  12  14  1   
 24  12  34  1   
 25  12  35  1   
 26  13  15  1   
 27  13  36  1   
 28  13  37  1   
 29  14  16  1   
 30  14  38  1   
 31  14  39  1   
 32  15  16  1   
 33  15  40  1   
 34  15  41  1   
 35  16  17  1   
 36  16  18  1   
 37  17  19  1   
 38  18  20  1   
 39  18  21  1   
 40  18  42  1   
 41  19  22  1   
 42  19  43  1   
 43  19  44  1   
 44  20  45  1   
 45  21  22  1   
 46  21  23  1   
 47  21  24  1   
 48  22  46  1   
 49  22  47  1   
 50  23  48  1   
 51  24  49  1   
 52  24  50  1   
 53  24  51  1   
@<TRIPOS>SUBSTRUCTURE
  1 ****  11 GROUP 4 **** **** 0

# MOE 2024.06 (io_trps.svl 2023.06)
