@<TRIPOS>MOLECULE
NONAME
36 37 1 0 0 
SMALL
USER_CHARGES


@<TRIPOS>ATOM
  1 O        0.2890     0.1040    -0.0770 O.2   1 <1>  -0.5700 
  2 C        0.9080     1.0980    -0.4020 C.2   1 <1>   0.7800 
  3 O        0.3180     2.2970    -0.4500 O.3   1 <1>  -0.4300 
  4 N        2.2270     1.0550    -0.7470 N.am  1 <1>  -0.6600 
  5 C       -1.0190     2.6050    -0.1280 C.3   1 <1>   0.2800 
  6 C        3.0370     2.2480    -1.0900 C.3   1 <1>   0.1400 
  7 C        3.0720    -0.1520    -0.6120 C.3   1 <1>   0.1400 
  8 C       -1.2990     2.2830     1.3450 C.3   1 <1>  -0.2400 
  9 C       -1.1410     4.1140    -0.3450 C.3   1 <1>  -0.2400 
 10 C       -1.9760     1.8790    -1.0800 C.3   1 <1>  -0.2400 
 11 C        4.4930     1.7810    -1.1530 C.3   1 <1>   0.2000 
 12 C        4.5150     0.3520    -0.6250 C.3   1 <1>  -0.0800 
 13 O        5.2750     2.5580    -0.2910 O.3   1 <1>  -0.5600 
 14 C        5.1230     0.5000     0.7650 C.3   1 <1>  -0.1860 
 15 C        5.9730     1.7450     0.6030 C.3   1 <1>   0.1200 
 16 C        5.9260    -0.6990     1.2240 C.2   1 <1>   0.9060 
 17 O        6.9110    -0.5160     1.9450 O.co2 1 <1>  -0.9000 
 18 O        5.5710    -1.8250     0.8600 O.co2 1 <1>  -0.9000 
 19 H        2.7240     2.6350    -2.0430 H     1 <1>   0.0800 
 20 H        2.9150     3.0000    -0.3300 H     1 <1>   0.0800 
 21 H        2.8480    -0.6880     0.2960 H     1 <1>   0.0800 
 22 H        2.8970    -0.8020    -1.4520 H     1 <1>   0.0800 
 23 H       -2.2700     2.6480     1.6230 H     1 <1>   0.0800 
 24 H       -0.5640     2.7500     1.9750 H     1 <1>   0.0800 
 25 H       -1.2880     1.2230     1.5180 H     1 <1>   0.0800 
 26 H       -2.1380     4.4450    -0.1180 H     1 <1>   0.0800 
 27 H       -0.9260     4.3620    -1.3680 H     1 <1>   0.0800 
 28 H       -0.4550     4.6390     0.2960 H     1 <1>   0.0800 
 29 H       -2.9820     2.2240    -0.9230 H     1 <1>   0.0800 
 30 H       -1.9660     0.8190    -0.9050 H     1 <1>   0.0800 
 31 H       -1.7040     2.0710    -2.1020 H     1 <1>   0.0800 
 32 H        4.8930     1.8540    -2.1480 H     1 <1>   0.0800 
 33 H        5.1330    -0.2740    -1.2440 H     1 <1>   0.0800 
 34 H        4.3660     0.6960     1.5000 H     1 <1>   0.0800 
 35 H        6.9270     1.5020     0.1660 H     1 <1>   0.0800 
 36 H        6.1190     2.2640     1.5340 H     1 <1>   0.0800 
@<TRIPOS>BOND
  1   1   2  2   
  2   2   3  1   
  3   2   4  am  
  4   3   5  1   
  5   4   6  1   
  6   4   7  1   
  7   5   8  1   
  8   5   9  1   
  9   5  10  1   
 10   6  11  1   
 11   6  19  1   
 12   6  20  1   
 13   7  12  1   
 14   7  21  1   
 15   7  22  1   
 16   8  23  1   
 17   8  24  1   
 18   8  25  1   
 19   9  26  1   
 20   9  27  1   
 21   9  28  1   
 22  10  29  1   
 23  10  30  1   
 24  10  31  1   
 25  11  12  1   
 26  11  13  1   
 27  11  32  1   
 28  12  14  1   
 29  12  33  1   
 30  13  15  1   
 31  14  15  1   
 32  14  16  1   
 33  14  34  1   
 34  15  35  1   
 35  15  36  1   
 36  16  17  ar  
 37  16  18  ar  
@<TRIPOS>SUBSTRUCTURE
  1 ****   4 GROUP 4 **** **** 0

# MOE 2024.06 (io_trps.svl 2023.06)
