@<TRIPOS>MOLECULE
NONAME
44 45 1 0 0 
SMALL
USER_CHARGES


@<TRIPOS>ATOM
  1 F        2.2320     3.6340     3.0970 F     1 <1>  -0.1900 
  2 C        1.9850     4.5220     2.1690 C.ar  1 <1>   0.1900 
  3 C        1.3040     4.1290     1.0330 C.ar  1 <1>  -0.1500 
  4 C        2.4140     5.8210     2.3580 C.ar  1 <1>  -0.1500 
  5 C        1.0480     5.0750     0.0550 C.ar  1 <1>  -0.1500 
  6 C        2.1470     6.7540     1.3710 C.ar  1 <1>  -0.1500 
  7 C        1.4650     6.3970     0.2100 C.ar  1 <1>   0.1170 
  8 N        1.2430     7.3870    -0.7570 N.am  1 <1>  -0.5470 
  9 C        0.3730     7.4780    -1.8040 C.2   1 <1>   0.5690 
 10 O       -0.4220     6.6160    -2.0880 O.2   1 <1>  -0.5700 
 11 C        0.3740     8.7280    -2.6660 C.3   1 <1>  -0.0990 
 12 C        1.6810     9.5240    -2.6570 C.3   1 <1>   0.2090 
 13 N        1.8390    10.2480    -1.3640 N.pl3 1 <1>  -0.8690 
 14 C        2.9380    10.1710    -0.5450 C.ar  1 <1>   0.4100 
 15 N        3.6940     9.1040    -0.6730 N.ar  1 <1>  -0.6200 
 16 C        3.2240    11.1500     0.3970 C.ar  1 <1>  -0.1430 
 17 C        4.7290     9.0210     0.1370 C.ar  1 <1>   0.4770 
 18 C        4.3320    10.9480     1.1790 C.ar  1 <1>   0.1600 
 19 C        2.3650    12.3970     0.5820 C.3   1 <1>  -0.0170 
 20 N        5.0980     9.8820     1.0650 N.ar  1 <1>  -0.6200 
 21 C        5.5860     7.7880    -0.0140 C.3   1 <1>  -0.0970 
 22 C        2.7100    13.4580    -0.4710 C.3   1 <1>  -0.1600 
 23 C        1.8470    14.7130    -0.3060 C.3   1 <1>  -0.2400 
 24 H        0.9830     3.1100     0.9190 H     1 <1>   0.1500 
 25 H        2.9400     6.0920     3.2550 H     1 <1>   0.1500 
 26 H        0.5230     4.7770    -0.8350 H     1 <1>   0.1500 
 27 H        2.4710     7.7710     1.5030 H     1 <1>   0.1500 
 28 H        1.8520     8.2160    -0.6670 H     1 <1>   0.3700 
 29 H       -0.4410     9.3580    -2.3650 H     1 <1>   0.0800 
 30 H        0.1830     8.4150    -3.6760 H     1 <1>   0.0800 
 31 H        1.6600    10.2490    -3.4520 H     1 <1>   0.0800 
 32 H        2.5130     8.8650    -2.8410 H     1 <1>   0.0800 
 33 H        1.3040    11.1180    -1.3060 H     1 <1>   0.4000 
 34 H        4.6090    11.6740     1.9250 H     1 <1>   0.1500 
 35 H        2.5300    12.8050     1.5640 H     1 <1>   0.0800 
 36 H        1.3230    12.1340     0.5190 H     1 <1>   0.0800 
 37 H        4.9630     6.9280    -0.1760 H     1 <1>   0.0800 
 38 H        6.1730     7.6290     0.8720 H     1 <1>   0.0800 
 39 H        6.2420     7.9130    -0.8540 H     1 <1>   0.0800 
 40 H        2.5640    13.0540    -1.4580 H     1 <1>   0.0800 
 41 H        3.7480    13.7270    -0.3780 H     1 <1>   0.0800 
 42 H        0.8030    14.4750    -0.4180 H     1 <1>   0.0800 
 43 H        2.1110    15.4410    -1.0540 H     1 <1>   0.0800 
 44 H        2.0000    15.1530     0.6640 H     1 <1>   0.0800 
@<TRIPOS>BOND
  1   1   2  1   
  2   2   3  ar  
  3   2   4  ar  
  4   3   5  ar  
  5   3  24  1   
  6   4   6  ar  
  7   4  25  1   
  8   5   7  ar  
  9   5  26  1   
 10   6   7  ar  
 11   6  27  1   
 12   7   8  1   
 13   8   9  am  
 14   8  28  1   
 15   9  10  2   
 16   9  11  1   
 17  11  12  1   
 18  11  29  1   
 19  11  30  1   
 20  12  13  1   
 21  12  31  1   
 22  12  32  1   
 23  13  14  1   
 24  13  33  1   
 25  14  15  ar  
 26  14  16  ar  
 27  15  17  ar  
 28  16  18  ar  
 29  16  19  1   
 30  17  20  ar  
 31  17  21  1   
 32  18  20  ar  
 33  18  34  1   
 34  19  22  1   
 35  19  35  1   
 36  19  36  1   
 37  21  37  1   
 38  21  38  1   
 39  21  39  1   
 40  22  23  1   
 41  22  40  1   
 42  22  41  1   
 43  23  42  1   
 44  23  43  1   
 45  23  44  1   
@<TRIPOS>SUBSTRUCTURE
  1 ****  15 GROUP 4 **** **** 0

# MOE 2024.06 (io_trps.svl 2023.06)
