@<TRIPOS>MOLECULE
NONAME
24 24 1 0 0 
SMALL
USER_CHARGES


@<TRIPOS>ATOM
  1 F        0.8640     0.0750     1.5770 F     1 <1>  -0.1900 
  2 C        1.6810     0.7880     0.8530 C.ar  1 <1>   0.1900 
  3 C        2.4900     0.1710    -0.0870 C.ar  1 <1>  -0.1440 
  4 C        1.6890     2.1540     1.0700 C.ar  1 <1>  -0.1500 
  5 C        3.3390     0.9880    -0.8290 C.ar  1 <1>  -0.1500 
  6 C        2.4270    -1.3480    -0.2720 C.3   1 <1>   1.1640 
  7 C        2.5370     2.9540     0.3200 C.ar  1 <1>  -0.1440 
  8 C        3.3620     2.3600    -0.6270 C.ar  1 <1>  -0.1500 
  9 F        2.7400    -2.0110     0.8340 F     1 <1>  -0.3400 
 10 F        1.2230    -1.7630    -0.6420 F     1 <1>  -0.3400 
 11 F        3.2650    -1.7800    -1.2070 F     1 <1>  -0.3400 
 12 C        2.5600     4.4540     0.5300 C.3   1 <1>   0.4870 
 13 N        1.5350     5.0320    -0.3660 N.4   1 <1>  -0.9060 
 14 C        1.4380     6.5190    -0.2790 C.3   1 <1>   0.2630 
 15 H        1.0360     2.5590     1.8250 H     1 <1>   0.1500 
 16 H        3.9960     0.5610    -1.5720 H     1 <1>   0.1500 
 17 H        4.0400     2.9540    -1.2200 H     1 <1>   0.1500 
 18 H        3.5370     4.8440     0.2900 H     1 <1>   0.0800 
 19 H        2.3370     4.6850     1.5590 H     1 <1>   0.0800 
 20 H        0.6320     4.5950    -0.1400 H     1 <1>   0.4500 
 21 H        1.7520     4.7370    -1.3270 H     1 <1>   0.4500 
 22 H        1.1810     6.8220     0.7240 H     1 <1>   0.0800 
 23 H        0.6780     6.8850    -0.9510 H     1 <1>   0.0800 
 24 H        2.3780     6.9750    -0.5470 H     1 <1>   0.0800 
@<TRIPOS>BOND
  1   1   2  1   
  2   2   3  ar  
  3   2   4  ar  
  4   3   5  ar  
  5   3   6  1   
  6   4   7  ar  
  7   4  15  1   
  8   5   8  ar  
  9   5  16  1   
 10   6   9  1   
 11   6  10  1   
 12   6  11  1   
 13   7   8  ar  
 14   7  12  1   
 15   8  17  1   
 16  12  13  1   
 17  12  18  1   
 18  12  19  1   
 19  13  14  1   
 20  13  20  1   
 21  13  21  1   
 22  14  22  1   
 23  14  23  1   
 24  14  24  1   
@<TRIPOS>SUBSTRUCTURE
  1 ****   2 GROUP 4 **** **** 0

# MOE 2024.06 (io_trps.svl 2023.06)
