@<TRIPOS>MOLECULE
NONAME
45 47 1 0 0 
SMALL
USER_CHARGES


@<TRIPOS>ATOM
  1 S       -2.5560     1.4220    -0.3050 S.3   1 <1>  -0.0800 
  2 C       -0.8090     1.3130    -0.3530 C.2   1 <1>   0.1980 
  3 C       -2.4220     3.0890     0.1400 C.2   1 <1>  -0.1100 
  4 N       -0.2130     2.4040    -0.0690 N.2   1 <1>  -0.5650 
  5 C       -0.1860    -0.0330    -0.7160 C.3   1 <1>   0.1000 
  6 C       -1.1230     3.4490     0.2110 C.2   1 <1>   0.1410 
  7 C       -0.5870    -0.4790    -2.1280 C.3   1 <1>  -0.2400 
  8 C       -0.5430    -1.1140     0.3130 C.3   1 <1>  -0.2400 
  9 C       -0.6410     4.7750     0.5770 C.2   1 <1>   0.7160 
 10 O       -1.2440     5.4390     1.3960 O.2   1 <1>  -0.5700 
 11 N        0.5500     5.2740     0.0920 N.am  1 <1>  -0.6600 
 12 C        1.5210     5.8530     1.0810 C.3   1 <1>   0.2200 
 13 C        1.0020     5.0250    -1.3130 C.3   1 <1>   0.1400 
 14 C        2.3520     7.0170     0.5180 C.3   1 <1>   0.1200 
 15 C        2.4320     4.7310     1.6380 C.3   1 <1>   0.3430 
 16 C        2.5180     4.7900    -1.4680 C.3   1 <1>  -0.0800 
 17 O        3.4950     6.5440    -0.1290 O.3   1 <1>  -0.5600 
 18 N        2.4760     3.5000     0.7620 N.4   1 <1>  -0.9590 
 19 C        3.3100     6.1060    -1.4320 C.3   1 <1>   0.1200 
 20 C        3.1520     3.7140    -0.5580 C.3   1 <1>   0.3430 
 21 C        3.0590     2.3400     1.4900 C.3   1 <1>   0.2630 
 22 H       -3.3250     3.6460     0.3120 H     1 <1>   0.1500 
 23 H        0.8830     0.0940    -0.7030 H     1 <1>   0.0800 
 24 H       -1.6460    -0.6660    -2.1840 H     1 <1>   0.0800 
 25 H       -0.0690    -1.3820    -2.3960 H     1 <1>   0.0800 
 26 H       -0.3360     0.2840    -2.8430 H     1 <1>   0.0800 
 27 H       -1.6000    -1.3120     0.3070 H     1 <1>   0.0800 
 28 H       -0.2600    -0.7950     1.3000 H     1 <1>   0.0800 
 29 H       -0.0250    -2.0300     0.0880 H     1 <1>   0.0800 
 30 H        0.9650     6.2630     1.9070 H     1 <1>   0.0800 
 31 H        0.4780     4.1810    -1.7250 H     1 <1>   0.0800 
 32 H        0.7180     5.8760    -1.9100 H     1 <1>   0.0800 
 33 H        2.6970     7.6280     1.3340 H     1 <1>   0.0800 
 34 H        1.7730     7.6400    -0.1440 H     1 <1>   0.0800 
 35 H        2.0500     4.4550     2.6060 H     1 <1>   0.0800 
 36 H        3.4270     5.1190     1.7840 H     1 <1>   0.0800 
 37 H        2.6490     4.4330    -2.4740 H     1 <1>   0.0800 
 38 H        1.4840     3.2740     0.5350 H     1 <1>   0.4500 
 39 H        2.8250     6.8840    -2.0000 H     1 <1>   0.0800 
 40 H        4.2910     5.9540    -1.8500 H     1 <1>   0.0800 
 41 H        4.1860     3.9670    -0.3920 H     1 <1>   0.0800 
 42 H        3.1320     2.7800    -1.0950 H     1 <1>   0.0800 
 43 H        4.0880     2.5360     1.7430 H     1 <1>   0.0800 
 44 H        3.0120     1.4550     0.8770 H     1 <1>   0.0800 
 45 H        2.5070     2.1560     2.3980 H     1 <1>   0.0800 
@<TRIPOS>BOND
  1   1   2  1   
  2   1   3  1   
  3   2   4  2   
  4   2   5  1   
  5   3   6  2   
  6   3  22  1   
  7   4   6  1   
  8   5   7  1   
  9   5   8  1   
 10   5  23  1   
 11   6   9  1   
 12   7  24  1   
 13   7  25  1   
 14   7  26  1   
 15   8  27  1   
 16   8  28  1   
 17   8  29  1   
 18   9  10  2   
 19   9  11  am  
 20  11  12  1   
 21  11  13  1   
 22  12  14  1   
 23  12  15  1   
 24  12  30  1   
 25  13  16  1   
 26  13  31  1   
 27  13  32  1   
 28  14  17  1   
 29  14  33  1   
 30  14  34  1   
 31  15  18  1   
 32  15  35  1   
 33  15  36  1   
 34  16  19  1   
 35  16  20  1   
 36  16  37  1   
 37  17  19  1   
 38  18  20  1   
 39  18  21  1   
 40  18  38  1   
 41  19  39  1   
 42  19  40  1   
 43  20  41  1   
 44  20  42  1   
 45  21  43  1   
 46  21  44  1   
 47  21  45  1   
@<TRIPOS>SUBSTRUCTURE
  1 ****   4 GROUP 4 **** **** 0

# MOE 2024.06 (io_trps.svl 2023.06)
