@<TRIPOS>MOLECULE
NONAME
55 57 1 0 0 
SMALL
USER_CHARGES


@<TRIPOS>ATOM
  1 O       -0.3190    -0.9490     1.0380 O.3   1 <1>  -0.6800 
  2 C       -1.5720    -1.5160     0.9120 C.3   1 <1>   0.1200 
  3 C       -1.4590    -2.7420    -0.0080 C.3   1 <1>  -0.0800 
  4 C       -2.8630    -3.2950    -0.3160 C.3   1 <1>   0.3430 
  5 C       -0.5290    -3.8260     0.5740 C.3   1 <1>  -0.1600 
  6 N       -2.8790    -4.7880    -0.4850 N.4   1 <1>  -0.9590 
  7 C       -0.4290    -5.0350    -0.3750 C.3   1 <1>  -0.1600 
  8 C       -1.6770    -5.2520    -1.2390 C.3   1 <1>   0.3430 
  9 C       -4.1640    -5.2440    -1.0850 C.3   1 <1>   0.3430 
 10 C       -4.3630    -6.7420    -0.8530 C.3   1 <1>  -0.1600 
 11 C       -5.7300    -7.1940    -1.3650 C.3   1 <1>   0.2090 
 12 N       -5.8510    -8.6490    -1.1200 N.pl3 1 <1>  -0.8690 
 13 C       -6.7370    -9.3560    -0.3780 C.ar  1 <1>   0.1000 
 14 C       -6.6490   -10.7850    -0.3190 C.ar  1 <1>   0.0000 
 15 C       -7.7630    -8.7440     0.3450 C.ar  1 <1>  -0.1500 
 16 C       -7.5840   -11.5160     0.4440 C.ar  1 <1>   0.3610 
 17 C       -5.6610   -11.5230    -0.9950 C.ar  1 <1>  -0.1500 
 18 C       -8.6570    -9.4780     1.0770 C.ar  1 <1>   0.2110 
 19 N       -8.5630   -10.8180     1.1170 N.ar  1 <1>  -0.1790 
 20 C       -7.5250   -12.9250     0.5240 C.ar  1 <1>  -0.1440 
 21 C       -5.6080   -12.8880    -0.9150 C.ar  1 <1>  -0.1500 
 22 C       -6.5350   -13.6050    -0.1580 C.ar  1 <1>  -0.1440 
 23 C       -8.5660   -13.6740     1.3690 C.3   1 <1>  -0.0960 
 24 C       -6.3840   -15.1230    -0.1390 C.3   1 <1>  -0.0960 
 25 H       -0.3370    -0.1610     1.6200 H     1 <1>   0.4000 
 26 H       -2.2290    -0.7730     0.4910 H     1 <1>   0.0800 
 27 H       -1.9170    -1.7920     1.8940 H     1 <1>   0.0800 
 28 H       -1.0390    -2.3980    -0.9390 H     1 <1>   0.0800 
 29 H       -3.2280    -2.8190    -1.2120 H     1 <1>   0.0800 
 30 H       -3.5290    -3.0310     0.4900 H     1 <1>   0.0800 
 31 H       -0.9090    -4.1460     1.5300 H     1 <1>   0.0800 
 32 H        0.4580    -3.4250     0.7420 H     1 <1>   0.0800 
 33 H       -2.7930    -5.1930     0.4570 H     1 <1>   0.4500 
 34 H       -0.2280    -5.9230     0.1990 H     1 <1>   0.0800 
 35 H        0.4090    -4.8970    -1.0370 H     1 <1>   0.0800 
 36 H       -1.5870    -4.6840    -2.1510 H     1 <1>   0.0800 
 37 H       -1.7570    -6.2950    -1.4940 H     1 <1>   0.0800 
 38 H       -4.1760    -5.0260    -2.1410 H     1 <1>   0.0800 
 39 H       -4.9810    -4.7110    -0.6230 H     1 <1>   0.0800 
 40 H       -4.3080    -6.9540     0.2000 H     1 <1>   0.0800 
 41 H       -3.6040    -7.3000    -1.3710 H     1 <1>   0.0800 
 42 H       -5.8140    -7.0120    -2.4250 H     1 <1>   0.0800 
 43 H       -6.5130    -6.6500    -0.8690 H     1 <1>   0.0800 
 44 H       -5.1580    -9.1830    -1.6580 H     1 <1>   0.4000 
 45 H       -7.8660    -7.6770     0.3320 H     1 <1>   0.1500 
 46 H       -4.9240   -11.0180    -1.5910 H     1 <1>   0.1500 
 47 H       -9.4480    -8.9940     1.6280 H     1 <1>   0.1500 
 48 H       -9.2270   -11.3750     1.6580 H     1 <1>   0.4570 
 49 H       -4.8350   -13.4170    -1.4480 H     1 <1>   0.1500 
 50 H       -8.5070   -13.3650     2.3980 H     1 <1>   0.0800 
 51 H       -8.4230   -14.7380     1.3560 H     1 <1>   0.0800 
 52 H       -9.5580   -13.4900     0.9940 H     1 <1>   0.0800 
 53 H       -7.2680   -15.5910    -0.5340 H     1 <1>   0.0800 
 54 H       -6.2190   -15.4690     0.8660 H     1 <1>   0.0800 
 55 H       -5.5490   -15.4430    -0.7360 H     1 <1>   0.0800 
@<TRIPOS>BOND
  1   1   2  1   
  2   1  25  1   
  3   2   3  1   
  4   2  26  1   
  5   2  27  1   
  6   3   4  1   
  7   3   5  1   
  8   3  28  1   
  9   4   6  1   
 10   4  29  1   
 11   4  30  1   
 12   5   7  1   
 13   5  31  1   
 14   5  32  1   
 15   6   8  1   
 16   6   9  1   
 17   6  33  1   
 18   7   8  1   
 19   7  34  1   
 20   7  35  1   
 21   8  36  1   
 22   8  37  1   
 23   9  10  1   
 24   9  38  1   
 25   9  39  1   
 26  10  11  1   
 27  10  40  1   
 28  10  41  1   
 29  11  12  1   
 30  11  42  1   
 31  11  43  1   
 32  12  13  1   
 33  12  44  1   
 34  13  14  ar  
 35  13  15  ar  
 36  14  16  ar  
 37  14  17  ar  
 38  15  18  ar  
 39  15  45  1   
 40  16  19  ar  
 41  16  20  ar  
 42  17  21  ar  
 43  17  46  1   
 44  18  19  ar  
 45  18  47  1   
 46  19  48  1   
 47  20  22  ar  
 48  20  23  1   
 49  21  22  ar  
 50  21  49  1   
 51  22  24  1   
 52  23  50  1   
 53  23  51  1   
 54  23  52  1   
 55  24  53  1   
 56  24  54  1   
 57  24  55  1   
@<TRIPOS>SUBSTRUCTURE
  1 ****  12 GROUP 4 **** **** 0

# MOE 2024.06 (io_trps.svl 2023.06)
