@<TRIPOS>MOLECULE
NONAME
46 48 1 0 0 
SMALL
USER_CHARGES


@<TRIPOS>ATOM
  1 O       -2.5250     0.8020    -2.4960 O.2   1 <1>  -0.5700 
  2 C       -1.9650     0.8750    -1.4170 C.2   1 <1>   0.5440 
  3 N       -1.5890    -0.2930    -0.8260 N.am  1 <1>  -0.7300 
  4 C       -1.7080     2.1650    -0.7930 C.ar  1 <1>   0.0860 
  5 C       -1.9040    -1.6590    -1.2980 C.3   1 <1>   0.2200 
  6 C       -1.5410     2.3500     0.5920 C.ar  1 <1>   0.0830 
  7 C       -1.6170     3.2980    -1.6040 C.ar  1 <1>  -0.1500 
  8 C       -3.1140    -2.2270    -0.5690 C.3   1 <1>  -0.0800 
  9 C       -0.8150    -2.6090    -0.8170 C.3   1 <1>   0.1200 
 10 O       -1.6450     1.2720     1.4160 O.3   1 <1>  -0.3630 
 11 C       -1.2830     3.6210     1.1050 C.ar  1 <1>  -0.1500 
 12 C       -1.3630     4.5530    -1.0880 C.ar  1 <1>  -0.1500 
 13 C       -2.5070    -2.7650     0.7300 C.3   1 <1>   0.1200 
 14 C       -4.2940    -1.2610    -0.3580 C.3   1 <1>  -0.0170 
 15 O       -1.1330    -2.9080     0.5100 O.3   1 <1>  -0.5600 
 16 C       -1.4210     1.3370     2.8080 C.3   1 <1>   0.0400 
 17 C       -1.1920     4.7220     0.2730 C.ar  1 <1>  -0.1430 
 18 C       -5.4610    -1.9670     0.3140 C.ar  1 <1>  -0.1430 
 19 C       -0.9120     6.1060     0.8320 C.3   1 <1>  -0.0970 
 20 C       -6.3360    -2.7610    -0.3990 C.ar  1 <1>  -0.1500 
 21 C       -5.7050    -1.8540     1.6670 C.ar  1 <1>  -0.1500 
 22 C       -7.3800    -3.3910     0.2590 C.ar  1 <1>   0.1600 
 23 C       -6.7790    -2.5260     2.2280 C.ar  1 <1>   0.1600 
 24 N       -7.6210    -3.2940     1.5560 N.ar  1 <1>  -0.6200 
 25 H       -1.2510    -0.2410     0.1420 H     1 <1>   0.3700 
 26 H       -2.0160    -1.6710    -2.3690 H     1 <1>   0.0800 
 27 H       -1.7480     3.1880    -2.6670 H     1 <1>   0.1500 
 28 H       -3.4680    -3.0720    -1.1320 H     1 <1>   0.0800 
 29 H        0.1680    -2.1740    -0.8680 H     1 <1>   0.0800 
 30 H       -0.8400    -3.5280    -1.3760 H     1 <1>   0.0800 
 31 H       -1.1540     3.7750     2.1580 H     1 <1>   0.1500 
 32 H       -1.3000     5.4000    -1.7500 H     1 <1>   0.1500 
 33 H       -2.9220    -3.7200     1.0020 H     1 <1>   0.0800 
 34 H       -2.6330    -2.0680     1.5400 H     1 <1>   0.0800 
 35 H       -4.6110    -0.8720    -1.3110 H     1 <1>   0.0800 
 36 H       -3.9920    -0.4230     0.2460 H     1 <1>   0.0800 
 37 H       -1.5260     0.3450     3.2110 H     1 <1>   0.0800 
 38 H       -2.1530     1.9890     3.2510 H     1 <1>   0.0800 
 39 H       -0.4230     1.6980     2.9860 H     1 <1>   0.0800 
 40 H       -0.1450     6.5900     0.2530 H     1 <1>   0.0800 
 41 H       -0.5820     6.0510     1.8530 H     1 <1>   0.0800 
 42 H       -1.8060     6.7030     0.7900 H     1 <1>   0.0800 
 43 H       -6.2160    -2.8950    -1.4580 H     1 <1>   0.1500 
 44 H       -5.0720    -1.2490     2.2900 H     1 <1>   0.1500 
 45 H       -8.0530    -4.0060    -0.3140 H     1 <1>   0.1500 
 46 H       -6.9540    -2.4260     3.2850 H     1 <1>   0.1500 
@<TRIPOS>BOND
  1   1   2  2   
  2   2   3  am  
  3   2   4  1   
  4   3   5  1   
  5   3  25  1   
  6   4   6  ar  
  7   4   7  ar  
  8   5   8  1   
  9   5   9  1   
 10   5  26  1   
 11   6  10  1   
 12   6  11  ar  
 13   7  12  ar  
 14   7  27  1   
 15   8  13  1   
 16   8  14  1   
 17   8  28  1   
 18   9  15  1   
 19   9  29  1   
 20   9  30  1   
 21  10  16  1   
 22  11  17  ar  
 23  11  31  1   
 24  12  17  ar  
 25  12  32  1   
 26  13  15  1   
 27  13  33  1   
 28  13  34  1   
 29  14  18  1   
 30  14  35  1   
 31  14  36  1   
 32  16  37  1   
 33  16  38  1   
 34  16  39  1   
 35  17  19  1   
 36  18  20  ar  
 37  18  21  ar  
 38  19  40  1   
 39  19  41  1   
 40  19  42  1   
 41  20  22  ar  
 42  20  43  1   
 43  21  23  ar  
 44  21  44  1   
 45  22  24  ar  
 46  22  45  1   
 47  23  24  ar  
 48  23  46  1   
@<TRIPOS>SUBSTRUCTURE
  1 ****   3 GROUP 4 **** **** 0

# MOE 2024.06 (io_trps.svl 2023.06)
