@<TRIPOS>MOLECULE
NONAME
43 44 1 0 0 
SMALL
USER_CHARGES


@<TRIPOS>ATOM
  1 S       -0.2500     0.8880     0.6420 S.3   1 <1>  -0.0800 
  2 C       -1.7540     0.4200    -0.1400 C.2   1 <1>  -0.1400 
  3 C        0.3290     1.6570    -0.8230 C.2   1 <1>  -0.1100 
  4 C       -1.7670     0.8460    -1.4200 C.2   1 <1>  -0.1500 
  5 C       -2.7450    -0.3470     0.7180 C.3   1 <1>   0.6030 
  6 C       -0.5810     1.5470    -1.8070 C.2   1 <1>  -0.1500 
  7 N       -2.6760    -1.7910     0.3700 N.4   1 <1>  -0.9590 
  8 C       -4.1540     0.1900     0.4700 C.3   1 <1>  -0.2400 
  9 C       -3.6040    -2.6480     1.1900 C.3   1 <1>   0.4860 
 10 C       -1.2730    -2.3240     0.4610 C.3   1 <1>   0.2630 
 11 C       -3.6960    -4.0760     0.6540 C.ar  1 <1>   0.1670 
 12 N       -2.7550    -4.8950     1.1040 N.ar  1 <1>  -0.6200 
 13 C       -4.7030    -4.4450    -0.2330 C.ar  1 <1>  -0.1430 
 14 C       -2.8010    -6.1390     0.6540 C.ar  1 <1>   0.1600 
 15 C       -4.7320    -5.7620    -0.6700 C.ar  1 <1>   0.0830 
 16 C       -5.7660    -3.4600    -0.7280 C.3   1 <1>  -0.0970 
 17 C       -3.7460    -6.6270    -0.2290 C.ar  1 <1>  -0.1430 
 18 O       -5.6850    -6.1860    -1.5220 O.3   1 <1>  -0.3630 
 19 C       -3.6800    -8.0770    -0.6950 C.3   1 <1>  -0.0970 
 20 C       -6.8300    -6.7860    -0.9570 C.3   1 <1>   0.0400 
 21 H        1.3020     2.1180    -0.7930 H     1 <1>   0.1500 
 22 H       -2.5620     0.7070    -2.1330 H     1 <1>   0.1500 
 23 H       -2.4870    -0.2030     1.7550 H     1 <1>   0.0800 
 24 H       -0.4680     1.9380    -2.8050 H     1 <1>   0.1500 
 25 H       -2.9580    -1.8760    -0.6120 H     1 <1>   0.4500 
 26 H       -4.4830    -0.0250    -0.5300 H     1 <1>   0.0800 
 27 H       -4.1440     1.2590     0.5910 H     1 <1>   0.0800 
 28 H       -4.8570    -0.1990     1.1820 H     1 <1>   0.0800 
 29 H       -4.5940    -2.2280     1.1960 H     1 <1>   0.0800 
 30 H       -3.2570    -2.6910     2.2090 H     1 <1>   0.0800 
 31 H       -0.9190    -2.2860     1.4780 H     1 <1>   0.0800 
 32 H       -0.6050    -1.7480    -0.1600 H     1 <1>   0.0800 
 33 H       -1.2350    -3.3480     0.1250 H     1 <1>   0.0800 
 34 H       -2.0370    -6.8090     1.0110 H     1 <1>   0.1500 
 35 H       -5.3710    -2.4700    -0.8510 H     1 <1>   0.0800 
 36 H       -6.5880    -3.4300    -0.0350 H     1 <1>   0.0800 
 37 H       -6.1510    -3.7610    -1.6870 H     1 <1>   0.0800 
 38 H       -2.6900    -8.4760    -0.5690 H     1 <1>   0.0800 
 39 H       -3.9380    -8.1460    -1.7370 H     1 <1>   0.0800 
 40 H       -4.3680    -8.6770    -0.1270 H     1 <1>   0.0800 
 41 H       -7.4900    -7.0710    -1.7560 H     1 <1>   0.0800 
 42 H       -7.3150    -6.0750    -0.3130 H     1 <1>   0.0800 
 43 H       -6.5330    -7.6550    -0.3980 H     1 <1>   0.0800 
@<TRIPOS>BOND
  1   1   2  1   
  2   1   3  1   
  3   2   4  2   
  4   2   5  1   
  5   3   6  2   
  6   3  21  1   
  7   4   6  1   
  8   4  22  1   
  9   5   7  1   
 10   5   8  1   
 11   5  23  1   
 12   6  24  1   
 13   7   9  1   
 14   7  10  1   
 15   7  25  1   
 16   8  26  1   
 17   8  27  1   
 18   8  28  1   
 19   9  11  1   
 20   9  29  1   
 21   9  30  1   
 22  10  31  1   
 23  10  32  1   
 24  10  33  1   
 25  11  12  ar  
 26  11  13  ar  
 27  12  14  ar  
 28  13  15  ar  
 29  13  16  1   
 30  14  17  ar  
 31  14  34  1   
 32  15  17  ar  
 33  15  18  1   
 34  16  35  1   
 35  16  36  1   
 36  16  37  1   
 37  17  19  1   
 38  18  20  1   
 39  19  38  1   
 40  19  39  1   
 41  19  40  1   
 42  20  41  1   
 43  20  42  1   
 44  20  43  1   
@<TRIPOS>SUBSTRUCTURE
  1 ****   7 GROUP 4 **** **** 0

# MOE 2024.06 (io_trps.svl 2023.06)
