@<TRIPOS>MOLECULE
NONAME
53 55 1 0 0 
SMALL
USER_CHARGES


@<TRIPOS>ATOM
  1 O       -2.1800    -4.3260    -0.1040 O.co2 1 <1>  -0.9000 
  2 C       -3.2290    -3.7570    -0.4010 C.2   1 <1>   0.9060 
  3 O       -3.6330    -3.6590    -1.5670 O.co2 1 <1>  -0.9000 
  4 C       -4.0260    -3.0670     0.7210 C.3   1 <1>   0.2370 
  5 N       -4.8010    -1.7940     0.3770 N.4   1 <1>  -0.9590 
  6 C       -5.3070    -1.1310     1.6230 C.3   1 <1>   0.3430 
  7 C       -3.9660    -0.9100    -0.4960 C.3   1 <1>   0.3430 
  8 C       -6.2550     0.0690     1.4020 C.3   1 <1>   0.2200 
  9 C       -4.7110     0.3080    -1.0660 C.3   1 <1>  -0.0800 
 10 N       -6.9910    -0.0120     0.0900 N.am  1 <1>  -0.6600 
 11 C       -5.5600     1.4230     1.6080 C.3   1 <1>   0.1200 
 12 C       -4.3020     1.6120    -0.3680 C.3   1 <1>   0.1200 
 13 C       -6.2340     0.1360    -1.1970 C.3   1 <1>   0.1400 
 14 C       -8.3520    -0.2030     0.1270 C.2   1 <1>   0.5690 
 15 O       -4.3010     1.4540     1.0110 O.3   1 <1>  -0.5600 
 16 O       -8.9970     0.1430     1.0900 O.2   1 <1>  -0.5700 
 17 C       -9.1110    -0.8860    -1.0010 C.3   1 <1>   0.0440 
 18 C       -9.3580    -2.3510    -0.6470 C.ar  1 <1>  -0.1430 
 19 C       -8.3800    -3.3240    -0.8410 C.ar  1 <1>   0.0830 
 20 C      -10.5810    -2.7190    -0.1060 C.ar  1 <1>  -0.1500 
 21 O       -7.1870    -2.9520    -1.3690 O.3   1 <1>  -0.3620 
 22 C       -8.6360    -4.6440    -0.4920 C.ar  1 <1>  -0.1500 
 23 C      -10.8370    -4.0360     0.2360 C.ar  1 <1>  -0.1500 
 24 C       -6.5230    -3.8420    -2.2470 C.3   1 <1>   0.0400 
 25 C       -9.8590    -5.0070     0.0430 C.ar  1 <1>   0.0830 
 26 O      -10.0250    -6.3170     0.3540 O.3   1 <1>  -0.3620 
 27 C      -11.2400    -6.7930     0.8900 C.3   1 <1>   0.0400 
 28 H       -3.3090    -2.8450     1.4890 H     1 <1>   0.0800 
 29 H       -4.7060    -3.8010     1.1140 H     1 <1>   0.0800 
 30 H       -5.6140    -2.0880    -0.1980 H     1 <1>   0.4500 
 31 H       -5.8450    -1.8630     2.2000 H     1 <1>   0.0800 
 32 H       -4.4720    -0.8040     2.2200 H     1 <1>   0.0800 
 33 H       -3.0990    -0.5760     0.0510 H     1 <1>   0.0800 
 34 H       -3.6110    -1.4860    -1.3350 H     1 <1>   0.0800 
 35 H       -6.9730     0.0120     2.2010 H     1 <1>   0.0800 
 36 H       -4.3510     0.4140    -2.0740 H     1 <1>   0.0800 
 37 H       -5.4000     1.5770     2.6610 H     1 <1>   0.0800 
 38 H       -6.1650     2.2340     1.2410 H     1 <1>   0.0800 
 39 H       -4.9470     2.4330    -0.6360 H     1 <1>   0.0800 
 40 H       -3.2950     1.8700    -0.6490 H     1 <1>   0.0800 
 41 H       -6.4120    -0.7200    -1.8200 H     1 <1>   0.0800 
 42 H       -6.6310     0.9920    -1.7170 H     1 <1>   0.0800 
 43 H      -10.0510    -0.3810    -1.1230 H     1 <1>   0.0800 
 44 H       -8.5950    -0.8140    -1.9360 H     1 <1>   0.0800 
 45 H      -11.3440    -1.9770     0.0600 H     1 <1>   0.1500 
 46 H       -7.8940    -5.4090    -0.6220 H     1 <1>   0.1500 
 47 H      -11.7960    -4.2820     0.6500 H     1 <1>   0.1500 
 48 H       -5.7770    -3.2910    -2.7910 H     1 <1>   0.0800 
 49 H       -7.2360    -4.2620    -2.9340 H     1 <1>   0.0800 
 50 H       -6.0450    -4.6170    -1.6750 H     1 <1>   0.0800 
 51 H      -11.1430    -7.8520     1.0480 H     1 <1>   0.0800 
 52 H      -12.0310    -6.5990     0.1870 H     1 <1>   0.0800 
 53 H      -11.4270    -6.2990     1.8270 H     1 <1>   0.0800 
@<TRIPOS>BOND
  1   1   2  ar  
  2   2   3  ar  
  3   2   4  1   
  4   4   5  1   
  5   4  28  1   
  6   4  29  1   
  7   5   6  1   
  8   5   7  1   
  9   5  30  1   
 10   6   8  1   
 11   6  31  1   
 12   6  32  1   
 13   7   9  1   
 14   7  33  1   
 15   7  34  1   
 16   8  10  1   
 17   8  11  1   
 18   8  35  1   
 19   9  12  1   
 20   9  13  1   
 21   9  36  1   
 22  10  13  1   
 23  10  14  am  
 24  11  15  1   
 25  11  37  1   
 26  11  38  1   
 27  12  15  1   
 28  12  39  1   
 29  12  40  1   
 30  13  41  1   
 31  13  42  1   
 32  14  16  2   
 33  14  17  1   
 34  17  18  1   
 35  17  43  1   
 36  17  44  1   
 37  18  19  ar  
 38  18  20  ar  
 39  19  21  1   
 40  19  22  ar  
 41  20  23  ar  
 42  20  45  1   
 43  21  24  1   
 44  22  25  ar  
 45  22  46  1   
 46  23  25  ar  
 47  23  47  1   
 48  24  48  1   
 49  24  49  1   
 50  24  50  1   
 51  25  26  1   
 52  26  27  1   
 53  27  51  1   
 54  27  52  1   
 55  27  53  1   
@<TRIPOS>SUBSTRUCTURE
  1 ****  21 GROUP 4 **** **** 0

# MOE 2024.06 (io_trps.svl 2023.06)
