@<TRIPOS>MOLECULE
NONAME
54 57 1 0 0 
SMALL
USER_CHARGES


@<TRIPOS>ATOM
  1 O        0.8070    -0.2640    -2.4920 O.2   1 <1>  -0.5700 
  2 C        1.1830    -0.8610    -1.5100 C.2   1 <1>   0.5690 
  3 N        1.7910    -0.2380    -0.4250 N.am  1 <1>  -0.4770 
  4 C        0.9730    -2.3890    -1.5500 C.3   1 <1>   0.1710 
  5 C        2.0690     1.1600    -0.3260 C.ar  1 <1>   0.1170 
  6 C        2.4060    -1.1070     0.6310 C.3   1 <1>   0.1400 
  7 N        0.1530    -2.9820    -0.4500 N.3   1 <1>  -0.8100 
  8 C        3.1520     1.6040     0.4490 C.ar  1 <1>   0.0820 
  9 C        1.3100     2.1380    -0.9680 C.ar  1 <1>  -0.1500 
 10 C        3.1120    -0.3240     1.7440 C.3   1 <1>   0.1200 
 11 C        0.1510    -4.4550    -0.5620 C.3   1 <1>   0.1100 
 12 C       -1.2080    -2.4170    -0.4520 C.3   1 <1>   0.1100 
 13 O        3.8680     0.7320     1.1980 O.3   1 <1>  -0.3630 
 14 C        3.5030     2.9410     0.5080 C.ar  1 <1>  -0.1500 
 15 C        1.6490     3.4790    -0.8980 C.ar  1 <1>  -0.1500 
 16 C       -0.5580    -5.1800     0.5980 C.3   1 <1>   0.2090 
 17 C       -1.8560    -2.6080     0.9200 C.3   1 <1>  -0.1600 
 18 C        2.7520     3.8840    -0.1690 C.ar  1 <1>  -0.1500 
 19 N       -2.0540    -5.1170     0.4780 N.pl3 1 <1>  -0.8380 
 20 C       -2.6870    -3.8890     1.0580 C.3   1 <1>   0.2090 
 21 C       -2.7960    -6.1530    -0.0100 C.ar  1 <1>   0.1000 
 22 C       -4.1130    -6.3890     0.4170 C.ar  1 <1>  -0.1500 
 23 C       -2.2890    -7.0470    -0.9650 C.ar  1 <1>  -0.1500 
 24 C       -4.8560    -7.4310    -0.0770 C.ar  1 <1>   0.2180 
 25 C       -3.0480    -8.0810    -1.4430 C.ar  1 <1>   0.2110 
 26 N       -4.3160    -8.2630    -1.0000 N.ar  1 <1>  -0.1790 
 27 C       -6.2810    -7.6900     0.3830 C.3   1 <1>  -0.0970 
 28 H        1.9450    -2.8460    -1.5510 H     1 <1>   0.0800 
 29 H        0.5110    -2.6290    -2.4920 H     1 <1>   0.0800 
 30 H        3.1250    -1.7610     0.1690 H     1 <1>   0.0800 
 31 H        1.6460    -1.7130     1.0880 H     1 <1>   0.0800 
 32 H        0.4420     1.8640    -1.5350 H     1 <1>   0.1500 
 33 H        3.7770    -0.9610     2.2980 H     1 <1>   0.0800 
 34 H        2.3890     0.1000     2.4180 H     1 <1>   0.0800 
 35 H        1.1740    -4.7900    -0.5700 H     1 <1>   0.0800 
 36 H       -0.2990    -4.7510    -1.4930 H     1 <1>   0.0800 
 37 H       -1.8070    -2.8600    -1.2320 H     1 <1>   0.0800 
 38 H       -1.1580    -1.3580    -0.6380 H     1 <1>   0.0800 
 39 H        4.3550     3.2380     1.0920 H     1 <1>   0.1500 
 40 H        1.0500     4.2080    -1.4160 H     1 <1>   0.1500 
 41 H       -0.2380    -4.7620     1.5370 H     1 <1>   0.0800 
 42 H       -0.2520    -6.2110     0.5980 H     1 <1>   0.0800 
 43 H       -2.5220    -1.7830     1.0900 H     1 <1>   0.0800 
 44 H       -1.1080    -2.5600     1.6900 H     1 <1>   0.0800 
 45 H        3.0210     4.9250    -0.1240 H     1 <1>   0.1500 
 46 H       -3.6250    -3.7230     0.5580 H     1 <1>   0.0800 
 47 H       -2.8920    -4.0600     2.1010 H     1 <1>   0.0800 
 48 H       -4.5370    -5.7390     1.1600 H     1 <1>   0.1500 
 49 H       -1.2900    -6.9090    -1.3320 H     1 <1>   0.1500 
 50 H       -2.6540    -8.7640    -2.1790 H     1 <1>   0.1500 
 51 H       -4.8770    -9.0390    -1.3640 H     1 <1>   0.4570 
 52 H       -6.5810    -6.9610     1.1150 H     1 <1>   0.0800 
 53 H       -6.3590    -8.6650     0.8330 H     1 <1>   0.0800 
 54 H       -6.9610    -7.6290    -0.4480 H     1 <1>   0.0800 
@<TRIPOS>BOND
  1   1   2  2   
  2   2   3  am  
  3   2   4  1   
  4   3   5  1   
  5   3   6  1   
  6   4   7  1   
  7   4  28  1   
  8   4  29  1   
  9   5   8  ar  
 10   5   9  ar  
 11   6  10  1   
 12   6  30  1   
 13   6  31  1   
 14   7  11  1   
 15   7  12  1   
 16   8  13  1   
 17   8  14  ar  
 18   9  15  ar  
 19   9  32  1   
 20  10  13  1   
 21  10  33  1   
 22  10  34  1   
 23  11  16  1   
 24  11  35  1   
 25  11  36  1   
 26  12  17  1   
 27  12  37  1   
 28  12  38  1   
 29  14  18  ar  
 30  14  39  1   
 31  15  18  ar  
 32  15  40  1   
 33  16  19  1   
 34  16  41  1   
 35  16  42  1   
 36  17  20  1   
 37  17  43  1   
 38  17  44  1   
 39  18  45  1   
 40  19  20  1   
 41  19  21  1   
 42  20  46  1   
 43  20  47  1   
 44  21  22  ar  
 45  21  23  ar  
 46  22  24  ar  
 47  22  48  1   
 48  23  25  ar  
 49  23  49  1   
 50  24  26  ar  
 51  24  27  1   
 52  25  26  ar  
 53  25  50  1   
 54  26  51  1   
 55  27  52  1   
 56  27  53  1   
 57  27  54  1   
@<TRIPOS>SUBSTRUCTURE
  1 ****   7 GROUP 4 **** **** 0

# MOE 2024.06 (io_trps.svl 2023.06)
