@<TRIPOS>MOLECULE
NONAME
40 41 1 0 0 
SMALL
USER_CHARGES


@<TRIPOS>ATOM
  1 CL      -1.5150    -1.5960     1.6090 Cl    1 <1>  -0.1770 
  2 C       -2.1100    -0.1150     0.8980 C.ar  1 <1>   0.1770 
  3 C       -2.9490    -0.1440    -0.2040 C.ar  1 <1>   0.0860 
  4 C       -1.7220     1.0890     1.4560 C.ar  1 <1>   0.1600 
  5 C       -3.4030    -1.3630    -0.8280 C.2   1 <1>   0.5440 
  6 C       -3.3260     1.1040    -0.6810 C.ar  1 <1>  -0.1500 
  7 N       -2.0950     2.2800     1.0070 N.ar  1 <1>  -0.6200 
  8 O       -3.0050    -1.6190    -1.9480 O.2   1 <1>  -0.5700 
  9 N       -4.3010    -2.2040    -0.2090 N.am  1 <1>  -0.6600 
 10 C       -2.8850     2.2560    -0.0560 C.ar  1 <1>   0.1600 
 11 C       -4.7090    -3.5200    -0.8030 C.3   1 <1>   0.1400 
 12 C       -5.0140    -1.8860     1.0610 C.3   1 <1>   0.1400 
 13 C       -6.2300    -3.5490    -1.0360 C.3   1 <1>   0.2000 
 14 C       -6.5270    -1.8840     0.8040 C.3   1 <1>  -0.1600 
 15 O       -6.5830    -4.7880    -1.5420 O.3   1 <1>  -0.6800 
 16 C       -7.0260    -3.2570     0.2660 C.3   1 <1>  -0.1060 
 17 C       -6.7510    -4.3670     1.3090 C.2   1 <1>   0.9060 
 18 C       -8.5630    -3.2120     0.0220 C.3   1 <1>  -0.1600 
 19 O       -6.6020    -5.5390     0.9290 O.co2 1 <1>  -0.9000 
 20 O       -6.6940    -4.0760     2.5110 O.co2 1 <1>  -0.9000 
 21 C       -9.0650    -2.2190    -1.0430 C.3   1 <1>  -0.1600 
 22 C      -10.5890    -2.2820    -1.1660 C.3   1 <1>  -0.2400 
 23 H       -1.0730     1.0670     2.3140 H     1 <1>   0.1500 
 24 H       -3.9650     1.1650    -1.5440 H     1 <1>   0.1500 
 25 H       -3.1960     3.2110    -0.4490 H     1 <1>   0.1500 
 26 H       -4.2080    -3.6850    -1.7390 H     1 <1>   0.0800 
 27 H       -4.4300    -4.3080    -0.1240 H     1 <1>   0.0800 
 28 H       -4.7600    -2.6250     1.8040 H     1 <1>   0.0800 
 29 H       -4.7230    -0.9250     1.4440 H     1 <1>   0.0800 
 30 H       -6.4590    -2.8230    -1.7940 H     1 <1>   0.0800 
 31 H       -7.0330    -1.6570     1.7260 H     1 <1>   0.0800 
 32 H       -6.7450    -1.0970     0.1080 H     1 <1>   0.0800 
 33 H       -6.6250    -5.3900    -0.7370 H     1 <1>   0.4000 
 34 H       -8.8830    -4.2010    -0.2600 H     1 <1>   0.0800 
 35 H       -9.0420    -2.9910     0.9610 H     1 <1>   0.0800 
 36 H       -8.7820    -1.2150    -0.7850 H     1 <1>   0.0800 
 37 H       -8.6330    -2.4600    -1.9990 H     1 <1>   0.0800 
 38 H      -11.0520    -2.0290    -0.2280 H     1 <1>   0.0800 
 39 H      -10.8990    -3.2730    -1.4490 H     1 <1>   0.0800 
 40 H      -10.9280    -1.5890    -1.9160 H     1 <1>   0.0800 
@<TRIPOS>BOND
  1   1   2  1   
  2   2   3  ar  
  3   2   4  ar  
  4   3   5  1   
  5   3   6  ar  
  6   4   7  ar  
  7   4  23  1   
  8   5   8  2   
  9   5   9  am  
 10   6  10  ar  
 11   6  24  1   
 12   7  10  ar  
 13   9  11  1   
 14   9  12  1   
 15  10  25  1   
 16  11  13  1   
 17  11  26  1   
 18  11  27  1   
 19  12  14  1   
 20  12  28  1   
 21  12  29  1   
 22  13  15  1   
 23  13  16  1   
 24  13  30  1   
 25  14  16  1   
 26  14  31  1   
 27  14  32  1   
 28  15  33  1   
 29  16  17  1   
 30  16  18  1   
 31  17  19  ar  
 32  17  20  ar  
 33  18  21  1   
 34  18  34  1   
 35  18  35  1   
 36  21  22  1   
 37  21  36  1   
 38  21  37  1   
 39  22  38  1   
 40  22  39  1   
 41  22  40  1   
@<TRIPOS>SUBSTRUCTURE
  1 ****   9 GROUP 4 **** **** 0

# MOE 2024.06 (io_trps.svl 2023.06)
