@<TRIPOS>MOLECULE
NONAME
54 56 1 0 0 
SMALL
USER_CHARGES


@<TRIPOS>ATOM
  1 O        3.9050     0.6360     1.7490 O.co2 1 <1>  -0.9000 
  2 C        3.4560     0.3380     0.6370 C.2   1 <1>   0.9060 
  3 O        3.3110    -0.8460     0.2930 O.co2 1 <1>  -0.9000 
  4 C        3.1480     1.4230    -0.4010 C.3   1 <1>  -0.1060 
  5 C        4.2160     1.1710    -1.4950 C.3   1 <1>   0.2000 
  6 C        3.2980     2.8760     0.1540 C.3   1 <1>  -0.1600 
  7 C        1.6960     1.2430    -0.9400 C.3   1 <1>  -0.0160 
  8 O        3.8500     0.0860    -2.2770 O.3   1 <1>  -0.6800 
  9 C        4.4970     2.4010    -2.3670 C.3   1 <1>   0.1400 
 10 C        4.6970     3.4570    -0.0590 C.3   1 <1>   0.1400 
 11 C        0.5960     1.7220     0.0070 C.ar  1 <1>  -0.1440 
 12 N        4.9630     3.5630    -1.5330 N.am  1 <1>  -0.6600 
 13 C        0.3420     1.0440     1.1890 C.ar  1 <1>  -0.1500 
 14 C       -0.1670     2.8370    -0.3090 C.ar  1 <1>  -0.1500 
 15 C        5.6190     4.6100    -2.1300 C.2   1 <1>   0.5690 
 16 C       -0.6540     1.4770     2.0470 C.ar  1 <1>  -0.1500 
 17 C       -1.1660     3.2710     0.5460 C.ar  1 <1>  -0.1500 
 18 O        5.8000     4.6390    -3.3270 O.2   1 <1>  -0.5700 
 19 C        6.1330     5.8010    -1.3270 C.3   1 <1>   0.0440 
 20 C       -1.4100     2.5910     1.7270 C.ar  1 <1>  -0.1500 
 21 C        7.2130     5.4410    -0.3100 C.ar  1 <1>  -0.1430 
 22 C        8.2730     4.6260    -0.6720 C.ar  1 <1>  -0.1500 
 23 C        7.1480     5.9250     0.9850 C.ar  1 <1>  -0.1500 
 24 C        9.2580     4.2840     0.2420 C.ar  1 <1>  -0.1430 
 25 C        8.1260     5.5900     1.9030 C.ar  1 <1>  -0.1500 
 26 C        9.1840     4.7710     1.5430 C.ar  1 <1>  -0.1430 
 27 C       10.3930     3.3750    -0.2050 C.3   1 <1>  -0.0970 
 28 C       10.2370     4.4200     2.5840 C.3   1 <1>  -0.0970 
 29 H        5.1470     0.8970    -1.0250 H     1 <1>   0.0800 
 30 H        3.0540     2.8960     1.2020 H     1 <1>   0.0800 
 31 H        2.6080     3.5380    -0.3360 H     1 <1>   0.0800 
 32 H        1.6060     1.7730    -1.8700 H     1 <1>   0.0800 
 33 H        1.5110     0.2060    -1.1620 H     1 <1>   0.0800 
 34 H        3.6280    -0.6360    -1.6290 H     1 <1>   0.4000 
 35 H        3.6020     2.6850    -2.8900 H     1 <1>   0.0800 
 36 H        5.2570     2.1540    -3.0870 H     1 <1>   0.0800 
 37 H        5.4350     2.8190     0.4010 H     1 <1>   0.0800 
 38 H        4.7480     4.4200     0.4130 H     1 <1>   0.0800 
 39 H        0.9260     0.1750     1.4490 H     1 <1>   0.1500 
 40 H        0.0170     3.3720    -1.2230 H     1 <1>   0.1500 
 41 H       -0.8330     0.9420     2.9630 H     1 <1>   0.1500 
 42 H       -1.7510     4.1360     0.2930 H     1 <1>   0.1500 
 43 H        6.5420     6.5210    -2.0110 H     1 <1>   0.0800 
 44 H        5.2960     6.2640    -0.8410 H     1 <1>   0.0800 
 45 H       -2.1830     2.9260     2.3940 H     1 <1>   0.1500 
 46 H        8.3280     4.2500    -1.6790 H     1 <1>   0.1500 
 47 H        6.3360     6.5610     1.2910 H     1 <1>   0.1500 
 48 H        8.0550     5.9710     2.9060 H     1 <1>   0.1500 
 49 H       10.2690     3.0810    -1.2310 H     1 <1>   0.0800 
 50 H       10.4110     2.4870     0.4000 H     1 <1>   0.0800 
 51 H       11.3330     3.8870    -0.1110 H     1 <1>   0.0800 
 52 H       10.0380     4.9160     3.5170 H     1 <1>   0.0800 
 53 H       11.2100     4.7230     2.2420 H     1 <1>   0.0800 
 54 H       10.2380     3.3590     2.7590 H     1 <1>   0.0800 
@<TRIPOS>BOND
  1   1   2  ar  
  2   2   3  ar  
  3   2   4  1   
  4   4   5  1   
  5   4   6  1   
  6   4   7  1   
  7   5   8  1   
  8   5   9  1   
  9   5  29  1   
 10   6  10  1   
 11   6  30  1   
 12   6  31  1   
 13   7  11  1   
 14   7  32  1   
 15   7  33  1   
 16   8  34  1   
 17   9  12  1   
 18   9  35  1   
 19   9  36  1   
 20  10  12  1   
 21  10  37  1   
 22  10  38  1   
 23  11  13  ar  
 24  11  14  ar  
 25  12  15  am  
 26  13  16  ar  
 27  13  39  1   
 28  14  17  ar  
 29  14  40  1   
 30  15  18  2   
 31  15  19  1   
 32  16  20  ar  
 33  16  41  1   
 34  17  20  ar  
 35  17  42  1   
 36  19  21  1   
 37  19  43  1   
 38  19  44  1   
 39  20  45  1   
 40  21  22  ar  
 41  21  23  ar  
 42  22  24  ar  
 43  22  46  1   
 44  23  25  ar  
 45  23  47  1   
 46  24  26  ar  
 47  24  27  1   
 48  25  26  ar  
 49  25  48  1   
 50  26  28  1   
 51  27  49  1   
 52  27  50  1   
 53  27  51  1   
 54  28  52  1   
 55  28  53  1   
 56  28  54  1   
@<TRIPOS>SUBSTRUCTURE
  1 ****  10 GROUP 4 **** **** 0

# MOE 2024.06 (io_trps.svl 2023.06)
