@<TRIPOS>MOLECULE
NONAME
46 49 1 0 0 
SMALL
USER_CHARGES


@<TRIPOS>ATOM
  1 O       -0.8200     0.1700     3.0230 O.2   1 <1>  -0.5700 
  2 C       -1.1780     0.9560     2.1770 C.2   1 <1>   0.5690 
  3 N       -1.9820     0.5530     1.1420 N.am  1 <1>  -0.6600 
  4 C       -0.7300     2.4070     2.3130 C.3   1 <1>   0.0820 
  5 C       -2.4250     1.3800    -0.0110 C.3   1 <1>   0.1400 
  6 C       -2.3530    -0.8660     0.9290 C.3   1 <1>   0.1400 
  7 C        0.0850     2.8930     1.1210 C.2   1 <1>  -0.1810 
  8 C       -3.4440     0.5040    -0.7360 C.3   1 <1>   0.2000 
  9 C       -2.9320    -0.9190    -0.4910 C.3   1 <1>  -0.0800 
 10 C       -0.2900     3.9360     0.2430 C.ar  1 <1>   0.0000 
 11 C        1.2770     2.4090     0.6980 C.2   1 <1>  -0.3020 
 12 O       -4.6730     0.6680    -0.1130 O.3   1 <1>  -0.6800 
 13 C       -3.9760    -2.0310    -0.6990 C.3   1 <1>   0.0200 
 14 C        0.7200     4.0260    -0.7100 C.ar  1 <1>  -0.1520 
 15 C       -1.3870     4.8030     0.1620 C.ar  1 <1>  -0.1500 
 16 N        1.6780     3.0910    -0.4140 N.pl3 1 <1>   0.0330 
 17 C       -3.3880    -3.4280    -0.5870 C.2   1 <1>  -0.0400 
 18 C        0.6510     4.9560    -1.7490 C.ar  1 <1>  -0.1500 
 19 C       -1.4550     5.7200    -0.8620 C.ar  1 <1>  -0.1500 
 20 O       -4.1990    -4.4530    -0.6110 O.3   1 <1>  -0.0190 
 21 C       -2.1370    -3.9010    -0.4630 C.2   1 <1>  -0.1500 
 22 C       -0.4360     5.7950    -1.8190 C.ar  1 <1>  -0.1500 
 23 N       -3.5600    -5.5820    -0.5060 N.2   1 <1>  -0.4100 
 24 C       -2.3160    -5.2810    -0.4140 C.2   1 <1>   0.1080 
 25 C       -1.2030    -6.2950    -0.2730 C.3   1 <1>  -0.0590 
 26 H       -1.5980     3.0210     2.4490 H     1 <1>   0.0800 
 27 H       -0.1270     2.4980     3.1970 H     1 <1>   0.0800 
 28 H       -2.8540     2.3160     0.3010 H     1 <1>   0.0800 
 29 H       -1.5820     1.5640    -0.6550 H     1 <1>   0.0800 
 30 H       -1.4910    -1.5020     1.0360 H     1 <1>   0.0800 
 31 H       -3.0920    -1.1480     1.6600 H     1 <1>   0.0800 
 32 H       -3.5510     0.7520    -1.7780 H     1 <1>   0.0800 
 33 H       -2.1150    -1.0870    -1.1710 H     1 <1>   0.0800 
 34 H        1.8650     1.6130     1.1220 H     1 <1>   0.1500 
 35 H       -4.5450     0.5970     0.8550 H     1 <1>   0.4000 
 36 H       -4.4190    -1.9260    -1.6740 H     1 <1>   0.0800 
 37 H       -4.7650    -1.9360     0.0260 H     1 <1>   0.0800 
 38 H       -2.1640     4.7480     0.9010 H     1 <1>   0.1500 
 39 H        2.5450     2.9450    -0.9410 H     1 <1>   0.2700 
 40 H        1.4400     5.0100    -2.4780 H     1 <1>   0.1500 
 41 H       -2.2920     6.3910    -0.9360 H     1 <1>   0.1500 
 42 H       -1.1970    -3.3870    -0.4110 H     1 <1>   0.1500 
 43 H       -0.5140     6.5210    -2.6100 H     1 <1>   0.1500 
 44 H       -0.6400    -6.0970     0.6200 H     1 <1>   0.0800 
 45 H       -0.5510    -6.2420    -1.1250 H     1 <1>   0.0800 
 46 H       -1.6160    -7.2860    -0.2110 H     1 <1>   0.0800 
@<TRIPOS>BOND
  1   1   2  2   
  2   2   3  am  
  3   2   4  1   
  4   3   5  1   
  5   3   6  1   
  6   4   7  1   
  7   4  26  1   
  8   4  27  1   
  9   5   8  1   
 10   5  28  1   
 11   5  29  1   
 12   6   9  1   
 13   6  30  1   
 14   6  31  1   
 15   7  10  1   
 16   7  11  2   
 17   8   9  1   
 18   8  12  1   
 19   8  32  1   
 20   9  13  1   
 21   9  33  1   
 22  10  14  ar  
 23  10  15  ar  
 24  11  16  1   
 25  11  34  1   
 26  12  35  1   
 27  13  17  1   
 28  13  36  1   
 29  13  37  1   
 30  14  16  1   
 31  14  18  ar  
 32  15  19  ar  
 33  15  38  1   
 34  16  39  1   
 35  17  20  1   
 36  17  21  2   
 37  18  22  ar  
 38  18  40  1   
 39  19  22  ar  
 40  19  41  1   
 41  20  23  1   
 42  21  24  1   
 43  21  42  1   
 44  22  43  1   
 45  23  24  2   
 46  24  25  1   
 47  25  44  1   
 48  25  45  1   
 49  25  46  1   
@<TRIPOS>SUBSTRUCTURE
  1 ****   3 GROUP 4 **** **** 0

# MOE 2024.06 (io_trps.svl 2023.06)
