@<TRIPOS>MOLECULE
NONAME
44 45 1 0 0 
SMALL
USER_CHARGES


@<TRIPOS>ATOM
  1 S        0.2150     0.2070    -0.8920 S.o2  1 <1>   1.3330 
  2 O        1.6610     0.2210    -0.8420 O.2   1 <1>  -0.6500 
  3 O       -0.4520     0.4160    -2.1570 O.2   1 <1>  -0.6500 
  4 N       -0.3140    -1.2710    -0.2470 N.am  1 <1>  -0.8490 
  5 C       -0.4270     1.4160     0.2630 C.3   1 <1>  -0.0550 
  6 C       -0.4380    -2.3080    -1.2740 C.3   1 <1>   0.1160 
  7 C        0.5220    -1.7580     0.8560 C.3   1 <1>   0.1160 
  8 C       -0.1650     2.8700    -0.1790 C.3   1 <1>  -0.0800 
  9 C       -0.8310     3.9300     0.6950 C.3   1 <1>   0.2000 
 10 C        1.3220     3.2670    -0.1980 C.3   1 <1>   0.1100 
 11 O       -0.6870     3.5780     2.0250 O.3   1 <1>  -0.6800 
 12 C        0.0560     5.1430     0.4530 C.3   1 <1>   0.1100 
 13 N        1.4200     4.5870     0.4550 N.3   1 <1>  -0.8100 
 14 C        2.4250     5.4520    -0.1780 C.3   1 <1>   0.1100 
 15 C        2.7500     6.6430     0.7270 C.3   1 <1>   0.0960 
 16 N        3.7640     7.5000     0.0870 N.pl3 1 <1>   0.0480 
 17 C        3.6060     8.5220    -0.7620 C.2   1 <1>   0.0060 
 18 C        5.0900     7.4280     0.2140 C.2   1 <1>   0.0370 
 19 N        4.7400     9.0190    -1.1180 N.2   1 <1>  -0.3380 
 20 C        2.2680     9.0400    -1.2520 C.3   1 <1>  -0.0600 
 21 N        5.6900     8.3200    -0.4940 N.2   1 <1>  -0.3380 
 22 H       -1.4860     1.2740     0.3550 H     1 <1>   0.0800 
 23 H        0.0070     1.2510     1.2290 H     1 <1>   0.0800 
 24 H       -0.7930    -3.2260    -0.8380 H     1 <1>   0.0800 
 25 H        0.5150    -2.4840    -1.7460 H     1 <1>   0.0800 
 26 H       -1.1440    -1.9990    -2.0270 H     1 <1>   0.0800 
 27 H        0.0940    -2.6510     1.2770 H     1 <1>   0.0800 
 28 H        0.5840    -1.0140     1.6320 H     1 <1>   0.0800 
 29 H        1.5180    -1.9770     0.5060 H     1 <1>   0.0800 
 30 H       -0.5430     2.9900    -1.1800 H     1 <1>   0.0800 
 31 H       -1.8730     4.0910     0.4790 H     1 <1>   0.0800 
 32 H        1.6750     3.3050    -1.2160 H     1 <1>   0.0800 
 33 H        1.9260     2.5630     0.3490 H     1 <1>   0.0800 
 34 H        0.2690     3.6760     2.2310 H     1 <1>   0.4000 
 35 H       -0.0770     5.8890     1.2170 H     1 <1>   0.0800 
 36 H       -0.1720     5.5660    -0.5110 H     1 <1>   0.0800 
 37 H        3.3270     4.8830    -0.3300 H     1 <1>   0.0800 
 38 H        2.0680     5.7910    -1.1360 H     1 <1>   0.0800 
 39 H        3.1360     6.2880     1.6650 H     1 <1>   0.0800 
 40 H        1.8680     7.2280     0.9100 H     1 <1>   0.0800 
 41 H        5.5870     6.7060     0.8350 H     1 <1>   0.1500 
 42 H        1.7360     8.2660    -1.7720 H     1 <1>   0.0800 
 43 H        2.4250     9.8620    -1.9290 H     1 <1>   0.0800 
 44 H        1.6800     9.3890    -0.4230 H     1 <1>   0.0800 
@<TRIPOS>BOND
  1   1   2  2   
  2   1   3  2   
  3   1   4  am  
  4   1   5  1   
  5   4   6  1   
  6   4   7  1   
  7   5   8  1   
  8   5  22  1   
  9   5  23  1   
 10   6  24  1   
 11   6  25  1   
 12   6  26  1   
 13   7  27  1   
 14   7  28  1   
 15   7  29  1   
 16   8   9  1   
 17   8  10  1   
 18   8  30  1   
 19   9  11  1   
 20   9  12  1   
 21   9  31  1   
 22  10  13  1   
 23  10  32  1   
 24  10  33  1   
 25  11  34  1   
 26  12  13  1   
 27  12  35  1   
 28  12  36  1   
 29  13  14  1   
 30  14  15  1   
 31  14  37  1   
 32  14  38  1   
 33  15  16  1   
 34  15  39  1   
 35  15  40  1   
 36  16  17  1   
 37  16  18  1   
 38  17  19  2   
 39  17  20  1   
 40  18  21  2   
 41  18  41  1   
 42  19  21  1   
 43  20  42  1   
 44  20  43  1   
 45  20  44  1   
@<TRIPOS>SUBSTRUCTURE
  1 ****  10 GROUP 4 **** **** 0

# MOE 2024.06 (io_trps.svl 2023.06)
