@<TRIPOS>MOLECULE
NONAME
51 54 1 0 0 
SMALL
USER_CHARGES


@<TRIPOS>ATOM
  1 O        0.1520     0.7780    -0.2980 O.2   1 <1>  -0.5700 
  2 C       -0.8380     0.0660    -0.1760 C.2   1 <1>   0.5440 
  3 N       -2.0840     0.5820    -0.4560 N.am  1 <1>  -0.4200 
  4 C       -0.7550    -1.2950     0.2780 C.ar  1 <1>   0.0860 
  5 C       -3.2000    -0.2010    -0.2710 C.2   1 <1>   0.4500 
  6 C       -2.2330     1.9630    -0.9790 C.3   1 <1>   0.1400 
  7 C       -1.9580    -1.9960     0.4290 C.ar  1 <1>   0.1790 
  8 C        0.4470    -1.9460     0.5760 C.ar  1 <1>  -0.1500 
  9 N       -3.1740    -1.4070     0.1460 N.2   1 <1>  -0.6290 
 10 C       -2.1250     2.9870     0.1570 C.3   1 <1>  -0.0990 
 11 C       -1.9320    -3.3140     0.8710 C.ar  1 <1>  -0.1500 
 12 C        0.4560    -3.2540     1.0130 C.ar  1 <1>  -0.1500 
 13 C       -1.5320     4.2720    -0.3910 C.2   1 <1>   0.5690 
 14 C       -0.7390    -3.9420     1.1630 C.ar  1 <1>  -0.1500 
 15 O       -2.1790     4.8150    -1.2510 O.2   1 <1>  -0.5700 
 16 N       -0.3060     4.7750    -0.0120 N.am  1 <1>  -0.6600 
 17 C        0.5380     4.2420     1.1300 C.3   1 <1>   0.2200 
 18 C        0.2360     5.9420    -0.7900 C.3   1 <1>   0.1400 
 19 C        1.0980     5.3540     2.0340 C.3   1 <1>   0.1200 
 20 C        1.6810     3.3400     0.6030 C.3   1 <1>   0.3430 
 21 C        1.7680     6.1100    -0.7690 C.3   1 <1>  -0.0800 
 22 O        2.3260     5.8120     1.5570 O.3   1 <1>  -0.5600 
 23 N        1.9460     3.5550    -0.8610 N.4   1 <1>  -0.9590 
 24 C        2.2620     6.7490     0.5370 C.3   1 <1>   0.1200 
 25 C        2.5970     4.8690    -1.1650 C.3   1 <1>   0.3430 
 26 C        2.6960     2.4040    -1.4390 C.3   1 <1>   0.2630 
 27 H       -4.1480     0.2560    -0.4980 H     1 <1>   0.0600 
 28 H       -1.4580     2.1350    -1.7070 H     1 <1>   0.0800 
 29 H       -3.1780     2.0760    -1.4860 H     1 <1>   0.0800 
 30 H        1.3760    -1.4160     0.4600 H     1 <1>   0.1500 
 31 H       -1.5480     2.5780     0.9560 H     1 <1>   0.0800 
 32 H       -3.1080     3.2010     0.5350 H     1 <1>   0.0800 
 33 H       -2.8650    -3.8380     0.9820 H     1 <1>   0.1500 
 34 H        1.3860    -3.7490     1.2410 H     1 <1>   0.1500 
 35 H       -0.7330    -4.9630     1.5040 H     1 <1>   0.1500 
 36 H       -0.0730     3.6540     1.7850 H     1 <1>   0.0800 
 37 H       -0.0680     5.8420    -1.8200 H     1 <1>   0.0800 
 38 H       -0.2290     6.8410    -0.4200 H     1 <1>   0.0800 
 39 H        1.2880     4.9480     3.0120 H     1 <1>   0.0800 
 40 H        0.4070     6.1740     2.1410 H     1 <1>   0.0800 
 41 H        1.3950     2.3150     0.7650 H     1 <1>   0.0800 
 42 H        2.5770     3.5150     1.1750 H     1 <1>   0.0800 
 43 H        1.9820     6.8520    -1.5180 H     1 <1>   0.0800 
 44 H        1.0020     3.5870    -1.2800 H     1 <1>   0.4500 
 45 H        1.6320     7.5670     0.8480 H     1 <1>   0.0800 
 46 H        3.2600     7.1310     0.4040 H     1 <1>   0.0800 
 47 H        3.5560     4.9180    -0.6740 H     1 <1>   0.0800 
 48 H        2.7750     4.9170    -2.2270 H     1 <1>   0.0800 
 49 H        3.6750     2.3340    -0.9940 H     1 <1>   0.0800 
 50 H        2.8060     2.5250    -2.5040 H     1 <1>   0.0800 
 51 H        2.1660     1.4840    -1.2540 H     1 <1>   0.0800 
@<TRIPOS>BOND
  1   1   2  2   
  2   2   3  am  
  3   2   4  1   
  4   3   5  1   
  5   3   6  1   
  6   4   7  ar  
  7   4   8  ar  
  8   5   9  2   
  9   5  27  1   
 10   6  10  1   
 11   6  28  1   
 12   6  29  1   
 13   7   9  1   
 14   7  11  ar  
 15   8  12  ar  
 16   8  30  1   
 17  10  13  1   
 18  10  31  1   
 19  10  32  1   
 20  11  14  ar  
 21  11  33  1   
 22  12  14  ar  
 23  12  34  1   
 24  13  15  2   
 25  13  16  am  
 26  14  35  1   
 27  16  17  1   
 28  16  18  1   
 29  17  19  1   
 30  17  20  1   
 31  17  36  1   
 32  18  21  1   
 33  18  37  1   
 34  18  38  1   
 35  19  22  1   
 36  19  39  1   
 37  19  40  1   
 38  20  23  1   
 39  20  41  1   
 40  20  42  1   
 41  21  24  1   
 42  21  25  1   
 43  21  43  1   
 44  22  24  1   
 45  23  25  1   
 46  23  26  1   
 47  23  44  1   
 48  24  45  1   
 49  24  46  1   
 50  25  47  1   
 51  25  48  1   
 52  26  49  1   
 53  26  50  1   
 54  26  51  1   
@<TRIPOS>SUBSTRUCTURE
  1 ****   1 GROUP 4 **** **** 0

# MOE 2024.06 (io_trps.svl 2023.06)
