@<TRIPOS>MOLECULE
NONAME
51 52 1 0 0 
SMALL
USER_CHARGES


@<TRIPOS>ATOM
  1 O        2.3090     0.8920     2.9620 O.co2 1 <1>  -0.9000 
  2 C        2.3630     0.1820     1.9540 C.2   1 <1>   0.9060 
  3 O        2.2250    -1.0480     2.0010 O.co2 1 <1>  -0.9000 
  4 C        2.7370     0.8100     0.6040 C.3   1 <1>  -0.1060 
  5 C        4.0770     0.1340     0.2300 C.3   1 <1>   0.2000 
  6 C        3.0220     2.3310     0.7510 C.3   1 <1>  -0.1600 
  7 C        1.6420     0.5400    -0.4860 C.3   1 <1>  -0.1600 
  8 O        3.8680    -1.1980    -0.0680 O.3   1 <1>  -0.6800 
  9 C        4.7680     0.7860    -0.9740 C.3   1 <1>   0.3430 
 10 C        3.6230     2.9380    -0.5110 C.3   1 <1>   0.3430 
 11 C        0.3390     1.3630    -0.4280 C.3   1 <1>  -0.1600 
 12 N        4.9260     2.2700    -0.8040 N.4   1 <1>  -0.9590 
 13 C       -0.4470     1.1790     0.8740 C.3   1 <1>  -0.2400 
 14 C        5.6200     2.8790    -1.9650 C.3   1 <1>   0.4860 
 15 C        5.9220     4.3300    -1.6480 C.ar  1 <1>  -0.1440 
 16 C        6.8490     4.6500    -0.6680 C.ar  1 <1>  -0.1500 
 17 C        5.2680     5.3510    -2.3240 C.ar  1 <1>  -0.1500 
 18 C        7.1160     5.9710    -0.3500 C.ar  1 <1>   0.0820 
 19 C        5.5360     6.6740    -2.0160 C.ar  1 <1>  -0.1500 
 20 O        8.0250     6.1780     0.6320 O.3   1 <1>  -0.3620 
 21 C        6.4550     6.9880    -1.0310 C.ar  1 <1>  -0.1500 
 22 C        8.3460     7.4770     1.0760 C.3   1 <1>   0.2580 
 23 C        9.3490     7.3480     2.2050 C.2   1 <1>  -0.2880 
 24 C        9.1810     7.8100     3.4480 C.2   1 <1>  -0.3000 
 25 H        4.7400     0.1610     1.0790 H     1 <1>   0.0800 
 26 H        3.7010     2.4970     1.5710 H     1 <1>   0.0800 
 27 H        2.1190     2.8510     1.0110 H     1 <1>   0.0800 
 28 H        2.0610     0.6840    -1.4650 H     1 <1>   0.0800 
 29 H        1.3650    -0.5000    -0.4330 H     1 <1>   0.0800 
 30 H        3.2570    -1.5420     0.6520 H     1 <1>   0.4000 
 31 H        4.1740     0.5850    -1.8490 H     1 <1>   0.0800 
 32 H        5.7330     0.3240    -1.1020 H     1 <1>   0.0800 
 33 H        3.7750     3.9950    -0.3560 H     1 <1>   0.0800 
 34 H        2.9410     2.8060    -1.3350 H     1 <1>   0.0800 
 35 H        0.5360     2.4080    -0.5830 H     1 <1>   0.0800 
 36 H       -0.2910     1.0390    -1.2400 H     1 <1>   0.0800 
 37 H        5.5140     2.4320     0.0240 H     1 <1>   0.4500 
 38 H        0.0640     1.6330     1.7040 H     1 <1>   0.0800 
 39 H       -0.5780     0.1320     1.0900 H     1 <1>   0.0800 
 40 H       -1.4170     1.6350     0.7900 H     1 <1>   0.0800 
 41 H        6.5450     2.3590    -2.1580 H     1 <1>   0.0800 
 42 H        5.0010     2.8130    -2.8440 H     1 <1>   0.0800 
 43 H        7.3850     3.8880    -0.1310 H     1 <1>   0.1500 
 44 H        4.5480     5.1330    -3.0960 H     1 <1>   0.1500 
 45 H        5.0290     7.4640    -2.5450 H     1 <1>   0.1500 
 46 H        6.6420     8.0240    -0.8130 H     1 <1>   0.1500 
 47 H        8.7710     8.0240     0.2530 H     1 <1>   0.0800 
 48 H        7.4450     7.9550     1.4180 H     1 <1>   0.0800 
 49 H       10.2390     6.8280     1.8950 H     1 <1>   0.1500 
 50 H        9.9130     7.7010     4.2300 H     1 <1>   0.1500 
 51 H        8.3040     8.3310     3.7920 H     1 <1>   0.1500 
@<TRIPOS>BOND
  1   1   2  ar  
  2   2   3  ar  
  3   2   4  1   
  4   4   5  1   
  5   4   6  1   
  6   4   7  1   
  7   5   8  1   
  8   5   9  1   
  9   5  25  1   
 10   6  10  1   
 11   6  26  1   
 12   6  27  1   
 13   7  11  1   
 14   7  28  1   
 15   7  29  1   
 16   8  30  1   
 17   9  12  1   
 18   9  31  1   
 19   9  32  1   
 20  10  12  1   
 21  10  33  1   
 22  10  34  1   
 23  11  13  1   
 24  11  35  1   
 25  11  36  1   
 26  12  14  1   
 27  12  37  1   
 28  13  38  1   
 29  13  39  1   
 30  13  40  1   
 31  14  15  1   
 32  14  41  1   
 33  14  42  1   
 34  15  16  ar  
 35  15  17  ar  
 36  16  18  ar  
 37  16  43  1   
 38  17  19  ar  
 39  17  44  1   
 40  18  20  1   
 41  18  21  ar  
 42  19  21  ar  
 43  19  45  1   
 44  20  22  1   
 45  21  46  1   
 46  22  23  1   
 47  22  47  1   
 48  22  48  1   
 49  23  24  2   
 50  23  49  1   
 51  24  50  1   
 52  24  51  1   
@<TRIPOS>SUBSTRUCTURE
  1 ****  10 GROUP 4 **** **** 0

# MOE 2024.06 (io_trps.svl 2023.06)
