@<TRIPOS>MOLECULE
NONAME
43 45 1 0 0 
SMALL
USER_CHARGES


@<TRIPOS>ATOM
  1 S       -0.3770    -0.4310     0.6850 S.o2  1 <1>   1.5010 
  2 O        0.0550    -1.6200     1.3820 O.2   1 <1>  -0.6500 
  3 O       -1.5910     0.2380     1.0930 O.2   1 <1>  -0.6500 
  4 N       -0.7050    -0.8270    -0.9140 N.am  1 <1>  -0.9140 
  5 C        0.9950     0.7410     0.5380 C.2   1 <1>  -0.0630 
  6 C       -1.1400    -2.1880    -1.2500 C.3   1 <1>   0.2760 
  7 C        0.9420     2.0280     0.1200 C.2   1 <1>  -0.1400 
  8 C        2.3380     0.3340     0.8540 C.2   1 <1>  -0.1500 
  9 C       -2.2680    -2.7670    -0.3850 C.3   1 <1>  -0.0800 
 10 C       -0.0360    -3.2490    -1.1980 C.3   1 <1>   0.1200 
 11 S        2.5340     2.7640     0.1130 S.3   1 <1>  -0.0800 
 12 C       -0.1950     2.9270    -0.3290 C.3   1 <1>  -0.0600 
 13 C        3.2720     1.2860     0.6840 C.2   1 <1>  -0.1400 
 14 C       -1.6710    -4.0900     0.1070 C.3   1 <1>   0.1200 
 15 C       -3.5540    -2.9780    -1.2030 C.3   1 <1>  -0.0160 
 16 O       -0.6880    -4.4180    -0.8180 O.3   1 <1>  -0.5600 
 17 C        4.7720     1.2930     0.8930 C.3   1 <1>  -0.0600 
 18 C       -4.6790    -3.5340    -0.3440 C.ar  1 <1>  -0.1430 
 19 C       -5.1320    -4.8310    -0.4780 C.ar  1 <1>  -0.1500 
 20 C       -5.3080    -2.7660     0.6160 C.ar  1 <1>  -0.1500 
 21 C       -6.1590    -5.2850     0.3310 C.ar  1 <1>   0.1600 
 22 C       -6.3260    -3.3180     1.3750 C.ar  1 <1>   0.1600 
 23 N       -6.7680    -4.5600     1.2560 N.ar  1 <1>  -0.6200 
 24 H       -1.4720    -0.1990    -1.1390 H     1 <1>   0.4200 
 25 H       -1.4690    -2.1640    -2.2750 H     1 <1>   0.0800 
 26 H        2.5340    -0.6670     1.2000 H     1 <1>   0.1500 
 27 H       -2.5030    -2.1590     0.4680 H     1 <1>   0.0800 
 28 H        0.7160    -3.0330    -0.4620 H     1 <1>   0.0800 
 29 H        0.4190    -3.4050    -2.1600 H     1 <1>   0.0800 
 30 H       -1.1360     2.4100    -0.3000 H     1 <1>   0.0800 
 31 H       -0.0170     3.2660    -1.3330 H     1 <1>   0.0800 
 32 H       -0.2570     3.7830     0.3190 H     1 <1>   0.0800 
 33 H       -2.3850    -4.8920     0.1660 H     1 <1>   0.0800 
 34 H       -1.1930    -3.9620     1.0650 H     1 <1>   0.0800 
 35 H       -3.3570    -3.6490    -2.0230 H     1 <1>   0.0800 
 36 H       -3.8740    -2.0390    -1.6190 H     1 <1>   0.0800 
 37 H        5.1020     0.3330     1.2460 H     1 <1>   0.0800 
 38 H        5.0360     2.0410     1.6190 H     1 <1>   0.0800 
 39 H        5.2690     1.5150    -0.0340 H     1 <1>   0.0800 
 40 H       -4.6950    -5.4950    -1.2030 H     1 <1>   0.1500 
 41 H       -5.0150    -1.7450     0.7840 H     1 <1>   0.1500 
 42 H       -6.4990    -6.3000     0.2130 H     1 <1>   0.1500 
 43 H       -6.8030    -2.7040     2.1200 H     1 <1>   0.1500 
@<TRIPOS>BOND
  1   1   2  2   
  2   1   3  2   
  3   1   4  am  
  4   1   5  1   
  5   4   6  1   
  6   4  24  1   
  7   5   7  2   
  8   5   8  1   
  9   6   9  1   
 10   6  10  1   
 11   6  25  1   
 12   7  11  1   
 13   7  12  1   
 14   8  13  2   
 15   8  26  1   
 16   9  14  1   
 17   9  15  1   
 18   9  27  1   
 19  10  16  1   
 20  10  28  1   
 21  10  29  1   
 22  11  13  1   
 23  12  30  1   
 24  12  31  1   
 25  12  32  1   
 26  13  17  1   
 27  14  16  1   
 28  14  33  1   
 29  14  34  1   
 30  15  18  1   
 31  15  35  1   
 32  15  36  1   
 33  17  37  1   
 34  17  38  1   
 35  17  39  1   
 36  18  19  ar  
 37  18  20  ar  
 38  19  21  ar  
 39  19  40  1   
 40  20  22  ar  
 41  20  41  1   
 42  21  23  ar  
 43  21  42  1   
 44  22  23  ar  
 45  22  43  1   
@<TRIPOS>SUBSTRUCTURE
  1 ****   4 GROUP 4 **** **** 0

# MOE 2024.06 (io_trps.svl 2023.06)
