@<TRIPOS>MOLECULE
NONAME
53 55 1 0 0 
SMALL
USER_CHARGES


@<TRIPOS>ATOM
  1 O        0.9380    -1.2370     0.8450 O.co2 1 <1>  -0.9000 
  2 C        2.0050    -1.0900     0.2570 C.2   1 <1>   0.9060 
  3 O        2.4990    -1.9290    -0.5070 O.co2 1 <1>  -0.9000 
  4 C        2.7810     0.1850     0.4950 C.3   1 <1>  -0.1860 
  5 C        4.2170    -0.1560     0.9110 C.3   1 <1>   0.2000 
  6 C        2.7380     1.1210    -0.7390 C.3   1 <1>  -0.1600 
  7 O        4.8220    -0.8550    -0.1290 O.3   1 <1>  -0.6800 
  8 C        5.0110     1.1400     1.0880 C.3   1 <1>   0.3430 
  9 C        3.7000     2.3070    -0.6260 C.3   1 <1>   0.3430 
 10 N        5.0560     1.7990    -0.2610 N.4   1 <1>  -0.9590 
 11 C        6.1790     2.7150    -0.5610 C.3   1 <1>   0.4230 
 12 C        7.4880     1.9280    -0.6270 C.3   1 <1>  -0.1600 
 13 C        6.2860     3.8520     0.4590 C.3   1 <1>  -0.1600 
 14 C        8.6550     2.8550    -0.9590 C.3   1 <1>   0.3430 
 15 C        7.4690     4.7600     0.1220 C.3   1 <1>   0.3430 
 16 N        8.7310     3.9610     0.0430 N.4   1 <1>  -0.9590 
 17 C        9.9160     4.8300    -0.2730 C.3   1 <1>   0.3430 
 18 C       10.2800     5.7660     0.8810 C.3   1 <1>  -0.0170 
 19 C       11.5440     6.5110     0.5020 C.ar  1 <1>  -0.1440 
 20 C       12.7870     5.9830     0.8160 C.ar  1 <1>  -0.1500 
 21 C       11.4680     7.7210    -0.1730 C.ar  1 <1>  -0.1500 
 22 C       13.9420     6.6520     0.4510 C.ar  1 <1>  -0.1500 
 23 C       12.6240     8.3890    -0.5380 C.ar  1 <1>  -0.1500 
 24 C       13.8610     7.8550    -0.2280 C.ar  1 <1>  -0.1500 
 25 H        2.3040     0.6840     1.3180 H     1 <1>   0.0800 
 26 H        4.2300    -0.7710     1.7970 H     1 <1>   0.0800 
 27 H        1.7320     1.4830    -0.8700 H     1 <1>   0.0800 
 28 H        2.9810     0.5550    -1.6230 H     1 <1>   0.0800 
 29 H        4.1270    -1.5240    -0.4380 H     1 <1>   0.4000 
 30 H        5.9980     0.8900     1.4340 H     1 <1>   0.0800 
 31 H        4.5310     1.7750     1.8140 H     1 <1>   0.0800 
 32 H        3.3450     2.9900     0.1290 H     1 <1>   0.0800 
 33 H        3.7310     2.8230    -1.5720 H     1 <1>   0.0800 
 34 H        5.1600     0.9470    -0.8550 H     1 <1>   0.4500 
 35 H        6.0070     3.1480    -1.5350 H     1 <1>   0.0800 
 36 H        7.6940     1.4300     0.3030 H     1 <1>   0.0800 
 37 H        7.4180     1.1790    -1.3970 H     1 <1>   0.0800 
 38 H        5.3870     4.4420     0.4400 H     1 <1>   0.0800 
 39 H        6.4170     3.4690     1.4550 H     1 <1>   0.0800 
 40 H        8.5220     3.2670    -1.9470 H     1 <1>   0.0800 
 41 H        9.5750     2.2900    -0.9550 H     1 <1>   0.0800 
 42 H        7.5590     5.5220     0.8820 H     1 <1>   0.0800 
 43 H        7.2920     5.2520    -0.8220 H     1 <1>   0.0800 
 44 H        8.9170     3.5410     0.9670 H     1 <1>   0.4500 
 45 H       10.7740     4.2090    -0.4760 H     1 <1>   0.0800 
 46 H        9.7240     5.4160    -1.1580 H     1 <1>   0.0800 
 47 H        9.4970     6.4790     1.0650 H     1 <1>   0.0800 
 48 H       10.4580     5.2040     1.7810 H     1 <1>   0.0800 
 49 H       12.8760     5.0510     1.3470 H     1 <1>   0.1500 
 50 H       10.5180     8.1600    -0.4210 H     1 <1>   0.1500 
 51 H       14.9060     6.2410     0.6960 H     1 <1>   0.1500 
 52 H       12.5630     9.3280    -1.0610 H     1 <1>   0.1500 
 53 H       14.7600     8.3760    -0.5100 H     1 <1>   0.1500 
@<TRIPOS>BOND
  1   1   2  ar  
  2   2   3  ar  
  3   2   4  1   
  4   4   5  1   
  5   4   6  1   
  6   4  25  1   
  7   5   7  1   
  8   5   8  1   
  9   5  26  1   
 10   6   9  1   
 11   6  27  1   
 12   6  28  1   
 13   7  29  1   
 14   8  10  1   
 15   8  30  1   
 16   8  31  1   
 17   9  10  1   
 18   9  32  1   
 19   9  33  1   
 20  10  11  1   
 21  10  34  1   
 22  11  12  1   
 23  11  13  1   
 24  11  35  1   
 25  12  14  1   
 26  12  36  1   
 27  12  37  1   
 28  13  15  1   
 29  13  38  1   
 30  13  39  1   
 31  14  16  1   
 32  14  40  1   
 33  14  41  1   
 34  15  16  1   
 35  15  42  1   
 36  15  43  1   
 37  16  17  1   
 38  16  44  1   
 39  17  18  1   
 40  17  45  1   
 41  17  46  1   
 42  18  19  1   
 43  18  47  1   
 44  18  48  1   
 45  19  20  ar  
 46  19  21  ar  
 47  20  22  ar  
 48  20  49  1   
 49  21  23  ar  
 50  21  50  1   
 51  22  24  ar  
 52  22  51  1   
 53  23  24  ar  
 54  23  52  1   
 55  24  53  1   
@<TRIPOS>SUBSTRUCTURE
  1 ****  13 GROUP 4 **** **** 0

# MOE 2024.06 (io_trps.svl 2023.06)
