@<TRIPOS>MOLECULE
NONAME
50 52 1 0 0 
SMALL
USER_CHARGES


@<TRIPOS>ATOM
  1 O        1.4060    -0.6220    -2.3570 O.2   1 <1>  -0.5700 
  2 C        1.7910    -0.0020    -1.3800 C.2   1 <1>   0.5440 
  3 N        1.4030     1.3110    -1.2450 N.am  1 <1>  -0.6600 
  4 C        2.6690    -0.6430    -0.4360 C.ar  1 <1>   0.0860 
  5 C        0.5060     1.9900    -2.2010 C.3   1 <1>   0.1400 
  6 C        1.7470     2.1910    -0.1080 C.3   1 <1>   0.1400 
  7 C        2.2710    -1.0010     0.8700 C.ar  1 <1>   0.4100 
  8 C        3.9730    -0.9210    -0.8230 C.ar  1 <1>  -0.1500 
  9 C        0.4950     3.4470    -1.7510 C.3   1 <1>  -0.1600 
 10 C        0.8230     3.3940    -0.2610 C.3   1 <1>  -0.1600 
 11 N        3.1080    -1.5510     1.7550 N.ar  1 <1>  -0.6200 
 12 N        0.9710    -0.8220     1.3390 N.pl3 1 <1>  -0.8380 
 13 C        4.8180    -1.5050     0.0900 C.ar  1 <1>  -0.1500 
 14 C        4.3390    -1.7900     1.3530 C.ar  1 <1>   0.1600 
 15 C       -0.2040    -1.3570     0.5880 C.3   1 <1>   0.2090 
 16 C        0.7240    -0.6340     2.7970 C.3   1 <1>   0.1290 
 17 C        0.0190    -2.8230     0.2110 C.3   1 <1>  -0.1600 
 18 C       -1.2490    -3.4390    -0.4030 C.3   1 <1>  -0.1600 
 19 C       -1.0210    -4.8740    -0.8860 C.3   1 <1>   0.2000 
 20 O       -2.2130    -5.3660    -1.3920 O.3   1 <1>  -0.5600 
 21 C       -0.6410    -5.8700     0.2010 C.3   1 <1>  -0.1600 
 22 C       -2.1800    -6.7560    -1.4180 C.3   1 <1>   0.1200 
 23 C       -1.2080    -7.1820    -0.3200 C.3   1 <1>  -0.1600 
 24 H       -0.4770     1.5580    -2.1220 H     1 <1>   0.0800 
 25 H        0.8680     1.8820    -3.2090 H     1 <1>   0.0800 
 26 H        2.7770     2.4910    -0.1940 H     1 <1>   0.0800 
 27 H        1.5880     1.6960     0.8350 H     1 <1>   0.0800 
 28 H        4.3020    -0.6810    -1.8200 H     1 <1>   0.1500 
 29 H       -0.4510     3.9190    -1.9490 H     1 <1>   0.0800 
 30 H        1.2690     3.9780    -2.2770 H     1 <1>   0.0800 
 31 H        1.2840     4.2990     0.0920 H     1 <1>   0.0800 
 32 H       -0.0750     3.2140     0.3040 H     1 <1>   0.0800 
 33 H        5.8360    -1.7360    -0.1700 H     1 <1>   0.1500 
 34 H        5.0050    -2.2420     2.0690 H     1 <1>   0.1500 
 35 H       -0.3810    -0.7680    -0.2940 H     1 <1>   0.0800 
 36 H       -1.0840    -1.2820     1.2030 H     1 <1>   0.0800 
 37 H        1.5580    -0.1300     3.2540 H     1 <1>   0.0800 
 38 H        0.5970    -1.5920     3.2700 H     1 <1>   0.0800 
 39 H       -0.1590    -0.0380     2.9480 H     1 <1>   0.0800 
 40 H        0.3010    -3.3700     1.0930 H     1 <1>   0.0800 
 41 H        0.8190    -2.8870    -0.5060 H     1 <1>   0.0800 
 42 H       -1.5540    -2.8470    -1.2480 H     1 <1>   0.0800 
 43 H       -2.0420    -3.4330     0.3240 H     1 <1>   0.0800 
 44 H       -0.2970    -4.8940    -1.6840 H     1 <1>   0.0800 
 45 H       -1.1220    -5.6020     1.1260 H     1 <1>   0.0800 
 46 H        0.4230    -5.9080     0.3510 H     1 <1>   0.0800 
 47 H       -1.8310    -7.0630    -2.3900 H     1 <1>   0.0800 
 48 H       -3.1760    -7.1260    -1.2480 H     1 <1>   0.0800 
 49 H       -1.7150    -7.7280     0.4560 H     1 <1>   0.0800 
 50 H       -0.4350    -7.8010    -0.7390 H     1 <1>   0.0800 
@<TRIPOS>BOND
  1   1   2  2   
  2   2   3  am  
  3   2   4  1   
  4   3   5  1   
  5   3   6  1   
  6   4   7  ar  
  7   4   8  ar  
  8   5   9  1   
  9   5  24  1   
 10   5  25  1   
 11   6  10  1   
 12   6  26  1   
 13   6  27  1   
 14   7  11  ar  
 15   7  12  1   
 16   8  13  ar  
 17   8  28  1   
 18   9  10  1   
 19   9  29  1   
 20   9  30  1   
 21  10  31  1   
 22  10  32  1   
 23  11  14  ar  
 24  12  15  1   
 25  12  16  1   
 26  13  14  ar  
 27  13  33  1   
 28  14  34  1   
 29  15  17  1   
 30  15  35  1   
 31  15  36  1   
 32  16  37  1   
 33  16  38  1   
 34  16  39  1   
 35  17  18  1   
 36  17  40  1   
 37  17  41  1   
 38  18  19  1   
 39  18  42  1   
 40  18  43  1   
 41  19  20  1   
 42  19  21  1   
 43  19  44  1   
 44  20  22  1   
 45  21  23  1   
 46  21  45  1   
 47  21  46  1   
 48  22  23  1   
 49  22  47  1   
 50  22  48  1   
 51  23  49  1   
 52  23  50  1   
@<TRIPOS>SUBSTRUCTURE
  1 ****  15 GROUP 4 **** **** 0

# MOE 2024.06 (io_trps.svl 2023.06)
