@<TRIPOS>MOLECULE
NONAME
42 43 1 0 0 
SMALL
USER_CHARGES


@<TRIPOS>ATOM
  1 S        0.4160    -0.0410     0.6140 S.o2  1 <1>   1.3330 
  2 O        1.8310    -0.0160     0.9070 O.2   1 <1>  -0.6500 
  3 O       -0.5430     0.1070     1.6860 O.2   1 <1>  -0.6500 
  4 N        0.0810    -1.4880    -0.2070 N.am  1 <1>  -0.8490 
  5 C        0.0510     1.2090    -0.6170 C.3   1 <1>  -0.0550 
  6 C       -0.3510    -2.5550     0.7010 C.3   1 <1>   0.1160 
  7 C        1.1960    -1.9600    -1.0350 C.3   1 <1>   0.1160 
  8 C        0.1560     2.6440    -0.0750 C.3   1 <1>  -0.0800 
  9 C       -0.2580     3.6840    -1.1130 C.3   1 <1>   0.2000 
 10 C        1.5700     3.0680     0.3300 C.3   1 <1>   0.1400 
 11 O       -1.6350     3.8270    -1.1170 O.3   1 <1>  -0.6800 
 12 C        0.4470     4.9770    -0.7050 C.3   1 <1>   0.1400 
 13 N        1.6010     4.5350     0.1150 N.am  1 <1>  -0.6600 
 14 C        2.5030     5.3660     0.7390 C.2   1 <1>   0.5440 
 15 O        3.3180     4.8780     1.4980 O.2   1 <1>  -0.5700 
 16 C        2.4770     6.7970     0.5520 C.ar  1 <1>   0.0860 
 17 C        2.7770     7.4050    -0.6670 C.ar  1 <1>   0.1900 
 18 C        2.1490     7.6490     1.6100 C.ar  1 <1>  -0.1500 
 19 F        3.1080     6.6620    -1.6880 F     1 <1>  -0.1900 
 20 C        2.7450     8.7720    -0.8630 C.ar  1 <1>  -0.1500 
 21 C        2.1090     9.0220     1.4400 C.ar  1 <1>  -0.1500 
 22 C        2.4030     9.5820     0.2060 C.ar  1 <1>   0.0820 
 23 O        2.3550    10.9100     0.0640 O.3   1 <1>  -0.5330 
 24 H        0.7130     1.0920    -1.4520 H     1 <1>   0.0800 
 25 H       -0.9510     1.0540    -0.9690 H     1 <1>   0.0800 
 26 H       -0.5700    -3.4510     0.1480 H     1 <1>   0.0800 
 27 H       -1.2460    -2.2550     1.2220 H     1 <1>   0.0800 
 28 H        0.4170    -2.7630     1.4270 H     1 <1>   0.0800 
 29 H        0.8970    -2.8280    -1.5990 H     1 <1>   0.0800 
 30 H        2.0410    -2.2180    -0.4170 H     1 <1>   0.0800 
 31 H        1.4970    -1.1930    -1.7270 H     1 <1>   0.0800 
 32 H       -0.4670     2.7440     0.7980 H     1 <1>   0.0800 
 33 H        0.0570     3.4000    -2.1020 H     1 <1>   0.0800 
 34 H        2.3130     2.6090    -0.3000 H     1 <1>   0.0800 
 35 H        1.7790     2.8220     1.3590 H     1 <1>   0.0800 
 36 H       -1.9650     4.0090    -0.2160 H     1 <1>   0.4000 
 37 H       -0.1980     5.5980    -0.1080 H     1 <1>   0.0800 
 38 H        0.7820     5.5120    -1.5760 H     1 <1>   0.0800 
 39 H        1.9300     7.2190     2.5720 H     1 <1>   0.1500 
 40 H        2.9840     9.1830    -1.8260 H     1 <1>   0.1500 
 41 H        1.8530     9.6690     2.2620 H     1 <1>   0.1500 
 42 H        2.5930    11.2290    -0.8250 H     1 <1>   0.4500 
@<TRIPOS>BOND
  1   1   2  2   
  2   1   3  2   
  3   1   4  am  
  4   1   5  1   
  5   4   6  1   
  6   4   7  1   
  7   5   8  1   
  8   5  24  1   
  9   5  25  1   
 10   6  26  1   
 11   6  27  1   
 12   6  28  1   
 13   7  29  1   
 14   7  30  1   
 15   7  31  1   
 16   8   9  1   
 17   8  10  1   
 18   8  32  1   
 19   9  11  1   
 20   9  12  1   
 21   9  33  1   
 22  10  13  1   
 23  10  34  1   
 24  10  35  1   
 25  11  36  1   
 26  12  13  1   
 27  12  37  1   
 28  12  38  1   
 29  13  14  am  
 30  14  15  2   
 31  14  16  1   
 32  16  17  ar  
 33  16  18  ar  
 34  17  19  1   
 35  17  20  ar  
 36  18  21  ar  
 37  18  39  1   
 38  20  22  ar  
 39  20  40  1   
 40  21  22  ar  
 41  21  41  1   
 42  22  23  1   
 43  23  42  1   
@<TRIPOS>SUBSTRUCTURE
  1 ****  13 GROUP 4 **** **** 0

# MOE 2024.06 (io_trps.svl 2023.06)
