@<TRIPOS>MOLECULE
NONAME
53 55 1 0 0 
SMALL
USER_CHARGES


@<TRIPOS>ATOM
  1 O        0.9180    -0.0460     0.2360 O.2   1 <1>  -0.5700 
  2 C        1.9080    -0.7180     0.0540 C.2   1 <1>   0.5690 
  3 N        3.1500    -0.1360    -0.0580 N.am  1 <1>  -0.6600 
  4 C        1.7130    -2.2340    -0.0260 C.3   1 <1>  -0.0190 
  5 C        4.4560    -0.8750    -0.1030 C.3   1 <1>   0.1400 
  6 C        3.2710     1.3510    -0.0860 C.3   1 <1>   0.1400 
  7 C        0.3110    -2.5500    -0.5830 C.3   1 <1>   0.0960 
  8 C        1.9400    -2.8900     1.3540 C.3   1 <1>  -0.2400 
  9 C        5.3510    -0.5380     1.0990 C.3   1 <1>   0.1400 
 10 C        3.5870     1.8710     1.3220 C.3   1 <1>  -0.1600 
 11 N        0.1160    -3.9970    -0.7860 N.pl3 1 <1>   0.3140 
 12 N        5.8840     0.8530     0.9960 N.am  1 <1>  -0.6600 
 13 C        5.0810     1.9090     1.6820 C.3   1 <1>   0.1400 
 14 N        0.7730    -4.6950    -1.7030 N.2   1 <1>  -0.7070 
 15 C       -0.6930    -4.8250    -0.1190 C.2   1 <1>   0.0360 
 16 C        7.0220     1.0820     0.2620 C.2   1 <1>   0.5690 
 17 C        0.3120    -5.8900    -1.5240 C.2   1 <1>   0.3660 
 18 N       -0.5980    -6.0290    -0.5520 N.2   1 <1>  -0.5650 
 19 O        7.5610     0.1890    -0.3490 O.2   1 <1>  -0.5700 
 20 C        7.6300     2.4750     0.1910 C.3   1 <1>  -0.0990 
 21 C        8.9990     2.5240    -0.5050 C.3   1 <1>  -0.0170 
 22 C        9.5310     3.9480    -0.5090 C.ar  1 <1>  -0.1440 
 23 C       10.2550     4.4350     0.5710 C.ar  1 <1>   0.1600 
 24 C        9.2970     4.7840    -1.5820 C.ar  1 <1>  -0.1500 
 25 N       10.7450     5.6610     0.6660 N.ar  1 <1>  -0.6200 
 26 C        9.8030     6.0630    -1.5020 C.ar  1 <1>  -0.1500 
 27 C       10.5080     6.4450    -0.3730 C.ar  1 <1>   0.1600 
 28 H        2.4180    -2.6290    -0.7340 H     1 <1>   0.0800 
 29 H        4.9770    -0.6320    -1.0130 H     1 <1>   0.0800 
 30 H        4.2970    -1.9350    -0.1020 H     1 <1>   0.0800 
 31 H        2.3410     1.7790    -0.4180 H     1 <1>   0.0800 
 32 H        4.0310     1.6500    -0.7880 H     1 <1>   0.0800 
 33 H        0.1810    -2.0620    -1.5320 H     1 <1>   0.0800 
 34 H       -0.4470    -2.1890     0.0890 H     1 <1>   0.0800 
 35 H        1.1950    -2.5540     2.0540 H     1 <1>   0.0800 
 36 H        2.9070    -2.6240     1.7410 H     1 <1>   0.0800 
 37 H        1.8940    -3.9620     1.2820 H     1 <1>   0.0800 
 38 H        6.1760    -1.2290     1.1180 H     1 <1>   0.0800 
 39 H        4.8020    -0.6640     2.0160 H     1 <1>   0.0800 
 40 H        3.0500     1.2850     2.0460 H     1 <1>   0.0800 
 41 H        3.2090     2.8740     1.4040 H     1 <1>   0.0800 
 42 H        5.1930     1.7980     2.7480 H     1 <1>   0.0800 
 43 H        5.4540     2.8820     1.4220 H     1 <1>   0.0800 
 44 H       -1.3350    -4.5010     0.6800 H     1 <1>   0.1500 
 45 H        0.6270    -6.7390    -2.1090 H     1 <1>   0.1500 
 46 H        7.7430     2.8490     1.1920 H     1 <1>   0.0800 
 47 H        6.9500     3.1150    -0.3380 H     1 <1>   0.0800 
 48 H        8.9060     2.1660    -1.5170 H     1 <1>   0.0800 
 49 H        9.6910     1.8770     0.0050 H     1 <1>   0.0800 
 50 H       10.4400     3.7810     1.4050 H     1 <1>   0.1500 
 51 H        8.7440     4.4570    -2.4450 H     1 <1>   0.1500 
 52 H        9.6560     6.7610    -2.3060 H     1 <1>   0.1500 
 53 H       10.8980     7.4470    -0.3220 H     1 <1>   0.1500 
@<TRIPOS>BOND
  1   1   2  2   
  2   2   3  am  
  3   2   4  1   
  4   3   5  1   
  5   3   6  1   
  6   4   7  1   
  7   4   8  1   
  8   4  28  1   
  9   5   9  1   
 10   5  29  1   
 11   5  30  1   
 12   6  10  1   
 13   6  31  1   
 14   6  32  1   
 15   7  11  1   
 16   7  33  1   
 17   7  34  1   
 18   8  35  1   
 19   8  36  1   
 20   8  37  1   
 21   9  12  1   
 22   9  38  1   
 23   9  39  1   
 24  10  13  1   
 25  10  40  1   
 26  10  41  1   
 27  11  14  1   
 28  11  15  1   
 29  12  13  1   
 30  12  16  am  
 31  13  42  1   
 32  13  43  1   
 33  14  17  2   
 34  15  18  2   
 35  15  44  1   
 36  16  19  2   
 37  16  20  1   
 38  17  18  1   
 39  17  45  1   
 40  20  21  1   
 41  20  46  1   
 42  20  47  1   
 43  21  22  1   
 44  21  48  1   
 45  21  49  1   
 46  22  23  ar  
 47  22  24  ar  
 48  23  25  ar  
 49  23  50  1   
 50  24  26  ar  
 51  24  51  1   
 52  25  27  ar  
 53  26  27  ar  
 54  26  52  1   
 55  27  53  1   
@<TRIPOS>SUBSTRUCTURE
  1 ****   5 GROUP 4 **** **** 0

# MOE 2024.06 (io_trps.svl 2023.06)
