@<TRIPOS>MOLECULE
NONAME
37 37 1 0 0 
SMALL
USER_CHARGES


@<TRIPOS>ATOM
  1 S        0.4200     0.0310    -0.0920 S.3   1 <1>  -0.4600 
  2 C        0.2330     1.8130     0.1740 C.3   1 <1>   0.0700 
  3 C       -1.2900    -0.5610    -0.1150 C.3   1 <1>   0.0700 
  4 C        1.6300     2.4130     0.3130 C.3   1 <1>  -0.0990 
  5 C       -1.2500    -2.0690    -0.3450 C.3   1 <1>  -0.2400 
  6 C        1.5510     3.9170     0.4370 C.2   1 <1>   0.5690 
  7 O        0.8790     4.3960     1.3160 O.2   1 <1>  -0.5700 
  8 N        2.2420     4.6800    -0.4460 N.am  1 <1>  -0.7300 
  9 C        2.2250     6.1650    -0.4740 C.3   1 <1>   0.1400 
 10 C        3.3490     6.7250     0.3980 C.3   1 <1>  -0.0170 
 11 C        3.5510     8.2090     0.1380 C.ar  1 <1>   0.1670 
 12 N        2.4890     8.9840     0.2920 N.ar  1 <1>  -0.6200 
 13 C        4.8000     8.6780    -0.2410 C.ar  1 <1>  -0.1500 
 14 C        2.6680    10.2740     0.0650 C.ar  1 <1>   0.1670 
 15 C        4.9790    10.0240    -0.4780 C.ar  1 <1>  -0.1500 
 16 C        3.8770    10.8340    -0.3170 C.ar  1 <1>  -0.1500 
 17 C        1.4470    11.1490     0.2490 C.3   1 <1>  -0.0970 
 18 H       -0.3470     1.9560     1.0700 H     1 <1>   0.0800 
 19 H       -0.2900     2.2160    -0.6760 H     1 <1>   0.0800 
 20 H       -1.8010    -0.0500    -0.9120 H     1 <1>   0.0800 
 21 H       -1.7320    -0.3150     0.8340 H     1 <1>   0.0800 
 22 H        2.2220     2.1460    -0.5430 H     1 <1>   0.0800 
 23 H        2.1020     2.0200     1.1940 H     1 <1>   0.0800 
 24 H       -0.7720    -2.2870    -1.2830 H     1 <1>   0.0800 
 25 H       -2.2500    -2.4640    -0.3650 H     1 <1>   0.0800 
 26 H       -0.7040    -2.5490     0.4470 H     1 <1>   0.0800 
 27 H        2.8090     4.2300    -1.1650 H     1 <1>   0.3700 
 28 H        1.2770     6.5280    -0.1110 H     1 <1>   0.0800 
 29 H        2.3450     6.5020    -1.4890 H     1 <1>   0.0800 
 30 H        4.2600     6.1940     0.1960 H     1 <1>   0.0800 
 31 H        3.0920     6.5860     1.4330 H     1 <1>   0.0800 
 32 H        5.6280     8.0030    -0.3500 H     1 <1>   0.1500 
 33 H        5.9340    10.4230    -0.7730 H     1 <1>   0.1500 
 34 H        3.9580    11.8920    -0.4870 H     1 <1>   0.1500 
 35 H        1.0890    11.0530     1.2580 H     1 <1>   0.0800 
 36 H        0.6730    10.8280    -0.4240 H     1 <1>   0.0800 
 37 H        1.6730    12.1800     0.0550 H     1 <1>   0.0800 
@<TRIPOS>BOND
  1   1   2  1   
  2   1   3  1   
  3   2   4  1   
  4   2  18  1   
  5   2  19  1   
  6   3   5  1   
  7   3  20  1   
  8   3  21  1   
  9   4   6  1   
 10   4  22  1   
 11   4  23  1   
 12   5  24  1   
 13   5  25  1   
 14   5  26  1   
 15   6   7  2   
 16   6   8  am  
 17   8   9  1   
 18   8  27  1   
 19   9  10  1   
 20   9  28  1   
 21   9  29  1   
 22  10  11  1   
 23  10  30  1   
 24  10  31  1   
 25  11  12  ar  
 26  11  13  ar  
 27  12  14  ar  
 28  13  15  ar  
 29  13  32  1   
 30  14  16  ar  
 31  14  17  1   
 32  15  16  ar  
 33  15  33  1   
 34  16  34  1   
 35  17  35  1   
 36  17  36  1   
 37  17  37  1   
@<TRIPOS>SUBSTRUCTURE
  1 ****   9 GROUP 4 **** **** 0

# MOE 2024.06 (io_trps.svl 2023.06)
