@<TRIPOS>MOLECULE
NONAME
42 44 1 0 0 
SMALL
USER_CHARGES


@<TRIPOS>ATOM
  1 O       -0.4220     0.1420     0.2570 O.2   1 <1>  -0.5700 
  2 C       -1.4830     0.7380     0.2720 C.2   1 <1>   0.7160 
  3 N       -2.6490     0.0090     0.1980 N.am  1 <1>  -0.6600 
  4 C       -1.5040     2.1810     0.3470 C.2   1 <1>  -0.0860 
  5 C       -3.9590     0.5670    -0.2190 C.3   1 <1>   0.1400 
  6 C       -2.6490    -1.4700     0.0730 C.3   1 <1>   0.1400 
  7 C       -0.7210     3.0930    -0.2950 C.2   1 <1>  -0.0400 
  8 C       -2.3650     2.9720     1.1380 C.2   1 <1>  -0.1500 
  9 C       -4.7390    -0.6260    -0.7710 C.3   1 <1>   0.2000 
 10 C       -4.1170    -1.8580    -0.1190 C.3   1 <1>  -0.0800 
 11 O       -1.0540     4.3180     0.0320 O.3   1 <1>  -0.2800 
 12 C        0.4140     2.9020    -1.2800 C.3   1 <1>  -0.0600 
 13 C       -2.0410     4.2570     0.8970 C.2   1 <1>  -0.0400 
 14 O       -6.0850    -0.5460    -0.4510 O.3   1 <1>  -0.6800 
 15 C       -4.3280    -3.1370    -0.9470 C.3   1 <1>  -0.0170 
 16 C       -2.6050     5.5490     1.4440 C.3   1 <1>  -0.0600 
 17 C       -3.7450    -4.3580    -0.2550 C.ar  1 <1>   0.1670 
 18 N       -2.4460    -4.5590    -0.4130 N.ar  1 <1>  -0.6200 
 19 C       -4.5720    -5.1850     0.4910 C.ar  1 <1>  -0.1500 
 20 C       -1.9500    -5.6230     0.1970 C.ar  1 <1>   0.1600 
 21 C       -4.0420    -6.2900     1.1210 C.ar  1 <1>  -0.1500 
 22 C       -2.6910    -6.5070     0.9640 C.ar  1 <1>  -0.1500 
 23 H       -4.4560     0.9820     0.6390 H     1 <1>   0.0800 
 24 H       -3.8280     1.3220    -0.9760 H     1 <1>   0.0800 
 25 H       -2.0610    -1.7520    -0.7850 H     1 <1>   0.0800 
 26 H       -2.2280    -1.9310     0.9510 H     1 <1>   0.0800 
 27 H       -3.1170     2.5870     1.8030 H     1 <1>   0.1500 
 28 H       -4.6430    -0.6590    -1.8430 H     1 <1>   0.0800 
 29 H       -4.5380    -1.9960     0.8620 H     1 <1>   0.0800 
 30 H        0.5740     1.8590    -1.4800 H     1 <1>   0.0800 
 31 H        1.3170     3.3190    -0.8730 H     1 <1>   0.0800 
 32 H        0.1820     3.4030    -2.2020 H     1 <1>   0.0800 
 33 H       -6.2070    -0.5590     0.5170 H     1 <1>   0.4000 
 34 H       -3.8680    -3.0300    -1.9140 H     1 <1>   0.0800 
 35 H       -5.3810    -3.2850    -1.1060 H     1 <1>   0.0800 
 36 H       -3.3990     5.3450     2.1390 H     1 <1>   0.0800 
 37 H       -2.9860     6.1480     0.6380 H     1 <1>   0.0800 
 38 H       -1.8290     6.0950     1.9480 H     1 <1>   0.0800 
 39 H       -5.6200    -4.9680     0.5800 H     1 <1>   0.1500 
 40 H       -0.8950    -5.8010     0.0800 H     1 <1>   0.1500 
 41 H       -4.6550    -6.9530     1.7080 H     1 <1>   0.1500 
 42 H       -2.2130    -7.3500     1.4280 H     1 <1>   0.1500 
@<TRIPOS>BOND
  1   1   2  2   
  2   2   3  am  
  3   2   4  1   
  4   3   5  1   
  5   3   6  1   
  6   4   7  2   
  7   4   8  1   
  8   5   9  1   
  9   5  23  1   
 10   5  24  1   
 11   6  10  1   
 12   6  25  1   
 13   6  26  1   
 14   7  11  1   
 15   7  12  1   
 16   8  13  2   
 17   8  27  1   
 18   9  10  1   
 19   9  14  1   
 20   9  28  1   
 21  10  15  1   
 22  10  29  1   
 23  11  13  1   
 24  12  30  1   
 25  12  31  1   
 26  12  32  1   
 27  13  16  1   
 28  14  33  1   
 29  15  17  1   
 30  15  34  1   
 31  15  35  1   
 32  16  36  1   
 33  16  37  1   
 34  16  38  1   
 35  17  18  ar  
 36  17  19  ar  
 37  18  20  ar  
 38  19  21  ar  
 39  19  39  1   
 40  20  22  ar  
 41  20  40  1   
 42  21  22  ar  
 43  21  41  1   
 44  22  42  1   
@<TRIPOS>SUBSTRUCTURE
  1 ****   3 GROUP 4 **** **** 0

# MOE 2024.06 (io_trps.svl 2023.06)
