@<TRIPOS>MOLECULE
NONAME
47 50 1 0 0 
SMALL
USER_CHARGES


@<TRIPOS>ATOM
  1 S        0.5540     0.4260     1.0160 S.3   1 <1>  -0.0800 
  2 C        1.3110    -0.3960    -0.3450 C.2   1 <1>   0.4620 
  3 C       -0.1550    -1.0750     1.5160 C.2   1 <1>  -0.1100 
  4 N        1.0410    -1.6510    -0.3880 N.2   1 <1>  -0.5650 
  5 N        2.1040     0.3170    -1.2240 N.pl3 1 <1>  -0.8220 
  6 C        0.2060    -2.0570     0.6640 C.2   1 <1>   0.1410 
  7 C        2.2770     1.7910    -1.1560 C.3   1 <1>   0.2090 
  8 C        2.8060    -0.3640    -2.3470 C.3   1 <1>   0.1290 
  9 C       -0.2060    -3.4490     0.7770 C.2   1 <1>   0.7160 
 10 C        3.4870     2.1220    -0.2740 C.3   1 <1>  -0.1600 
 11 O       -0.9250    -3.8410     1.6740 O.2   1 <1>  -0.5700 
 12 N        0.2020    -4.3680    -0.1260 N.am  1 <1>  -0.8000 
 13 C        3.7400     3.6280    -0.0370 C.3   1 <1>   0.0000 
 14 C        2.5610     4.2930     0.7130 C.3   1 <1>  -0.1600 
 15 C        3.9720     4.3880    -1.3650 C.3   1 <1>  -0.1600 
 16 C        5.0110     3.7780     0.8340 C.3   1 <1>  -0.1600 
 17 C        2.8570     5.7800     0.9890 C.3   1 <1>  -0.0800 
 18 C        4.2740     5.8750    -1.0980 C.3   1 <1>  -0.0800 
 19 C        5.3210     5.2600     1.1120 C.3   1 <1>  -0.0800 
 20 C        3.0860     6.5070    -0.3490 C.3   1 <1>  -0.1600 
 21 C        4.1280     5.8940     1.8500 C.3   1 <1>  -0.1600 
 22 C        5.5390     5.9890    -0.2260 C.3   1 <1>  -0.1600 
 23 H       -0.7730    -1.0840     2.3950 H     1 <1>   0.1500 
 24 H        1.3840     2.2430    -0.7650 H     1 <1>   0.0800 
 25 H        2.4250     2.1750    -2.1500 H     1 <1>   0.0800 
 26 H        2.7300    -1.4330    -2.2560 H     1 <1>   0.0800 
 27 H        3.8480    -0.0960    -2.3430 H     1 <1>   0.0800 
 28 H        2.3660    -0.0650    -3.2820 H     1 <1>   0.0800 
 29 H        4.3610     1.6910    -0.7290 H     1 <1>   0.0800 
 30 H        3.3500     1.6440     0.6800 H     1 <1>   0.0800 
 31 H       -0.0890    -5.3400    -0.0470 H     1 <1>   0.3700 
 32 H        0.8050    -4.0900    -0.9010 H     1 <1>   0.3700 
 33 H        2.3860     3.7830     1.6450 H     1 <1>   0.0800 
 34 H        1.6590     4.2280     0.1320 H     1 <1>   0.0800 
 35 H        3.1000     4.3250    -1.9910 H     1 <1>   0.0800 
 36 H        4.7930     3.9460    -1.9010 H     1 <1>   0.0800 
 37 H        5.8520     3.3280     0.3350 H     1 <1>   0.0800 
 38 H        4.8760     3.2630     1.7690 H     1 <1>   0.0800 
 39 H        2.0260     6.2260     1.5080 H     1 <1>   0.0800 
 40 H        4.4300     6.3880    -2.0310 H     1 <1>   0.0800 
 41 H        6.2070     5.3390     1.7180 H     1 <1>   0.0800 
 42 H        3.2830     7.5490    -0.1670 H     1 <1>   0.0800 
 43 H        2.1980     6.4440    -0.9540 H     1 <1>   0.0800 
 44 H        3.9760     5.3960     2.7920 H     1 <1>   0.0800 
 45 H        4.3370     6.9290     2.0570 H     1 <1>   0.0800 
 46 H        5.7640     7.0250    -0.0440 H     1 <1>   0.0800 
 47 H        6.3780     5.5580    -0.7440 H     1 <1>   0.0800 
@<TRIPOS>BOND
  1   1   2  1   
  2   1   3  1   
  3   2   4  2   
  4   2   5  1   
  5   3   6  2   
  6   3  23  1   
  7   4   6  1   
  8   5   7  1   
  9   5   8  1   
 10   6   9  1   
 11   7  10  1   
 12   7  24  1   
 13   7  25  1   
 14   8  26  1   
 15   8  27  1   
 16   8  28  1   
 17   9  11  2   
 18   9  12  am  
 19  10  13  1   
 20  10  29  1   
 21  10  30  1   
 22  12  31  1   
 23  12  32  1   
 24  13  14  1   
 25  13  15  1   
 26  13  16  1   
 27  14  17  1   
 28  14  33  1   
 29  14  34  1   
 30  15  18  1   
 31  15  35  1   
 32  15  36  1   
 33  16  19  1   
 34  16  37  1   
 35  16  38  1   
 36  17  20  1   
 37  17  21  1   
 38  17  39  1   
 39  18  20  1   
 40  18  22  1   
 41  18  40  1   
 42  19  21  1   
 43  19  22  1   
 44  19  41  1   
 45  20  42  1   
 46  20  43  1   
 47  21  44  1   
 48  21  45  1   
 49  22  46  1   
 50  22  47  1   
@<TRIPOS>SUBSTRUCTURE
  1 ****  10 GROUP 4 **** **** 0

# MOE 2024.06 (io_trps.svl 2023.06)
