@<TRIPOS>MOLECULE
NONAME
50 52 1 0 0 
SMALL
USER_CHARGES


@<TRIPOS>ATOM
  1 O       -1.4440    -0.8260    -2.7480 O.2   1 <1>  -0.5700 
  2 C       -1.9670    -1.1190    -1.6990 C.2   1 <1>   0.5690 
  3 N       -1.9040    -0.3060    -0.6050 N.am  1 <1>  -0.6600 
  4 C       -2.7040    -2.4360    -1.6270 C.3   1 <1>  -0.0190 
  5 C       -2.6180    -0.6360     0.6620 C.3   1 <1>   0.2200 
  6 C       -1.1650     0.9890    -0.6240 C.3   1 <1>   0.0600 
  7 C       -2.0420    -3.3740    -0.6000 C.3   1 <1>   0.1200 
  8 C       -4.2270    -2.2120    -1.5220 C.3   1 <1>   0.1400 
  9 C       -2.0460    -1.9210     1.3170 C.3   1 <1>   0.1200 
 10 C       -4.1510    -0.6090     0.4530 C.3   1 <1>   0.1400 
 11 O       -2.4260    -3.1330     0.7190 O.3   1 <1>  -0.5600 
 12 N       -4.7230    -1.8550    -0.1540 N.am  1 <1>  -0.6600 
 13 C       -5.5150    -2.6760     0.6160 C.2   1 <1>   0.5690 
 14 O       -5.9960    -2.2930     1.6580 O.2   1 <1>  -0.5700 
 15 C       -5.8070    -4.1020     0.1710 C.3   1 <1>  -0.0990 
 16 C       -6.4110    -4.9900     1.2690 C.3   1 <1>  -0.0170 
 17 C       -6.6250    -6.4040     0.7380 C.ar  1 <1>  -0.1440 
 18 C       -7.8200    -6.8170     0.1550 C.ar  1 <1>  -0.1440 
 19 C       -5.5740    -7.3030     0.8400 C.ar  1 <1>  -0.1500 
 20 C       -7.9360    -8.1180    -0.3140 C.ar  1 <1>  -0.1500 
 21 C       -9.0160    -5.8850     0.0160 C.3   1 <1>  -0.0970 
 22 C       -5.7000    -8.5970     0.3700 C.ar  1 <1>  -0.1500 
 23 C       -6.8840    -9.0120    -0.2120 C.ar  1 <1>  -0.1440 
 24 C       -7.0340   -10.4320    -0.7290 C.3   1 <1>  -0.0970 
 25 H       -2.5450    -2.8980    -2.5840 H     1 <1>   0.0800 
 26 H       -2.4040     0.1620     1.3510 H     1 <1>   0.0800 
 27 H       -0.4180     0.9940     0.1500 H     1 <1>   0.0800 
 28 H       -1.8500     1.8030    -0.4650 H     1 <1>   0.0800 
 29 H       -0.6740     1.1360    -1.5710 H     1 <1>   0.0800 
 30 H       -0.9690    -3.3080    -0.6600 H     1 <1>   0.0800 
 31 H       -2.3260    -4.3890    -0.8170 H     1 <1>   0.0800 
 32 H       -4.7220    -3.0960    -1.8760 H     1 <1>   0.0800 
 33 H       -4.5040    -1.4190    -2.1960 H     1 <1>   0.0800 
 34 H       -2.4000    -1.9690     2.3310 H     1 <1>   0.0800 
 35 H       -0.9710    -1.8770     1.3410 H     1 <1>   0.0800 
 36 H       -4.4110     0.2330    -0.1630 H     1 <1>   0.0800 
 37 H       -4.6020    -0.4390     1.4150 H     1 <1>   0.0800 
 38 H       -6.4780    -4.0690    -0.6650 H     1 <1>   0.0800 
 39 H       -4.8860    -4.5540    -0.1460 H     1 <1>   0.0800 
 40 H       -7.3350    -4.5680     1.6200 H     1 <1>   0.0800 
 41 H       -5.7400    -5.0180     2.1100 H     1 <1>   0.0800 
 42 H       -4.6460    -6.9960     1.2890 H     1 <1>   0.1500 
 43 H       -8.8580    -8.4430    -0.7620 H     1 <1>   0.1500 
 44 H       -9.7970    -6.3420    -0.5630 H     1 <1>   0.0800 
 45 H       -8.7260    -4.9740    -0.4740 H     1 <1>   0.0800 
 46 H       -9.4100    -5.6500     0.9890 H     1 <1>   0.0800 
 47 H       -4.8740    -9.2790     0.4620 H     1 <1>   0.1500 
 48 H       -6.0740   -10.8460    -0.9780 H     1 <1>   0.0800 
 49 H       -7.6480   -10.4460    -1.6110 H     1 <1>   0.0800 
 50 H       -7.4920   -11.0450     0.0250 H     1 <1>   0.0800 
@<TRIPOS>BOND
  1   1   2  2   
  2   2   3  am  
  3   2   4  1   
  4   3   5  1   
  5   3   6  1   
  6   4   7  1   
  7   4   8  1   
  8   4  25  1   
  9   5   9  1   
 10   5  10  1   
 11   5  26  1   
 12   6  27  1   
 13   6  28  1   
 14   6  29  1   
 15   7  11  1   
 16   7  30  1   
 17   7  31  1   
 18   8  12  1   
 19   8  32  1   
 20   8  33  1   
 21   9  11  1   
 22   9  34  1   
 23   9  35  1   
 24  10  12  1   
 25  10  36  1   
 26  10  37  1   
 27  12  13  am  
 28  13  14  2   
 29  13  15  1   
 30  15  16  1   
 31  15  38  1   
 32  15  39  1   
 33  16  17  1   
 34  16  40  1   
 35  16  41  1   
 36  17  18  ar  
 37  17  19  ar  
 38  18  20  ar  
 39  18  21  1   
 40  19  22  ar  
 41  19  42  1   
 42  20  23  ar  
 43  20  43  1   
 44  21  44  1   
 45  21  45  1   
 46  21  46  1   
 47  22  23  ar  
 48  22  47  1   
 49  23  24  1   
 50  24  48  1   
 51  24  49  1   
 52  24  50  1   
@<TRIPOS>SUBSTRUCTURE
  1 ****  15 GROUP 4 **** **** 0

# MOE 2024.06 (io_trps.svl 2023.06)
