@<TRIPOS>MOLECULE
NONAME
49 50 1 0 0 
SMALL
USER_CHARGES


@<TRIPOS>ATOM
  1 O       -0.4980    -0.1700    -0.2530 O.2   1 <1>  -0.5700 
  2 C       -1.4750     0.5440    -0.3110 C.2   1 <1>   0.5690 
  3 N       -2.6690     0.1360     0.2470 N.am  1 <1>  -0.6600 
  4 C       -1.2820     1.8840    -1.0530 C.3   1 <1>   0.2610 
  5 C       -2.7680    -1.1700     0.9560 C.3   1 <1>   0.3200 
  6 C       -3.9410     0.9240     0.2250 C.3   1 <1>   0.1400 
  7 O       -1.9070     2.9600    -0.3700 O.3   1 <1>  -0.3630 
  8 C       -1.8020     1.8600    -2.4960 C.3   1 <1>  -0.2400 
  9 C       -3.6390    -2.1190     0.1560 C.2   1 <1>  -0.3320 
 10 C       -4.1180     1.7030     1.5340 C.3   1 <1>   0.1200 
 11 C       -1.1550     4.0510    -0.1150 C.ar  1 <1>   0.0830 
 12 N       -3.2860    -2.6850    -1.0160 N.pl3 1 <1>   0.0480 
 13 C       -4.8800    -2.5730     0.4420 C.2   1 <1>   0.0770 
 14 O       -5.1740     2.5900     1.4020 O.3   1 <1>  -0.6800 
 15 C       -0.1760     4.0470     0.8770 C.ar  1 <1>  -0.1430 
 16 C       -1.3940     5.1910    -0.8650 C.ar  1 <1>  -0.1500 
 17 C       -4.3500    -3.4440    -1.3620 C.2   1 <1>   0.0360 
 18 C       -2.0250    -2.5330    -1.7640 C.3   1 <1>   0.0160 
 19 N       -5.3270    -3.4040    -0.5150 N.2   1 <1>  -0.5650 
 20 C        0.5690     5.1980     1.0780 C.ar  1 <1>  -0.1500 
 21 C        0.0940     2.8280     1.7490 C.3   1 <1>  -0.0970 
 22 C       -0.6490     6.3370    -0.6550 C.ar  1 <1>  -0.1430 
 23 C        0.3370     6.3320     0.3180 C.ar  1 <1>  -0.1500 
 24 C       -0.8990     7.5880    -1.4780 C.3   1 <1>  -0.0970 
 25 H       -0.2250     2.0830    -1.0820 H     1 <1>   0.0800 
 26 H       -3.2030    -1.0130     1.9270 H     1 <1>   0.0800 
 27 H       -1.7970    -1.6090     1.1060 H     1 <1>   0.0800 
 28 H       -4.7790     0.2620     0.0900 H     1 <1>   0.0800 
 29 H       -3.9390     1.6110    -0.5990 H     1 <1>   0.0800 
 30 H       -2.8570     1.6610    -2.5250 H     1 <1>   0.0800 
 31 H       -1.2960     1.0870    -3.0450 H     1 <1>   0.0800 
 32 H       -1.6000     2.8020    -2.9740 H     1 <1>   0.0800 
 33 H       -3.2360     2.2710     1.7720 H     1 <1>   0.0800 
 34 H       -4.3500     1.0340     2.3440 H     1 <1>   0.0800 
 35 H       -5.4900    -2.3410     1.3000 H     1 <1>   0.1500 
 36 H       -4.9100     3.3480     0.8440 H     1 <1>   0.4000 
 37 H       -2.1640     5.1700    -1.6140 H     1 <1>   0.1500 
 38 H       -4.3640    -4.0250    -2.2670 H     1 <1>   0.1500 
 39 H       -1.1940    -2.6320    -1.0890 H     1 <1>   0.0800 
 40 H       -1.9990    -1.5620    -2.2210 H     1 <1>   0.0800 
 41 H       -1.9600    -3.2900    -2.5230 H     1 <1>   0.0800 
 42 H        1.3370     5.2210     1.8310 H     1 <1>   0.1500 
 43 H       -0.8270     2.3430     2.0130 H     1 <1>   0.0800 
 44 H        0.5920     3.1140     2.6580 H     1 <1>   0.0800 
 45 H        0.7190     2.1280     1.2230 H     1 <1>   0.0800 
 46 H        0.9280     7.2150     0.4900 H     1 <1>   0.1500 
 47 H       -1.8540     7.5380    -1.9680 H     1 <1>   0.0800 
 48 H       -0.1320     7.6920    -2.2240 H     1 <1>   0.0800 
 49 H       -0.8870     8.4560    -0.8430 H     1 <1>   0.0800 
@<TRIPOS>BOND
  1   1   2  2   
  2   2   3  am  
  3   2   4  1   
  4   3   5  1   
  5   3   6  1   
  6   4   7  1   
  7   4   8  1   
  8   4  25  1   
  9   5   9  1   
 10   5  26  1   
 11   5  27  1   
 12   6  10  1   
 13   6  28  1   
 14   6  29  1   
 15   7  11  1   
 16   8  30  1   
 17   8  31  1   
 18   8  32  1   
 19   9  12  1   
 20   9  13  2   
 21  10  14  1   
 22  10  33  1   
 23  10  34  1   
 24  11  15  ar  
 25  11  16  ar  
 26  12  17  1   
 27  12  18  1   
 28  13  19  1   
 29  13  35  1   
 30  14  36  1   
 31  15  20  ar  
 32  15  21  1   
 33  16  22  ar  
 34  16  37  1   
 35  17  19  2   
 36  17  38  1   
 37  18  39  1   
 38  18  40  1   
 39  18  41  1   
 40  20  23  ar  
 41  20  42  1   
 42  21  43  1   
 43  21  44  1   
 44  21  45  1   
 45  22  23  ar  
 46  22  24  1   
 47  23  46  1   
 48  24  47  1   
 49  24  48  1   
 50  24  49  1   
@<TRIPOS>SUBSTRUCTURE
  1 ****   2 GROUP 4 **** **** 0

# MOE 2024.06 (io_trps.svl 2023.06)
