@<TRIPOS>MOLECULE
NONAME
33 35 1 0 0 
SMALL
USER_CHARGES


@<TRIPOS>ATOM
  1 O       -0.2200    -1.1440     2.1110 O.2   1 <1>  -0.5700 
  2 C       -1.2090    -1.3880     1.4270 C.2   1 <1>   0.6160 
  3 N       -1.3650    -2.6140     0.7890 N.am  1 <1>  -0.2980 
  4 C       -2.2400    -0.4370     1.2450 C.2   1 <1>  -0.1360 
  5 N       -2.4430    -2.9280    -0.0030 N.2   1 <1>  -0.5120 
  6 C       -0.3330    -3.6830     0.9610 C.3   1 <1>   0.2010 
  7 C       -3.3100    -0.7480     0.4650 C.2   1 <1>  -0.1240 
  8 C       -3.3590    -2.0250    -0.1610 C.2   1 <1>   0.3750 
  9 C        0.9370    -3.4430     0.1510 C.2   1 <1>   0.5690 
 10 C       -4.4580     0.2290     0.2610 C.3   1 <1>   0.2580 
 11 C       -4.5200    -2.3590    -1.0760 C.3   1 <1>  -0.0990 
 12 O        1.2870    -4.2820    -0.6480 O.2   1 <1>  -0.5700 
 13 N        1.6620    -2.3140     0.3770 N.am  1 <1>  -0.5790 
 14 O       -5.1800    -0.0920    -0.8870 O.3   1 <1>  -0.5600 
 15 C       -5.6850    -1.3880    -0.9010 C.3   1 <1>   0.1200 
 16 C        2.8970    -1.9170    -0.3090 C.3   1 <1>   0.0490 
 17 C        3.9130    -1.1490     0.4680 C.3   1 <1>  -0.2000 
 18 C        3.1010    -0.4660    -0.5920 C.3   1 <1>  -0.2000 
 19 H       -2.1260     0.5040     1.7480 H     1 <1>   0.1500 
 20 H       -0.7560    -4.6240     0.6580 H     1 <1>   0.0800 
 21 H       -0.0740    -3.7580     2.0010 H     1 <1>   0.0800 
 22 H       -4.0860     1.2320     0.1400 H     1 <1>   0.0800 
 23 H       -5.1320     0.2050     1.1000 H     1 <1>   0.0800 
 24 H       -4.8550    -3.3620    -0.8850 H     1 <1>   0.0800 
 25 H       -4.1760    -2.3160    -2.0930 H     1 <1>   0.0800 
 26 H        1.3030    -1.6420     1.0700 H     1 <1>   0.3700 
 27 H       -6.2160    -1.5680     0.0190 H     1 <1>   0.0800 
 28 H       -6.3720    -1.4690    -1.7260 H     1 <1>   0.0800 
 29 H        3.2330    -2.6400    -1.0370 H     1 <1>   0.1000 
 30 H        4.9550    -1.3310     0.2720 H     1 <1>   0.1000 
 31 H        3.7160    -0.9300     1.5020 H     1 <1>   0.1000 
 32 H        2.3350     0.2300    -0.2980 H     1 <1>   0.1000 
 33 H        3.5890    -0.1850    -1.5080 H     1 <1>   0.1000 
@<TRIPOS>BOND
  1   1   2  2   
  2   2   3  am  
  3   2   4  1   
  4   3   5  1   
  5   3   6  1   
  6   4   7  2   
  7   4  19  1   
  8   5   8  2   
  9   6   9  1   
 10   6  20  1   
 11   6  21  1   
 12   7   8  1   
 13   7  10  1   
 14   8  11  1   
 15   9  12  2   
 16   9  13  am  
 17  10  14  1   
 18  10  22  1   
 19  10  23  1   
 20  11  15  1   
 21  11  24  1   
 22  11  25  1   
 23  13  16  1   
 24  13  26  1   
 25  14  15  1   
 26  15  27  1   
 27  15  28  1   
 28  16  17  1   
 29  16  18  1   
 30  16  29  1   
 31  17  18  1   
 32  17  30  1   
 33  17  31  1   
 34  18  32  1   
 35  18  33  1   
@<TRIPOS>SUBSTRUCTURE
  1 ****   3 GROUP 4 **** **** 0

# MOE 2024.06 (io_trps.svl 2023.06)
