@<TRIPOS>MOLECULE
NONAME
43 45 1 0 0 
SMALL
USER_CHARGES


@<TRIPOS>ATOM
  1 S       -0.5560     0.8270    -0.4680 S.3   1 <1>  -0.0800 
  2 C        0.9200     0.1840    -1.1690 C.2   1 <1>   0.0960 
  3 C       -1.1210    -0.8030    -0.1220 C.2   1 <1>  -0.1100 
  4 S        2.1130     1.3560    -1.8290 S.3   1 <1>  -0.1570 
  5 C        0.9480    -1.1590    -1.1370 C.2   1 <1>  -0.1500 
  6 C       -0.2220    -1.7210    -0.5310 C.2   1 <1>  -0.1500 
  7 C        2.3860     2.6110    -0.5900 C.ar  1 <1>   0.4620 
  8 N        1.8600     2.4380     0.6350 N.ar  1 <1>  -0.1790 
  9 C        3.1230     3.7170    -0.8470 C.ar  1 <1>  -0.1500 
 10 C        2.0620     3.3640     1.5840 C.ar  1 <1>   0.7710 
 11 C        3.2980     4.6400     0.1910 C.ar  1 <1>   0.4100 
 12 N        2.7700     4.4570     1.3890 N.ar  1 <1>  -0.6200 
 13 N        1.5320     3.2050     2.7940 N.pl3 1 <1>  -0.9000 
 14 N        4.0240     5.7520    -0.0300 N.pl3 1 <1>  -0.8690 
 15 C        4.3660     6.8200     0.9500 C.3   1 <1>   0.2890 
 16 C        3.7140     8.1430     0.5080 C.3   1 <1>   0.1400 
 17 C        5.8730     7.0820     0.8650 C.3   1 <1>  -0.0990 
 18 N        4.7550     8.7830    -0.3180 N.am  1 <1>  -0.6600 
 19 C        5.9610     8.1970    -0.1390 C.2   1 <1>   0.5690 
 20 C        4.4670     9.9280    -1.2110 C.3   1 <1>   0.1400 
 21 O        6.9860     8.4960    -0.6990 O.2   1 <1>  -0.5700 
 22 C        4.1890    11.1820    -0.3790 C.3   1 <1>  -0.1600 
 23 C        3.9240    12.3970    -1.2750 C.3   1 <1>  -0.2400 
 24 H       -2.0820    -0.9080     0.3510 H     1 <1>   0.1500 
 25 H        1.7370    -1.7850    -1.5200 H     1 <1>   0.1500 
 26 H       -0.3360    -2.7890    -0.4380 H     1 <1>   0.1500 
 27 H        1.2890     1.6250     0.8450 H     1 <1>   0.4570 
 28 H        3.5690     3.8990    -1.8070 H     1 <1>   0.1500 
 29 H        1.7120     3.9360     3.4910 H     1 <1>   0.4000 
 30 H        0.9530     2.4400     3.1460 H     1 <1>   0.4000 
 31 H        4.3960     5.9580    -0.9650 H     1 <1>   0.4000 
 32 H        4.0630     6.5430     1.9460 H     1 <1>   0.0800 
 33 H        3.5080     8.7650     1.3620 H     1 <1>   0.0800 
 34 H        2.8100     7.9730    -0.0510 H     1 <1>   0.0800 
 35 H        6.4320     6.2190     0.5540 H     1 <1>   0.0800 
 36 H        6.2480     7.4420     1.8040 H     1 <1>   0.0800 
 37 H        3.6190     9.6940    -1.8310 H     1 <1>   0.0800 
 38 H        5.3170    10.1000    -1.8500 H     1 <1>   0.0800 
 39 H        5.0430    11.3860     0.2440 H     1 <1>   0.0800 
 40 H        3.3330    11.0190     0.2510 H     1 <1>   0.0800 
 41 H        4.7770    12.5950    -1.9010 H     1 <1>   0.0800 
 42 H        3.7370    13.2670    -0.6700 H     1 <1>   0.0800 
 43 H        3.0660    12.2240    -1.9010 H     1 <1>   0.0800 
@<TRIPOS>BOND
  1   1   2  1   
  2   1   3  1   
  3   2   4  1   
  4   2   5  2   
  5   3   6  2   
  6   3  24  1   
  7   4   7  1   
  8   5   6  1   
  9   5  25  1   
 10   6  26  1   
 11   7   8  ar  
 12   7   9  ar  
 13   8  10  ar  
 14   8  27  1   
 15   9  11  ar  
 16   9  28  1   
 17  10  12  ar  
 18  10  13  1   
 19  11  12  ar  
 20  11  14  1   
 21  13  29  1   
 22  13  30  1   
 23  14  15  1   
 24  14  31  1   
 25  15  16  1   
 26  15  17  1   
 27  15  32  1   
 28  16  18  1   
 29  16  33  1   
 30  16  34  1   
 31  17  19  1   
 32  17  35  1   
 33  17  36  1   
 34  18  19  am  
 35  18  20  1   
 36  19  21  2   
 37  20  22  1   
 38  20  37  1   
 39  20  38  1   
 40  22  23  1   
 41  22  39  1   
 42  22  40  1   
 43  23  41  1   
 44  23  42  1   
 45  23  43  1   
@<TRIPOS>SUBSTRUCTURE
  1 ****  11 GROUP 4 **** **** 0

# MOE 2024.06 (io_trps.svl 2023.06)
