@<TRIPOS>MOLECULE
NONAME
46 49 1 0 0 
SMALL
USER_CHARGES


@<TRIPOS>ATOM
  1 F       -1.3150     1.4060     1.0590 F     1 <1>  -0.3400 
  2 C       -1.7940     2.4910     0.4590 C.3   1 <1>   1.2000 
  3 F       -2.5580     2.0450    -0.5330 F     1 <1>  -0.3400 
  4 F       -2.6080     3.0750     1.3300 F     1 <1>  -0.3400 
  5 C       -0.6590     3.3960    -0.0620 C.2   1 <1>   0.0060 
  6 N       -0.4130     4.6320     0.2510 N.2   1 <1>  -0.5650 
  7 N        0.2270     2.8920    -0.9660 N.pl3 1 <1>   0.0330 
  8 C        0.6840     4.9650    -0.4800 C.ar  1 <1>   0.2270 
  9 C        1.0980     3.8920    -1.2410 C.ar  1 <1>  -0.1520 
 10 C        1.3710     6.1710    -0.5340 C.ar  1 <1>  -0.1500 
 11 C        2.2120     3.9950    -2.0740 C.ar  1 <1>  -0.1500 
 12 C        2.4910     6.3110    -1.3450 C.ar  1 <1>   0.0860 
 13 C        2.8870     5.1930    -2.1150 C.ar  1 <1>  -0.1500 
 14 C        3.2390     7.5540    -1.4100 C.2   1 <1>   0.5440 
 15 O        4.1660     7.7110    -2.1850 O.2   1 <1>  -0.5700 
 16 N        2.9910     8.6020    -0.5600 N.am  1 <1>  -0.6600 
 17 C        3.6240     8.5440     0.8050 C.3   1 <1>   0.2200 
 18 C        2.6770     9.9350    -1.1620 C.3   1 <1>   0.1400 
 19 C        2.9280     9.4540     1.8310 C.3   1 <1>   0.1200 
 20 C        5.1420     8.8590     0.7330 C.3   1 <1>   0.3430 
 21 C        3.4890    11.1160    -0.5980 C.3   1 <1>  -0.0800 
 22 O        3.4630    10.7430     1.7900 O.3   1 <1>  -0.5600 
 23 N        5.5350     9.5640    -0.5370 N.4   1 <1>  -0.9590 
 24 C        2.9800    11.5640     0.7810 C.3   1 <1>   0.1200 
 25 C        5.0250    10.9670    -0.6400 C.3   1 <1>   0.3430 
 26 C        7.0010     9.4840    -0.7840 C.3   1 <1>   0.2630 
 27 H        0.2380     1.9480    -1.3670 H     1 <1>   0.2700 
 28 H        1.0020     6.9800     0.0650 H     1 <1>   0.1500 
 29 H        2.5280     3.1550    -2.6690 H     1 <1>   0.1500 
 30 H        3.7480     5.2900    -2.7560 H     1 <1>   0.1500 
 31 H        3.5150     7.5380     1.1720 H     1 <1>   0.0800 
 32 H        2.8420     9.8840    -2.2270 H     1 <1>   0.0800 
 33 H        1.6270    10.1290    -1.0230 H     1 <1>   0.0800 
 34 H        3.1190     9.0780     2.8210 H     1 <1>   0.0800 
 35 H        1.8610     9.4850     1.6840 H     1 <1>   0.0800 
 36 H        5.6710     7.9230     0.7890 H     1 <1>   0.0800 
 37 H        5.4310     9.4460     1.5890 H     1 <1>   0.0800 
 38 H        3.2620    11.9470    -1.2420 H     1 <1>   0.0800 
 39 H        5.0490     9.0160    -1.2860 H     1 <1>   0.4500 
 40 H        1.9030    11.5800     0.8260 H     1 <1>   0.0800 
 41 H        3.3350    12.5580     0.9950 H     1 <1>   0.0800 
 42 H        5.4540    11.5630     0.1490 H     1 <1>   0.0800 
 43 H        5.3670    11.3770    -1.5760 H     1 <1>   0.0800 
 44 H        7.5400    10.0150    -0.0160 H     1 <1>   0.0800 
 45 H        7.2410     9.9170    -1.7410 H     1 <1>   0.0800 
 46 H        7.3210     8.4540    -0.7870 H     1 <1>   0.0800 
@<TRIPOS>BOND
  1   1   2  1   
  2   2   3  1   
  3   2   4  1   
  4   2   5  1   
  5   5   6  2   
  6   5   7  1   
  7   6   8  1   
  8   7   9  1   
  9   7  27  1   
 10   8   9  ar  
 11   8  10  ar  
 12   9  11  ar  
 13  10  12  ar  
 14  10  28  1   
 15  11  13  ar  
 16  11  29  1   
 17  12  13  ar  
 18  12  14  1   
 19  13  30  1   
 20  14  15  2   
 21  14  16  am  
 22  16  17  1   
 23  16  18  1   
 24  17  19  1   
 25  17  20  1   
 26  17  31  1   
 27  18  21  1   
 28  18  32  1   
 29  18  33  1   
 30  19  22  1   
 31  19  34  1   
 32  19  35  1   
 33  20  23  1   
 34  20  36  1   
 35  20  37  1   
 36  21  24  1   
 37  21  25  1   
 38  21  38  1   
 39  22  24  1   
 40  23  25  1   
 41  23  26  1   
 42  23  39  1   
 43  24  40  1   
 44  24  41  1   
 45  25  42  1   
 46  25  43  1   
 47  26  44  1   
 48  26  45  1   
 49  26  46  1   
@<TRIPOS>SUBSTRUCTURE
  1 ****  10 GROUP 4 **** **** 0

# MOE 2024.06 (io_trps.svl 2023.06)
