@<TRIPOS>MOLECULE
NONAME
50 52 1 0 0 
SMALL
USER_CHARGES


@<TRIPOS>ATOM
  1 CL       4.5850    -3.2330    -2.1770 Cl    1 <1>  -0.1230 
  2 C        3.6690    -3.9150    -0.8470 C.2   1 <1>   0.1230 
  3 C        4.1580    -4.3060     0.3540 C.2   1 <1>  -0.3020 
  4 C        2.3030    -4.1540    -0.8690 C.2   1 <1>  -0.1500 
  5 N        3.1290    -4.7910     1.0940 N.pl3 1 <1>   0.0480 
  6 C        1.9740    -4.7060     0.3460 C.2   1 <1>  -0.2370 
  7 C        3.2640    -5.3650     2.4470 C.3   1 <1>   0.0160 
  8 C        0.6840    -5.1630     0.7920 C.2   1 <1>   0.7150 
  9 O        0.3340    -5.0300     1.9500 O.2   1 <1>  -0.5700 
 10 N       -0.1830    -5.7650    -0.0800 N.am  1 <1>  -0.6600 
 11 C       -0.0390    -7.2460    -0.2630 C.3   1 <1>   0.3640 
 12 C       -1.5880    -5.2830    -0.0850 C.3   1 <1>   0.1400 
 13 C        1.4090    -7.5450    -0.6610 C.ar  1 <1>  -0.1430 
 14 C       -1.0510    -7.8490    -1.2880 C.3   1 <1>   0.2000 
 15 C       -2.3600    -5.8830    -1.2610 C.3   1 <1>   0.1200 
 16 C        2.2550    -8.1580     0.2530 C.ar  1 <1>  -0.1500 
 17 C        1.9110    -7.1780    -1.9050 C.ar  1 <1>  -0.1500 
 18 O       -2.3290    -7.2740    -1.1780 O.3   1 <1>  -0.5600 
 19 C       -1.2650    -9.3660    -1.1190 C.3   1 <1>   0.1200 
 20 C        3.5850    -8.3850    -0.0530 C.ar  1 <1>   0.0830 
 21 C        3.2390    -7.4020    -2.2210 C.ar  1 <1>  -0.1500 
 22 O       -0.0710   -10.0750    -1.0340 O.3   1 <1>  -0.6800 
 23 O        4.3520    -8.9800     0.8930 O.3   1 <1>  -0.3630 
 24 C        4.0860    -7.9840    -1.2950 C.ar  1 <1>   0.0830 
 25 C        4.8660   -10.2530     0.5710 C.3   1 <1>   0.0400 
 26 O        5.3900    -8.1210    -1.6310 O.3   1 <1>  -0.3630 
 27 C        6.2660    -7.2080    -1.0110 C.3   1 <1>   0.0400 
 28 H        5.1720    -4.2660     0.7050 H     1 <1>   0.1500 
 29 H        1.6510    -3.9470    -1.6980 H     1 <1>   0.1500 
 30 H        4.2990    -5.3800     2.7340 H     1 <1>   0.0800 
 31 H        2.8810    -6.3690     2.4460 H     1 <1>   0.0800 
 32 H        2.7040    -4.7690     3.1430 H     1 <1>   0.0800 
 33 H       -0.2360    -7.7110     0.6880 H     1 <1>   0.0800 
 34 H       -2.0680    -5.5600     0.8390 H     1 <1>   0.0800 
 35 H       -1.5950    -4.2090    -0.1560 H     1 <1>   0.0800 
 36 H       -0.7120    -7.6600    -2.2890 H     1 <1>   0.0800 
 37 H       -1.9360    -5.5740    -2.2010 H     1 <1>   0.0800 
 38 H       -3.3900    -5.5750    -1.2240 H     1 <1>   0.0800 
 39 H        1.8910    -8.4620     1.2170 H     1 <1>   0.1500 
 40 H        1.2800    -6.6900    -2.6270 H     1 <1>   0.1500 
 41 H       -1.8220    -9.7530    -1.9550 H     1 <1>   0.0800 
 42 H       -1.8130    -9.5580    -0.2130 H     1 <1>   0.0800 
 43 H        3.6310    -7.1070    -3.1780 H     1 <1>   0.1500 
 44 H        0.5300    -9.8630    -1.7770 H     1 <1>   0.4000 
 45 H        5.3300   -10.6610     1.4510 H     1 <1>   0.0800 
 46 H        5.5940   -10.1560    -0.2140 H     1 <1>   0.0800 
 47 H        4.0560   -10.8850     0.2540 H     1 <1>   0.0800 
 48 H        7.2580    -7.3840    -1.3850 H     1 <1>   0.0800 
 49 H        6.2380    -7.3610     0.0530 H     1 <1>   0.0800 
 50 H        5.9510    -6.2080    -1.2530 H     1 <1>   0.0800 
@<TRIPOS>BOND
  1   1   2  1   
  2   2   3  2   
  3   2   4  1   
  4   3   5  1   
  5   3  28  1   
  6   4   6  2   
  7   4  29  1   
  8   5   6  1   
  9   5   7  1   
 10   6   8  1   
 11   7  30  1   
 12   7  31  1   
 13   7  32  1   
 14   8   9  2   
 15   8  10  am  
 16  10  11  1   
 17  10  12  1   
 18  11  13  1   
 19  11  14  1   
 20  11  33  1   
 21  12  15  1   
 22  12  34  1   
 23  12  35  1   
 24  13  16  ar  
 25  13  17  ar  
 26  14  18  1   
 27  14  19  1   
 28  14  36  1   
 29  15  18  1   
 30  15  37  1   
 31  15  38  1   
 32  16  20  ar  
 33  16  39  1   
 34  17  21  ar  
 35  17  40  1   
 36  19  22  1   
 37  19  41  1   
 38  19  42  1   
 39  20  23  1   
 40  20  24  ar  
 41  21  24  ar  
 42  21  43  1   
 43  22  44  1   
 44  23  25  1   
 45  24  26  1   
 46  25  45  1   
 47  25  46  1   
 48  25  47  1   
 49  26  27  1   
 50  27  48  1   
 51  27  49  1   
 52  27  50  1   
@<TRIPOS>SUBSTRUCTURE
  1 ****  13 GROUP 4 **** **** 0

# MOE 2024.06 (io_trps.svl 2023.06)
