@<TRIPOS>MOLECULE
NONAME
50 52 1 0 0 
SMALL
USER_CHARGES


@<TRIPOS>ATOM
  1 F       -1.0820     4.7240    -2.5830 F     1 <1>  -0.1900 
  2 C       -0.3290     4.6590    -1.5130 C.ar  1 <1>   0.1900 
  3 C       -0.9210     4.5380    -0.2600 C.ar  1 <1>   0.0820 
  4 C        1.0400     4.7290    -1.6860 C.ar  1 <1>  -0.1500 
  5 O       -2.2790     4.4950    -0.1750 O.3   1 <1>  -0.3630 
  6 C       -0.0800     4.4820     0.8480 C.ar  1 <1>  -0.1500 
  7 C        1.8720     4.6740    -0.5740 C.ar  1 <1>  -0.1430 
  8 C       -2.9350     4.4740     1.0720 C.3   1 <1>   0.1200 
  9 C        1.2950     4.5520     0.6850 C.ar  1 <1>  -0.1500 
 10 C        3.3890     4.8060    -0.6800 C.3   1 <1>   0.4330 
 11 C       -4.4380     4.4920     0.8130 C.3   1 <1>  -0.2400 
 12 N        3.6440     6.2390    -0.7220 N.pl3 1 <1>  -0.8690 
 13 C        3.9980     4.1670    -1.9230 C.3   1 <1>  -0.2400 
 14 C        4.3990     6.8200     0.2620 C.ar  1 <1>   0.4100 
 15 N        5.6770     6.4590     0.2740 N.ar  1 <1>  -0.6200 
 16 C        3.8240     7.7280     1.1710 C.ar  1 <1>   0.0860 
 17 C        6.4350     7.0260     1.1920 C.ar  1 <1>   0.1600 
 18 C        2.4100     8.0020     1.1490 C.2   1 <1>   0.5440 
 19 C        4.6530     8.2990     2.1240 C.ar  1 <1>  -0.1500 
 20 C        5.9830     7.9410     2.1260 C.ar  1 <1>  -0.1500 
 21 O        1.7460     7.7730     2.1450 O.2   1 <1>  -0.5700 
 22 N        1.7600     8.4900     0.0360 N.am  1 <1>  -0.6600 
 23 C        2.3780     9.1230    -1.1500 C.3   1 <1>   0.1400 
 24 C        0.3110     8.2840    -0.1760 C.3   1 <1>   0.1400 
 25 C        1.4340     8.7520    -2.2850 C.3   1 <1>  -0.1600 
 26 C        0.0550     8.6810    -1.6290 C.3   1 <1>  -0.1600 
 27 H        1.4300     4.8360    -2.6810 H     1 <1>   0.1500 
 28 H       -0.4700     4.3930     1.8440 H     1 <1>   0.1500 
 29 H       -2.6340     5.3450     1.6300 H     1 <1>   0.0800 
 30 H       -2.6490     3.5770     1.5930 H     1 <1>   0.0800 
 31 H        1.9220     4.5270     1.5610 H     1 <1>   0.1500 
 32 H        3.8520     4.3770     0.1950 H     1 <1>   0.0800 
 33 H       -4.7090     5.3840     0.2770 H     1 <1>   0.0800 
 34 H       -4.9690     4.4770     1.7470 H     1 <1>   0.0800 
 35 H       -4.7240     3.6280     0.2400 H     1 <1>   0.0800 
 36 H        2.7430     6.7110    -0.8630 H     1 <1>   0.4000 
 37 H        3.6710     4.6650    -2.8150 H     1 <1>   0.0800 
 38 H        3.7240     3.1300    -1.9720 H     1 <1>   0.0800 
 39 H        5.0690     4.2370    -1.8630 H     1 <1>   0.0800 
 40 H        7.4750     6.7470     1.2040 H     1 <1>   0.1500 
 41 H        4.2530     8.9930     2.8440 H     1 <1>   0.1500 
 42 H        6.6640     8.3600     2.8460 H     1 <1>   0.1500 
 43 H        3.3820     8.7800    -1.3330 H     1 <1>   0.0800 
 44 H        2.3860    10.1900    -1.0080 H     1 <1>   0.0800 
 45 H       -0.2570     8.8930     0.5070 H     1 <1>   0.0800 
 46 H        0.0700     7.2470    -0.0140 H     1 <1>   0.0800 
 47 H        1.7090     7.7850    -2.6680 H     1 <1>   0.0800 
 48 H        1.4710     9.4690    -3.0860 H     1 <1>   0.0800 
 49 H       -0.4100     9.6510    -1.6460 H     1 <1>   0.0800 
 50 H       -0.5930     7.9770    -2.1210 H     1 <1>   0.0800 
@<TRIPOS>BOND
  1   1   2  1   
  2   2   3  ar  
  3   2   4  ar  
  4   3   5  1   
  5   3   6  ar  
  6   4   7  ar  
  7   4  27  1   
  8   5   8  1   
  9   6   9  ar  
 10   6  28  1   
 11   7   9  ar  
 12   7  10  1   
 13   8  11  1   
 14   8  29  1   
 15   8  30  1   
 16   9  31  1   
 17  10  12  1   
 18  10  13  1   
 19  10  32  1   
 20  11  33  1   
 21  11  34  1   
 22  11  35  1   
 23  12  14  1   
 24  12  36  1   
 25  13  37  1   
 26  13  38  1   
 27  13  39  1   
 28  14  15  ar  
 29  14  16  ar  
 30  15  17  ar  
 31  16  18  1   
 32  16  19  ar  
 33  17  20  ar  
 34  17  40  1   
 35  18  21  2   
 36  18  22  am  
 37  19  20  ar  
 38  19  41  1   
 39  20  42  1   
 40  22  23  1   
 41  22  24  1   
 42  23  25  1   
 43  23  43  1   
 44  23  44  1   
 45  24  26  1   
 46  24  45  1   
 47  24  46  1   
 48  25  26  1   
 49  25  47  1   
 50  25  48  1   
 51  26  49  1   
 52  26  50  1   
@<TRIPOS>SUBSTRUCTURE
  1 ****   7 GROUP 4 **** **** 0

# MOE 2024.06 (io_trps.svl 2023.06)
