@<TRIPOS>MOLECULE
NONAME
46 48 1 0 0 
SMALL
USER_CHARGES


@<TRIPOS>ATOM
  1 F        0.9500    -1.1150     0.8010 F     1 <1>  -0.1900 
  2 C        0.0270    -1.6520     0.0460 C.ar  1 <1>   0.1900 
  3 C       -0.1730    -1.2020    -1.2480 C.ar  1 <1>   0.1900 
  4 C       -0.7450    -2.6740     0.5700 C.ar  1 <1>  -0.1500 
  5 F        0.5580    -0.2340    -1.7350 F     1 <1>  -0.1900 
  6 C       -1.1500    -1.7680    -2.0460 C.ar  1 <1>  -0.1500 
  7 C       -1.7330    -3.2490    -0.2230 C.ar  1 <1>  -0.1440 
  8 C       -1.9280    -2.7940    -1.5270 C.ar  1 <1>  -0.1500 
  9 C       -2.5960    -4.3690     0.3340 C.3   1 <1>   0.4870 
 10 N       -3.9860    -3.8760     0.4900 N.4   1 <1>  -0.9590 
 11 C       -4.1220    -2.7130     1.4150 C.3   1 <1>   0.3430 
 12 C       -4.9780    -4.9370     0.7800 C.3   1 <1>   0.3430 
 13 C       -5.5870    -2.2660     1.5140 C.3   1 <1>  -0.1600 
 14 C       -6.3930    -4.4000     0.5270 C.3   1 <1>  -0.1600 
 15 C       -6.4830    -2.8650     0.4080 C.3   1 <1>   0.2800 
 16 O       -5.9440    -2.5520    -0.8560 O.3   1 <1>  -0.5600 
 17 C       -7.9650    -2.4360     0.4720 C.3   1 <1>  -0.1600 
 18 C       -6.0600    -1.2270    -1.3020 C.3   1 <1>   0.1200 
 19 C       -8.2480    -1.0320    -0.0700 C.3   1 <1>   0.2800 
 20 C       -7.5350    -0.8370    -1.4060 C.3   1 <1>  -0.1600 
 21 O       -7.7530    -0.1140     0.8230 O.3   1 <1>  -0.6800 
 22 C       -9.7470    -0.7600    -0.1790 C.3   1 <1>  -0.2400 
 23 H       -0.5580    -3.0000     1.5780 H     1 <1>   0.1500 
 24 H       -1.2910    -1.4100    -3.0510 H     1 <1>   0.1500 
 25 H       -2.6840    -3.2340    -2.1570 H     1 <1>   0.1500 
 26 H       -2.2100    -4.6960     1.2850 H     1 <1>   0.0800 
 27 H       -2.5760    -5.2040    -0.3480 H     1 <1>   0.0800 
 28 H       -4.2950    -3.4850    -0.4220 H     1 <1>   0.4500 
 29 H       -3.5350    -1.8920     1.0360 H     1 <1>   0.0800 
 30 H       -3.7530    -2.9660     2.3960 H     1 <1>   0.0800 
 31 H       -4.8850    -5.2460     1.8090 H     1 <1>   0.0800 
 32 H       -4.8070    -5.7950     0.1490 H     1 <1>   0.0800 
 33 H       -5.6190    -1.1940     1.5150 H     1 <1>   0.0800 
 34 H       -5.9720    -2.5710     2.4700 H     1 <1>   0.0800 
 35 H       -7.0150    -4.7320     1.3400 H     1 <1>   0.0800 
 36 H       -6.7910    -4.8480    -0.3670 H     1 <1>   0.0800 
 37 H       -8.3340    -2.5150     1.4790 H     1 <1>   0.0800 
 38 H       -8.5340    -3.1300    -0.1200 H     1 <1>   0.0800 
 39 H       -5.5940    -1.1650    -2.2710 H     1 <1>   0.0800 
 40 H       -5.5340    -0.5740    -0.6280 H     1 <1>   0.0800 
 41 H       -7.9960    -1.4560    -2.1550 H     1 <1>   0.0800 
 42 H       -7.6240     0.1840    -1.7310 H     1 <1>   0.0800 
 43 H       -8.1180     0.7670     0.6150 H     1 <1>   0.4000 
 44 H      -10.2000    -1.4600    -0.8570 H     1 <1>   0.0800 
 45 H       -9.9300     0.2310    -0.5530 H     1 <1>   0.0800 
 46 H      -10.2200    -0.8700     0.7810 H     1 <1>   0.0800 
@<TRIPOS>BOND
  1   1   2  1   
  2   2   3  ar  
  3   2   4  ar  
  4   3   5  1   
  5   3   6  ar  
  6   4   7  ar  
  7   4  23  1   
  8   6   8  ar  
  9   6  24  1   
 10   7   8  ar  
 11   7   9  1   
 12   8  25  1   
 13   9  10  1   
 14   9  26  1   
 15   9  27  1   
 16  10  11  1   
 17  10  12  1   
 18  10  28  1   
 19  11  13  1   
 20  11  29  1   
 21  11  30  1   
 22  12  14  1   
 23  12  31  1   
 24  12  32  1   
 25  13  15  1   
 26  13  33  1   
 27  13  34  1   
 28  14  15  1   
 29  14  35  1   
 30  14  36  1   
 31  15  16  1   
 32  15  17  1   
 33  16  18  1   
 34  17  19  1   
 35  17  37  1   
 36  17  38  1   
 37  18  20  1   
 38  18  39  1   
 39  18  40  1   
 40  19  20  1   
 41  19  21  1   
 42  19  22  1   
 43  20  41  1   
 44  20  42  1   
 45  21  43  1   
 46  22  44  1   
 47  22  45  1   
 48  22  46  1   
@<TRIPOS>SUBSTRUCTURE
  1 ****  11 GROUP 4 **** **** 0

# MOE 2024.06 (io_trps.svl 2023.06)
