@<TRIPOS>MOLECULE
NONAME
49 52 1 0 0 
SMALL
USER_CHARGES


@<TRIPOS>ATOM
  1 O       -0.9070     0.7310    -0.5550 O.2   1 <1>  -0.5700 
  2 C       -0.7930     1.9350    -0.5930 C.2   1 <1>   0.5690 
  3 N       -1.3710     2.7770     0.3200 N.am  1 <1>  -0.5090 
  4 C        0.0210     2.5430    -1.7320 C.3   1 <1>   0.1810 
  5 C       -1.3720     4.2590     0.1110 C.3   1 <1>   0.3640 
  6 C       -2.1270     2.2950     1.5010 C.3   1 <1>   0.0490 
  7 O        0.5630     3.7860    -1.3710 O.3   1 <1>  -0.5600 
  8 C       -2.7880     4.7640    -0.1790 C.ar  1 <1>  -0.1440 
  9 C       -0.4080     4.7510    -1.0000 C.3   1 <1>   0.2610 
 10 C       -1.6700     2.7160     2.8640 C.3   1 <1>  -0.2000 
 11 C       -1.5010     1.2970     2.4230 C.3   1 <1>  -0.2000 
 12 C       -3.1760     6.0070     0.3060 C.ar  1 <1>  -0.1500 
 13 C       -3.6960     4.0250    -0.9280 C.ar  1 <1>  -0.1500 
 14 C        0.2300     6.0660    -0.5320 C.2   1 <1>   0.5690 
 15 C       -4.4430     6.5010     0.0550 C.ar  1 <1>  -0.1500 
 16 C       -4.9650     4.5160    -1.1780 C.ar  1 <1>  -0.1500 
 17 O       -0.2140     7.0930    -0.9930 O.2   1 <1>  -0.5700 
 18 N        1.2180     6.0980     0.4230 N.am  1 <1>  -0.6600 
 19 C       -5.3490     5.7540    -0.6910 C.ar  1 <1>   0.0820 
 20 C        1.7620     7.3660     0.9510 C.3   1 <1>   0.1400 
 21 C        1.9160     4.9340     1.0210 C.3   1 <1>   0.1400 
 22 O       -6.6090     6.1620    -0.9820 O.3   1 <1>  -0.3620 
 23 C        2.5370     6.9590     2.1970 C.3   1 <1>  -0.1600 
 24 C        3.0030     5.5350     1.9080 C.3   1 <1>  -0.1600 
 25 C       -7.0840     7.4230    -0.5660 C.3   1 <1>   0.0400 
 26 H       -0.5990     2.6710    -2.6010 H     1 <1>   0.0800 
 27 H        0.8370     1.8880    -1.9760 H     1 <1>   0.0800 
 28 H       -1.0570     4.7040     1.0380 H     1 <1>   0.0800 
 29 H       -3.1850     2.2180     1.3130 H     1 <1>   0.1000 
 30 H       -0.9790     4.9700    -1.8850 H     1 <1>   0.0800 
 31 H       -0.7820     3.3120     2.9760 H     1 <1>   0.1000 
 32 H       -2.4100     2.9260     3.6150 H     1 <1>   0.1000 
 33 H       -2.1300     0.5420     2.8590 H     1 <1>   0.1000 
 34 H       -0.5180     0.9280     2.1850 H     1 <1>   0.1000 
 35 H       -2.4880     6.6070     0.8780 H     1 <1>   0.1500 
 36 H       -3.4300     3.0590    -1.3210 H     1 <1>   0.1500 
 37 H       -4.7050     7.4660     0.4450 H     1 <1>   0.1500 
 38 H       -5.6680     3.9420    -1.7540 H     1 <1>   0.1500 
 39 H        2.4220     7.7960     0.2160 H     1 <1>   0.0800 
 40 H        0.9730     8.0630     1.1780 H     1 <1>   0.0800 
 41 H        1.2240     4.3590     1.6110 H     1 <1>   0.0800 
 42 H        2.3510     4.3100     0.2580 H     1 <1>   0.0800 
 43 H        3.3560     7.6280     2.3940 H     1 <1>   0.0800 
 44 H        1.8700     6.9630     3.0410 H     1 <1>   0.0800 
 45 H        3.1500     4.9600     2.8050 H     1 <1>   0.0800 
 46 H        3.9260     5.5600     1.3550 H     1 <1>   0.0800 
 47 H       -8.0940     7.5320    -0.9180 H     1 <1>   0.0800 
 48 H       -6.4630     8.1890    -0.9960 H     1 <1>   0.0800 
 49 H       -7.0640     7.4670     0.5080 H     1 <1>   0.0800 
@<TRIPOS>BOND
  1   1   2  2   
  2   2   3  am  
  3   2   4  1   
  4   3   5  1   
  5   3   6  1   
  6   4   7  1   
  7   4  26  1   
  8   4  27  1   
  9   5   8  1   
 10   5   9  1   
 11   5  28  1   
 12   6  10  1   
 13   6  11  1   
 14   6  29  1   
 15   7   9  1   
 16   8  12  ar  
 17   8  13  ar  
 18   9  14  1   
 19   9  30  1   
 20  10  11  1   
 21  10  31  1   
 22  10  32  1   
 23  11  33  1   
 24  11  34  1   
 25  12  15  ar  
 26  12  35  1   
 27  13  16  ar  
 28  13  36  1   
 29  14  17  2   
 30  14  18  am  
 31  15  19  ar  
 32  15  37  1   
 33  16  19  ar  
 34  16  38  1   
 35  18  20  1   
 36  18  21  1   
 37  19  22  1   
 38  20  23  1   
 39  20  39  1   
 40  20  40  1   
 41  21  24  1   
 42  21  41  1   
 43  21  42  1   
 44  22  25  1   
 45  23  24  1   
 46  23  43  1   
 47  23  44  1   
 48  24  45  1   
 49  24  46  1   
 50  25  47  1   
 51  25  48  1   
 52  25  49  1   
@<TRIPOS>SUBSTRUCTURE
  1 ****   5 GROUP 4 **** **** 0

# MOE 2024.06 (io_trps.svl 2023.06)
