@<TRIPOS>MOLECULE
NONAME
58 61 1 0 0 
SMALL
USER_CHARGES


@<TRIPOS>ATOM
  1 O        1.0770     0.3990    -1.1300 O.2   1 <1>  -0.5700 
  2 C        1.7910    -0.1320    -0.2970 C.2   1 <1>   0.7160 
  3 N        2.6480     0.6900     0.4230 N.am  1 <1>  -0.6600 
  4 C        1.7450    -1.5850    -0.1330 C.2   1 <1>   0.2030 
  5 C        3.4370     0.2320     1.6060 C.3   1 <1>   0.1400 
  6 C        2.9390     2.0810    -0.0110 C.3   1 <1>   0.1400 
  7 N        2.7110    -2.3790     0.3140 N.2   1 <1>  -0.7070 
  8 C        0.6240    -2.3480    -0.4680 C.2   1 <1>  -0.1500 
  9 C        4.8520    -0.2360     1.2120 C.3   1 <1>   0.3430 
 10 C        4.0470     2.0830    -1.0720 C.3   1 <1>  -0.1600 
 11 N        2.1900    -3.6180     0.2610 N.pl3 1 <1>   0.3000 
 12 C        0.9240    -3.6420    -0.2090 C.2   1 <1>  -0.2050 
 13 N        5.5910     0.7580     0.3660 N.4   1 <1>  -0.9590 
 14 C        5.0300     0.9090    -1.0040 C.3   1 <1>   0.3430 
 15 C        0.1310    -4.8360    -0.3570 C.ar  1 <1>   0.0530 
 16 C        7.0530     0.5120     0.3230 C.3   1 <1>   0.5240 
 17 C       -1.2300    -4.8180    -0.0670 C.ar  1 <1>  -0.1500 
 18 C        0.6890    -6.0390    -0.7890 C.ar  1 <1>  -0.1500 
 19 C        7.7010     1.8650     0.0700 C.2   1 <1>   0.0460 
 20 C       -2.0060    -5.9560    -0.1920 C.ar  1 <1>  -0.1500 
 21 C       -0.0820    -7.1810    -0.9140 C.ar  1 <1>  -0.1500 
 22 N        7.2030     2.9570     0.6920 N.2   1 <1>  -0.5650 
 23 C        8.7370     2.1960    -0.7350 C.2   1 <1>  -0.3320 
 24 C       -1.4320    -7.1420    -0.6140 C.ar  1 <1>  -0.1500 
 25 C        7.9470     3.9250     0.2640 C.2   1 <1>   0.0060 
 26 N        8.9000     3.5270    -0.6050 N.pl3 1 <1>   0.0330 
 27 C        9.6210     1.3530    -1.6400 C.3   1 <1>  -0.0600 
 28 C        7.7820     5.3740     0.6880 C.3   1 <1>   0.0200 
 29 C        7.2150     6.2260    -0.4520 C.3   1 <1>  -0.2400 
 30 H        2.9210    -0.5710     2.1020 H     1 <1>   0.0800 
 31 H        3.5130     1.0350     2.3190 H     1 <1>   0.0800 
 32 H        3.2460     2.6670     0.8380 H     1 <1>   0.0800 
 33 H        2.0490     2.5410    -0.4100 H     1 <1>   0.0800 
 34 H       -0.2950    -1.9500    -0.8640 H     1 <1>   0.1500 
 35 H        4.7710    -1.1710     0.6820 H     1 <1>   0.0800 
 36 H        5.4060    -0.4230     2.1170 H     1 <1>   0.0800 
 37 H        4.5880     3.0110    -1.0190 H     1 <1>   0.0800 
 38 H        3.5760     2.0570    -2.0390 H     1 <1>   0.0800 
 39 H        2.7010    -4.4570     0.5620 H     1 <1>   0.2700 
 40 H        5.5650     1.7000     0.7960 H     1 <1>   0.4500 
 41 H        5.8240     1.0920    -1.7110 H     1 <1>   0.0800 
 42 H        4.5260     0.0000    -1.2920 H     1 <1>   0.0800 
 43 H        7.3120    -0.1930    -0.4490 H     1 <1>   0.0800 
 44 H        7.3950     0.1440     1.2750 H     1 <1>   0.0800 
 45 H       -1.6840    -3.9020     0.2640 H     1 <1>   0.1500 
 46 H        1.7320    -6.0850    -1.0400 H     1 <1>   0.1500 
 47 H       -3.0560    -5.9200     0.0400 H     1 <1>   0.1500 
 48 H        0.3660    -8.1010    -1.2490 H     1 <1>   0.1500 
 49 H       -2.0330    -8.0290    -0.7110 H     1 <1>   0.1500 
 50 H        9.5970     4.1240    -1.0610 H     1 <1>   0.2700 
 51 H        9.3400     0.3170    -1.5990 H     1 <1>   0.0800 
 52 H       10.6500     1.4370    -1.3350 H     1 <1>   0.0800 
 53 H        9.5370     1.6890    -2.6590 H     1 <1>   0.0800 
 54 H        8.7330     5.7670     1.0030 H     1 <1>   0.0800 
 55 H        7.1140     5.4190     1.5310 H     1 <1>   0.0800 
 56 H        7.8840     6.2290    -1.2940 H     1 <1>   0.0800 
 57 H        7.0770     7.2400    -0.1200 H     1 <1>   0.0800 
 58 H        6.2630     5.8350    -0.7650 H     1 <1>   0.0800 
@<TRIPOS>BOND
  1   1   2  2   
  2   2   3  am  
  3   2   4  1   
  4   3   5  1   
  5   3   6  1   
  6   4   7  2   
  7   4   8  1   
  8   5   9  1   
  9   5  30  1   
 10   5  31  1   
 11   6  10  1   
 12   6  32  1   
 13   6  33  1   
 14   7  11  1   
 15   8  12  2   
 16   8  34  1   
 17   9  13  1   
 18   9  35  1   
 19   9  36  1   
 20  10  14  1   
 21  10  37  1   
 22  10  38  1   
 23  11  12  1   
 24  11  39  1   
 25  12  15  1   
 26  13  14  1   
 27  13  16  1   
 28  13  40  1   
 29  14  41  1   
 30  14  42  1   
 31  15  17  ar  
 32  15  18  ar  
 33  16  19  1   
 34  16  43  1   
 35  16  44  1   
 36  17  20  ar  
 37  17  45  1   
 38  18  21  ar  
 39  18  46  1   
 40  19  22  1   
 41  19  23  2   
 42  20  24  ar  
 43  20  47  1   
 44  21  24  ar  
 45  21  48  1   
 46  22  25  2   
 47  23  26  1   
 48  23  27  1   
 49  24  49  1   
 50  25  26  1   
 51  25  28  1   
 52  26  50  1   
 53  27  51  1   
 54  27  52  1   
 55  27  53  1   
 56  28  29  1   
 57  28  54  1   
 58  28  55  1   
 59  29  56  1   
 60  29  57  1   
 61  29  58  1   
@<TRIPOS>SUBSTRUCTURE
  1 ****   3 GROUP 4 **** **** 0

# MOE 2024.06 (io_trps.svl 2023.06)
