@<TRIPOS>MOLECULE
NONAME
49 53 1 0 0 
SMALL
USER_CHARGES


@<TRIPOS>ATOM
  1 O        0.9170     0.7990     0.8260 O.2   1 <1>  -0.5750 
  2 C        2.0750     0.7140     0.4920 C.2   1 <1>   0.6860 
  3 N        2.9260     1.8100     0.4830 N.am  1 <1>  -0.4420 
  4 N        2.5550    -0.5060     0.1140 N.am  1 <1>  -0.4950 
  5 C        4.2430     1.6000     0.0990 C.2   1 <1>   0.4200 
  6 C        2.4420     3.1640     0.8840 C.3   1 <1>   0.0520 
  7 C        3.8450    -0.7280    -0.2730 C.2   1 <1>   0.6990 
  8 N        5.2460     2.5150     0.0290 N.pl3 1 <1>  -0.7040 
  9 C        4.7350     0.3980    -0.2740 C.2   1 <1>   0.2700 
 10 O        4.1790    -1.8510    -0.5960 O.2   1 <1>  -0.5750 
 11 C        6.3630     1.8980    -0.3650 C.cat 1 <1>   1.0690 
 12 N        6.0940     0.6000    -0.5860 N.pl3 1 <1>  -0.7670 
 13 N        7.5470     2.5410    -0.4910 N.pl3 1 <1>  -0.5960 
 14 C        6.9140    -0.4780    -1.2150 C.3   1 <1>   0.2670 
 15 C        7.6460     4.0180    -0.7310 C.3   1 <1>   0.1600 
 16 C        8.8820     1.8930    -0.3170 C.3   1 <1>   0.1600 
 17 C        8.3760     4.7200     0.4210 C.3   1 <1>   0.0920 
 18 C        9.6550     2.5710     0.8210 C.3   1 <1>  -0.1680 
 19 C        8.4270     6.2090     0.1220 C.2   1 <1>   0.2920 
 20 C        9.7660     4.0900     0.6240 C.3   1 <1>  -0.1680 
 21 O        7.2810     6.8710     0.1750 O.3   1 <1>  -0.2870 
 22 N        9.4490     6.9070    -0.1970 N.2   1 <1>  -0.5700 
 23 C        7.5870     8.1170    -0.1310 C.ar  1 <1>   0.1320 
 24 C        8.9390     8.1590    -0.3660 C.ar  1 <1>   0.2200 
 25 C        6.7800     9.2420    -0.2280 C.ar  1 <1>  -0.1580 
 26 C        9.5440     9.3610    -0.7150 C.ar  1 <1>  -0.1580 
 27 C        7.3830    10.4360    -0.5750 C.ar  1 <1>  -0.1580 
 28 C        8.7590    10.4950    -0.8180 C.ar  1 <1>  -0.1580 
 29 H        1.9060    -1.2900     0.1280 H     1 <1>   0.3640 
 30 H        1.3710     3.1710     0.9940 H     1 <1>   0.0720 
 31 H        2.7060     3.8880     0.1330 H     1 <1>   0.0720 
 32 H        2.8820     3.4450     1.8250 H     1 <1>   0.0720 
 33 H        5.1870     3.4950     0.2860 H     1 <1>   0.4440 
 34 H        6.2990    -1.0850    -1.8590 H     1 <1>   0.0720 
 35 H        7.3390    -1.1090    -0.4530 H     1 <1>   0.0720 
 36 H        7.7020    -0.0570    -1.8150 H     1 <1>   0.0720 
 37 H        6.6730     4.4560    -0.8650 H     1 <1>   0.0720 
 38 H        8.1980     4.1850    -1.6420 H     1 <1>   0.0720 
 39 H        9.4410     1.9770    -1.2350 H     1 <1>   0.0720 
 40 H        8.7820     0.8520    -0.0710 H     1 <1>   0.0720 
 41 H        7.8070     4.5960     1.3250 H     1 <1>   0.0720 
 42 H       10.6440     2.1500     0.8760 H     1 <1>   0.0720 
 43 H        9.1660     2.3620     1.7580 H     1 <1>   0.0720 
 44 H       10.2440     4.5380     1.4790 H     1 <1>   0.0720 
 45 H       10.3830     4.2930    -0.2360 H     1 <1>   0.0720 
 46 H        5.7260     9.1720    -0.0350 H     1 <1>   0.1420 
 47 H       10.6030     9.3840    -0.8960 H     1 <1>   0.1420 
 48 H        6.7940    11.3330    -0.6610 H     1 <1>   0.1420 
 49 H        9.2080    11.4360    -1.0870 H     1 <1>   0.1420 
@<TRIPOS>BOND
  1   1   2  2   
  2   2   3  am  
  3   2   4  am  
  4   3   5  1   
  5   3   6  1   
  6   4   7  am  
  7   4  29  1   
  8   5   8  1   
  9   5   9  2   
 10   6  30  1   
 11   6  31  1   
 12   6  32  1   
 13   7   9  1   
 14   7  10  2   
 15   8  11  ar  
 16   8  33  1   
 17   9  12  1   
 18  11  12  ar  
 19  11  13  ar  
 20  12  14  1   
 21  13  15  1   
 22  13  16  1   
 23  14  34  1   
 24  14  35  1   
 25  14  36  1   
 26  15  17  1   
 27  15  37  1   
 28  15  38  1   
 29  16  18  1   
 30  16  39  1   
 31  16  40  1   
 32  17  19  1   
 33  17  20  1   
 34  17  41  1   
 35  18  20  1   
 36  18  42  1   
 37  18  43  1   
 38  19  21  1   
 39  19  22  2   
 40  20  44  1   
 41  20  45  1   
 42  21  23  1   
 43  22  24  1   
 44  23  24  ar  
 45  23  25  ar  
 46  24  26  ar  
 47  25  27  ar  
 48  25  46  1   
 49  26  28  ar  
 50  26  47  1   
 51  27  28  ar  
 52  27  48  1   
 53  28  49  1   
@<TRIPOS>SUBSTRUCTURE
  1 ****  15 GROUP 4 **** **** 0

# MOE 2024.06 (io_trps.svl 2023.06)
