@<TRIPOS>MOLECULE
NONAME
47 48 1 0 0 
SMALL
USER_CHARGES


@<TRIPOS>ATOM
  1 O        0.2090     0.6490    -0.1580 O.3   1 <1>  -0.2800 
  2 C        0.2180     1.9600    -0.0200 C.2   1 <1>  -0.0400 
  3 C       -0.8820     0.3210    -0.8210 C.2   1 <1>  -0.0100 
  4 C       -0.8820     2.4970    -0.5940 C.2   1 <1>  -0.1500 
  5 C        1.3910     2.5770     0.7230 C.3   1 <1>   0.0200 
  6 C       -1.6030     1.4200    -1.1230 C.2   1 <1>  -0.1500 
  7 C        1.6360     4.0740     0.4290 C.3   1 <1>  -0.0800 
  8 C        2.2470     4.3040    -0.9680 C.3   1 <1>   0.1200 
  9 C        2.5770     4.6410     1.5050 C.3   1 <1>   0.2090 
 10 O        1.3540     3.9400    -1.9590 O.3   1 <1>  -0.6800 
 11 N        2.7380     6.1110     1.3460 N.pl3 1 <1>  -0.8690 
 12 C        3.8180     6.7720     0.8710 C.ar  1 <1>   0.4100 
 13 N        4.8370     6.0430     0.4700 N.ar  1 <1>  -0.6200 
 14 C        3.8230     8.1890     0.8080 C.ar  1 <1>  -0.1430 
 15 C        5.9080     6.6640     0.0060 C.ar  1 <1>   0.7710 
 16 C        4.9490     8.8000     0.3400 C.ar  1 <1>   0.2180 
 17 C        2.5680     8.9480     1.2550 C.3   1 <1>  -0.0970 
 18 N        5.9670     8.0020    -0.0590 N.ar  1 <1>  -0.1790 
 19 N        6.9780     5.9350    -0.4210 N.pl3 1 <1>  -0.8380 
 20 C        5.1750    10.3020     0.2160 C.3   1 <1>  -0.0970 
 21 C        6.9010     4.4400    -0.5330 C.3   1 <1>   0.1290 
 22 C        8.3420     6.4510    -0.7610 C.3   1 <1>   0.1290 
 23 H       -1.0670    -0.7170    -1.0350 H     1 <1>   0.1500 
 24 H       -1.1790     3.5300    -0.6590 H     1 <1>   0.1500 
 25 H        2.2800     2.0210     0.4810 H     1 <1>   0.0800 
 26 H        1.2030     2.4350     1.7730 H     1 <1>   0.0800 
 27 H       -2.5360     1.4910    -1.6540 H     1 <1>   0.1500 
 28 H        0.7050     4.6080     0.5030 H     1 <1>   0.0800 
 29 H        3.1460     3.7270    -1.0960 H     1 <1>   0.0800 
 30 H        2.4780     5.3430    -1.1240 H     1 <1>   0.0800 
 31 H        3.5340     4.1490     1.4500 H     1 <1>   0.0800 
 32 H        2.1710     4.4490     2.4840 H     1 <1>   0.0800 
 33 H        1.0010     3.0400    -1.7900 H     1 <1>   0.4000 
 34 H        1.9150     6.6460     1.6350 H     1 <1>   0.4000 
 35 H        1.6990     8.5420     0.7660 H     1 <1>   0.0800 
 36 H        2.5990     9.9930     1.0120 H     1 <1>   0.0800 
 37 H        2.4390     8.8520     2.3190 H     1 <1>   0.0800 
 38 H        6.8200     8.3720    -0.4540 H     1 <1>   0.4570 
 39 H        4.5960    10.8480     0.9380 H     1 <1>   0.0800 
 40 H        4.8990    10.6360    -0.7690 H     1 <1>   0.0800 
 41 H        6.2070    10.5500     0.3890 H     1 <1>   0.0800 
 42 H        5.8850     4.1070    -0.6640 H     1 <1>   0.0800 
 43 H        7.3000     3.9860     0.3580 H     1 <1>   0.0800 
 44 H        7.4680     4.1000    -1.3830 H     1 <1>   0.0800 
 45 H        8.5150     7.4310    -0.3530 H     1 <1>   0.0800 
 46 H        8.4650     6.4830    -1.8320 H     1 <1>   0.0800 
 47 H        9.0920     5.7930    -0.3540 H     1 <1>   0.0800 
@<TRIPOS>BOND
  1   1   2  1   
  2   1   3  1   
  3   2   4  2   
  4   2   5  1   
  5   3   6  2   
  6   3  23  1   
  7   4   6  1   
  8   4  24  1   
  9   5   7  1   
 10   5  25  1   
 11   5  26  1   
 12   6  27  1   
 13   7   8  1   
 14   7   9  1   
 15   7  28  1   
 16   8  10  1   
 17   8  29  1   
 18   8  30  1   
 19   9  11  1   
 20   9  31  1   
 21   9  32  1   
 22  10  33  1   
 23  11  12  1   
 24  11  34  1   
 25  12  13  ar  
 26  12  14  ar  
 27  13  15  ar  
 28  14  16  ar  
 29  14  17  1   
 30  15  18  ar  
 31  15  19  1   
 32  16  18  ar  
 33  16  20  1   
 34  17  35  1   
 35  17  36  1   
 36  17  37  1   
 37  18  38  1   
 38  19  21  1   
 39  19  22  1   
 40  20  39  1   
 41  20  40  1   
 42  20  41  1   
 43  21  42  1   
 44  21  43  1   
 45  21  44  1   
 46  22  45  1   
 47  22  46  1   
 48  22  47  1   
@<TRIPOS>SUBSTRUCTURE
  1 ****   8 GROUP 4 **** **** 0

# MOE 2024.06 (io_trps.svl 2023.06)
