@<TRIPOS>MOLECULE
NONAME
49 51 1 0 0 
SMALL
USER_CHARGES


@<TRIPOS>ATOM
  1 O       -0.4320     0.2880    -0.3230 O.2   1 <1>  -0.5700 
  2 C       -1.5150     0.8240    -0.2920 C.2   1 <1>   0.5690 
  3 N       -2.6660     0.0890    -0.2360 N.am  1 <1>  -0.6600 
  4 C       -1.6050     2.3460    -0.3270 C.3   1 <1>  -0.0990 
  5 C       -4.0550     0.6100    -0.2670 C.3   1 <1>   0.1400 
  6 C       -2.6600    -1.3920    -0.1770 C.3   1 <1>   0.1400 
  7 C       -0.2500     3.0660    -0.1850 C.3   1 <1>  -0.1600 
  8 C       -4.9300    -0.6280    -0.4530 C.3   1 <1>   0.2000 
  9 C       -4.1100    -1.7880     0.1050 C.3   1 <1>  -0.0800 
 10 C       -0.3830     4.5950    -0.2630 C.3   1 <1>  -0.0800 
 11 O       -6.1300    -0.5120     0.2300 O.3   1 <1>  -0.6800 
 12 C       -4.5030    -3.1500    -0.4870 C.3   1 <1>   0.0210 
 13 C        0.9650     5.3030    -0.1630 C.3   1 <1>  -0.1600 
 14 C       -1.1930     5.2150     0.8760 C.3   1 <1>  -0.1600 
 15 C       -3.5940    -4.2480     0.0310 C.2   1 <1>   0.1080 
 16 C        0.6220     6.7380     0.2340 C.3   1 <1>  -0.1600 
 17 C       -0.7240     6.6690     0.9650 C.3   1 <1>  -0.1600 
 18 N       -3.5240    -4.5670     1.2860 N.2   1 <1>  -0.7070 
 19 C       -2.7400    -5.0130    -0.7550 C.2   1 <1>  -0.1500 
 20 N       -2.6130    -5.5570     1.3340 N.pl3 1 <1>   0.3000 
 21 C       -2.1230    -5.8450     0.1100 C.2   1 <1>  -0.3320 
 22 C       -1.0780    -6.9110    -0.1610 C.3   1 <1>  -0.0600 
 23 H       -2.0560     2.6300    -1.2590 H     1 <1>   0.0800 
 24 H       -2.2510     2.6570     0.4720 H     1 <1>   0.0800 
 25 H       -4.2720     1.0930     0.6700 H     1 <1>   0.0800 
 26 H       -4.1870     1.2960    -1.0850 H     1 <1>   0.0800 
 27 H       -2.3290    -1.7770    -1.1260 H     1 <1>   0.0800 
 28 H       -1.9990    -1.7440     0.5980 H     1 <1>   0.0800 
 29 H        0.4040     2.7340    -0.9740 H     1 <1>   0.0800 
 30 H        0.2040     2.7850     0.7500 H     1 <1>   0.0800 
 31 H       -5.1460    -0.7640    -1.4990 H     1 <1>   0.0800 
 32 H       -4.2200    -1.8270     1.1750 H     1 <1>   0.0800 
 33 H       -0.8390     4.8710    -1.2000 H     1 <1>   0.0800 
 34 H       -5.9780    -0.5880     1.1930 H     1 <1>   0.4000 
 35 H       -4.4470    -3.1180    -1.5600 H     1 <1>   0.0800 
 36 H       -5.5150    -3.3830    -0.2100 H     1 <1>   0.0800 
 37 H        1.5550     4.8530     0.6180 H     1 <1>   0.0800 
 38 H        1.5130     5.2600    -1.0880 H     1 <1>   0.0800 
 39 H       -2.2530     5.1500     0.6990 H     1 <1>   0.0800 
 40 H       -0.9590     4.7140     1.8000 H     1 <1>   0.0800 
 41 H        1.3910     7.1640     0.8550 H     1 <1>   0.0800 
 42 H        0.5170     7.3410    -0.6520 H     1 <1>   0.0800 
 43 H       -1.4330     7.3190     0.4810 H     1 <1>   0.0800 
 44 H       -0.6230     6.9700     1.9940 H     1 <1>   0.0800 
 45 H       -2.6170    -4.9370    -1.8200 H     1 <1>   0.1500 
 46 H       -2.3480    -6.0130     2.2160 H     1 <1>   0.2700 
 47 H       -0.8520    -6.9480    -1.2120 H     1 <1>   0.0800 
 48 H       -1.4410    -7.8750     0.1470 H     1 <1>   0.0800 
 49 H       -0.1720    -6.6880     0.3760 H     1 <1>   0.0800 
@<TRIPOS>BOND
  1   1   2  2   
  2   2   3  am  
  3   2   4  1   
  4   3   5  1   
  5   3   6  1   
  6   4   7  1   
  7   4  23  1   
  8   4  24  1   
  9   5   8  1   
 10   5  25  1   
 11   5  26  1   
 12   6   9  1   
 13   6  27  1   
 14   6  28  1   
 15   7  10  1   
 16   7  29  1   
 17   7  30  1   
 18   8   9  1   
 19   8  11  1   
 20   8  31  1   
 21   9  12  1   
 22   9  32  1   
 23  10  13  1   
 24  10  14  1   
 25  10  33  1   
 26  11  34  1   
 27  12  15  1   
 28  12  35  1   
 29  12  36  1   
 30  13  16  1   
 31  13  37  1   
 32  13  38  1   
 33  14  17  1   
 34  14  39  1   
 35  14  40  1   
 36  15  18  2   
 37  15  19  1   
 38  16  17  1   
 39  16  41  1   
 40  16  42  1   
 41  17  43  1   
 42  17  44  1   
 43  18  20  1   
 44  19  21  2   
 45  19  45  1   
 46  20  21  1   
 47  20  46  1   
 48  21  22  1   
 49  22  47  1   
 50  22  48  1   
 51  22  49  1   
@<TRIPOS>SUBSTRUCTURE
  1 ****   3 GROUP 4 **** **** 0

# MOE 2024.06 (io_trps.svl 2023.06)
