@<TRIPOS>MOLECULE
NONAME
57 60 1 0 0 
SMALL
USER_CHARGES


@<TRIPOS>ATOM
  1 O        0.4410     1.9890     1.3160 O.2   1 <1>  -0.5700 
  2 C        1.5270     2.0180     0.7880 C.2   1 <1>   0.5690 
  3 N        2.0430     3.1630     0.2340 N.am  1 <1>  -0.6600 
  4 C        2.3280     0.7260     0.7790 C.3   1 <1>  -0.0990 
  5 C        3.3230     3.2000    -0.5280 C.3   1 <1>   0.1400 
  6 C        1.2940     4.4500     0.2550 C.3   1 <1>   0.0600 
  7 C        3.5390     0.7350    -0.1690 C.3   1 <1>  -0.1600 
  8 C        4.3030     2.0730    -0.1220 C.3   1 <1>   0.0000 
  9 C        4.8930     2.3220     1.2880 C.3   1 <1>  -0.1600 
 10 C        5.4740     2.0070    -1.1250 C.3   1 <1>  -0.1600 
 11 C        5.8200     3.5410     1.3440 C.3   1 <1>   0.2090 
 12 C        6.3780     3.2410    -1.0610 C.3   1 <1>   0.2090 
 13 N        6.8850     3.4230     0.3210 N.pl3 1 <1>  -0.8380 
 14 C        7.8950     4.3470     0.4540 C.ar  1 <1>   0.4100 
 15 N        7.6930     5.5410    -0.0210 N.ar  1 <1>  -0.6200 
 16 C        9.0770     3.9660     1.1040 C.ar  1 <1>  -0.1500 
 17 C        8.6830     6.4620     0.1210 C.ar  1 <1>   0.3100 
 18 C       10.0950     4.8510     1.2710 C.ar  1 <1>  -0.1440 
 19 C        8.4920     7.7780    -0.3880 C.ar  1 <1>   0.0820 
 20 C        9.9100     6.1600     0.7660 C.ar  1 <1>   0.0000 
 21 C       11.3780     4.4330     1.9760 C.3   1 <1>  -0.0970 
 22 O        7.3030     8.0470    -1.0050 O.3   1 <1>  -0.3620 
 23 C        9.4740     8.7360    -0.2600 C.ar  1 <1>  -0.1500 
 24 C       10.8850     7.1700     0.8740 C.ar  1 <1>  -0.1500 
 25 C        6.9960     9.3050    -1.5620 C.3   1 <1>   0.0400 
 26 C       10.6840     8.4290     0.3780 C.ar  1 <1>   0.0820 
 27 O       11.6920     9.3240     0.5390 O.3   1 <1>  -0.3620 
 28 C       11.5890    10.6510     0.0720 C.3   1 <1>   0.0400 
 29 H        1.6710    -0.0810     0.5120 H     1 <1>   0.0800 
 30 H        2.6600     0.5480     1.7850 H     1 <1>   0.0800 
 31 H        3.7870     4.1610    -0.3910 H     1 <1>   0.0800 
 32 H        3.0860     3.1040    -1.5730 H     1 <1>   0.0800 
 33 H        0.3790     4.3520     0.8140 H     1 <1>   0.0800 
 34 H        1.0530     4.7460    -0.7500 H     1 <1>   0.0800 
 35 H        1.8960     5.2120     0.7170 H     1 <1>   0.0800 
 36 H        3.1830     0.5730    -1.1720 H     1 <1>   0.0800 
 37 H        4.1930    -0.0820     0.0810 H     1 <1>   0.0800 
 38 H        5.4600     1.4630     1.5990 H     1 <1>   0.0800 
 39 H        4.1090     2.4690     2.0080 H     1 <1>   0.0800 
 40 H        5.1000     1.9010    -2.1270 H     1 <1>   0.0800 
 41 H        6.0830     1.1450    -0.9160 H     1 <1>   0.0800 
 42 H        6.2710     3.6050     2.3190 H     1 <1>   0.0800 
 43 H        5.2660     4.4490     1.1780 H     1 <1>   0.0800 
 44 H        5.8420     4.1240    -1.3660 H     1 <1>   0.0800 
 45 H        7.2130     3.1150    -1.7290 H     1 <1>   0.0800 
 46 H        9.1320     2.9530     1.4530 H     1 <1>   0.1500 
 47 H       11.3270     3.4050     2.2840 H     1 <1>   0.0800 
 48 H       11.5340     5.0410     2.8490 H     1 <1>   0.0800 
 49 H       12.2160     4.5460     1.3120 H     1 <1>   0.0800 
 50 H        9.3270     9.7230    -0.6440 H     1 <1>   0.1500 
 51 H       11.8190     6.9590     1.3580 H     1 <1>   0.1500 
 52 H        6.0110     9.2470    -1.9880 H     1 <1>   0.0800 
 53 H        7.7130     9.5300    -2.3310 H     1 <1>   0.0800 
 54 H        7.0140    10.0460    -0.7830 H     1 <1>   0.0800 
 55 H       12.5030    11.1620     0.3160 H     1 <1>   0.0800 
 56 H       10.7610    11.1310     0.5620 H     1 <1>   0.0800 
 57 H       11.4540    10.6360    -0.9950 H     1 <1>   0.0800 
@<TRIPOS>BOND
  1   1   2  2   
  2   2   3  am  
  3   2   4  1   
  4   3   5  1   
  5   3   6  1   
  6   4   7  1   
  7   4  29  1   
  8   4  30  1   
  9   5   8  1   
 10   5  31  1   
 11   5  32  1   
 12   6  33  1   
 13   6  34  1   
 14   6  35  1   
 15   7   8  1   
 16   7  36  1   
 17   7  37  1   
 18   8   9  1   
 19   8  10  1   
 20   9  11  1   
 21   9  38  1   
 22   9  39  1   
 23  10  12  1   
 24  10  40  1   
 25  10  41  1   
 26  11  13  1   
 27  11  42  1   
 28  11  43  1   
 29  12  13  1   
 30  12  44  1   
 31  12  45  1   
 32  13  14  1   
 33  14  15  ar  
 34  14  16  ar  
 35  15  17  ar  
 36  16  18  ar  
 37  16  46  1   
 38  17  19  ar  
 39  17  20  ar  
 40  18  20  ar  
 41  18  21  1   
 42  19  22  1   
 43  19  23  ar  
 44  20  24  ar  
 45  21  47  1   
 46  21  48  1   
 47  21  49  1   
 48  22  25  1   
 49  23  26  ar  
 50  23  50  1   
 51  24  26  ar  
 52  24  51  1   
 53  25  52  1   
 54  25  53  1   
 55  25  54  1   
 56  26  27  1   
 57  27  28  1   
 58  28  55  1   
 59  28  56  1   
 60  28  57  1   
@<TRIPOS>SUBSTRUCTURE
  1 ****  15 GROUP 4 **** **** 0

# MOE 2024.06 (io_trps.svl 2023.06)
