@<TRIPOS>MOLECULE
NONAME
45 48 1 0 0 
SMALL
USER_CHARGES


@<TRIPOS>ATOM
  1 O       -0.3560    -0.6160    -0.6200 O.co2 1 <1>  -0.9000 
  2 C       -1.1030    -0.1670     0.2680 C.2   1 <1>   0.9790 
  3 O       -0.8370    -0.4270     1.4550 O.co2 1 <1>  -0.9000 
  4 C       -2.2830     0.5640    -0.0970 C.ar  1 <1>  -0.1790 
  5 C       -2.6250     1.8580     0.3090 C.ar  1 <1>   0.1000 
  6 C       -3.1540    -0.1330    -0.9480 C.ar  1 <1>   0.1600 
  7 N       -1.8060     2.7600     0.9860 N.3   1 <1>  -0.5900 
  8 C       -3.9220     2.2750    -0.0570 C.ar  1 <1>   0.0000 
  9 N       -4.3230     0.2750    -1.3750 N.ar  1 <1>  -0.5670 
 10 C       -0.4070     2.4990     1.5150 C.3   1 <1>   0.2450 
 11 C       -1.2240     3.9330     0.2400 C.3   1 <1>   0.2450 
 12 C       -4.6750     1.4800    -0.8920 C.ar  1 <1>   0.1050 
 13 C       -4.7770     3.3700     0.2050 C.2   1 <1>   0.1080 
 14 C       -0.1560     4.0100     1.3530 C.3   1 <1>   0.2580 
 15 N       -5.8430     2.1400    -1.1080 N.pl3 1 <1>   0.3140 
 16 N       -5.9030     3.3040    -0.4240 N.2   1 <1>  -0.7070 
 17 C       -4.4890     4.5170     1.1480 C.3   1 <1>  -0.0590 
 18 O        1.1370     4.3070     0.8520 O.3   1 <1>  -0.3400 
 19 C       -6.9530     1.6640    -1.9400 C.3   1 <1>   0.0160 
 20 C        1.4630     5.5630     0.4590 C.ar  1 <1>   0.0820 
 21 C        2.6620     5.7120    -0.2190 C.ar  1 <1>  -0.1500 
 22 C        0.6670     6.6810     0.6970 C.ar  1 <1>  -0.1500 
 23 C        3.0750     6.9570    -0.6650 C.ar  1 <1>  -0.1430 
 24 C        1.0770     7.9260     0.2530 C.ar  1 <1>  -0.1500 
 25 C        2.2760     8.0630    -0.4250 C.ar  1 <1>  -0.1500 
 26 C        4.3900     7.1140    -1.4070 C.3   1 <1>  -0.0970 
 27 H       -2.8220    -1.1040    -1.2810 H     1 <1>   0.1500 
 28 H        0.1930     1.9110     0.8430 H     1 <1>   0.0000 
 29 H       -0.4200     2.1650     2.5370 H     1 <1>   0.0000 
 30 H       -1.8860     4.7770     0.2230 H     1 <1>   0.0000 
 31 H       -0.8450     3.6380    -0.7240 H     1 <1>   0.0000 
 32 H       -0.4090     4.5990     2.2170 H     1 <1>   0.0000 
 33 H       -3.8460     4.1940     1.9450 H     1 <1>   0.0800 
 34 H       -5.4100     4.8710     1.5740 H     1 <1>   0.0800 
 35 H       -4.0280     5.3220     0.6100 H     1 <1>   0.0800 
 36 H       -6.5760     1.4070    -2.9120 H     1 <1>   0.0800 
 37 H       -7.6910     2.4400    -2.0250 H     1 <1>   0.0800 
 38 H       -7.3850     0.7970    -1.4780 H     1 <1>   0.0800 
 39 H        3.2660     4.8390    -0.3920 H     1 <1>   0.1500 
 40 H       -0.2640     6.6040     1.2240 H     1 <1>   0.1500 
 41 H        0.4640     8.7910     0.4360 H     1 <1>   0.1500 
 42 H        2.5870     9.0360    -0.7650 H     1 <1>   0.1500 
 43 H        4.7300     6.1660    -1.7840 H     1 <1>   0.0800 
 44 H        5.1370     7.5100    -0.7430 H     1 <1>   0.0800 
 45 H        4.2690     7.7860    -2.2370 H     1 <1>   0.0800 
@<TRIPOS>BOND
  1   1   2  ar  
  2   2   3  ar  
  3   2   4  1   
  4   4   5  ar  
  5   4   6  ar  
  6   5   7  1   
  7   5   8  ar  
  8   6   9  ar  
  9   6  27  1   
 10   7  10  1   
 11   7  11  1   
 12   8  12  ar  
 13   8  13  1   
 14   9  12  ar  
 15  10  14  1   
 16  10  28  1   
 17  10  29  1   
 18  11  14  1   
 19  11  30  1   
 20  11  31  1   
 21  12  15  1   
 22  13  16  2   
 23  13  17  1   
 24  14  18  1   
 25  14  32  1   
 26  15  16  1   
 27  15  19  1   
 28  17  33  1   
 29  17  34  1   
 30  17  35  1   
 31  18  20  1   
 32  19  36  1   
 33  19  37  1   
 34  19  38  1   
 35  20  21  ar  
 36  20  22  ar  
 37  21  23  ar  
 38  21  39  1   
 39  22  24  ar  
 40  22  40  1   
 41  23  25  ar  
 42  23  26  1   
 43  24  25  ar  
 44  24  41  1   
 45  25  42  1   
 46  26  43  1   
 47  26  44  1   
 48  26  45  1   
@<TRIPOS>SUBSTRUCTURE
  1 ****  11 GROUP 4 **** **** 0

# MOE 2024.06 (io_trps.svl 2023.06)
