@<TRIPOS>MOLECULE
NONAME
45 47 1 0 0 
SMALL
USER_CHARGES


@<TRIPOS>ATOM
  1 S       -0.0500     0.4730    -1.9040 S.o2  1 <1>   1.4470 
  2 O        0.3850    -0.4230    -2.9560 O.2   1 <1>  -0.6500 
  3 O       -0.5050     1.7940    -2.2850 O.2   1 <1>  -0.6500 
  4 N       -1.3280    -0.2950    -1.1060 N.am  1 <1>  -0.8490 
  5 C        1.2530     0.6210    -0.6370 C.ar  1 <1>  -0.0090 
  6 C       -0.9880    -1.6390    -0.5920 C.3   1 <1>   0.1960 
  7 C       -2.5970    -0.2480    -1.8200 C.3   1 <1>   0.1960 
  8 C        1.0470     1.1930     0.6220 C.ar  1 <1>  -0.1440 
  9 C        2.5250     0.1440    -0.9310 C.ar  1 <1>  -0.1500 
 10 C       -2.2190    -2.5000    -0.2950 C.3   1 <1>  -0.1860 
 11 C       -3.7510    -0.5660    -0.8550 C.3   1 <1>  -0.1600 
 12 C        2.0930     1.2660     1.5280 C.ar  1 <1>  -0.1500 
 13 C       -0.3100     1.7380     1.0550 C.3   1 <1>  -0.0970 
 14 C        3.5890     0.2060    -0.0360 C.ar  1 <1>   0.0530 
 15 C       -1.8440    -3.5690     0.6980 C.2   1 <1>   0.9060 
 16 C       -3.4220    -1.6720     0.1600 C.3   1 <1>   0.2000 
 17 C        3.3440     0.7820     1.2040 C.ar  1 <1>  -0.1500 
 18 C        4.8920    -0.3130    -0.3870 C.2   1 <1>   0.0870 
 19 O       -1.6300    -4.7060     0.2770 O.co2 1 <1>  -0.9000 
 20 O       -1.7450    -3.2660     1.8940 O.co2 1 <1>  -0.9000 
 21 O       -3.1280    -1.0900     1.3780 O.3   1 <1>  -0.6800 
 22 O        5.9480    -0.0680     0.3530 O.3   1 <1>  -0.2800 
 23 C        5.3330    -1.0770    -1.4110 C.2   1 <1>   0.0770 
 24 C        6.9560    -0.6670    -0.2280 C.2   1 <1>   0.2980 
 25 N        6.6550    -1.2980    -1.3030 N.2   1 <1>  -0.5650 
 26 C        8.3270    -0.5650     0.3950 C.3   1 <1>  -0.0600 
 27 H       -0.3680    -2.1710    -1.2950 H     1 <1>   0.0800 
 28 H       -0.4210    -1.5150     0.3170 H     1 <1>   0.0800 
 29 H       -2.7560     0.7320    -2.2380 H     1 <1>   0.0800 
 30 H       -2.5740    -0.9590    -2.6300 H     1 <1>   0.0800 
 31 H        2.6940    -0.2960    -1.8980 H     1 <1>   0.1500 
 32 H       -2.4930    -3.0100    -1.1990 H     1 <1>   0.0800 
 33 H       -4.5910    -0.8800    -1.4460 H     1 <1>   0.0800 
 34 H       -4.0420     0.3290    -0.3350 H     1 <1>   0.0800 
 35 H        1.9360     1.6990     2.5010 H     1 <1>   0.1500 
 36 H       -0.2190     2.3500     1.9330 H     1 <1>   0.0800 
 37 H       -0.9780     0.9250     1.2850 H     1 <1>   0.0800 
 38 H       -0.7510     2.3380     0.2810 H     1 <1>   0.0800 
 39 H       -4.2740    -2.3130     0.3170 H     1 <1>   0.0800 
 40 H        4.1400     0.8470     1.9250 H     1 <1>   0.1500 
 41 H       -2.6100    -1.7800     1.8900 H     1 <1>   0.4000 
 42 H        4.7630    -1.4850    -2.2270 H     1 <1>   0.1500 
 43 H        9.0390    -1.1070    -0.2000 H     1 <1>   0.0800 
 44 H        8.3050    -0.9800     1.3850 H     1 <1>   0.0800 
 45 H        8.6230     0.4660     0.4480 H     1 <1>   0.0800 
@<TRIPOS>BOND
  1   1   2  2   
  2   1   3  2   
  3   1   4  am  
  4   1   5  1   
  5   4   6  1   
  6   4   7  1   
  7   5   8  ar  
  8   5   9  ar  
  9   6  10  1   
 10   6  27  1   
 11   6  28  1   
 12   7  11  1   
 13   7  29  1   
 14   7  30  1   
 15   8  12  ar  
 16   8  13  1   
 17   9  14  ar  
 18   9  31  1   
 19  10  15  1   
 20  10  16  1   
 21  10  32  1   
 22  11  16  1   
 23  11  33  1   
 24  11  34  1   
 25  12  17  ar  
 26  12  35  1   
 27  13  36  1   
 28  13  37  1   
 29  13  38  1   
 30  14  17  ar  
 31  14  18  1   
 32  15  19  ar  
 33  15  20  ar  
 34  16  21  1   
 35  16  39  1   
 36  17  40  1   
 37  18  22  1   
 38  18  23  2   
 39  21  41  1   
 40  22  24  1   
 41  23  25  1   
 42  23  42  1   
 43  24  25  2   
 44  24  26  1   
 45  26  43  1   
 46  26  44  1   
 47  26  45  1   
@<TRIPOS>SUBSTRUCTURE
  1 ****   5 GROUP 4 **** **** 0

# MOE 2024.06 (io_trps.svl 2023.06)
