@<TRIPOS>MOLECULE
NONAME
50 52 1 0 0 
SMALL
USER_CHARGES


@<TRIPOS>ATOM
  1 CL      -2.1400    -1.2290    -3.2700 Cl    1 <1>  -0.1770 
  2 C       -2.4320    -2.2440    -1.8820 C.ar  1 <1>   0.1770 
  3 C       -3.5610    -2.0280    -1.1140 C.ar  1 <1>  -0.1500 
  4 C       -1.5340    -3.2470    -1.5740 C.ar  1 <1>  -0.1500 
  5 C       -3.8090    -2.8340    -0.0110 C.ar  1 <1>  -0.1440 
  6 C       -1.7720    -4.0480    -0.4710 C.ar  1 <1>  -0.1500 
  7 C       -2.9010    -3.8400     0.3050 C.ar  1 <1>  -0.1500 
  8 C       -5.0660    -2.6040     0.8280 C.3   1 <1>   0.4040 
  9 O       -4.7020    -1.8350     1.9320 O.3   1 <1>  -0.6800 
 10 C       -5.7510    -3.9230     1.2620 C.2   1 <1>   0.5690 
 11 O       -5.5180    -4.3420     2.3780 O.2   1 <1>  -0.5700 
 12 N       -6.5940    -4.6060     0.4150 N.am  1 <1>  -0.6600 
 13 C       -7.2400    -5.8920     0.8310 C.3   1 <1>   0.1400 
 14 C       -6.9280    -4.1830    -0.9740 C.3   1 <1>   0.1400 
 15 C       -8.7250    -5.7100     1.1770 C.3   1 <1>   0.1400 
 16 C       -8.1340    -3.2340    -1.0030 C.3   1 <1>  -0.1600 
 17 N       -9.4880    -5.0480     0.0700 N.am  1 <1>  -0.6600 
 18 C       -9.2750    -3.5800    -0.0330 C.3   1 <1>   0.1400 
 19 C      -10.1800    -5.7420    -0.9010 C.2   1 <1>   0.7160 
 20 O      -10.5100    -5.1610    -1.9180 O.2   1 <1>  -0.5700 
 21 C      -10.4840    -7.1450    -0.7530 C.2   1 <1>  -0.0860 
 22 C      -11.1980    -7.7980     0.2050 C.2   1 <1>  -0.0400 
 23 C      -10.0760    -8.1660    -1.6340 C.2   1 <1>  -0.1500 
 24 O      -11.2190    -9.0890    -0.0200 O.3   1 <1>  -0.2800 
 25 C      -11.9410    -7.2720     1.4160 C.3   1 <1>  -0.0600 
 26 C      -10.5500    -9.3210    -1.1280 C.2   1 <1>  -0.0400 
 27 C      -10.4390   -10.7450    -1.6240 C.3   1 <1>  -0.0600 
 28 H       -4.2300    -1.2310    -1.3830 H     1 <1>   0.1500 
 29 H       -0.6630    -3.3940    -2.1880 H     1 <1>   0.1500 
 30 H       -1.0790    -4.8310    -0.2140 H     1 <1>   0.1500 
 31 H       -3.0650    -4.4720     1.1630 H     1 <1>   0.1500 
 32 H       -5.7670    -2.0130     0.2710 H     1 <1>   0.0800 
 33 H       -4.4530    -2.4590     2.6460 H     1 <1>   0.4000 
 34 H       -6.7340    -6.3000     1.6890 H     1 <1>   0.0800 
 35 H       -7.1460    -6.6150     0.0390 H     1 <1>   0.0800 
 36 H       -7.1640    -5.0570    -1.5590 H     1 <1>   0.0800 
 37 H       -6.0780    -3.7160    -1.4410 H     1 <1>   0.0800 
 38 H       -8.8060    -5.1180     2.0720 H     1 <1>   0.0800 
 39 H       -9.1410    -6.6750     1.3990 H     1 <1>   0.0800 
 40 H       -8.5300    -3.2300    -2.0030 H     1 <1>   0.0800 
 41 H       -7.8100    -2.2300    -0.8010 H     1 <1>   0.0800 
 42 H      -10.1840    -3.1080    -0.3660 H     1 <1>   0.0800 
 43 H       -9.0440    -3.1870     0.9430 H     1 <1>   0.0800 
 44 H       -9.5010    -8.0040    -2.5280 H     1 <1>   0.1500 
 45 H      -11.8630    -6.2020     1.4730 H     1 <1>   0.0800 
 46 H      -11.5330    -7.7050     2.3100 H     1 <1>   0.0800 
 47 H      -12.9790    -7.5400     1.3430 H     1 <1>   0.0800 
 48 H       -9.8730   -10.7790    -2.5360 H     1 <1>   0.0800 
 49 H      -11.4210   -11.1410    -1.8050 H     1 <1>   0.0800 
 50 H       -9.9500   -11.3500    -0.8830 H     1 <1>   0.0800 
@<TRIPOS>BOND
  1   1   2  1   
  2   2   3  ar  
  3   2   4  ar  
  4   3   5  ar  
  5   3  28  1   
  6   4   6  ar  
  7   4  29  1   
  8   5   7  ar  
  9   5   8  1   
 10   6   7  ar  
 11   6  30  1   
 12   7  31  1   
 13   8   9  1   
 14   8  10  1   
 15   8  32  1   
 16   9  33  1   
 17  10  11  2   
 18  10  12  am  
 19  12  13  1   
 20  12  14  1   
 21  13  15  1   
 22  13  34  1   
 23  13  35  1   
 24  14  16  1   
 25  14  36  1   
 26  14  37  1   
 27  15  17  1   
 28  15  38  1   
 29  15  39  1   
 30  16  18  1   
 31  16  40  1   
 32  16  41  1   
 33  17  18  1   
 34  17  19  am  
 35  18  42  1   
 36  18  43  1   
 37  19  20  2   
 38  19  21  1   
 39  21  22  2   
 40  21  23  1   
 41  22  24  1   
 42  22  25  1   
 43  23  26  2   
 44  23  44  1   
 45  24  26  1   
 46  25  45  1   
 47  25  46  1   
 48  25  47  1   
 49  26  27  1   
 50  27  48  1   
 51  27  49  1   
 52  27  50  1   
@<TRIPOS>SUBSTRUCTURE
  1 ****  12 GROUP 4 **** **** 0

# MOE 2024.06 (io_trps.svl 2023.06)
