@<TRIPOS>MOLECULE
NONAME
48 51 1 0 0 
SMALL
USER_CHARGES


@<TRIPOS>ATOM
  1 S       -3.4130    -1.2130     3.4480 S.3   1 <1>  -0.0800 
  2 C       -3.7330    -2.4830     2.2820 C.2   1 <1>  -0.1100 
  3 C       -2.7820    -0.1620     2.1950 C.2   1 <1>  -0.1100 
  4 C       -3.3790    -2.0940     1.0410 C.2   1 <1>  -0.1810 
  5 C       -2.8320    -0.7680     0.9950 C.2   1 <1>  -0.1500 
  6 C       -3.5330    -2.9270    -0.2140 C.3   1 <1>   0.5240 
  7 N       -4.9800    -3.0950    -0.4920 N.4   1 <1>  -0.9590 
  8 C       -5.2810    -4.1050    -1.5520 C.3   1 <1>   0.3430 
  9 C       -5.7240    -1.8190    -0.6530 C.3   1 <1>   0.3430 
 10 C       -6.7830    -4.4710    -1.5900 C.3   1 <1>   0.1400 
 11 C       -6.9350    -1.8380     0.2800 C.3   1 <1>  -0.1600 
 12 N       -7.4430    -4.2580    -0.2650 N.am  1 <1>  -0.6600 
 13 C       -8.0070    -2.8900    -0.0430 C.3   1 <1>   0.1400 
 14 C       -7.1220    -5.0710     0.7920 C.2   1 <1>   0.5440 
 15 O       -6.2240    -4.6760     1.5130 O.2   1 <1>  -0.5700 
 16 C       -7.7190    -6.3850     0.9790 C.ar  1 <1>   0.0860 
 17 C       -9.0770    -6.6730     0.7490 C.ar  1 <1>  -0.0230 
 18 C       -6.9040    -7.4350     1.4070 C.ar  1 <1>  -0.1500 
 19 N       -9.9920    -5.6660     0.3650 N.pl3 1 <1>   0.3260 
 20 C       -9.5570    -7.9680     0.9140 C.ar  1 <1>  -0.1500 
 21 C       -7.3890    -8.7170     1.5730 C.ar  1 <1>  -0.1500 
 22 C      -10.3910    -5.3120    -0.8630 C.2   1 <1>   0.0360 
 23 C      -10.6050    -4.7470     1.1230 C.2   1 <1>   0.0360 
 24 C       -8.7210    -8.9870     1.3210 C.ar  1 <1>  -0.1500 
 25 N      -11.1410    -4.2660    -0.8550 N.2   1 <1>  -0.3380 
 26 N      -11.2800    -3.9040     0.4230 N.2   1 <1>  -0.3380 
 27 H       -4.1640    -3.3930     2.6660 H     1 <1>   0.1500 
 28 H       -2.4340     0.8110     2.4990 H     1 <1>   0.1500 
 29 H       -2.4930    -0.3200     0.0750 H     1 <1>   0.1500 
 30 H       -3.0760    -3.8910    -0.0530 H     1 <1>   0.0800 
 31 H       -3.0420    -2.4450    -1.0430 H     1 <1>   0.0800 
 32 H       -5.3790    -3.5100     0.3800 H     1 <1>   0.4500 
 33 H       -4.7260    -5.0050    -1.3450 H     1 <1>   0.0800 
 34 H       -4.9710    -3.7440    -2.5190 H     1 <1>   0.0800 
 35 H       -6.0390    -1.6880    -1.6750 H     1 <1>   0.0800 
 36 H       -5.0960    -0.9860    -0.3820 H     1 <1>   0.0800 
 37 H       -6.8890    -5.5010    -1.8850 H     1 <1>   0.0800 
 38 H       -7.2790    -3.8740    -2.3360 H     1 <1>   0.0800 
 39 H       -7.4050    -0.8720     0.2390 H     1 <1>   0.0800 
 40 H       -6.6020    -1.9680     1.2950 H     1 <1>   0.0800 
 41 H       -8.5670    -2.5940    -0.9150 H     1 <1>   0.0800 
 42 H       -8.7010    -2.9220     0.7790 H     1 <1>   0.0800 
 43 H       -5.8650    -7.2440     1.6160 H     1 <1>   0.1500 
 44 H      -10.5970    -8.1870     0.7300 H     1 <1>   0.1500 
 45 H       -6.7350    -9.5090     1.9020 H     1 <1>   0.1500 
 46 H      -10.0960    -5.8530    -1.7430 H     1 <1>   0.1500 
 47 H      -10.5190    -4.7330     2.1940 H     1 <1>   0.1500 
 48 H       -9.1010    -9.9870     1.4480 H     1 <1>   0.1500 
@<TRIPOS>BOND
  1   1   2  1   
  2   1   3  1   
  3   2   4  2   
  4   2  27  1   
  5   3   5  2   
  6   3  28  1   
  7   4   5  1   
  8   4   6  1   
  9   5  29  1   
 10   6   7  1   
 11   6  30  1   
 12   6  31  1   
 13   7   8  1   
 14   7   9  1   
 15   7  32  1   
 16   8  10  1   
 17   8  33  1   
 18   8  34  1   
 19   9  11  1   
 20   9  35  1   
 21   9  36  1   
 22  10  12  1   
 23  10  37  1   
 24  10  38  1   
 25  11  13  1   
 26  11  39  1   
 27  11  40  1   
 28  12  13  1   
 29  12  14  am  
 30  13  41  1   
 31  13  42  1   
 32  14  15  2   
 33  14  16  1   
 34  16  17  ar  
 35  16  18  ar  
 36  17  19  1   
 37  17  20  ar  
 38  18  21  ar  
 39  18  43  1   
 40  19  22  1   
 41  19  23  1   
 42  20  24  ar  
 43  20  44  1   
 44  21  24  ar  
 45  21  45  1   
 46  22  25  2   
 47  22  46  1   
 48  23  26  2   
 49  23  47  1   
 50  24  48  1   
 51  25  26  1   
@<TRIPOS>SUBSTRUCTURE
  1 ****  14 GROUP 4 **** **** 0

# MOE 2024.06 (io_trps.svl 2023.06)
