@<TRIPOS>MOLECULE
NONAME
55 57 1 0 0 
SMALL
USER_CHARGES


@<TRIPOS>ATOM
  1 F       -1.5180    -0.6760     1.3480 F     1 <1>  -0.1900 
  2 C       -2.1480     0.1610     0.5650 C.ar  1 <1>   0.1900 
  3 C       -2.9450    -0.3420    -0.4460 C.ar  1 <1>  -0.1440 
  4 C       -2.0000     1.5130     0.7990 C.ar  1 <1>  -0.1500 
  5 C       -3.6090     0.5650    -1.2550 C.ar  1 <1>  -0.1500 
  6 C       -3.0920    -1.8350    -0.6560 C.3   1 <1>   0.4870 
  7 C       -2.6800     2.4220    -0.0080 C.ar  1 <1>   0.0820 
  8 C       -3.4900     1.9320    -1.0530 C.ar  1 <1>   0.0820 
  9 N       -4.4170    -2.2600    -0.1330 N.4   1 <1>  -0.9590 
 10 O       -2.5830     3.7630     0.2140 O.3   1 <1>  -0.3620 
 11 O       -4.2150     2.6790    -1.9340 O.3   1 <1>  -0.3620 
 12 C       -4.7230    -3.6460    -0.6350 C.3   1 <1>   0.3430 
 13 C       -4.4970    -2.1120     1.3500 C.3   1 <1>   0.3430 
 14 C       -1.7660     4.3120     1.2270 C.3   1 <1>   0.0400 
 15 C       -3.9190     4.0310    -2.2120 C.3   1 <1>   0.0400 
 16 C       -5.0130    -4.6810     0.4570 C.3   1 <1>  -0.1060 
 17 C       -5.8210    -2.6690     1.8690 C.3   1 <1>  -0.1600 
 18 C       -5.6130    -5.8690    -0.2690 C.2   1 <1>   0.9060 
 19 C       -6.1130    -4.0890     1.3590 C.3   1 <1>   0.2000 
 20 C       -3.7540    -5.1680     1.2460 C.3   1 <1>  -0.0170 
 21 O       -5.4890    -5.9390    -1.4950 O.co2 1 <1>  -0.9000 
 22 O       -6.2340    -6.7060     0.3920 O.co2 1 <1>  -0.9000 
 23 O       -6.3020    -4.9180     2.4410 O.3   1 <1>  -0.6800 
 24 C       -2.4180    -4.9350     0.5440 C.ar  1 <1>  -0.1440 
 25 C       -1.4440    -4.1460     1.1390 C.ar  1 <1>  -0.1500 
 26 C       -2.1590    -5.5160    -0.6880 C.ar  1 <1>  -0.1500 
 27 C       -0.2440    -3.9070     0.4920 C.ar  1 <1>  -0.1500 
 28 C       -0.9600    -5.2780    -1.3360 C.ar  1 <1>  -0.1500 
 29 C       -0.0030    -4.4690    -0.7490 C.ar  1 <1>  -0.1500 
 30 H       -1.3640     1.8230     1.6060 H     1 <1>   0.1500 
 31 H       -4.2340     0.2290    -2.0660 H     1 <1>   0.1500 
 32 H       -2.3020    -2.3640    -0.1540 H     1 <1>   0.0800 
 33 H       -3.0240    -2.0550    -1.7090 H     1 <1>   0.0800 
 34 H       -5.1130    -1.6280    -0.5440 H     1 <1>   0.4500 
 35 H       -5.5950    -3.5950    -1.2680 H     1 <1>   0.0800 
 36 H       -3.9250    -4.0100    -1.2600 H     1 <1>   0.0800 
 37 H       -3.6830    -2.6480     1.8080 H     1 <1>   0.0800 
 38 H       -4.4080    -1.0740     1.6260 H     1 <1>   0.0800 
 39 H       -1.8540     5.3830     1.1820 H     1 <1>   0.0800 
 40 H       -0.7450     4.0240     1.0510 H     1 <1>   0.0800 
 41 H       -2.1100     3.9610     2.1840 H     1 <1>   0.0800 
 42 H       -4.4480     4.3150    -3.1030 H     1 <1>   0.0800 
 43 H       -2.8590     4.1360    -2.3650 H     1 <1>   0.0800 
 44 H       -4.2480     4.6370    -1.3870 H     1 <1>   0.0800 
 45 H       -6.6150    -2.0170     1.5560 H     1 <1>   0.0800 
 46 H       -5.8010    -2.6550     2.9450 H     1 <1>   0.0800 
 47 H       -7.0460    -4.0780     0.8160 H     1 <1>   0.0800 
 48 H       -3.7200    -4.6960     2.2110 H     1 <1>   0.0800 
 49 H       -3.8460    -6.2220     1.4510 H     1 <1>   0.0800 
 50 H       -6.4540    -5.8310     2.0650 H     1 <1>   0.4000 
 51 H       -1.6080    -3.7130     2.1110 H     1 <1>   0.1500 
 52 H       -2.8920    -6.1600    -1.1520 H     1 <1>   0.1500 
 53 H        0.5070    -3.2920     0.9580 H     1 <1>   0.1500 
 54 H       -0.7720    -5.7330    -2.2940 H     1 <1>   0.1500 
 55 H        0.9310    -4.2880    -1.2520 H     1 <1>   0.1500 
@<TRIPOS>BOND
  1   1   2  1   
  2   2   3  ar  
  3   2   4  ar  
  4   3   5  ar  
  5   3   6  1   
  6   4   7  ar  
  7   4  30  1   
  8   5   8  ar  
  9   5  31  1   
 10   6   9  1   
 11   6  32  1   
 12   6  33  1   
 13   7   8  ar  
 14   7  10  1   
 15   8  11  1   
 16   9  12  1   
 17   9  13  1   
 18   9  34  1   
 19  10  14  1   
 20  11  15  1   
 21  12  16  1   
 22  12  35  1   
 23  12  36  1   
 24  13  17  1   
 25  13  37  1   
 26  13  38  1   
 27  14  39  1   
 28  14  40  1   
 29  14  41  1   
 30  15  42  1   
 31  15  43  1   
 32  15  44  1   
 33  16  18  1   
 34  16  19  1   
 35  16  20  1   
 36  17  19  1   
 37  17  45  1   
 38  17  46  1   
 39  18  21  ar  
 40  18  22  ar  
 41  19  23  1   
 42  19  47  1   
 43  20  24  1   
 44  20  48  1   
 45  20  49  1   
 46  23  50  1   
 47  24  25  ar  
 48  24  26  ar  
 49  25  27  ar  
 50  25  51  1   
 51  26  28  ar  
 52  26  52  1   
 53  27  29  ar  
 54  27  53  1   
 55  28  29  ar  
 56  28  54  1   
 57  29  55  1   
@<TRIPOS>SUBSTRUCTURE
  1 ****   6 GROUP 4 **** **** 0

# MOE 2024.06 (io_trps.svl 2023.06)
