@<TRIPOS>MOLECULE
NONAME
52 54 1 0 0 
SMALL
USER_CHARGES


@<TRIPOS>ATOM
  1 CL       1.3810    -0.6810     0.1840 Cl    1 <1>  -0.1770 
  2 C        0.7920    -2.3010    -0.0890 C.ar  1 <1>   0.1770 
  3 C        1.6670    -3.3660     0.0080 C.ar  1 <1>  -0.1500 
  4 C       -0.5410    -2.4940    -0.3990 C.ar  1 <1>  -0.1500 
  5 C        1.1960    -4.6500    -0.2090 C.ar  1 <1>  -0.1500 
  6 C       -1.0060    -3.7810    -0.6150 C.ar  1 <1>  -0.1500 
  7 C       -0.1400    -4.8620    -0.5200 C.ar  1 <1>  -0.1430 
  8 C       -0.6500    -6.2750    -0.7510 C.3   1 <1>  -0.0160 
  9 C       -0.9750    -6.9480     0.5880 C.3   1 <1>  -0.0990 
 10 C       -1.5050    -8.3560     0.3940 C.2   1 <1>   0.5690 
 11 O       -0.8550    -9.2780     0.8310 O.2   1 <1>  -0.5700 
 12 N       -2.7030    -8.5920    -0.2310 N.am  1 <1>  -0.6600 
 13 C       -3.1010    -9.9750    -0.5460 C.3   1 <1>   0.1400 
 14 C       -3.8960    -7.7140    -0.1230 C.3   1 <1>   0.1400 
 15 C       -4.0050   -10.3820     0.6280 C.3   1 <1>   0.4230 
 16 C       -4.9230    -8.3420     0.8580 C.3   1 <1>  -0.1600 
 17 N       -3.8020   -11.7990     1.1110 N.4   1 <1>  -0.9590 
 18 C       -5.4840    -9.8020     0.4050 C.3   1 <1>   0.0000 
 19 C       -4.0380   -12.7930     0.0490 C.3   1 <1>   0.3430 
 20 C       -2.4420   -11.9600     1.7270 C.3   1 <1>   0.2630 
 21 C       -6.0650   -11.2180    -0.1220 C.3   1 <1>  -0.1600 
 22 C       -6.9550    -9.1870     0.2650 C.3   1 <1>   0.1200 
 23 C       -5.1900   -12.2990    -0.8060 C.3   1 <1>  -0.1600 
 24 O       -7.0490    -8.4990    -0.9430 O.3   1 <1>  -0.6800 
 25 H        2.6990    -3.1900     0.2500 H     1 <1>   0.1500 
 26 H       -1.2000    -1.6490    -0.4700 H     1 <1>   0.1500 
 27 H        1.8740    -5.4830    -0.1340 H     1 <1>   0.1500 
 28 H       -2.0430    -3.9330    -0.8570 H     1 <1>   0.1500 
 29 H       -1.5260    -6.2470    -1.3740 H     1 <1>   0.0800 
 30 H        0.0990    -6.8480    -1.2700 H     1 <1>   0.0800 
 31 H       -1.6820    -6.3610     1.1400 H     1 <1>   0.0800 
 32 H       -0.0760    -7.0000     1.1780 H     1 <1>   0.0800 
 33 H       -3.6370    -9.9870    -1.4790 H     1 <1>   0.0800 
 34 H       -2.2330   -10.6040    -0.6320 H     1 <1>   0.0800 
 35 H       -3.6210    -6.7320     0.2160 H     1 <1>   0.0800 
 36 H       -4.3460    -7.6070    -1.0980 H     1 <1>   0.0800 
 37 H       -3.5730    -9.8430     1.4520 H     1 <1>   0.0800 
 38 H       -4.5120    -8.3590     1.8550 H     1 <1>   0.0800 
 39 H       -5.6190    -7.5240     0.9480 H     1 <1>   0.0800 
 40 H       -4.5100   -11.9530     1.8400 H     1 <1>   0.4500 
 41 H       -3.1580   -12.9130    -0.5630 H     1 <1>   0.0800 
 42 H       -4.2820   -13.7470     0.4900 H     1 <1>   0.0800 
 43 H       -1.6700   -11.7910     0.9930 H     1 <1>   0.0800 
 44 H       -2.3250   -12.9530     2.1300 H     1 <1>   0.0800 
 45 H       -2.3040   -11.2460     2.5230 H     1 <1>   0.0800 
 46 H       -6.5790   -11.6970     0.6960 H     1 <1>   0.0800 
 47 H       -6.7930   -11.0890    -0.9130 H     1 <1>   0.0800 
 48 H       -7.2400    -8.5240     1.0660 H     1 <1>   0.0800 
 49 H       -7.7830    -9.8810     0.2930 H     1 <1>   0.0800 
 50 H       -4.8020   -11.9180    -1.7340 H     1 <1>   0.0800 
 51 H       -5.8030   -13.1460    -1.0670 H     1 <1>   0.0800 
 52 H       -7.9500    -8.1360    -1.0750 H     1 <1>   0.4000 
@<TRIPOS>BOND
  1   1   2  1   
  2   2   3  ar  
  3   2   4  ar  
  4   3   5  ar  
  5   3  25  1   
  6   4   6  ar  
  7   4  26  1   
  8   5   7  ar  
  9   5  27  1   
 10   6   7  ar  
 11   6  28  1   
 12   7   8  1   
 13   8   9  1   
 14   8  29  1   
 15   8  30  1   
 16   9  10  1   
 17   9  31  1   
 18   9  32  1   
 19  10  11  2   
 20  10  12  am  
 21  12  13  1   
 22  12  14  1   
 23  13  15  1   
 24  13  33  1   
 25  13  34  1   
 26  14  16  1   
 27  14  35  1   
 28  14  36  1   
 29  15  17  1   
 30  15  18  1   
 31  15  37  1   
 32  16  18  1   
 33  16  38  1   
 34  16  39  1   
 35  17  19  1   
 36  17  20  1   
 37  17  40  1   
 38  18  21  1   
 39  18  22  1   
 40  19  23  1   
 41  19  41  1   
 42  19  42  1   
 43  20  43  1   
 44  20  44  1   
 45  20  45  1   
 46  21  23  1   
 47  21  46  1   
 48  21  47  1   
 49  22  24  1   
 50  22  48  1   
 51  22  49  1   
 52  23  50  1   
 53  23  51  1   
 54  24  52  1   
@<TRIPOS>SUBSTRUCTURE
  1 ****  12 GROUP 4 **** **** 0

# MOE 2024.06 (io_trps.svl 2023.06)
