@<TRIPOS>MOLECULE
NONAME
46 48 1 0 0 
SMALL
USER_CHARGES


@<TRIPOS>ATOM
  1 O        1.2130     0.6200    -2.3110 O.2   1 <1>  -0.5700 
  2 C        0.9980    -0.0900    -1.3590 C.2   1 <1>   0.5690 
  3 N        1.9360    -0.6640    -0.5740 N.am  1 <1>  -0.6600 
  4 C       -0.3840    -0.4300    -0.8750 C.3   1 <1>  -0.0990 
  5 C        1.3640    -1.4370     0.5390 C.3   1 <1>   0.1400 
  6 C        3.3940    -0.5240    -0.7580 C.3   1 <1>   0.1400 
  7 C       -0.1390    -1.4780     0.2270 C.3   1 <1>  -0.1600 
  8 C        3.8880     0.6850     0.0360 C.3   1 <1>  -0.1600 
  9 C        5.3710     0.9720    -0.2500 C.3   1 <1>  -0.0990 
 10 C        5.8740     2.1830     0.5110 C.2   1 <1>   0.5690 
 11 O        6.6170     2.0060     1.4460 O.2   1 <1>  -0.5700 
 12 N        5.4590     3.4120     0.0990 N.am  1 <1>  -0.4930 
 13 C        5.7970     4.6850     0.6200 C.2   1 <1>   0.0630 
 14 C        6.6730     5.0190     1.6540 C.2   1 <1>   0.1390 
 15 C        5.3160     5.8690     0.1910 C.2   1 <1>  -0.3020 
 16 N        6.7350     6.3040     1.8530 N.2   1 <1>  -0.7070 
 17 N        5.8950     6.8340     0.9440 N.pl3 1 <1>   0.3140 
 18 C        5.6700     8.2960     0.8710 C.3   1 <1>   0.2390 
 19 C        5.2920     8.7480    -0.5360 C.ar  1 <1>  -0.1440 
 20 C        3.9950     9.1450    -0.8240 C.ar  1 <1>  -0.1500 
 21 C        6.2480     8.7640    -1.5400 C.ar  1 <1>  -0.1500 
 22 C        3.6580     9.5540    -2.1030 C.ar  1 <1>  -0.1500 
 23 C        5.9120     9.1730    -2.8190 C.ar  1 <1>  -0.1500 
 24 C        4.6170     9.5680    -3.1010 C.ar  1 <1>  -0.1500 
 25 H       -0.9780    -0.8230    -1.6790 H     1 <1>   0.0800 
 26 H       -0.8410     0.4570    -0.4760 H     1 <1>   0.0800 
 27 H        1.5530    -0.9250     1.4670 H     1 <1>   0.0800 
 28 H        1.7850    -2.4280     0.5710 H     1 <1>   0.0800 
 29 H        3.5970    -0.3790    -1.8070 H     1 <1>   0.0800 
 30 H        3.8910    -1.4230    -0.4360 H     1 <1>   0.0800 
 31 H       -0.3920    -2.4560    -0.1420 H     1 <1>   0.0800 
 32 H       -0.7260    -1.2790     1.1060 H     1 <1>   0.0800 
 33 H        3.7570     0.5020     1.0890 H     1 <1>   0.0800 
 34 H        3.2990     1.5430    -0.2390 H     1 <1>   0.0800 
 35 H        5.5190     1.1400    -1.3010 H     1 <1>   0.0800 
 36 H        5.9640     0.1200     0.0340 H     1 <1>   0.0800 
 37 H        4.8070     3.4340    -0.6850 H     1 <1>   0.3700 
 38 H        7.2350     4.2990     2.2240 H     1 <1>   0.1500 
 39 H        4.6130     6.0830    -0.5920 H     1 <1>   0.1500 
 40 H        6.5730     8.7880     1.1790 H     1 <1>   0.0800 
 41 H        4.8950     8.5480     1.5700 H     1 <1>   0.0800 
 42 H        3.2370     9.1390    -0.0590 H     1 <1>   0.1500 
 43 H        7.2590     8.4560    -1.3320 H     1 <1>   0.1500 
 44 H        2.6510     9.8630    -2.3240 H     1 <1>   0.1500 
 45 H        6.6590     9.1830    -3.5940 H     1 <1>   0.1500 
 46 H        4.3550     9.8870    -4.0950 H     1 <1>   0.1500 
@<TRIPOS>BOND
  1   1   2  2   
  2   2   3  am  
  3   2   4  1   
  4   3   5  1   
  5   3   6  1   
  6   4   7  1   
  7   4  25  1   
  8   4  26  1   
  9   5   7  1   
 10   5  27  1   
 11   5  28  1   
 12   6   8  1   
 13   6  29  1   
 14   6  30  1   
 15   7  31  1   
 16   7  32  1   
 17   8   9  1   
 18   8  33  1   
 19   8  34  1   
 20   9  10  1   
 21   9  35  1   
 22   9  36  1   
 23  10  11  2   
 24  10  12  am  
 25  12  13  1   
 26  12  37  1   
 27  13  14  1   
 28  13  15  2   
 29  14  16  2   
 30  14  38  1   
 31  15  17  1   
 32  15  39  1   
 33  16  17  1   
 34  17  18  1   
 35  18  19  1   
 36  18  40  1   
 37  18  41  1   
 38  19  20  ar  
 39  19  21  ar  
 40  20  22  ar  
 41  20  42  1   
 42  21  23  ar  
 43  21  43  1   
 44  22  24  ar  
 45  22  44  1   
 46  23  24  ar  
 47  23  45  1   
 48  24  46  1   
@<TRIPOS>SUBSTRUCTURE
  1 ****  12 GROUP 4 **** **** 0

# MOE 2024.06 (io_trps.svl 2023.06)
