@<TRIPOS>MOLECULE
NONAME
38 40 1 0 0 
SMALL
USER_CHARGES


@<TRIPOS>ATOM
  1 S        3.3620     1.0870     2.9870 S.3   1 <1>  -0.1570 
  2 C        3.5870     1.0810     1.2270 C.2   1 <1>   0.2420 
  3 C        1.6940     0.4840     2.7900 C.2   1 <1>  -0.0490 
  4 N        4.5850     1.4040     0.4740 N.2   1 <1>  -0.5650 
  5 N        2.4650     0.6550     0.6150 N.pl3 1 <1>   0.3340 
  6 C        1.4080     0.3200     1.4880 C.2   1 <1>  -0.1810 
  7 C        4.0740     1.1700    -0.7600 C.2   1 <1>   0.0460 
  8 C        2.7950     0.7170    -0.6940 C.2   1 <1>  -0.3020 
  9 C        4.9100     1.4110    -2.0100 C.3   1 <1>   0.0820 
 10 C        5.2530     2.8750    -2.2340 C.2   1 <1>   0.5690 
 11 O        5.4010     3.2500    -3.3720 O.2   1 <1>  -0.5700 
 12 N        5.3950     3.6800    -1.1370 N.am  1 <1>  -0.4940 
 13 C        5.7670     5.0300    -0.9190 C.2   1 <1>  -0.0880 
 14 N        5.8020     6.0720    -1.7990 N.pl3 1 <1>   0.3140 
 15 C        6.1550     5.5360     0.2770 C.2   1 <1>  -0.1810 
 16 N        6.2020     7.2130    -1.1950 N.2   1 <1>  -0.7070 
 17 C        5.4110     6.1140    -3.2130 C.3   1 <1>   0.0160 
 18 C        6.4110     6.8830     0.0390 C.2   1 <1>   0.1080 
 19 C        6.2910     4.8120     1.6080 C.3   1 <1>  -0.0590 
 20 C        6.8820     7.8920     1.0710 C.3   1 <1>   0.0210 
 21 C        8.4110     7.9440     1.1360 C.3   1 <1>  -0.2400 
 22 H        1.1280     0.3250     3.6920 H     1 <1>   0.1500 
 23 H        0.4880    -0.0280     1.0550 H     1 <1>   0.1500 
 24 H        2.1120     0.4410    -1.4750 H     1 <1>   0.1500 
 25 H        4.3760     1.0510    -2.8680 H     1 <1>   0.0800 
 26 H        5.8260     0.8570    -1.9330 H     1 <1>   0.0800 
 27 H        5.2370     3.1570    -0.2650 H     1 <1>   0.3700 
 28 H        4.4660     5.6190    -3.3340 H     1 <1>   0.0800 
 29 H        6.1640     5.6230    -3.7990 H     1 <1>   0.0800 
 30 H        5.3230     7.1370    -3.5260 H     1 <1>   0.0800 
 31 H        6.1390     3.7550     1.4900 H     1 <1>   0.0800 
 32 H        5.5630     5.1880     2.3030 H     1 <1>   0.0800 
 33 H        7.2750     4.9700     2.0100 H     1 <1>   0.0800 
 34 H        6.4810     7.6370     2.0350 H     1 <1>   0.0800 
 35 H        6.5010     8.8620     0.8010 H     1 <1>   0.0800 
 36 H        8.8050     6.9810     1.4070 H     1 <1>   0.0800 
 37 H        8.7300     8.6710     1.8600 H     1 <1>   0.0800 
 38 H        8.8040     8.2160     0.1710 H     1 <1>   0.0800 
@<TRIPOS>BOND
  1   1   2  1   
  2   1   3  1   
  3   2   4  2   
  4   2   5  1   
  5   3   6  2   
  6   3  22  1   
  7   4   7  1   
  8   5   6  1   
  9   5   8  1   
 10   6  23  1   
 11   7   8  2   
 12   7   9  1   
 13   8  24  1   
 14   9  10  1   
 15   9  25  1   
 16   9  26  1   
 17  10  11  2   
 18  10  12  am  
 19  12  13  1   
 20  12  27  1   
 21  13  14  1   
 22  13  15  2   
 23  14  16  1   
 24  14  17  1   
 25  15  18  1   
 26  15  19  1   
 27  16  18  2   
 28  17  28  1   
 29  17  29  1   
 30  17  30  1   
 31  18  20  1   
 32  19  31  1   
 33  19  32  1   
 34  19  33  1   
 35  20  21  1   
 36  20  34  1   
 37  20  35  1   
 38  21  36  1   
 39  21  37  1   
 40  21  38  1   
@<TRIPOS>SUBSTRUCTURE
  1 ****  12 GROUP 4 **** **** 0

# MOE 2024.06 (io_trps.svl 2023.06)
