@<TRIPOS>MOLECULE
NONAME
50 53 1 0 0 
SMALL
USER_CHARGES


@<TRIPOS>ATOM
  1 O       -0.4380    -0.0730     0.9310 O.2   1 <1>  -0.5700 
  2 C       -1.3020     0.5250     0.3280 C.2   1 <1>   0.5690 
  3 N       -2.2740    -0.2080    -0.3300 N.am  1 <1>  -0.6600 
  4 C       -1.2250     2.0850     0.3630 C.3   1 <1>   0.0610 
  5 C       -2.3680    -1.6760    -0.0720 C.3   1 <1>   0.3200 
  6 C       -3.1860     0.2600    -1.4230 C.3   1 <1>   0.1400 
  7 C       -0.2660     2.5490     1.5040 C.3   1 <1>  -0.1600 
  8 C       -0.6380     2.6530    -0.9570 C.3   1 <1>  -0.1600 
  9 C       -2.5980     2.7540     0.6620 C.3   1 <1>  -0.1600 
 10 C       -3.4660    -1.9480     0.9420 C.2   1 <1>  -0.3320 
 11 C       -4.6650     0.2080    -1.0140 C.3   1 <1>   0.1200 
 12 C       -0.1350     4.0820     1.5720 C.3   1 <1>  -0.0800 
 13 C       -0.5370     4.1900    -0.9100 C.3   1 <1>  -0.0800 
 14 C       -2.4830     4.2880     0.7010 C.3   1 <1>  -0.0800 
 15 N       -4.2430    -3.0500     0.9620 N.pl3 1 <1>   0.0480 
 16 C       -3.8660    -1.1820     1.9820 C.2   1 <1>   0.0770 
 17 O       -5.4290     0.8160    -2.0000 O.3   1 <1>  -0.6800 
 18 C        0.4110     4.5990     0.2300 C.3   1 <1>  -0.1600 
 19 C       -1.5210     4.6950     1.8280 C.3   1 <1>  -0.1600 
 20 C       -1.9320     4.7890    -0.6490 C.3   1 <1>  -0.1600 
 21 C       -5.0760    -2.8630     2.0110 C.2   1 <1>   0.0360 
 22 C       -4.2110    -4.2100     0.0540 C.3   1 <1>   0.0160 
 23 N       -4.8860    -1.7540     2.6470 N.2   1 <1>  -0.5650 
 24 H       -1.4380    -2.0740     0.2960 H     1 <1>   0.0800 
 25 H       -2.5850    -2.1810    -0.9970 H     1 <1>   0.0800 
 26 H       -3.0450    -0.3670    -2.2860 H     1 <1>   0.0800 
 27 H       -2.9430     1.2580    -1.7170 H     1 <1>   0.0800 
 28 H        0.7130     2.1290     1.3500 H     1 <1>   0.0800 
 29 H       -0.6240     2.1780     2.4490 H     1 <1>   0.0800 
 30 H       -1.2330     2.3750    -1.8030 H     1 <1>   0.0800 
 31 H        0.3420     2.2350    -1.1150 H     1 <1>   0.0800 
 32 H       -2.9720     2.3950     1.6060 H     1 <1>   0.0800 
 33 H       -3.3260     2.5100    -0.0800 H     1 <1>   0.0800 
 34 H       -4.8370     0.7210    -0.0830 H     1 <1>   0.0800 
 35 H       -4.9990    -0.8100    -0.9280 H     1 <1>   0.0800 
 36 H        0.5370     4.3550     2.3680 H     1 <1>   0.0800 
 37 H       -0.1530     4.5570    -1.8470 H     1 <1>   0.0800 
 38 H       -3.4520     4.7210     0.8820 H     1 <1>   0.0800 
 39 H       -3.4630    -0.2300     2.2870 H     1 <1>   0.1500 
 40 H       -5.3860     1.7890    -1.9260 H     1 <1>   0.4000 
 41 H        1.3910     4.1910     0.0540 H     1 <1>   0.0800 
 42 H        0.5040     5.6710     0.2620 H     1 <1>   0.0800 
 43 H       -1.4430     5.7670     1.8750 H     1 <1>   0.0800 
 44 H       -1.9010     4.3530     2.7750 H     1 <1>   0.0800 
 45 H       -2.6030     4.5130    -1.4430 H     1 <1>   0.0800 
 46 H       -1.8670     5.8630    -0.6360 H     1 <1>   0.0800 
 47 H       -5.8260    -3.5860     2.2790 H     1 <1>   0.1500 
 48 H       -3.2200    -4.6250     0.0420 H     1 <1>   0.0800 
 49 H       -4.4860    -3.8950    -0.9360 H     1 <1>   0.0800 
 50 H       -4.9050    -4.9560     0.3970 H     1 <1>   0.0800 
@<TRIPOS>BOND
  1   1   2  2   
  2   2   3  am  
  3   2   4  1   
  4   3   5  1   
  5   3   6  1   
  6   4   7  1   
  7   4   8  1   
  8   4   9  1   
  9   5  10  1   
 10   5  24  1   
 11   5  25  1   
 12   6  11  1   
 13   6  26  1   
 14   6  27  1   
 15   7  12  1   
 16   7  28  1   
 17   7  29  1   
 18   8  13  1   
 19   8  30  1   
 20   8  31  1   
 21   9  14  1   
 22   9  32  1   
 23   9  33  1   
 24  10  15  1   
 25  10  16  2   
 26  11  17  1   
 27  11  34  1   
 28  11  35  1   
 29  12  18  1   
 30  12  19  1   
 31  12  36  1   
 32  13  18  1   
 33  13  20  1   
 34  13  37  1   
 35  14  19  1   
 36  14  20  1   
 37  14  38  1   
 38  15  21  1   
 39  15  22  1   
 40  16  23  1   
 41  16  39  1   
 42  17  40  1   
 43  18  41  1   
 44  18  42  1   
 45  19  43  1   
 46  19  44  1   
 47  20  45  1   
 48  20  46  1   
 49  21  23  2   
 50  21  47  1   
 51  22  48  1   
 52  22  49  1   
 53  22  50  1   
@<TRIPOS>SUBSTRUCTURE
  1 ****   2 GROUP 4 **** **** 0

# MOE 2024.06 (io_trps.svl 2023.06)
