@<TRIPOS>MOLECULE
NONAME
48 49 1 0 0 
SMALL
USER_CHARGES


@<TRIPOS>ATOM
  1 S       -0.1110    -0.0640     0.8150 S.o2  1 <1>   1.4470 
  2 O        1.1380    -0.7060     0.4780 O.2   1 <1>  -0.6500 
  3 O       -0.7660    -0.3450     2.0710 O.2   1 <1>  -0.6500 
  4 N       -1.1490    -0.5260    -0.4220 N.am  1 <1>  -0.9140 
  5 C        0.0340     1.7330     0.5830 C.ar  1 <1>  -0.0090 
  6 C       -1.9820    -1.6870    -0.1430 C.3   1 <1>   0.1960 
  7 C        1.2700     2.3520     0.4430 C.ar  1 <1>  -0.1500 
  8 C       -1.0930     2.5450     0.5490 C.ar  1 <1>  -0.1500 
  9 C       -1.1490    -2.9740    -0.1500 C.3   1 <1>  -0.1600 
 10 C        1.3760     3.7210     0.2680 C.ar  1 <1>  -0.1500 
 11 C       -0.9890     3.9130     0.3740 C.ar  1 <1>  -0.1500 
 12 C       -2.0410    -4.2100     0.0060 C.3   1 <1>  -0.2400 
 13 C        0.2470     4.5400     0.2220 C.ar  1 <1>   0.0860 
 14 C        0.3370     5.9790     0.0280 C.2   1 <1>   0.5440 
 15 O       -0.5390     6.7170     0.4360 O.2   1 <1>  -0.5700 
 16 N        1.4010     6.5410    -0.6210 N.am  1 <1>  -0.7300 
 17 C        1.5360     7.9900    -0.9180 C.3   1 <1>   0.1400 
 18 C        2.0040     8.7510     0.3260 C.3   1 <1>   0.1400 
 19 N        2.0420    10.2120     0.0500 N.am  1 <1>  -0.6600 
 20 C        3.1290    10.7840    -0.5640 C.2   1 <1>   0.7800 
 21 C        0.8430    10.9810     0.4550 C.3   1 <1>   0.1400 
 22 O        4.0670    10.1270    -0.9670 O.2   1 <1>  -0.5700 
 23 O        3.1700    12.1060    -0.7400 O.3   1 <1>  -0.4300 
 24 C        0.8430    12.3480    -0.2230 C.3   1 <1>  -0.1600 
 25 C        2.2350    12.9720    -0.1390 C.3   1 <1>   0.1200 
 26 H       -0.5200    -0.7780    -1.1810 H     1 <1>   0.4200 
 27 H       -2.7340    -1.7560    -0.9120 H     1 <1>   0.0800 
 28 H       -2.4910    -1.5690     0.8000 H     1 <1>   0.0800 
 29 H        2.1650     1.7510     0.4730 H     1 <1>   0.1500 
 30 H       -2.0660     2.0960     0.6630 H     1 <1>   0.1500 
 31 H       -0.4440    -2.9590     0.6630 H     1 <1>   0.0800 
 32 H       -0.6050    -3.0520    -1.0750 H     1 <1>   0.0800 
 33 H        2.3550     4.1580     0.1760 H     1 <1>   0.1500 
 34 H       -1.8820     4.5160     0.3540 H     1 <1>   0.1500 
 35 H       -2.5810    -4.1690     0.9370 H     1 <1>   0.0800 
 36 H       -1.4360    -5.1010     0.0050 H     1 <1>   0.0800 
 37 H       -2.7460    -4.2750    -0.8040 H     1 <1>   0.0800 
 38 H        2.1140     5.9410    -1.0380 H     1 <1>   0.3700 
 39 H        0.5800     8.3740    -1.2320 H     1 <1>   0.0800 
 40 H        2.2450     8.1290    -1.7150 H     1 <1>   0.0800 
 41 H        2.9880     8.4140     0.6020 H     1 <1>   0.0800 
 42 H        1.3330     8.5580     1.1450 H     1 <1>   0.0800 
 43 H        0.8580    11.1020     1.5250 H     1 <1>   0.0800 
 44 H       -0.0490    10.4390     0.1860 H     1 <1>   0.0800 
 45 H        0.1230    12.9880     0.2540 H     1 <1>   0.0800 
 46 H        0.5570    12.2450    -1.2560 H     1 <1>   0.0800 
 47 H        2.2720    13.9120    -0.6600 H     1 <1>   0.0800 
 48 H        2.5310    13.1180     0.8860 H     1 <1>   0.0800 
@<TRIPOS>BOND
  1   1   2  2   
  2   1   3  2   
  3   1   4  am  
  4   1   5  1   
  5   4   6  1   
  6   4  26  1   
  7   5   7  ar  
  8   5   8  ar  
  9   6   9  1   
 10   6  27  1   
 11   6  28  1   
 12   7  10  ar  
 13   7  29  1   
 14   8  11  ar  
 15   8  30  1   
 16   9  12  1   
 17   9  31  1   
 18   9  32  1   
 19  10  13  ar  
 20  10  33  1   
 21  11  13  ar  
 22  11  34  1   
 23  12  35  1   
 24  12  36  1   
 25  12  37  1   
 26  13  14  1   
 27  14  15  2   
 28  14  16  am  
 29  16  17  1   
 30  16  38  1   
 31  17  18  1   
 32  17  39  1   
 33  17  40  1   
 34  18  19  1   
 35  18  41  1   
 36  18  42  1   
 37  19  20  am  
 38  19  21  1   
 39  20  22  2   
 40  20  23  1   
 41  21  24  1   
 42  21  43  1   
 43  21  44  1   
 44  23  25  1   
 45  24  25  1   
 46  24  45  1   
 47  24  46  1   
 48  25  47  1   
 49  25  48  1   
@<TRIPOS>SUBSTRUCTURE
  1 ****  13 GROUP 4 **** **** 0

# MOE 2024.06 (io_trps.svl 2023.06)
