@<TRIPOS>MOLECULE
NONAME
38 40 1 0 0 
SMALL
USER_CHARGES


@<TRIPOS>ATOM
  1 S       -0.1270     0.1550    -0.6580 S.3   1 <1>  -0.0800 
  2 C       -1.3230    -0.7710     0.2560 C.2   1 <1>  -0.0450 
  3 C       -0.6490     1.6720     0.0410 C.2   1 <1>  -0.1400 
  4 C       -1.3720    -2.2020     0.0660 C.2   1 <1>   0.7150 
  5 C       -2.0310     0.0940     1.0300 C.2   1 <1>  -0.1500 
  6 C       -1.6560     1.4640     0.9070 C.2   1 <1>  -0.1500 
  7 C        0.0710     2.9270    -0.4050 C.3   1 <1>  -0.0600 
  8 O       -0.3610    -2.8250    -0.2040 O.2   1 <1>  -0.5700 
  9 N       -2.5530    -2.9040     0.1840 N.am  1 <1>  -0.6600 
 10 C       -3.9050    -2.3060     0.0520 C.3   1 <1>   0.1400 
 11 C       -2.6140    -4.3740    -0.0190 C.3   1 <1>   0.1400 
 12 C       -4.8030    -3.4560    -0.4020 C.3   1 <1>   0.2000 
 13 C       -4.1000    -4.7300     0.0580 C.3   1 <1>  -0.0800 
 14 O       -6.0640    -3.3770     0.1700 O.3   1 <1>  -0.6800 
 15 C       -4.5000    -5.9600    -0.7750 C.3   1 <1>  -0.0170 
 16 C       -3.8450    -7.2310    -0.2580 C.ar  1 <1>   0.1670 
 17 N       -2.5970    -7.4500    -0.6400 N.ar  1 <1>  -0.6200 
 18 C       -4.5560    -8.0920     0.5760 C.ar  1 <1>   0.1600 
 19 C       -2.1120    -8.5730    -0.1380 C.ar  1 <1>   0.1600 
 20 N       -4.0730    -9.2150     1.0810 N.ar  1 <1>  -0.6200 
 21 C       -2.8260    -9.4270     0.6950 C.ar  1 <1>   0.1600 
 22 H       -2.8150    -0.1920     1.7070 H     1 <1>   0.1500 
 23 H       -2.1560     2.2290     1.4740 H     1 <1>   0.1500 
 24 H       -0.3370     3.7870     0.0940 H     1 <1>   0.0800 
 25 H       -0.0390     3.0540    -1.4670 H     1 <1>   0.0800 
 26 H        1.1170     2.8510    -0.1690 H     1 <1>   0.0800 
 27 H       -4.2210    -1.9350     1.0110 H     1 <1>   0.0800 
 28 H       -3.9020    -1.5130    -0.6760 H     1 <1>   0.0800 
 29 H       -2.2100    -4.6140    -0.9890 H     1 <1>   0.0800 
 30 H       -2.0420    -4.8890     0.7350 H     1 <1>   0.0800 
 31 H       -4.9120    -3.4320    -1.4730 H     1 <1>   0.0800 
 32 H       -4.3290    -4.9110     1.0940 H     1 <1>   0.0800 
 33 H       -6.0010    -3.4060     1.1440 H     1 <1>   0.4000 
 34 H       -4.2200    -5.8150    -1.8040 H     1 <1>   0.0800 
 35 H       -5.5700    -6.0730    -0.7470 H     1 <1>   0.0800 
 36 H       -5.5680    -7.8420     0.8380 H     1 <1>   0.1500 
 37 H       -1.1010    -8.8310    -0.3980 H     1 <1>   0.1500 
 38 H       -2.3450   -10.3190     1.0540 H     1 <1>   0.1500 
@<TRIPOS>BOND
  1   1   2  1   
  2   1   3  1   
  3   2   4  1   
  4   2   5  2   
  5   3   6  2   
  6   3   7  1   
  7   4   8  2   
  8   4   9  am  
  9   5   6  1   
 10   5  22  1   
 11   6  23  1   
 12   7  24  1   
 13   7  25  1   
 14   7  26  1   
 15   9  10  1   
 16   9  11  1   
 17  10  12  1   
 18  10  27  1   
 19  10  28  1   
 20  11  13  1   
 21  11  29  1   
 22  11  30  1   
 23  12  13  1   
 24  12  14  1   
 25  12  31  1   
 26  13  15  1   
 27  13  32  1   
 28  14  33  1   
 29  15  16  1   
 30  15  34  1   
 31  15  35  1   
 32  16  17  ar  
 33  16  18  ar  
 34  17  19  ar  
 35  18  20  ar  
 36  18  36  1   
 37  19  21  ar  
 38  19  37  1   
 39  20  21  ar  
 40  21  38  1   
@<TRIPOS>SUBSTRUCTURE
  1 ****  11 GROUP 4 **** **** 0

# MOE 2024.06 (io_trps.svl 2023.06)
