@<TRIPOS>MOLECULE
NONAME
56 59 1 0 0 
SMALL
USER_CHARGES


@<TRIPOS>ATOM
  1 O        1.2360    -1.5150    -0.5770 O.3   1 <1>  -0.5600 
  2 C        0.5010    -1.9670     0.5410 C.3   1 <1>   0.4180 
  3 C        1.1640    -0.1450    -0.8820 C.3   1 <1>   0.1200 
  4 C       -0.8600    -1.2870     0.6080 C.2   1 <1>  -0.2880 
  5 C        1.3310    -1.7220     1.8060 C.3   1 <1>  -0.1600 
  6 C        0.3260    -3.4780     0.3450 C.3   1 <1>  -0.1600 
  7 C       -0.2740     0.2570    -1.2340 C.3   1 <1>  -0.0220 
  8 C       -1.2350    -0.2900    -0.1960 C.2   1 <1>  -0.2760 
  9 C        2.7110    -2.3900     1.7460 C.3   1 <1>   0.3430 
 10 C        1.6020    -4.2890     0.6040 C.3   1 <1>   0.3430 
 11 C       -2.6030     0.3680    -0.1680 C.3   1 <1>  -0.1020 
 12 N        2.7810    -3.3830     0.6260 N.4   1 <1>  -0.9590 
 13 C        4.0860    -4.0880     0.5090 C.3   1 <1>   0.4860 
 14 C        5.1950    -3.0700     0.3750 C.ar  1 <1>  -0.1440 
 15 C        6.0910    -2.8500     1.3970 C.ar  1 <1>   0.1600 
 16 C        5.3520    -2.3120    -0.7640 C.ar  1 <1>   0.1600 
 17 N        7.0340    -1.9470     1.3130 N.ar  1 <1>  -0.6200 
 18 N        6.2890    -1.4050    -0.8720 N.ar  1 <1>  -0.6200 
 19 C        7.0850    -1.2630     0.1810 C.ar  1 <1>   0.7200 
 20 N        8.0550    -0.3320     0.1290 N.pl3 1 <1>  -0.8690 
 21 C        8.6910     0.1080    -1.1210 C.3   1 <1>   0.3530 
 22 C       10.1720     0.3010    -0.8490 C.ar  1 <1>  -0.1440 
 23 C       11.0380    -0.7800    -0.9150 C.ar  1 <1>  -0.1500 
 24 C       10.6720     1.5540    -0.5270 C.ar  1 <1>  -0.1500 
 25 C       12.3900    -0.6100    -0.6670 C.ar  1 <1>  -0.1500 
 26 C       12.0230     1.7250    -0.2800 C.ar  1 <1>  -0.1500 
 27 C       12.8830     0.6430    -0.3510 C.ar  1 <1>  -0.1500 
 28 H        1.8170     0.0470    -1.7160 H     1 <1>   0.0800 
 29 H        1.5110     0.4180    -0.0340 H     1 <1>   0.0800 
 30 H       -1.5050    -1.6930     1.3680 H     1 <1>   0.1500 
 31 H        0.7960    -2.1140     2.6520 H     1 <1>   0.0800 
 32 H        1.4420    -0.6680     1.9820 H     1 <1>   0.0800 
 33 H       -0.0300    -3.6610    -0.6540 H     1 <1>   0.0800 
 34 H       -0.4350    -3.8420     1.0130 H     1 <1>   0.0800 
 35 H       -0.5330    -0.1170    -2.2080 H     1 <1>   0.0800 
 36 H       -0.3300     1.3310    -1.2640 H     1 <1>   0.0800 
 37 H        2.9210    -2.8700     2.6880 H     1 <1>   0.0800 
 38 H        3.4560    -1.6260     1.5860 H     1 <1>   0.0800 
 39 H        1.7120    -5.0310    -0.1710 H     1 <1>   0.0800 
 40 H        1.5210    -4.7970     1.5520 H     1 <1>   0.0800 
 41 H       -3.0870     0.2600    -1.1230 H     1 <1>   0.0800 
 42 H       -2.5090     1.4160     0.0570 H     1 <1>   0.0800 
 43 H       -3.2280    -0.0850     0.5820 H     1 <1>   0.0800 
 44 H        2.6510    -2.7900    -0.2190 H     1 <1>   0.4500 
 45 H        4.0830    -4.7270    -0.3600 H     1 <1>   0.0800 
 46 H        4.2540    -4.7000     1.3800 H     1 <1>   0.0800 
 47 H        6.0400    -3.4180     2.3110 H     1 <1>   0.1500 
 48 H        4.6960    -2.4410    -1.6090 H     1 <1>   0.1500 
 49 H        8.7120    -0.3940     0.9060 H     1 <1>   0.4000 
 50 H        8.2420     1.0320    -1.4440 H     1 <1>   0.0800 
 51 H        8.5530    -0.6280    -1.8950 H     1 <1>   0.0800 
 52 H       10.6620    -1.7600    -1.1560 H     1 <1>   0.1500 
 53 H       10.0110     2.4010    -0.4650 H     1 <1>   0.1500 
 54 H       13.0560    -1.4540    -0.7200 H     1 <1>   0.1500 
 55 H       12.4050     2.7000    -0.0310 H     1 <1>   0.1500 
 56 H       13.9330     0.7760    -0.1580 H     1 <1>   0.1500 
@<TRIPOS>BOND
  1   1   2  1   
  2   1   3  1   
  3   2   4  1   
  4   2   5  1   
  5   2   6  1   
  6   3   7  1   
  7   3  28  1   
  8   3  29  1   
  9   4   8  2   
 10   4  30  1   
 11   5   9  1   
 12   5  31  1   
 13   5  32  1   
 14   6  10  1   
 15   6  33  1   
 16   6  34  1   
 17   7   8  1   
 18   7  35  1   
 19   7  36  1   
 20   8  11  1   
 21   9  12  1   
 22   9  37  1   
 23   9  38  1   
 24  10  12  1   
 25  10  39  1   
 26  10  40  1   
 27  11  41  1   
 28  11  42  1   
 29  11  43  1   
 30  12  13  1   
 31  12  44  1   
 32  13  14  1   
 33  13  45  1   
 34  13  46  1   
 35  14  15  ar  
 36  14  16  ar  
 37  15  17  ar  
 38  15  47  1   
 39  16  18  ar  
 40  16  48  1   
 41  17  19  ar  
 42  18  19  ar  
 43  19  20  1   
 44  20  21  1   
 45  20  49  1   
 46  21  22  1   
 47  21  50  1   
 48  21  51  1   
 49  22  23  ar  
 50  22  24  ar  
 51  23  25  ar  
 52  23  52  1   
 53  24  26  ar  
 54  24  53  1   
 55  25  27  ar  
 56  25  54  1   
 57  26  27  ar  
 58  26  55  1   
 59  27  56  1   
@<TRIPOS>SUBSTRUCTURE
  1 ****  16 GROUP 4 **** **** 0

# MOE 2024.06 (io_trps.svl 2023.06)
