@<TRIPOS>MOLECULE
NONAME
34 36 1 0 0 
SMALL
USER_CHARGES


@<TRIPOS>ATOM
  1 N        1.2450     0.8450     1.8030 N.ar  1 <1>  -0.6200 
  2 C        2.2950     0.1310     1.4400 C.ar  1 <1>   0.1600 
  3 C        1.0640     1.9730     1.1410 C.ar  1 <1>   0.1600 
  4 C        3.1950     0.5050     0.4570 C.ar  1 <1>  -0.1500 
  5 C        1.9030     2.4380     0.1430 C.ar  1 <1>  -0.1500 
  6 C        3.0200     1.7040    -0.2130 C.ar  1 <1>  -0.1080 
  7 C        3.9950     2.1830    -1.2910 C.3   1 <1>   0.1080 
  8 C        5.4900     1.9650    -0.9460 C.3   1 <1>   0.4720 
  9 C        4.3650     3.6840    -1.1900 C.3   1 <1>   0.4720 
 10 N        5.4280     3.2740    -0.2030 N.4   1 <1>  -0.8970 
 11 C        6.7010     4.0560    -0.2180 C.3   1 <1>   0.3430 
 12 C        6.5450     5.4190     0.4620 C.3   1 <1>   0.0960 
 13 N        7.8370     6.1130     0.3920 N.pl3 1 <1>   0.0480 
 14 C        8.2330     7.0420    -0.5070 C.2   1 <1>   0.0360 
 15 C        8.9170     5.8980     1.1630 C.2   1 <1>  -0.3020 
 16 N        9.4620     7.4130    -0.3650 N.2   1 <1>  -0.5650 
 17 C        9.8960     6.7000     0.6900 C.2   1 <1>   0.0770 
 18 H        2.4420    -0.8050     1.9560 H     1 <1>   0.1500 
 19 H        0.1970     2.5550     1.4100 H     1 <1>   0.1500 
 20 H        4.0100    -0.1590     0.2340 H     1 <1>   0.1500 
 21 H        1.6550     3.3670    -0.3390 H     1 <1>   0.1500 
 22 H        3.7290     1.8690    -2.2850 H     1 <1>   0.0000 
 23 H        6.1370     2.0330    -1.8030 H     1 <1>   0.0000 
 24 H        5.6910     1.1340    -0.2960 H     1 <1>   0.0000 
 25 H        3.6140     4.3100    -0.7440 H     1 <1>   0.0000 
 26 H        4.8010     4.0760    -2.0910 H     1 <1>   0.0000 
 27 H        5.0200     3.1140     0.7300 H     1 <1>   0.4500 
 28 H        7.0240     4.2040    -1.2360 H     1 <1>   0.0800 
 29 H        7.4660     3.4990     0.3000 H     1 <1>   0.0800 
 30 H        6.2770     5.3020     1.4970 H     1 <1>   0.0800 
 31 H        5.8060     6.0170    -0.0380 H     1 <1>   0.0800 
 32 H        7.5810     7.4300    -1.2700 H     1 <1>   0.1500 
 33 H        8.9480     5.2140     1.9920 H     1 <1>   0.1500 
 34 H       10.9050     6.8060     1.0560 H     1 <1>   0.1500 
@<TRIPOS>BOND
  1   1   2  ar  
  2   1   3  ar  
  3   2   4  ar  
  4   2  18  1   
  5   3   5  ar  
  6   3  19  1   
  7   4   6  ar  
  8   4  20  1   
  9   5   6  ar  
 10   5  21  1   
 11   6   7  1   
 12   7   8  1   
 13   7   9  1   
 14   7  22  1   
 15   8  10  1   
 16   8  23  1   
 17   8  24  1   
 18   9  10  1   
 19   9  25  1   
 20   9  26  1   
 21  10  11  1   
 22  10  27  1   
 23  11  12  1   
 24  11  28  1   
 25  11  29  1   
 26  12  13  1   
 27  12  30  1   
 28  12  31  1   
 29  13  14  1   
 30  13  15  1   
 31  14  16  2   
 32  14  32  1   
 33  15  17  2   
 34  15  33  1   
 35  16  17  1   
 36  17  34  1   
@<TRIPOS>SUBSTRUCTURE
  1 ****  10 GROUP 4 **** **** 0

# MOE 2024.06 (io_trps.svl 2023.06)
