@<TRIPOS>MOLECULE
NONAME
49 50 1 0 0 
SMALL
USER_CHARGES


@<TRIPOS>ATOM
  1 O        1.1460    -0.3520     1.8990 O.2   1 <1>  -0.5700 
  2 C        0.4580    -1.2620     1.4870 C.2   1 <1>   0.5440 
  3 N       -0.8540    -1.2010     1.8200 N.am  1 <1>  -0.8000 
  4 C        1.0050    -2.3110     0.6590 C.ar  1 <1>   0.0860 
  5 C        0.5820    -3.6510     0.7470 C.ar  1 <1>   0.4100 
  6 C        1.9850    -2.0100    -0.2760 C.ar  1 <1>  -0.1500 
  7 N        1.0300    -4.6130    -0.0540 N.ar  1 <1>  -0.6200 
  8 N       -0.3360    -4.0530     1.7000 N.pl3 1 <1>  -0.8690 
  9 C        2.4690    -3.0100    -1.0900 C.ar  1 <1>  -0.1430 
 10 C        1.9470    -4.2910    -0.9420 C.ar  1 <1>   0.1670 
 11 C       -0.5990    -5.4740     2.0570 C.3   1 <1>   0.2090 
 12 C        3.5470    -2.6780    -2.1140 C.3   1 <1>  -0.0970 
 13 C        2.4240    -5.4370    -1.8170 C.3   1 <1>  -0.0970 
 14 C       -1.6860    -6.0370     1.1420 C.3   1 <1>  -0.0990 
 15 C       -2.0490    -7.4700     1.4890 C.2   1 <1>   0.5690 
 16 O       -1.7080    -7.8970     2.5680 O.2   1 <1>  -0.5700 
 17 N       -2.7580    -8.2420     0.6010 N.am  1 <1>  -0.6600 
 18 C       -3.3130    -7.7740    -0.7000 C.3   1 <1>   0.1400 
 19 C       -2.9940    -9.6890     0.8580 C.3   1 <1>   0.1400 
 20 C       -2.6690    -8.5680    -1.8400 C.3   1 <1>  -0.1600 
 21 C       -2.3610   -10.5160    -0.2680 C.3   1 <1>  -0.1600 
 22 C       -2.8700   -10.0810    -1.6520 C.3   1 <1>  -0.0800 
 23 C       -2.1560   -10.8630    -2.7600 C.3   1 <1>  -0.2400 
 24 H       -1.2040    -0.3850     2.3240 H     1 <1>   0.3700 
 25 H       -1.5430    -1.8530     1.4360 H     1 <1>   0.3700 
 26 H        2.3500    -1.0000    -0.3520 H     1 <1>   0.1500 
 27 H       -0.4430    -3.4140     2.4940 H     1 <1>   0.4000 
 28 H       -0.9200    -5.5280     3.0830 H     1 <1>   0.0800 
 29 H        0.3020    -6.0560     1.9580 H     1 <1>   0.0800 
 30 H        3.9050    -1.6720    -1.9830 H     1 <1>   0.0800 
 31 H        3.1520    -2.7700    -3.1090 H     1 <1>   0.0800 
 32 H        4.3830    -3.3450    -2.0040 H     1 <1>   0.0800 
 33 H        1.7630    -6.2790    -1.7210 H     1 <1>   0.0800 
 34 H        3.4080    -5.7390    -1.5100 H     1 <1>   0.0800 
 35 H        2.4440    -5.1410    -2.8480 H     1 <1>   0.0800 
 36 H       -1.3170    -6.0060     0.1350 H     1 <1>   0.0800 
 37 H       -2.5680    -5.4320     1.2200 H     1 <1>   0.0800 
 38 H       -3.1460    -6.7230    -0.8480 H     1 <1>   0.0800 
 39 H       -4.3770    -7.9390    -0.7010 H     1 <1>   0.0800 
 40 H       -4.0540    -9.8710     0.8970 H     1 <1>   0.0800 
 41 H       -2.5700    -9.9860     1.8020 H     1 <1>   0.0800 
 42 H       -1.6180    -8.3360    -1.8720 H     1 <1>   0.0800 
 43 H       -3.1030    -8.2580    -2.7730 H     1 <1>   0.0800 
 44 H       -2.5850   -11.5550    -0.1070 H     1 <1>   0.0800 
 45 H       -1.2920   -10.3990    -0.2140 H     1 <1>   0.0800 
 46 H       -3.9240   -10.2960    -1.7100 H     1 <1>   0.0800 
 47 H       -1.0970   -10.6750    -2.7350 H     1 <1>   0.0800 
 48 H       -2.5340   -10.5720    -3.7250 H     1 <1>   0.0800 
 49 H       -2.3200   -11.9190    -2.6370 H     1 <1>   0.0800 
@<TRIPOS>BOND
  1   1   2  2   
  2   2   3  am  
  3   2   4  1   
  4   3  24  1   
  5   3  25  1   
  6   4   5  ar  
  7   4   6  ar  
  8   5   7  ar  
  9   5   8  1   
 10   6   9  ar  
 11   6  26  1   
 12   7  10  ar  
 13   8  11  1   
 14   8  27  1   
 15   9  10  ar  
 16   9  12  1   
 17  10  13  1   
 18  11  14  1   
 19  11  28  1   
 20  11  29  1   
 21  12  30  1   
 22  12  31  1   
 23  12  32  1   
 24  13  33  1   
 25  13  34  1   
 26  13  35  1   
 27  14  15  1   
 28  14  36  1   
 29  14  37  1   
 30  15  16  2   
 31  15  17  am  
 32  17  18  1   
 33  17  19  1   
 34  18  20  1   
 35  18  38  1   
 36  18  39  1   
 37  19  21  1   
 38  19  40  1   
 39  19  41  1   
 40  20  22  1   
 41  20  42  1   
 42  20  43  1   
 43  21  22  1   
 44  21  44  1   
 45  21  45  1   
 46  22  23  1   
 47  22  46  1   
 48  23  47  1   
 49  23  48  1   
 50  23  49  1   
@<TRIPOS>SUBSTRUCTURE
  1 ****  14 GROUP 4 **** **** 0

# MOE 2024.06 (io_trps.svl 2023.06)
