@<TRIPOS>MOLECULE
NONAME
44 46 1 0 0 
SMALL
USER_CHARGES


@<TRIPOS>ATOM
  1 F        0.1410    -0.9890     0.5840 F     1 <1>  -0.1900 
  2 C        1.0120    -1.0710    -0.4010 C.ar  1 <1>   0.1900 
  3 C        0.7870    -1.9200    -1.4850 C.ar  1 <1>   0.4100 
  4 C        2.1680    -0.3320    -0.3500 C.ar  1 <1>   0.1660 
  5 N        1.6850    -1.9910    -2.4530 N.ar  1 <1>  -0.6200 
  6 N       -0.3240    -2.7330    -1.6300 N.pl3 1 <1>  -0.8380 
  7 N        3.0630    -0.4070    -1.3230 N.ar  1 <1>  -0.6200 
  8 C        2.4970     0.5900     0.8170 C.3   1 <1>  -0.0170 
  9 C        2.7580    -1.2350    -2.3110 C.ar  1 <1>   0.4700 
 10 C       -0.1610    -4.2160    -1.7690 C.3   1 <1>   0.2090 
 11 C       -1.7230    -2.2490    -1.4680 C.3   1 <1>   0.2090 
 12 C        3.3530    -0.1320     1.8640 C.3   1 <1>  -0.2400 
 13 C       -0.7080    -4.9860    -0.5390 C.3   1 <1>  -0.1060 
 14 C       -2.5630    -3.2320    -0.6430 C.3   1 <1>  -0.1600 
 15 C       -1.4160    -6.2190    -1.1210 C.2   1 <1>   0.9060 
 16 C       -1.6680    -4.0660     0.2720 C.3   1 <1>   0.2000 
 17 C        0.4380    -5.5070     0.3730 C.3   1 <1>  -0.0650 
 18 O       -0.8170    -6.9030    -1.9600 O.co2 1 <1>  -0.9000 
 19 O       -2.5580    -6.5350    -0.7500 O.co2 1 <1>  -0.9000 
 20 O       -2.4740    -4.7990     1.1190 O.3   1 <1>  -0.6800 
 21 C        1.4330    -4.4560     0.9020 C.3   1 <1>  -0.1950 
 22 C        2.7160    -4.1640     0.1890 C.3   1 <1>  -0.2000 
 23 C        2.7300    -4.9150     1.4880 C.3   1 <1>  -0.2000 
 24 H        3.0290     1.4490     0.4480 H     1 <1>   0.0800 
 25 H        1.5920     0.9440     1.2770 H     1 <1>   0.0800 
 26 H        3.4810    -1.3030    -3.1060 H     1 <1>   0.1500 
 27 H       -0.6970    -4.5110    -2.6560 H     1 <1>   0.0800 
 28 H        0.8700    -4.4700    -1.9370 H     1 <1>   0.0800 
 29 H       -1.7190    -1.2870    -0.9870 H     1 <1>   0.0800 
 30 H       -2.1660    -2.1270    -2.4410 H     1 <1>   0.0800 
 31 H        4.2770    -0.4620     1.4210 H     1 <1>   0.0800 
 32 H        2.8280    -0.9900     2.2470 H     1 <1>   0.0800 
 33 H        3.5790     0.5300     2.6810 H     1 <1>   0.0800 
 34 H       -3.1000    -3.8830    -1.3100 H     1 <1>   0.0800 
 35 H       -3.2780    -2.6810    -0.0600 H     1 <1>   0.0800 
 36 H       -1.1070    -3.3890     0.8900 H     1 <1>   0.0800 
 37 H       -0.0080    -6.0040     1.2170 H     1 <1>   0.0800 
 38 H        0.9910    -6.2570    -0.1670 H     1 <1>   0.0800 
 39 H       -2.7600    -5.5960     0.5740 H     1 <1>   0.4000 
 40 H        0.9520    -3.6440     1.4160 H     1 <1>   0.1000 
 41 H        2.9300    -4.6930    -0.7240 H     1 <1>   0.1000 
 42 H        3.0820    -3.1530     0.1720 H     1 <1>   0.1000 
 43 H        3.0970    -4.4210     2.3700 H     1 <1>   0.1000 
 44 H        2.9670    -5.9640     1.4720 H     1 <1>   0.1000 
@<TRIPOS>BOND
  1   1   2  1   
  2   2   3  ar  
  3   2   4  ar  
  4   3   5  ar  
  5   3   6  1   
  6   4   7  ar  
  7   4   8  1   
  8   5   9  ar  
  9   6  10  1   
 10   6  11  1   
 11   7   9  ar  
 12   8  12  1   
 13   8  24  1   
 14   8  25  1   
 15   9  26  1   
 16  10  13  1   
 17  10  27  1   
 18  10  28  1   
 19  11  14  1   
 20  11  29  1   
 21  11  30  1   
 22  12  31  1   
 23  12  32  1   
 24  12  33  1   
 25  13  15  1   
 26  13  16  1   
 27  13  17  1   
 28  14  16  1   
 29  14  34  1   
 30  14  35  1   
 31  15  18  ar  
 32  15  19  ar  
 33  16  20  1   
 34  16  36  1   
 35  17  21  1   
 36  17  37  1   
 37  17  38  1   
 38  20  39  1   
 39  21  22  1   
 40  21  23  1   
 41  21  40  1   
 42  22  23  1   
 43  22  41  1   
 44  22  42  1   
 45  23  43  1   
 46  23  44  1   
@<TRIPOS>SUBSTRUCTURE
  1 ****   6 GROUP 4 **** **** 0

# MOE 2024.06 (io_trps.svl 2023.06)
