@<TRIPOS>MOLECULE
NONAME
49 52 1 0 0 
SMALL
USER_CHARGES


@<TRIPOS>ATOM
  1 O        1.0900     0.5270    -0.8250 O.2   1 <1>  -0.5700 
  2 C        1.8140    -0.3870    -1.1720 C.2   1 <1>   0.5440 
  3 N        3.0120    -0.0910    -1.7900 N.am  1 <1>  -0.6600 
  4 C        1.4180    -1.7520    -0.8960 C.ar  1 <1>   0.0860 
  5 C        4.1010    -1.0920    -2.0280 C.3   1 <1>   0.1400 
  6 C        3.3880     1.3120    -2.1100 C.3   1 <1>   0.1400 
  7 C        1.3180    -2.2110     0.4170 C.ar  1 <1>  -0.1500 
  8 C        1.1330    -2.6500    -1.9250 C.ar  1 <1>  -0.1500 
  9 C        5.1580    -1.0750    -0.9130 C.3   1 <1>   0.1400 
 10 C        3.9350     2.0460    -0.8760 C.3   1 <1>  -0.1600 
 11 C        0.9710    -3.5200     0.7040 C.ar  1 <1>  -0.1440 
 12 C        0.7850    -3.9600    -1.6530 C.ar  1 <1>  -0.1500 
 13 N        5.7180     0.2950    -0.6780 N.am  1 <1>  -0.6600 
 14 C        4.7950     1.1990     0.0720 C.3   1 <1>   0.1400 
 15 C        0.7040    -4.3990    -0.3420 C.ar  1 <1>   0.0830 
 16 C        0.8780    -3.9880     2.1470 C.3   1 <1>  -0.0170 
 17 C        6.9820     0.6250    -1.0980 C.2   1 <1>   0.5690 
 18 O        0.3690    -5.6900    -0.1250 O.3   1 <1>  -0.3630 
 19 C        0.9440    -5.5160     2.2140 C.3   1 <1>  -0.1600 
 20 O        7.6770    -0.1600    -1.6980 O.2   1 <1>  -0.5700 
 21 C        7.5810     1.9840    -0.8270 C.3   1 <1>   0.1570 
 22 C        0.0030    -6.1220     1.1700 C.3   1 <1>   0.1200 
 23 N        8.0820     2.0180     0.5470 N.pl3 1 <1>   0.3140 
 24 N        7.7480     2.9520     1.4110 N.2   1 <1>  -0.4180 
 25 C        8.8940     1.1800     1.1630 C.2   1 <1>   0.0360 
 26 N        8.3530     2.6630     2.5070 N.2   1 <1>   0.0000 
 27 N        9.0750     1.5560     2.3700 N.2   1 <1>  -0.3380 
 28 H        4.5810    -0.8830    -2.9680 H     1 <1>   0.0800 
 29 H        3.6930    -2.0840    -2.0980 H     1 <1>   0.0800 
 30 H        2.5270     1.8370    -2.4880 H     1 <1>   0.0800 
 31 H        4.1340     1.3100    -2.8860 H     1 <1>   0.0800 
 32 H        1.5150    -1.5180     1.2150 H     1 <1>   0.1500 
 33 H        1.1870    -2.3110    -2.9440 H     1 <1>   0.1500 
 34 H        5.9470    -1.7580    -1.1780 H     1 <1>   0.0800 
 35 H        4.7170    -1.4440    -0.0030 H     1 <1>   0.0800 
 36 H        3.0990     2.4240    -0.3140 H     1 <1>   0.0800 
 37 H        4.4930     2.9030    -1.2050 H     1 <1>   0.0800 
 38 H        0.5710    -4.6500    -2.4490 H     1 <1>   0.1500 
 39 H        4.1410     0.6010     0.6840 H     1 <1>   0.0800 
 40 H        5.3430     1.8400     0.7400 H     1 <1>   0.0800 
 41 H       -0.0570    -3.6500     2.5570 H     1 <1>   0.0800 
 42 H        1.6770    -3.5640     2.7300 H     1 <1>   0.0800 
 43 H        0.6670    -5.8510     3.1970 H     1 <1>   0.0800 
 44 H        1.9470    -5.8510     2.0150 H     1 <1>   0.0800 
 45 H        6.8480     2.7550    -0.9620 H     1 <1>   0.0800 
 46 H        8.4000     2.1600    -1.4980 H     1 <1>   0.0800 
 47 H        0.0530    -7.1970     1.1830 H     1 <1>   0.0800 
 48 H       -1.0130    -5.8120     1.3440 H     1 <1>   0.0800 
 49 H        9.3260     0.3110     0.6990 H     1 <1>   0.1500 
@<TRIPOS>BOND
  1   1   2  2   
  2   2   3  am  
  3   2   4  1   
  4   3   5  1   
  5   3   6  1   
  6   4   7  ar  
  7   4   8  ar  
  8   5   9  1   
  9   5  28  1   
 10   5  29  1   
 11   6  10  1   
 12   6  30  1   
 13   6  31  1   
 14   7  11  ar  
 15   7  32  1   
 16   8  12  ar  
 17   8  33  1   
 18   9  13  1   
 19   9  34  1   
 20   9  35  1   
 21  10  14  1   
 22  10  36  1   
 23  10  37  1   
 24  11  15  ar  
 25  11  16  1   
 26  12  15  ar  
 27  12  38  1   
 28  13  14  1   
 29  13  17  am  
 30  14  39  1   
 31  14  40  1   
 32  15  18  1   
 33  16  19  1   
 34  16  41  1   
 35  16  42  1   
 36  17  20  2   
 37  17  21  1   
 38  18  22  1   
 39  19  22  1   
 40  19  43  1   
 41  19  44  1   
 42  21  23  1   
 43  21  45  1   
 44  21  46  1   
 45  22  47  1   
 46  22  48  1   
 47  23  24  1   
 48  23  25  1   
 49  24  26  2   
 50  25  27  2   
 51  25  49  1   
 52  26  27  1   
@<TRIPOS>SUBSTRUCTURE
  1 ****   9 GROUP 4 **** **** 0

# MOE 2024.06 (io_trps.svl 2023.06)
