@<TRIPOS>MOLECULE
NONAME
51 53 1 0 0 
SMALL
USER_CHARGES


@<TRIPOS>ATOM
  1 O       -0.1760     0.5300    -0.8300 O.2   1 <1>  -0.5700 
  2 C        0.1230     1.6220    -0.3790 C.2   1 <1>   0.5440 
  3 N       -0.8130     2.3340     0.3420 N.am  1 <1>  -0.6600 
  4 C        1.4450     2.1460    -0.6470 C.ar  1 <1>   0.0860 
  5 C       -2.1880     1.8130     0.5910 C.3   1 <1>   0.1400 
  6 C       -0.5340     3.6930     0.8960 C.3   1 <1>   0.1400 
  7 C        2.4030     2.3120     0.3570 C.ar  1 <1>   0.0830 
  8 C        1.7960     2.4980    -1.9490 C.ar  1 <1>  -0.1500 
  9 C       -3.2700     2.7250    -0.0510 C.3   1 <1>   0.0000 
 10 C       -1.8280     4.4850     1.1410 C.3   1 <1>  -0.1600 
 11 O        2.1000     1.9730     1.6320 O.3   1 <1>  -0.3630 
 12 C        3.6660     2.8360     0.0700 C.ar  1 <1>   0.0830 
 13 C        3.0430     3.0130    -2.2450 C.ar  1 <1>  -0.1500 
 14 C       -4.6250     2.3970     0.6160 C.3   1 <1>   0.2000 
 15 C       -2.8480     4.2240     0.0240 C.3   1 <1>  -0.1600 
 16 C       -3.5080     2.2920    -1.5080 C.3   1 <1>  -0.1600 
 17 C        2.2960     0.6220     1.9780 C.3   1 <1>   0.0400 
 18 O        4.5490     2.9770     1.1000 O.3   1 <1>  -0.3630 
 19 C        3.9780     3.1860    -1.2390 C.ar  1 <1>  -0.1500 
 20 O       -5.5740     3.3780     0.3040 O.3   1 <1>  -0.5600 
 21 C       -5.0710     1.0870    -0.0440 C.3   1 <1>  -0.1600 
 22 C       -4.4620     1.0910    -1.4530 C.3   1 <1>  -0.1600 
 23 C        5.8260     3.5440     0.9090 C.3   1 <1>   0.0400 
 24 C       -6.6210     3.4990     1.2140 C.3   1 <1>   0.0400 
 25 H       -2.2820     0.8050     0.2260 H     1 <1>   0.0800 
 26 H       -2.3310     1.7750     1.6560 H     1 <1>   0.0800 
 27 H        0.0170     3.5990     1.8160 H     1 <1>   0.0800 
 28 H        0.0750     4.2370     0.1940 H     1 <1>   0.0800 
 29 H        1.0710     2.3590    -2.7330 H     1 <1>   0.1500 
 30 H       -2.2480     4.2060     2.0920 H     1 <1>   0.0800 
 31 H       -1.5940     5.5340     1.1880 H     1 <1>   0.0800 
 32 H        3.2890     3.2790    -3.2590 H     1 <1>   0.1500 
 33 H       -4.5350     2.3200     1.6870 H     1 <1>   0.0800 
 34 H       -2.3840     4.5010    -0.9070 H     1 <1>   0.0800 
 35 H       -3.6970     4.8710     0.1500 H     1 <1>   0.0800 
 36 H       -3.9970     3.0900    -2.0390 H     1 <1>   0.0800 
 37 H       -2.5880     2.0520    -2.0130 H     1 <1>   0.0800 
 38 H        2.0280     0.4970     3.0110 H     1 <1>   0.0800 
 39 H        3.3320     0.3750     1.8320 H     1 <1>   0.0800 
 40 H        1.6690     0.0050     1.3570 H     1 <1>   0.0800 
 41 H        4.9380     3.5890    -1.4990 H     1 <1>   0.1500 
 42 H       -4.6650     0.2590     0.5090 H     1 <1>   0.0800 
 43 H       -6.1410     0.9860    -0.0730 H     1 <1>   0.0800 
 44 H       -3.9250     0.1750    -1.6290 H     1 <1>   0.0800 
 45 H       -5.2290     1.1960    -2.2010 H     1 <1>   0.0800 
 46 H        6.3240     3.5700     1.8620 H     1 <1>   0.0800 
 47 H        5.7110     4.5450     0.5310 H     1 <1>   0.0800 
 48 H        6.3830     2.9310     0.2230 H     1 <1>   0.0800 
 49 H       -7.2930     4.2550     0.8490 H     1 <1>   0.0800 
 50 H       -6.2260     3.7960     2.1690 H     1 <1>   0.0800 
 51 H       -7.1410     2.5600     1.2930 H     1 <1>   0.0800 
@<TRIPOS>BOND
  1   1   2  2   
  2   2   3  am  
  3   2   4  1   
  4   3   5  1   
  5   3   6  1   
  6   4   7  ar  
  7   4   8  ar  
  8   5   9  1   
  9   5  25  1   
 10   5  26  1   
 11   6  10  1   
 12   6  27  1   
 13   6  28  1   
 14   7  11  1   
 15   7  12  ar  
 16   8  13  ar  
 17   8  29  1   
 18   9  14  1   
 19   9  15  1   
 20   9  16  1   
 21  10  15  1   
 22  10  30  1   
 23  10  31  1   
 24  11  17  1   
 25  12  18  1   
 26  12  19  ar  
 27  13  19  ar  
 28  13  32  1   
 29  14  20  1   
 30  14  21  1   
 31  14  33  1   
 32  15  34  1   
 33  15  35  1   
 34  16  22  1   
 35  16  36  1   
 36  16  37  1   
 37  17  38  1   
 38  17  39  1   
 39  17  40  1   
 40  18  23  1   
 41  19  41  1   
 42  20  24  1   
 43  21  22  1   
 44  21  42  1   
 45  21  43  1   
 46  22  44  1   
 47  22  45  1   
 48  23  46  1   
 49  23  47  1   
 50  23  48  1   
 51  24  49  1   
 52  24  50  1   
 53  24  51  1   
@<TRIPOS>SUBSTRUCTURE
  1 ****   3 GROUP 4 **** **** 0

# MOE 2024.06 (io_trps.svl 2023.06)
