@<TRIPOS>MOLECULE
NONAME
46 48 1 0 0 
SMALL
USER_CHARGES


@<TRIPOS>ATOM
  1 CL      -0.9340     2.2780    -2.4280 Cl    1 <1>  -0.1770 
  2 C       -0.9130     3.1410    -0.9090 C.ar  1 <1>   0.1770 
  3 C       -1.7070     2.7010     0.1430 C.ar  1 <1>  -0.1440 
  4 C       -0.1100     4.2590    -0.7970 C.ar  1 <1>  -0.1500 
  5 C       -1.6930     3.4050     1.3430 C.ar  1 <1>  -0.1500 
  6 C       -2.5750     1.4670    -0.0150 C.3   1 <1>   0.4870 
  7 C       -0.1180     4.9350     0.4060 C.ar  1 <1>   0.1900 
  8 C       -0.8940     4.5310     1.4780 C.ar  1 <1>  -0.1500 
  9 N       -3.9800     1.8880    -0.2410 N.4   1 <1>  -0.9590 
 10 F        0.6310     5.9950     0.5370 F     1 <1>  -0.1900 
 11 C       -4.9700     0.7980    -0.0850 C.3   1 <1>   0.3430 
 12 C       -4.1840     2.6420    -1.5130 C.3   1 <1>   0.3430 
 13 C       -6.3780     1.3970     0.0400 C.3   1 <1>  -0.1600 
 14 C       -5.6570     3.0320    -1.6860 C.3   1 <1>  -0.1600 
 15 C       -6.4840     2.8730    -0.3920 C.3   1 <1>   0.2800 
 16 O       -5.8850     3.6140     0.6450 O.3   1 <1>  -0.5600 
 17 C       -7.9730     3.2600    -0.5260 C.3   1 <1>  -0.1600 
 18 C       -5.9930     5.0120     0.5940 C.3   1 <1>   0.1200 
 19 C       -8.2450     4.7670    -0.5080 C.3   1 <1>   0.2800 
 20 C       -7.4650     5.4230     0.6290 C.3   1 <1>  -0.1600 
 21 O       -7.8080     5.3010    -1.6960 O.3   1 <1>  -0.6800 
 22 C       -9.7390     5.0710    -0.4240 C.3   1 <1>  -0.2400 
 23 H        0.5030     4.5950    -1.6140 H     1 <1>   0.1500 
 24 H       -2.2940     3.0900     2.1810 H     1 <1>   0.1500 
 25 H       -2.5120     0.8770     0.8850 H     1 <1>   0.0800 
 26 H       -2.2300     0.8630    -0.8380 H     1 <1>   0.0800 
 27 H       -0.8660     5.0900     2.3970 H     1 <1>   0.1500 
 28 H       -4.2400     2.5780     0.4900 H     1 <1>   0.4500 
 29 H       -4.7530     0.2160     0.7970 H     1 <1>   0.0800 
 30 H       -4.9270     0.1470    -0.9430 H     1 <1>   0.0800 
 31 H       -3.8620     2.0520    -2.3570 H     1 <1>   0.0800 
 32 H       -3.5890     3.5410    -1.4890 H     1 <1>   0.0800 
 33 H       -6.7190     1.3000     1.0550 H     1 <1>   0.0800 
 34 H       -7.0370     0.7990    -0.5640 H     1 <1>   0.0800 
 35 H       -6.0860     2.4070    -2.4480 H     1 <1>   0.0800 
 36 H       -5.7030     4.0330    -2.0700 H     1 <1>   0.0800 
 37 H       -8.5010     2.8280     0.3060 H     1 <1>   0.0800 
 38 H       -8.3930     2.8280    -1.4170 H     1 <1>   0.0800 
 39 H       -5.5110     5.3760    -0.2970 H     1 <1>   0.0800 
 40 H       -5.4780     5.4120     1.4500 H     1 <1>   0.0800 
 41 H       -7.5500     6.4930     0.5720 H     1 <1>   0.0800 
 42 H       -7.8790     5.1170     1.5740 H     1 <1>   0.0800 
 43 H       -8.1640     6.2050    -1.7930 H     1 <1>   0.4000 
 44 H      -10.1480     4.6640     0.4830 H     1 <1>   0.0800 
 45 H      -10.2600     4.6270    -1.2540 H     1 <1>   0.0800 
 46 H       -9.9150     6.1320    -0.4210 H     1 <1>   0.0800 
@<TRIPOS>BOND
  1   1   2  1   
  2   2   3  ar  
  3   2   4  ar  
  4   3   5  ar  
  5   3   6  1   
  6   4   7  ar  
  7   4  23  1   
  8   5   8  ar  
  9   5  24  1   
 10   6   9  1   
 11   6  25  1   
 12   6  26  1   
 13   7   8  ar  
 14   7  10  1   
 15   8  27  1   
 16   9  11  1   
 17   9  12  1   
 18   9  28  1   
 19  11  13  1   
 20  11  29  1   
 21  11  30  1   
 22  12  14  1   
 23  12  31  1   
 24  12  32  1   
 25  13  15  1   
 26  13  33  1   
 27  13  34  1   
 28  14  15  1   
 29  14  35  1   
 30  14  36  1   
 31  15  16  1   
 32  15  17  1   
 33  16  18  1   
 34  17  19  1   
 35  17  37  1   
 36  17  38  1   
 37  18  20  1   
 38  18  39  1   
 39  18  40  1   
 40  19  20  1   
 41  19  21  1   
 42  19  22  1   
 43  20  41  1   
 44  20  42  1   
 45  21  43  1   
 46  22  44  1   
 47  22  45  1   
 48  22  46  1   
@<TRIPOS>SUBSTRUCTURE
  1 ****  12 GROUP 4 **** **** 0

# MOE 2024.06 (io_trps.svl 2023.06)
