@<TRIPOS>MOLECULE
NONAME
57 60 1 0 0 
SMALL
USER_CHARGES


@<TRIPOS>ATOM
  1 O       -4.3780     2.5510    -1.4500 O.3   1 <1>  -0.5600 
  2 C       -3.6840     1.3390    -1.3290 C.3   1 <1>   0.1200 
  3 C       -4.2590     3.3770    -0.3230 C.3   1 <1>   0.1200 
  4 C       -4.1110     0.5560    -0.0630 C.3   1 <1>   0.1100 
  5 C       -4.7030     2.6530     0.9720 C.3   1 <1>   0.1100 
  6 N       -5.1580     1.2750     0.6970 N.3   1 <1>  -0.8100 
  7 C       -5.6610     0.5560     1.8910 C.3   1 <1>   0.1100 
  8 C       -6.7290    -0.4800     1.4780 C.3   1 <1>   0.3430 
  9 N       -7.4340     0.0240     0.2650 N.4   1 <1>  -0.9590 
 10 C       -8.4890     1.0390     0.5780 C.3   1 <1>   0.3430 
 11 C       -7.9230    -1.0430    -0.6460 C.3   1 <1>   0.3430 
 12 C       -8.9840     1.7330    -0.7010 C.3   1 <1>   0.1430 
 13 C       -8.4070    -0.4170    -1.9570 C.3   1 <1>  -0.1600 
 14 C      -10.1130     2.6640    -0.3340 C.ar  1 <1>   0.1670 
 15 C       -9.4610     0.6830    -1.7270 C.3   1 <1>  -0.1600 
 16 C       -7.9340     2.7050    -1.3050 C.3   1 <1>  -0.1600 
 17 N      -11.1170     2.3410     0.4380 N.ar  1 <1>  -0.6200 
 18 C       -9.9540     3.8960    -0.8890 C.ar  1 <1>  -0.1430 
 19 C       -8.6970     3.9770    -1.7190 C.3   1 <1>  -0.0170 
 20 C      -12.0040     3.3200     0.6460 C.ar  1 <1>   0.7200 
 21 C      -10.9140     4.8390    -0.6200 C.ar  1 <1>   0.1600 
 22 N      -11.9400     4.5590     0.1490 N.ar  1 <1>  -0.6200 
 23 N      -13.0810     3.0220     1.4550 N.pl3 1 <1>  -0.8380 
 24 C      -13.5620     1.6290     1.6630 C.3   1 <1>   0.1290 
 25 C      -13.9550     4.0890     2.0180 C.3   1 <1>   0.1290 
 26 H       -2.6290     1.5540    -1.3020 H     1 <1>   0.0800 
 27 H       -3.8840     0.7600    -2.2120 H     1 <1>   0.0800 
 28 H       -4.8720     4.2450    -0.4900 H     1 <1>   0.0800 
 29 H       -3.2360     3.6990    -0.2430 H     1 <1>   0.0800 
 30 H       -3.2450     0.4070     0.5600 H     1 <1>   0.0800 
 31 H       -4.4660    -0.4150    -0.3600 H     1 <1>   0.0800 
 32 H       -5.4980     3.2170     1.4290 H     1 <1>   0.0800 
 33 H       -3.8780     2.6360     1.6650 H     1 <1>   0.0800 
 34 H       -6.1260     1.2610     2.5590 H     1 <1>   0.0800 
 35 H       -4.8540     0.0840     2.4250 H     1 <1>   0.0800 
 36 H       -7.4190    -0.6650     2.2840 H     1 <1>   0.0800 
 37 H       -6.2270    -1.4040     1.2430 H     1 <1>   0.0800 
 38 H       -6.6750     0.5650    -0.2060 H     1 <1>   0.4500 
 39 H       -8.0990     1.7850     1.2490 H     1 <1>   0.0800 
 40 H       -9.3270     0.5600     1.0590 H     1 <1>   0.0800 
 41 H       -8.7360    -1.5740    -0.1780 H     1 <1>   0.0800 
 42 H       -7.1310    -1.7440    -0.8540 H     1 <1>   0.0800 
 43 H       -8.8330    -1.1880    -2.5750 H     1 <1>   0.0800 
 44 H       -7.5620    -0.0170    -2.4890 H     1 <1>   0.0800 
 45 H       -9.7060     1.1630    -2.6600 H     1 <1>   0.0800 
 46 H      -10.3650     0.2260    -1.3580 H     1 <1>   0.0800 
 47 H       -7.3900     2.2880    -2.1340 H     1 <1>   0.0800 
 48 H       -7.2230     2.9790    -0.5470 H     1 <1>   0.0800 
 49 H       -8.9500     3.9480    -2.7650 H     1 <1>   0.0800 
 50 H       -8.1300     4.8670    -1.5050 H     1 <1>   0.0800 
 51 H      -10.8400     5.8300    -1.0340 H     1 <1>   0.1500 
 52 H      -13.1840     0.9750     0.8960 H     1 <1>   0.0800 
 53 H      -14.6370     1.6020     1.6280 H     1 <1>   0.0800 
 54 H      -13.2290     1.2730     2.6230 H     1 <1>   0.0800 
 55 H      -13.3870     4.9850     2.1990 H     1 <1>   0.0800 
 56 H      -14.3820     3.7650     2.9500 H     1 <1>   0.0800 
 57 H      -14.7450     4.3120     1.3210 H     1 <1>   0.0800 
@<TRIPOS>BOND
  1   1   2  1   
  2   1   3  1   
  3   2   4  1   
  4   2  26  1   
  5   2  27  1   
  6   3   5  1   
  7   3  28  1   
  8   3  29  1   
  9   4   6  1   
 10   4  30  1   
 11   4  31  1   
 12   5   6  1   
 13   5  32  1   
 14   5  33  1   
 15   6   7  1   
 16   7   8  1   
 17   7  34  1   
 18   7  35  1   
 19   8   9  1   
 20   8  36  1   
 21   8  37  1   
 22   9  10  1   
 23   9  11  1   
 24   9  38  1   
 25  10  12  1   
 26  10  39  1   
 27  10  40  1   
 28  11  13  1   
 29  11  41  1   
 30  11  42  1   
 31  12  14  1   
 32  12  15  1   
 33  12  16  1   
 34  13  15  1   
 35  13  43  1   
 36  13  44  1   
 37  14  17  ar  
 38  14  18  ar  
 39  15  45  1   
 40  15  46  1   
 41  16  19  1   
 42  16  47  1   
 43  16  48  1   
 44  17  20  ar  
 45  18  19  1   
 46  18  21  ar  
 47  19  49  1   
 48  19  50  1   
 49  20  22  ar  
 50  20  23  1   
 51  21  22  ar  
 52  21  51  1   
 53  23  24  1   
 54  23  25  1   
 55  24  52  1   
 56  24  53  1   
 57  24  54  1   
 58  25  55  1   
 59  25  56  1   
 60  25  57  1   
@<TRIPOS>SUBSTRUCTURE
  1 ****  12 GROUP 4 **** **** 0

# MOE 2024.06 (io_trps.svl 2023.06)
