@<TRIPOS>MOLECULE
NONAME
51 53 1 0 0 
SMALL
USER_CHARGES


@<TRIPOS>ATOM
  1 F        1.7110    -3.4840     2.4910 F     1 <1>  -0.1900 
  2 C        0.8400    -3.8610     1.5950 C.ar  1 <1>   0.1900 
  3 C        1.2980    -4.3740     0.3990 C.ar  1 <1>  -0.1500 
  4 C       -0.5060    -3.7330     1.8830 C.ar  1 <1>  -0.1500 
  5 C        0.3630    -4.7800    -0.5440 C.ar  1 <1>   0.0820 
  6 C       -1.4320    -4.1430     0.9380 C.ar  1 <1>  -0.1500 
  7 O        0.7240    -5.3020    -1.7400 O.3   1 <1>  -0.3630 
  8 C       -0.9990    -4.6720    -0.2730 C.ar  1 <1>  -0.1440 
  9 C        1.8730    -6.1170    -1.8390 C.3   1 <1>   0.0400 
 10 C       -1.9920    -5.1820    -1.3060 C.3   1 <1>   0.4870 
 11 N       -2.4650    -6.5320    -0.9150 N.4   1 <1>  -0.9590 
 12 C       -1.3120    -7.4600    -0.6660 C.3   1 <1>   0.3430 
 13 C       -3.3720    -7.1460    -1.9130 C.3   1 <1>   0.3430 
 14 C       -1.7490    -8.9020    -0.3610 C.3   1 <1>  -0.1060 
 15 C       -4.0670    -8.3600    -1.2820 C.3   1 <1>  -0.1600 
 16 C       -1.4840    -9.7330    -1.6040 C.2   1 <1>   0.9060 
 17 C       -3.2720    -8.9830    -0.1200 C.3   1 <1>   0.2000 
 18 C       -0.9300    -9.4540     0.8390 C.3   1 <1>  -0.0170 
 19 O       -1.2620    -9.1620    -2.6780 O.co2 1 <1>  -0.9000 
 20 O       -1.5990   -10.9560    -1.5260 O.co2 1 <1>  -0.9000 
 21 O       -3.6070    -8.2640     1.0280 O.3   1 <1>  -0.6800 
 22 C        0.5540    -9.1020     0.7710 C.ar  1 <1>  -0.1440 
 23 C        1.3920    -9.7710    -0.1080 C.ar  1 <1>  -0.1500 
 24 C        1.0830    -8.1150     1.5920 C.ar  1 <1>  -0.1500 
 25 C        2.7380    -9.4580    -0.1680 C.ar  1 <1>  -0.1500 
 26 C        2.4300    -7.8010     1.5330 C.ar  1 <1>  -0.1500 
 27 C        3.2600    -8.4740     0.6540 C.ar  1 <1>  -0.1500 
 28 H        2.3540    -4.4430     0.2210 H     1 <1>   0.1500 
 29 H       -0.8160    -3.3220     2.8280 H     1 <1>   0.1500 
 30 H       -2.4830    -4.0530     1.1560 H     1 <1>   0.1500 
 31 H        1.8650    -6.5930    -2.8040 H     1 <1>   0.0800 
 32 H        1.8370    -6.8680    -1.0700 H     1 <1>   0.0800 
 33 H        2.7530    -5.5080    -1.7400 H     1 <1>   0.0800 
 34 H       -1.5140    -5.2330    -2.2710 H     1 <1>   0.0800 
 35 H       -2.8250    -4.5040    -1.3750 H     1 <1>   0.0800 
 36 H       -2.9800    -6.5110    -0.0210 H     1 <1>   0.4500 
 37 H       -0.6410    -7.4500    -1.5100 H     1 <1>   0.0800 
 38 H       -0.7570    -7.0900     0.1780 H     1 <1>   0.0800 
 39 H       -4.1120    -6.4390    -2.2480 H     1 <1>   0.0800 
 40 H       -2.7940    -7.4690    -2.7670 H     1 <1>   0.0800 
 41 H       -4.1810    -9.0990    -2.0560 H     1 <1>   0.0800 
 42 H       -5.0570    -8.0980    -0.9550 H     1 <1>   0.0800 
 43 H       -3.5810   -10.0070     0.0270 H     1 <1>   0.0800 
 44 H       -1.3160    -9.0630     1.7620 H     1 <1>   0.0800 
 45 H       -1.0340   -10.5250     0.8930 H     1 <1>   0.0800 
 46 H       -3.5050    -8.8420     1.8120 H     1 <1>   0.4000 
 47 H        0.9970   -10.5430    -0.7510 H     1 <1>   0.1500 
 48 H        0.4530    -7.5860     2.2850 H     1 <1>   0.1500 
 49 H        3.3760    -9.9870    -0.8540 H     1 <1>   0.1500 
 50 H        2.8320    -7.0360     2.1760 H     1 <1>   0.1500 
 51 H        4.3080    -8.2360     0.6100 H     1 <1>   0.1500 
@<TRIPOS>BOND
  1   1   2  1   
  2   2   3  ar  
  3   2   4  ar  
  4   3   5  ar  
  5   3  28  1   
  6   4   6  ar  
  7   4  29  1   
  8   5   7  1   
  9   5   8  ar  
 10   6   8  ar  
 11   6  30  1   
 12   7   9  1   
 13   8  10  1   
 14   9  31  1   
 15   9  32  1   
 16   9  33  1   
 17  10  11  1   
 18  10  34  1   
 19  10  35  1   
 20  11  12  1   
 21  11  13  1   
 22  11  36  1   
 23  12  14  1   
 24  12  37  1   
 25  12  38  1   
 26  13  15  1   
 27  13  39  1   
 28  13  40  1   
 29  14  16  1   
 30  14  17  1   
 31  14  18  1   
 32  15  17  1   
 33  15  41  1   
 34  15  42  1   
 35  16  19  ar  
 36  16  20  ar  
 37  17  21  1   
 38  17  43  1   
 39  18  22  1   
 40  18  44  1   
 41  18  45  1   
 42  21  46  1   
 43  22  23  ar  
 44  22  24  ar  
 45  23  25  ar  
 46  23  47  1   
 47  24  26  ar  
 48  24  48  1   
 49  25  27  ar  
 50  25  49  1   
 51  26  27  ar  
 52  26  50  1   
 53  27  51  1   
@<TRIPOS>SUBSTRUCTURE
  1 ****  12 GROUP 4 **** **** 0

# MOE 2024.06 (io_trps.svl 2023.06)
