@<TRIPOS>MOLECULE
NONAME
53 56 1 0 0 
SMALL
USER_CHARGES


@<TRIPOS>ATOM
  1 O        1.9520    -0.3740     1.6400 O.3   1 <1>  -0.5600 
  2 C        2.4460    -1.6600     1.3730 C.3   1 <1>   0.1200 
  3 C        2.1870     0.5730     0.6350 C.3   1 <1>   0.1200 
  4 C        3.9720    -1.6260     1.1270 C.3   1 <1>   0.5180 
  5 C        3.7000     0.7100     0.3550 C.3   1 <1>   0.4230 
  6 N        4.3320    -0.6350     0.0740 N.4   1 <1>  -0.9590 
  7 C        4.5240    -3.0100     0.7620 C.3   1 <1>  -0.1950 
  8 C        3.9840     1.7200    -0.7860 C.3   1 <1>   0.1100 
  9 C        4.1110    -1.0620    -1.3520 C.3   1 <1>   0.3430 
 10 C        5.1490    -3.8650     1.8210 C.3   1 <1>  -0.2000 
 11 C        5.9950    -3.2970     0.7190 C.3   1 <1>  -0.2000 
 12 N        5.0720     1.2250    -1.6580 N.3   1 <1>  -0.8100 
 13 C        4.6990    -0.0260    -2.3420 C.3   1 <1>   0.1100 
 14 C        5.6960     2.2320    -2.5330 C.3   1 <1>   0.2530 
 15 C        6.2320     3.4000    -1.7140 C.ar  1 <1>  -0.1440 
 16 C        7.2390     3.2190    -0.7660 C.ar  1 <1>   0.0820 
 17 C        5.6960     4.6650    -1.9090 C.ar  1 <1>  -0.1500 
 18 O        7.7430     1.9670    -0.5910 O.3   1 <1>  -0.3620 
 19 C        7.6950     4.3110    -0.0310 C.ar  1 <1>  -0.1500 
 20 C        6.1500     5.7430    -1.1700 C.ar  1 <1>  -0.1500 
 21 C        8.2230     1.5200     0.6600 C.3   1 <1>   0.2580 
 22 C        7.1490     5.5650    -0.2320 C.ar  1 <1>  -0.1500 
 23 C        7.0590     1.3830     1.6350 C.2   1 <1>  -0.2880 
 24 C        6.7670     0.2930     2.3520 C.2   1 <1>  -0.3000 
 25 H        2.2280    -2.2770     2.2270 H     1 <1>   0.0800 
 26 H        1.9240    -2.0600     0.5210 H     1 <1>   0.0800 
 27 H        1.6520     0.2760    -0.2500 H     1 <1>   0.0800 
 28 H        1.7890     1.5130     0.9760 H     1 <1>   0.0800 
 29 H        4.4370    -1.3200     2.0490 H     1 <1>   0.0800 
 30 H        4.1500     1.1120     1.2470 H     1 <1>   0.0800 
 31 H        5.3430    -0.4330     0.1260 H     1 <1>   0.4500 
 32 H        3.8970    -3.5330     0.0590 H     1 <1>   0.1000 
 33 H        4.2560     2.6590    -0.3350 H     1 <1>   0.0800 
 34 H        3.1000     1.8900    -1.3770 H     1 <1>   0.0800 
 35 H        4.5790    -2.0150    -1.5350 H     1 <1>   0.0800 
 36 H        3.0560    -1.1720    -1.5390 H     1 <1>   0.0800 
 37 H        5.2930    -3.4820     2.8170 H     1 <1>   0.1000 
 38 H        4.9570    -4.9260     1.8200 H     1 <1>   0.1000 
 39 H        6.3780    -3.9770    -0.0240 H     1 <1>   0.1000 
 40 H        6.7070    -2.5310     0.9720 H     1 <1>   0.1000 
 41 H        3.9840     0.1740    -3.1220 H     1 <1>   0.0800 
 42 H        5.5770    -0.4470    -2.8030 H     1 <1>   0.0800 
 43 H        6.5200     1.7830    -3.0620 H     1 <1>   0.0800 
 44 H        4.9810     2.5800    -3.2590 H     1 <1>   0.0800 
 45 H        4.9210     4.8220    -2.6380 H     1 <1>   0.1500 
 46 H        8.4780     4.2090     0.6940 H     1 <1>   0.1500 
 47 H        5.7290     6.7210    -1.3280 H     1 <1>   0.1500 
 48 H        8.6920     0.5660     0.5000 H     1 <1>   0.0800 
 49 H        8.9690     2.2030     1.0220 H     1 <1>   0.0800 
 50 H        7.5050     6.4060     0.3390 H     1 <1>   0.1500 
 51 H        6.4870     2.2930     1.7040 H     1 <1>   0.1500 
 52 H        5.9510     0.2350     3.0520 H     1 <1>   0.1500 
 53 H        7.3340    -0.6230     2.3180 H     1 <1>   0.1500 
@<TRIPOS>BOND
  1   1   2  1   
  2   1   3  1   
  3   2   4  1   
  4   2  25  1   
  5   2  26  1   
  6   3   5  1   
  7   3  27  1   
  8   3  28  1   
  9   4   6  1   
 10   4   7  1   
 11   4  29  1   
 12   5   6  1   
 13   5   8  1   
 14   5  30  1   
 15   6   9  1   
 16   6  31  1   
 17   7  10  1   
 18   7  11  1   
 19   7  32  1   
 20   8  12  1   
 21   8  33  1   
 22   8  34  1   
 23   9  13  1   
 24   9  35  1   
 25   9  36  1   
 26  10  11  1   
 27  10  37  1   
 28  10  38  1   
 29  11  39  1   
 30  11  40  1   
 31  12  13  1   
 32  12  14  1   
 33  13  41  1   
 34  13  42  1   
 35  14  15  1   
 36  14  43  1   
 37  14  44  1   
 38  15  16  ar  
 39  15  17  ar  
 40  16  18  1   
 41  16  19  ar  
 42  17  20  ar  
 43  17  45  1   
 44  18  21  1   
 45  19  22  ar  
 46  19  46  1   
 47  20  22  ar  
 48  20  47  1   
 49  21  23  1   
 50  21  48  1   
 51  21  49  1   
 52  22  50  1   
 53  23  24  2   
 54  23  51  1   
 55  24  52  1   
 56  24  53  1   
@<TRIPOS>SUBSTRUCTURE
  1 ****  12 GROUP 4 **** **** 0

# MOE 2024.06 (io_trps.svl 2023.06)
