@<TRIPOS>MOLECULE
NONAME
49 51 1 0 0 
SMALL
USER_CHARGES


@<TRIPOS>ATOM
  1 O       -1.4600     1.2910     1.7290 O.3   1 <1>  -0.0190 
  2 N       -1.3720     0.0000     1.8030 N.2   1 <1>  -0.4100 
  3 C       -1.5070     1.5250     0.4450 C.2   1 <1>   0.2980 
  4 C       -1.3810    -0.4550     0.6120 C.2   1 <1>   0.3350 
  5 N       -1.4550     0.5010    -0.3070 N.2   1 <1>  -0.5650 
  6 C       -1.5640     2.9710    -0.0230 C.3   1 <1>   0.5230 
  7 C       -1.3050    -1.9170     0.2070 C.3   1 <1>   0.0210 
  8 N       -0.1920     3.5800    -0.1050 N.4   1 <1>  -0.8520 
  9 C       -1.2830    -2.8580     1.4100 C.3   1 <1>   0.1200 
 10 C       -0.1310     5.0390    -0.3610 C.3   1 <1>   0.2960 
 11 C        0.6760     2.8490    -1.0640 C.3   1 <1>   0.5240 
 12 O       -1.1690    -4.1590     0.9340 O.3   1 <1>  -0.5600 
 13 C       -1.2040     5.9600     0.1170 C.3   1 <1>  -0.2000 
 14 C       -1.0560     5.6670    -1.3500 C.3   1 <1>  -0.2000 
 15 C        2.0900     3.1040    -0.6110 C.2   1 <1>  -0.1810 
 16 C       -1.1570    -5.1280     1.9330 C.3   1 <1>   0.0400 
 17 C        2.9910     4.0040    -1.1720 C.2   1 <1>   0.1080 
 18 C        2.7550     2.5420     0.4260 C.2   1 <1>  -0.3320 
 19 N        4.1080     4.0230    -0.5280 N.2   1 <1>  -0.7070 
 20 C        2.7880     4.8950    -2.3800 C.3   1 <1>  -0.0590 
 21 N        3.9790     3.1180     0.4520 N.pl3 1 <1>   0.3140 
 22 C        2.3180     1.4640     1.4090 C.3   1 <1>  -0.0600 
 23 C        5.0870     2.8450     1.3790 C.3   1 <1>   0.0160 
 24 H       -2.1750     3.5260     0.6670 H     1 <1>   0.0800 
 25 H       -2.0330     3.0020    -0.9910 H     1 <1>   0.0800 
 26 H       -0.4140    -2.0670    -0.3740 H     1 <1>   0.0800 
 27 H       -2.1580    -2.1490    -0.4040 H     1 <1>   0.0800 
 28 H        0.2780     3.4270     0.7980 H     1 <1>   0.4500 
 29 H       -2.1970    -2.7720     1.9750 H     1 <1>   0.0800 
 30 H       -0.4380    -2.6460     2.0430 H     1 <1>   0.0800 
 31 H        0.8810     5.4180    -0.3150 H     1 <1>   0.1000 
 32 H        0.5200     3.1970    -2.0710 H     1 <1>   0.0800 
 33 H        0.4910     1.7890    -1.0280 H     1 <1>   0.0800 
 34 H       -0.9200     6.9420     0.4570 H     1 <1>   0.1000 
 35 H       -2.0840     5.6050     0.6200 H     1 <1>   0.1000 
 36 H       -1.8300     5.1000    -1.8350 H     1 <1>   0.1000 
 37 H       -0.6850     6.4600    -1.9770 H     1 <1>   0.1000 
 38 H       -1.0630    -6.0910     1.4630 H     1 <1>   0.0800 
 39 H       -2.0810    -5.0830     2.4840 H     1 <1>   0.0800 
 40 H       -0.3170    -4.9590     2.5850 H     1 <1>   0.0800 
 41 H        1.9120     4.6210    -2.9360 H     1 <1>   0.0800 
 42 H        3.6430     4.8090    -3.0270 H     1 <1>   0.0800 
 43 H        2.7080     5.9190    -2.0640 H     1 <1>   0.0800 
 44 H        1.3520     1.0710     1.1550 H     1 <1>   0.0800 
 45 H        2.2780     1.8610     2.4090 H     1 <1>   0.0800 
 46 H        3.0190     0.6480     1.3940 H     1 <1>   0.0800 
 47 H        4.7600     3.0190     2.3860 H     1 <1>   0.0800 
 48 H        5.9070     3.5010     1.1490 H     1 <1>   0.0800 
 49 H        5.4020     1.8250     1.2620 H     1 <1>   0.0800 
@<TRIPOS>BOND
  1   1   2  1   
  2   1   3  1   
  3   2   4  2   
  4   3   5  2   
  5   3   6  1   
  6   4   5  1   
  7   4   7  1   
  8   6   8  1   
  9   6  24  1   
 10   6  25  1   
 11   7   9  1   
 12   7  26  1   
 13   7  27  1   
 14   8  10  1   
 15   8  11  1   
 16   8  28  1   
 17   9  12  1   
 18   9  29  1   
 19   9  30  1   
 20  10  13  1   
 21  10  14  1   
 22  10  31  1   
 23  11  15  1   
 24  11  32  1   
 25  11  33  1   
 26  12  16  1   
 27  13  14  1   
 28  13  34  1   
 29  13  35  1   
 30  14  36  1   
 31  14  37  1   
 32  15  17  1   
 33  15  18  2   
 34  16  38  1   
 35  16  39  1   
 36  16  40  1   
 37  17  19  2   
 38  17  20  1   
 39  18  21  1   
 40  18  22  1   
 41  19  21  1   
 42  20  41  1   
 43  20  42  1   
 44  20  43  1   
 45  21  23  1   
 46  22  44  1   
 47  22  45  1   
 48  22  46  1   
 49  23  47  1   
 50  23  48  1   
 51  23  49  1   
@<TRIPOS>SUBSTRUCTURE
  1 ****  11 GROUP 4 **** **** 0

# MOE 2024.06 (io_trps.svl 2023.06)
