@<TRIPOS>MOLECULE
NONAME
48 49 1 0 0 
SMALL
USER_CHARGES


@<TRIPOS>ATOM
  1 S       -0.0460    -0.1810    -0.9340 S.3   1 <1>  -0.0800 
  2 C       -1.3600    -0.9960    -0.1530 C.2   1 <1>   0.4420 
  3 C       -0.6060     1.2770    -0.1860 C.2   1 <1>   0.1980 
  4 N       -2.0780    -0.2010     0.5500 N.2   1 <1>  -0.3380 
  5 N       -1.4880    -2.3510    -0.3900 N.am  1 <1>  -0.4940 
  6 N       -1.6420     1.0940     0.5260 N.2   1 <1>  -0.3380 
  7 C        0.1540     2.5640    -0.4470 C.3   1 <1>   0.0200 
  8 C       -2.3450    -3.2270     0.2250 C.2   1 <1>   0.5690 
  9 C        1.5060     2.5820     0.2800 C.3   1 <1>  -0.1600 
 10 O       -2.9900    -2.9490     1.2050 O.2   1 <1>  -0.5700 
 11 C       -2.5320    -4.6480    -0.3360 C.3   1 <1>   0.4040 
 12 C        2.2580     3.8970     0.0370 C.3   1 <1>  -0.1600 
 13 N       -3.8390    -5.2810     0.0850 N.4   1 <1>  -0.9590 
 14 C        3.6060     3.9040     0.7670 C.3   1 <1>  -0.1600 
 15 C       -3.8730    -6.7660    -0.1050 C.3   1 <1>   0.3430 
 16 C       -5.0280    -4.5970    -0.4980 C.3   1 <1>   0.3430 
 17 C        4.3560     5.2170     0.5250 C.3   1 <1>  -0.2400 
 18 C       -5.2950    -7.3460     0.0520 C.3   1 <1>  -0.0800 
 19 C       -6.2840    -5.0200     0.2730 C.3   1 <1>  -0.1600 
 20 C       -6.2060    -6.4310     0.8870 C.3   1 <1>  -0.1600 
 21 C       -5.2390    -8.7490     0.6700 C.3   1 <1>  -0.2400 
 22 H       -0.8520    -2.6980    -1.1050 H     1 <1>   0.3700 
 23 H       -0.4470     3.3890    -0.1040 H     1 <1>   0.0800 
 24 H        0.3000     2.6780    -1.5060 H     1 <1>   0.0800 
 25 H        2.1090     1.7580    -0.0630 H     1 <1>   0.0800 
 26 H        1.3380     2.4550     1.3360 H     1 <1>   0.0800 
 27 H       -1.7160    -5.2500     0.0250 H     1 <1>   0.0800 
 28 H       -2.4780    -4.6140    -1.4100 H     1 <1>   0.0800 
 29 H        1.6610     4.7220     0.3860 H     1 <1>   0.0800 
 30 H        2.4260     4.0280    -1.0190 H     1 <1>   0.0800 
 31 H       -3.9200    -5.0860     1.0990 H     1 <1>   0.4500 
 32 H        4.2110     3.0830     0.4220 H     1 <1>   0.0800 
 33 H        3.4460     3.7790     1.8250 H     1 <1>   0.0800 
 34 H       -3.2270    -7.2260     0.6260 H     1 <1>   0.0800 
 35 H       -3.5020    -7.0250    -1.0830 H     1 <1>   0.0800 
 36 H       -5.1300    -4.8740    -1.5350 H     1 <1>   0.0800 
 37 H       -4.9200    -3.5250    -0.4370 H     1 <1>   0.0800 
 38 H        4.5480     5.3540    -0.5240 H     1 <1>   0.0800 
 39 H        5.2980     5.2030     1.0460 H     1 <1>   0.0800 
 40 H        3.7800     6.0520     0.8850 H     1 <1>   0.0800 
 41 H       -5.7240    -7.4420    -0.9320 H     1 <1>   0.0800 
 42 H       -7.1190    -4.9690    -0.4040 H     1 <1>   0.0800 
 43 H       -6.4760    -4.3040     1.0550 H     1 <1>   0.0800 
 44 H       -5.8160    -6.3610     1.8890 H     1 <1>   0.0800 
 45 H       -7.1970    -6.8480     0.9560 H     1 <1>   0.0800 
 46 H       -4.8260    -8.7180     1.6630 H     1 <1>   0.0800 
 47 H       -4.6370    -9.4070     0.0670 H     1 <1>   0.0800 
 48 H       -6.2290    -9.1690     0.7300 H     1 <1>   0.0800 
@<TRIPOS>BOND
  1   1   2  1   
  2   1   3  1   
  3   2   4  2   
  4   2   5  1   
  5   3   6  2   
  6   3   7  1   
  7   4   6  1   
  8   5   8  am  
  9   5  22  1   
 10   7   9  1   
 11   7  23  1   
 12   7  24  1   
 13   8  10  2   
 14   8  11  1   
 15   9  12  1   
 16   9  25  1   
 17   9  26  1   
 18  11  13  1   
 19  11  27  1   
 20  11  28  1   
 21  12  14  1   
 22  12  29  1   
 23  12  30  1   
 24  13  15  1   
 25  13  16  1   
 26  13  31  1   
 27  14  17  1   
 28  14  32  1   
 29  14  33  1   
 30  15  18  1   
 31  15  34  1   
 32  15  35  1   
 33  16  19  1   
 34  16  36  1   
 35  16  37  1   
 36  17  38  1   
 37  17  39  1   
 38  17  40  1   
 39  18  20  1   
 40  18  21  1   
 41  18  41  1   
 42  19  20  1   
 43  19  42  1   
 44  19  43  1   
 45  20  44  1   
 46  20  45  1   
 47  21  46  1   
 48  21  47  1   
 49  21  48  1   
@<TRIPOS>SUBSTRUCTURE
  1 ****   5 GROUP 4 **** **** 0

# MOE 2024.06 (io_trps.svl 2023.06)
