@<TRIPOS>MOLECULE
NONAME
52 55 1 0 0 
SMALL
USER_CHARGES


@<TRIPOS>ATOM
  1 O        1.2880    -0.9440     2.5030 O.2   1 <1>  -0.5700 
  2 C        1.5790    -1.3480     1.4000 C.2   1 <1>   0.5690 
  3 N        2.2460    -0.5600     0.4690 N.am  1 <1>  -0.4770 
  4 C        1.2180    -2.8160     1.0960 C.3   1 <1>   0.1710 
  5 C        2.3340     0.8650     0.5290 C.ar  1 <1>   0.1170 
  6 C        3.1730    -1.2340    -0.4960 C.3   1 <1>   0.1400 
  7 N       -0.0630    -3.0430     0.3650 N.3   1 <1>  -0.8100 
  8 C        3.3830     1.5420    -0.1120 C.ar  1 <1>   0.0820 
  9 C        1.3970     1.6460     1.2050 C.ar  1 <1>  -0.1500 
 10 C        3.7780    -0.2720    -1.5240 C.3   1 <1>   0.1200 
 11 C       -0.3560    -4.4870     0.2660 C.3   1 <1>   0.1100 
 12 C       -0.1280    -2.3840    -0.9490 C.3   1 <1>   0.1100 
 13 O        4.2790     0.8730    -0.8780 O.3   1 <1>  -0.3630 
 14 C        3.5250     2.9150    -0.0170 C.ar  1 <1>  -0.1500 
 15 C        1.5270     3.0230     1.2890 C.ar  1 <1>  -0.1500 
 16 C       -1.7550    -4.7330    -0.3260 C.3   1 <1>   0.2000 
 17 C       -1.5220    -2.5590    -1.5610 C.3   1 <1>  -0.1600 
 18 C        2.5970     3.6600     0.6870 C.ar  1 <1>  -0.1500 
 19 O       -1.9400    -6.0990    -0.5340 O.3   1 <1>  -0.5600 
 20 C       -1.9020    -4.0420    -1.6830 C.3   1 <1>  -0.1600 
 21 C       -2.4230    -6.8010     0.5810 C.3   1 <1>   0.2630 
 22 C       -2.4420    -8.3100     0.3470 C.ar  1 <1>   0.1670 
 23 N       -2.5890    -9.0510     1.4390 N.ar  1 <1>  -0.6200 
 24 C       -2.3170    -8.8430    -0.9300 C.ar  1 <1>  -0.1500 
 25 C       -2.6090   -10.3610     1.2500 C.ar  1 <1>   0.1600 
 26 C       -2.3390   -10.2090    -1.1110 C.ar  1 <1>  -0.1500 
 27 C       -2.4900   -10.9820     0.0190 C.ar  1 <1>  -0.1500 
 28 H        1.1410    -3.3070     2.0500 H     1 <1>   0.0800 
 29 H        2.0220    -3.2960     0.5720 H     1 <1>   0.0800 
 30 H        2.6540    -2.0060    -1.0310 H     1 <1>   0.0800 
 31 H        3.9750    -1.6880     0.0600 H     1 <1>   0.0800 
 32 H        0.5510     1.1850     1.6790 H     1 <1>   0.1500 
 33 H        3.0310     0.0440    -2.2310 H     1 <1>   0.0800 
 34 H        4.5890    -0.7380    -2.0530 H     1 <1>   0.0800 
 35 H       -0.3120    -4.9210     1.2500 H     1 <1>   0.0800 
 36 H        0.3810    -4.9620    -0.3590 H     1 <1>   0.0800 
 37 H        0.6110    -2.8060    -1.6080 H     1 <1>   0.0800 
 38 H        0.0630    -1.3300    -0.8400 H     1 <1>   0.0800 
 39 H        4.3550     3.3950    -0.5020 H     1 <1>   0.1500 
 40 H        0.7940     3.5960     1.8290 H     1 <1>   0.1500 
 41 H       -2.5100    -4.3670     0.3490 H     1 <1>   0.0800 
 42 H       -1.5450    -2.0990    -2.5330 H     1 <1>   0.0800 
 43 H       -2.2370    -2.0490    -0.9390 H     1 <1>   0.0800 
 44 H        2.7030     4.7280     0.7620 H     1 <1>   0.1500 
 45 H       -2.9170    -4.1320    -2.0260 H     1 <1>   0.0800 
 46 H       -1.2510    -4.5170    -2.3960 H     1 <1>   0.0800 
 47 H       -3.4210    -6.4620     0.7930 H     1 <1>   0.0800 
 48 H       -1.7910    -6.5920     1.4250 H     1 <1>   0.0800 
 49 H       -2.2030    -8.1950    -1.7810 H     1 <1>   0.1500 
 50 H       -2.7270   -10.9750     2.1260 H     1 <1>   0.1500 
 51 H       -2.2440   -10.6480    -2.0890 H     1 <1>   0.1500 
 52 H       -2.5160   -12.0540    -0.0500 H     1 <1>   0.1500 
@<TRIPOS>BOND
  1   1   2  2   
  2   2   3  am  
  3   2   4  1   
  4   3   5  1   
  5   3   6  1   
  6   4   7  1   
  7   4  28  1   
  8   4  29  1   
  9   5   8  ar  
 10   5   9  ar  
 11   6  10  1   
 12   6  30  1   
 13   6  31  1   
 14   7  11  1   
 15   7  12  1   
 16   8  13  1   
 17   8  14  ar  
 18   9  15  ar  
 19   9  32  1   
 20  10  13  1   
 21  10  33  1   
 22  10  34  1   
 23  11  16  1   
 24  11  35  1   
 25  11  36  1   
 26  12  17  1   
 27  12  37  1   
 28  12  38  1   
 29  14  18  ar  
 30  14  39  1   
 31  15  18  ar  
 32  15  40  1   
 33  16  19  1   
 34  16  20  1   
 35  16  41  1   
 36  17  20  1   
 37  17  42  1   
 38  17  43  1   
 39  18  44  1   
 40  19  21  1   
 41  20  45  1   
 42  20  46  1   
 43  21  22  1   
 44  21  47  1   
 45  21  48  1   
 46  22  23  ar  
 47  22  24  ar  
 48  23  25  ar  
 49  24  26  ar  
 50  24  49  1   
 51  25  27  ar  
 52  25  50  1   
 53  26  27  ar  
 54  26  51  1   
 55  27  52  1   
@<TRIPOS>SUBSTRUCTURE
  1 ****   7 GROUP 4 **** **** 0

# MOE 2024.06 (io_trps.svl 2023.06)
