@<TRIPOS>MOLECULE
NONAME
37 38 1 0 0 
SMALL
USER_CHARGES


@<TRIPOS>ATOM
  1 F       -2.7280    -0.1810     1.7850 F     1 <1>  -0.1900 
  2 C       -2.4200     0.3160     0.6180 C.ar  1 <1>   0.1900 
  3 C       -1.9450     1.6170     0.5430 C.ar  1 <1>  -0.1440 
  4 C       -2.5950    -0.4900    -0.4960 C.ar  1 <1>  -0.1440 
  5 C       -1.6330     2.1130    -0.7200 C.ar  1 <1>  -0.1500 
  6 C       -1.7870     2.4490     1.8170 C.3   1 <1>   1.1640 
  7 C       -2.2730     0.0290    -1.7400 C.ar  1 <1>  -0.1500 
  8 C       -3.1230    -1.9060    -0.3680 C.3   1 <1>   0.4860 
  9 C       -1.7950     1.3250    -1.8480 C.ar  1 <1>  -0.1500 
 10 F       -1.3470     3.6780     1.5750 F     1 <1>  -0.3400 
 11 F       -2.9350     2.5950     2.4680 F     1 <1>  -0.3400 
 12 F       -0.9260     1.9140     2.6730 F     1 <1>  -0.3400 
 13 N       -4.6140    -1.8570    -0.4880 N.4   1 <1>  -0.9590 
 14 C       -5.0990    -3.0410    -1.2890 C.3   1 <1>   0.3430 
 15 C       -5.1910    -1.7780     0.8980 C.3   1 <1>   0.3430 
 16 C       -5.3970    -4.2470    -0.4080 C.3   1 <1>  -0.1860 
 17 C       -6.5840    -2.3960     0.9360 C.3   1 <1>  -0.1600 
 18 C       -4.0470    -4.6470     0.1250 C.2   1 <1>   0.9060 
 19 C       -6.5120    -3.8920     0.6030 C.3   1 <1>   0.2000 
 20 O       -3.1670    -4.8650    -0.7090 O.co2 1 <1>  -0.9000 
 21 O       -3.7890    -4.5010     1.3240 O.co2 1 <1>  -0.9000 
 22 O       -6.3130    -4.5740     1.7780 O.3   1 <1>  -0.6800 
 23 H       -1.2570     3.1180    -0.8410 H     1 <1>   0.1500 
 24 H       -2.3830    -0.5680    -2.6310 H     1 <1>   0.1500 
 25 H       -2.8300    -2.3490     0.5720 H     1 <1>   0.0800 
 26 H       -2.7060    -2.5180    -1.1530 H     1 <1>   0.0800 
 27 H       -1.5430     1.7240    -2.8180 H     1 <1>   0.1500 
 28 H       -4.8320    -0.9980    -0.9990 H     1 <1>   0.4500 
 29 H       -6.0020    -2.7710    -1.8100 H     1 <1>   0.0800 
 30 H       -4.3600    -3.3150    -2.0270 H     1 <1>   0.0800 
 31 H       -4.5650    -2.3280     1.5850 H     1 <1>   0.0800 
 32 H       -5.2250    -0.7530     1.2280 H     1 <1>   0.0800 
 33 H       -5.7390    -5.0530    -1.0270 H     1 <1>   0.0800 
 34 H       -7.2120    -1.8900     0.2250 H     1 <1>   0.0800 
 35 H       -7.0230    -2.2590     1.9090 H     1 <1>   0.0800 
 36 H       -7.4690    -4.2090     0.2240 H     1 <1>   0.0800 
 37 H       -5.3190    -4.6580     1.9140 H     1 <1>   0.4000 
@<TRIPOS>BOND
  1   1   2  1   
  2   2   3  ar  
  3   2   4  ar  
  4   3   5  ar  
  5   3   6  1   
  6   4   7  ar  
  7   4   8  1   
  8   5   9  ar  
  9   5  23  1   
 10   6  10  1   
 11   6  11  1   
 12   6  12  1   
 13   7   9  ar  
 14   7  24  1   
 15   8  13  1   
 16   8  25  1   
 17   8  26  1   
 18   9  27  1   
 19  13  14  1   
 20  13  15  1   
 21  13  28  1   
 22  14  16  1   
 23  14  29  1   
 24  14  30  1   
 25  15  17  1   
 26  15  31  1   
 27  15  32  1   
 28  16  18  1   
 29  16  19  1   
 30  16  33  1   
 31  17  19  1   
 32  17  34  1   
 33  17  35  1   
 34  18  20  ar  
 35  18  21  ar  
 36  19  22  1   
 37  19  36  1   
 38  22  37  1   
@<TRIPOS>SUBSTRUCTURE
  1 ****   8 GROUP 4 **** **** 0

# MOE 2024.06 (io_trps.svl 2023.06)
