@<TRIPOS>MOLECULE
NONAME
56 57 1 0 0 
SMALL
USER_CHARGES


@<TRIPOS>ATOM
  1 S        1.2030     0.5910    -1.8610 S.o2  1 <1>   1.3330 
  2 O        1.4360    -0.8360    -1.8960 O.2   1 <1>  -0.6500 
  3 O        0.8420     1.2880    -3.0740 O.2   1 <1>  -0.6500 
  4 N       -0.0260     0.8890    -0.7250 N.am  1 <1>  -0.8490 
  5 C        2.6500     1.3690    -1.1400 C.3   1 <1>  -0.0550 
  6 C       -1.0810    -0.1280    -0.7750 C.3   1 <1>   0.1160 
  7 C       -0.6200     2.2250    -0.8510 C.3   1 <1>   0.1160 
  8 C        3.1820     0.6680     0.1290 C.3   1 <1>  -0.0800 
  9 C        4.5090     1.2020     0.6480 C.3   1 <1>   0.2200 
 10 C        2.2720     0.7670     1.3610 C.3   1 <1>   0.1200 
 11 N        4.5290     2.6820     0.6130 N.am  1 <1>  -0.7300 
 12 C        4.4390     0.7520     2.1000 C.3   1 <1>   0.1200 
 13 O        3.1090     0.9480     2.4680 O.3   1 <1>  -0.5600 
 14 C        5.1360     3.4560    -0.3230 C.2   1 <1>   0.7150 
 15 O        5.6920     2.9010    -1.2500 O.2   1 <1>  -0.5700 
 16 C        5.0630     4.8820    -0.1970 C.2   1 <1>  -0.2370 
 17 N        5.6500     5.7910    -1.0260 N.pl3 1 <1>   0.3140 
 18 C        4.4100     5.6280     0.7400 C.2   1 <1>  -0.1500 
 19 N        5.3840     7.0550    -0.6530 N.2   1 <1>  -0.7070 
 20 C        6.5040     5.5560    -2.2160 C.3   1 <1>   0.0960 
 21 C        4.6410     6.9470     0.4030 C.2   1 <1>   0.1080 
 22 C        7.9550     5.2600    -1.8110 C.3   1 <1>  -0.2400 
 23 C        4.1060     8.1530     1.1560 C.3   1 <1>   0.0210 
 24 C        2.5660     8.2130     1.1760 C.3   1 <1>  -0.0800 
 25 C        1.9850     8.3160    -0.2420 C.3   1 <1>  -0.2400 
 26 C        2.0880     9.4030     2.0170 C.3   1 <1>  -0.2400 
 27 H        3.4330     1.3600    -1.8740 H     1 <1>   0.0800 
 28 H        2.4290     2.3960    -0.9260 H     1 <1>   0.0800 
 29 H       -1.8380     0.0820    -0.0390 H     1 <1>   0.0800 
 30 H       -0.6680    -1.1000    -0.5640 H     1 <1>   0.0800 
 31 H       -1.5330    -0.1500    -1.7530 H     1 <1>   0.0800 
 32 H       -1.3260     2.3920    -0.0560 H     1 <1>   0.0800 
 33 H       -1.1290     2.3240    -1.7970 H     1 <1>   0.0800 
 34 H        0.1440     2.9800    -0.7920 H     1 <1>   0.0800 
 35 H        3.3150    -0.3770    -0.0920 H     1 <1>   0.0800 
 36 H        5.3600     0.7930     0.1290 H     1 <1>   0.0800 
 37 H        1.6910    -0.1290     1.5010 H     1 <1>   0.0800 
 38 H        1.6170     1.6190     1.3090 H     1 <1>   0.0800 
 39 H        4.0380     3.1290     1.3880 H     1 <1>   0.3700 
 40 H        5.0850     1.3190     2.7480 H     1 <1>   0.0800 
 41 H        4.6570    -0.2980     2.1880 H     1 <1>   0.0800 
 42 H        3.8260     5.2950     1.5770 H     1 <1>   0.1500 
 43 H        6.0960     4.7480    -2.7920 H     1 <1>   0.0800 
 44 H        6.4760     6.4430    -2.8230 H     1 <1>   0.0800 
 45 H        8.0050     4.3610    -1.2230 H     1 <1>   0.0800 
 46 H        8.3540     6.0820    -1.2430 H     1 <1>   0.0800 
 47 H        8.5570     5.1260    -2.6910 H     1 <1>   0.0800 
 48 H        4.4810     8.1140     2.1620 H     1 <1>   0.0800 
 49 H        4.4960     9.0450     0.6980 H     1 <1>   0.0800 
 50 H        2.1940     7.3100     1.6310 H     1 <1>   0.0800 
 51 H        2.3530     9.1970    -0.7370 H     1 <1>   0.0800 
 52 H        0.9110     8.3640    -0.2060 H     1 <1>   0.0800 
 53 H        2.2630     7.4580    -0.8290 H     1 <1>   0.0800 
 54 H        2.4330    10.3300     1.5920 H     1 <1>   0.0800 
 55 H        2.4610     9.3260     3.0230 H     1 <1>   0.0800 
 56 H        1.0130     9.4240     2.0580 H     1 <1>   0.0800 
@<TRIPOS>BOND
  1   1   2  2   
  2   1   3  2   
  3   1   4  am  
  4   1   5  1   
  5   4   6  1   
  6   4   7  1   
  7   5   8  1   
  8   5  27  1   
  9   5  28  1   
 10   6  29  1   
 11   6  30  1   
 12   6  31  1   
 13   7  32  1   
 14   7  33  1   
 15   7  34  1   
 16   8   9  1   
 17   8  10  1   
 18   8  35  1   
 19   9  11  1   
 20   9  12  1   
 21   9  36  1   
 22  10  13  1   
 23  10  37  1   
 24  10  38  1   
 25  11  14  am  
 26  11  39  1   
 27  12  13  1   
 28  12  40  1   
 29  12  41  1   
 30  14  15  2   
 31  14  16  1   
 32  16  17  1   
 33  16  18  2   
 34  17  19  1   
 35  17  20  1   
 36  18  21  1   
 37  18  42  1   
 38  19  21  2   
 39  20  22  1   
 40  20  43  1   
 41  20  44  1   
 42  21  23  1   
 43  22  45  1   
 44  22  46  1   
 45  22  47  1   
 46  23  24  1   
 47  23  48  1   
 48  23  49  1   
 49  24  25  1   
 50  24  26  1   
 51  24  50  1   
 52  25  51  1   
 53  25  52  1   
 54  25  53  1   
 55  26  54  1   
 56  26  55  1   
 57  26  56  1   
@<TRIPOS>SUBSTRUCTURE
  1 ****  11 GROUP 4 **** **** 0

# MOE 2024.06 (io_trps.svl 2023.06)
