@<TRIPOS>MOLECULE
NONAME
53 56 1 0 0 
SMALL
USER_CHARGES


@<TRIPOS>ATOM
  1 O       -0.7480     0.9050     1.5410 O.2   1 <1>  -0.5700 
  2 C       -1.7190     1.2230     0.8960 C.2   1 <1>   0.5690 
  3 N       -2.9180     0.5680     1.0260 N.am  1 <1>  -0.6600 
  4 C       -1.5770     2.3790    -0.0910 C.3   1 <1>  -0.0990 
  5 C       -3.1070    -0.4950     2.0560 C.3   1 <1>   0.1400 
  6 C       -4.1390     0.8090     0.2060 C.3   1 <1>   0.1400 
  7 C       -0.2480     3.1540     0.0310 C.3   1 <1>  -0.1600 
  8 C       -3.4970    -1.8060     1.3710 C.3   1 <1>  -0.1600 
  9 C       -4.5290    -0.4880    -0.5070 C.3   1 <1>  -0.1600 
 10 C       -0.1600     4.2860    -1.0030 C.3   1 <1>   0.0960 
 11 C       -4.7420    -1.6440     0.4860 C.3   1 <1>   0.4240 
 12 N        1.0640     5.0920    -0.8200 N.pl3 1 <1>   0.3140 
 13 O       -5.7780    -1.2740     1.3660 O.3   1 <1>  -0.5600 
 14 C       -5.0580    -2.9650    -0.2500 C.ar  1 <1>  -0.1440 
 15 N        1.0290     6.3950    -0.5800 N.2   1 <1>  -0.7070 
 16 C        2.3420     4.7060    -0.8840 C.2   1 <1>   0.0360 
 17 C       -7.0890    -1.4960     0.9510 C.3   1 <1>   0.1200 
 18 C       -6.2800    -3.6080    -0.0830 C.ar  1 <1>  -0.1430 
 19 C       -4.1210    -3.5370    -1.1040 C.ar  1 <1>  -0.1500 
 20 C        2.2830     6.6990    -0.5120 C.2   1 <1>   0.3660 
 21 N        3.1450     5.6900    -0.6950 N.2   1 <1>  -0.5650 
 22 C       -7.3210    -2.9990     0.8350 C.3   1 <1>  -0.0170 
 23 C       -6.5530    -4.7950    -0.7450 C.ar  1 <1>  -0.1500 
 24 C       -4.3930    -4.7190    -1.7680 C.ar  1 <1>  -0.1500 
 25 C       -5.6070    -5.3580    -1.5950 C.ar  1 <1>   0.0820 
 26 O       -5.7940    -6.5140    -2.2800 O.3   1 <1>  -0.3630 
 27 C       -6.9880    -7.2530    -2.1570 C.3   1 <1>   0.0400 
 28 H       -2.3870     3.0650     0.0780 H     1 <1>   0.0800 
 29 H       -1.6660     1.9780    -1.0830 H     1 <1>   0.0800 
 30 H       -3.8830    -0.1910     2.7380 H     1 <1>   0.0800 
 31 H       -2.2060    -0.6420     2.6270 H     1 <1>   0.0800 
 32 H       -3.9780     1.5790    -0.5240 H     1 <1>   0.0800 
 33 H       -4.9390     1.1250     0.8550 H     1 <1>   0.0800 
 34 H        0.5720     2.4700    -0.1100 H     1 <1>   0.0800 
 35 H       -0.1770     3.5680     1.0230 H     1 <1>   0.0800 
 36 H       -3.6890    -2.5610     2.1110 H     1 <1>   0.0800 
 37 H       -2.6610    -2.1360     0.7840 H     1 <1>   0.0800 
 38 H       -3.7430    -0.7450    -1.1920 H     1 <1>   0.0800 
 39 H       -5.4170    -0.3380    -1.0900 H     1 <1>   0.0800 
 40 H       -1.0050     4.9420    -0.9010 H     1 <1>   0.0800 
 41 H       -0.1560     3.8860    -2.0000 H     1 <1>   0.0800 
 42 H        2.6400     3.6900    -1.0720 H     1 <1>   0.1500 
 43 H       -7.2530    -1.0050     0.0080 H     1 <1>   0.0800 
 44 H       -7.7460    -1.0710     1.6900 H     1 <1>   0.0800 
 45 H       -3.1660    -3.0680    -1.2630 H     1 <1>   0.1500 
 46 H        2.6400     7.6990    -0.3210 H     1 <1>   0.1500 
 47 H       -8.3080    -3.1760     0.4480 H     1 <1>   0.0800 
 48 H       -7.2530    -3.4480     1.8090 H     1 <1>   0.0800 
 49 H       -7.5030    -5.2690    -0.5920 H     1 <1>   0.1500 
 50 H       -3.6630    -5.1550    -2.4260 H     1 <1>   0.1500 
 51 H       -6.9050    -8.1260    -2.7800 H     1 <1>   0.0800 
 52 H       -7.8110    -6.6450    -2.4880 H     1 <1>   0.0800 
 53 H       -7.1120    -7.5470    -1.1300 H     1 <1>   0.0800 
@<TRIPOS>BOND
  1   1   2  2   
  2   2   3  am  
  3   2   4  1   
  4   3   5  1   
  5   3   6  1   
  6   4   7  1   
  7   4  28  1   
  8   4  29  1   
  9   5   8  1   
 10   5  30  1   
 11   5  31  1   
 12   6   9  1   
 13   6  32  1   
 14   6  33  1   
 15   7  10  1   
 16   7  34  1   
 17   7  35  1   
 18   8  11  1   
 19   8  36  1   
 20   8  37  1   
 21   9  11  1   
 22   9  38  1   
 23   9  39  1   
 24  10  12  1   
 25  10  40  1   
 26  10  41  1   
 27  11  13  1   
 28  11  14  1   
 29  12  15  1   
 30  12  16  1   
 31  13  17  1   
 32  14  18  ar  
 33  14  19  ar  
 34  15  20  2   
 35  16  21  2   
 36  16  42  1   
 37  17  22  1   
 38  17  43  1   
 39  17  44  1   
 40  18  22  1   
 41  18  23  ar  
 42  19  24  ar  
 43  19  45  1   
 44  20  21  1   
 45  20  46  1   
 46  22  47  1   
 47  22  48  1   
 48  23  25  ar  
 49  23  49  1   
 50  24  25  ar  
 51  24  50  1   
 52  25  26  1   
 53  26  27  1   
 54  27  51  1   
 55  27  52  1   
 56  27  53  1   
@<TRIPOS>SUBSTRUCTURE
  1 ****   3 GROUP 4 **** **** 0

# MOE 2024.06 (io_trps.svl 2023.06)
