@<TRIPOS>MOLECULE
NONAME
39 40 1 0 0 
SMALL
USER_CHARGES


@<TRIPOS>ATOM
  1 CL      -5.6720     0.3310     0.0830 Cl    1 <1>  -0.1770 
  2 C       -4.0940     0.5320    -0.6460 C.ar  1 <1>   0.1770 
  3 C       -3.1850    -0.5190    -0.6710 C.ar  1 <1>  -0.1440 
  4 C       -3.7880     1.7640    -1.1970 C.ar  1 <1>  -0.1500 
  5 C       -1.9510    -0.3110    -1.2680 C.ar  1 <1>  -0.1500 
  6 C       -3.5110    -1.8800    -0.0700 C.3   1 <1>  -0.0160 
  7 C       -2.5520     1.9570    -1.7890 C.ar  1 <1>  -0.1500 
  8 C       -1.6360     0.9190    -1.8230 C.ar  1 <1>  -0.1500 
  9 C       -4.2630    -2.7480    -1.0850 C.3   1 <1>  -0.0990 
 10 C       -4.6960    -4.0690    -0.4750 C.2   1 <1>   0.5690 
 11 O       -4.0070    -5.0330    -0.7220 O.2   1 <1>  -0.5700 
 12 N       -5.8130    -4.1820     0.3130 N.am  1 <1>  -0.6600 
 13 C       -6.1720    -5.5150     0.8870 C.3   1 <1>   0.3200 
 14 C       -6.8700    -3.1380     0.4970 C.3   1 <1>   0.1400 
 15 C       -6.8960    -6.3580    -0.1480 C.2   1 <1>   0.0060 
 16 C       -6.8280    -2.5590     1.9160 C.3   1 <1>   0.1200 
 17 N       -8.1230    -6.7640    -0.0560 N.2   1 <1>  -0.5650 
 18 N       -6.2770    -6.7580    -1.2790 N.pl3 1 <1>   0.0330 
 19 O       -7.6390    -1.4360     1.9800 O.3   1 <1>  -0.6800 
 20 C       -8.3130    -7.4660    -1.1910 C.2   1 <1>   0.0770 
 21 C       -7.1960    -7.4730    -1.9510 C.2   1 <1>  -0.3020 
 22 H       -4.5100     2.5590    -1.1630 H     1 <1>   0.1500 
 23 H       -1.2250    -1.1060    -1.3060 H     1 <1>   0.1500 
 24 H       -4.0950    -1.7530     0.8220 H     1 <1>   0.0800 
 25 H       -2.6020    -2.3800     0.2170 H     1 <1>   0.0800 
 26 H       -2.3030     2.9110    -2.2210 H     1 <1>   0.1500 
 27 H       -0.6750     1.0690    -2.2830 H     1 <1>   0.1500 
 28 H       -3.6070    -2.9540    -1.9110 H     1 <1>   0.0800 
 29 H       -5.1060    -2.2230    -1.4880 H     1 <1>   0.0800 
 30 H       -6.8040    -5.3940     1.7480 H     1 <1>   0.0800 
 31 H       -5.2800    -6.0290     1.2030 H     1 <1>   0.0800 
 32 H       -7.8360    -3.5830     0.3250 H     1 <1>   0.0800 
 33 H       -6.7470    -2.3450    -0.2130 H     1 <1>   0.0800 
 34 H       -5.8310    -2.2630     2.1910 H     1 <1>   0.0800 
 35 H       -7.2030    -3.2730     2.6280 H     1 <1>   0.0800 
 36 H       -5.3090    -6.5170    -1.5330 H     1 <1>   0.2700 
 37 H       -7.2540    -0.6960     1.4640 H     1 <1>   0.4000 
 38 H       -9.2590    -7.9360    -1.4040 H     1 <1>   0.1500 
 39 H       -7.0090    -7.9320    -2.9040 H     1 <1>   0.1500 
@<TRIPOS>BOND
  1   1   2  1   
  2   2   3  ar  
  3   2   4  ar  
  4   3   5  ar  
  5   3   6  1   
  6   4   7  ar  
  7   4  22  1   
  8   5   8  ar  
  9   5  23  1   
 10   6   9  1   
 11   6  24  1   
 12   6  25  1   
 13   7   8  ar  
 14   7  26  1   
 15   8  27  1   
 16   9  10  1   
 17   9  28  1   
 18   9  29  1   
 19  10  11  2   
 20  10  12  am  
 21  12  13  1   
 22  12  14  1   
 23  13  15  1   
 24  13  30  1   
 25  13  31  1   
 26  14  16  1   
 27  14  32  1   
 28  14  33  1   
 29  15  17  2   
 30  15  18  1   
 31  16  19  1   
 32  16  34  1   
 33  16  35  1   
 34  17  20  1   
 35  18  21  1   
 36  18  36  1   
 37  19  37  1   
 38  20  21  2   
 39  20  38  1   
 40  21  39  1   
@<TRIPOS>SUBSTRUCTURE
  1 ****   9 GROUP 4 **** **** 0

# MOE 2024.06 (io_trps.svl 2023.06)
