@<TRIPOS>MOLECULE
NONAME
52 54 1 0 0 
SMALL
USER_CHARGES


@<TRIPOS>ATOM
  1 O        0.3550     1.4460    -0.3910 O.2   1 <1>  -0.5700 
  2 C        1.0120     0.4300    -0.3490 C.2   1 <1>   0.5690 
  3 N        2.1150     0.3360     0.4640 N.am  1 <1>  -0.6600 
  4 C        0.5690    -0.7330    -1.2560 C.3   1 <1>   0.1710 
  5 C        2.4120     1.3870     1.4810 C.3   1 <1>   0.3200 
  6 C        2.9990    -0.8640     0.5360 C.3   1 <1>   0.0600 
  7 N        0.3240    -2.0320    -0.5690 N.3   1 <1>  -0.8100 
  8 C        3.7490     2.0580     1.2110 C.2   1 <1>   0.0060 
  9 C       -0.7510    -1.9010     0.4460 C.3   1 <1>   0.1100 
 10 C       -0.0320    -3.0860    -1.5470 C.3   1 <1>   0.1100 
 11 N        4.7930     1.8990     1.9520 N.2   1 <1>  -0.3380 
 12 N        3.9970     2.8860     0.1880 N.pl3 1 <1>   0.0480 
 13 C       -1.0370    -3.2340     1.1620 C.3   1 <1>   0.2090 
 14 C       -0.3150    -4.4440    -0.8750 C.3   1 <1>   0.2090 
 15 N        5.7700     2.6320     1.4190 N.2   1 <1>  -0.3380 
 16 C        5.2770     3.2070     0.3780 C.2   1 <1>   0.0360 
 17 C        3.1160     3.3500    -0.9050 C.3   1 <1>   0.0960 
 18 N       -1.3750    -4.2980     0.1680 N.pl3 1 <1>  -0.8380 
 19 C        2.2280     4.5110    -0.4390 C.3   1 <1>  -0.1600 
 20 C       -2.6570    -4.7680    -0.0180 C.ar  1 <1>   0.7200 
 21 C        1.2960     4.9760    -1.5630 C.3   1 <1>  -0.2400 
 22 N       -2.8100    -5.7990    -0.8500 N.ar  1 <1>  -0.6200 
 23 N       -3.6370    -4.1510     0.6440 N.ar  1 <1>  -0.6200 
 24 C       -4.0320    -6.2410    -1.0140 C.ar  1 <1>   0.1600 
 25 C       -4.8490    -4.6130     0.4580 C.ar  1 <1>   0.1600 
 26 C       -5.1060    -5.6750    -0.3740 C.ar  1 <1>  -0.1500 
 27 H        1.3320    -0.8700    -2.0000 H     1 <1>   0.0800 
 28 H       -0.3290    -0.4320    -1.7660 H     1 <1>   0.0800 
 29 H        2.4440     0.9280     2.4540 H     1 <1>   0.0800 
 30 H        1.6370     2.1310     1.5050 H     1 <1>   0.0800 
 31 H        2.9520    -1.4330    -0.3750 H     1 <1>   0.0800 
 32 H        2.6880    -1.4930     1.3520 H     1 <1>   0.0800 
 33 H        4.0220    -0.5660     0.6940 H     1 <1>   0.0800 
 34 H       -1.6600    -1.5620    -0.0210 H     1 <1>   0.0800 
 35 H       -0.4640    -1.1750     1.1860 H     1 <1>   0.0800 
 36 H        0.7750    -3.2110    -2.2470 H     1 <1>   0.0800 
 37 H       -0.9100    -2.7920    -2.0980 H     1 <1>   0.0800 
 38 H       -1.8290    -3.0980     1.8760 H     1 <1>   0.0800 
 39 H       -0.1600    -3.5320     1.7080 H     1 <1>   0.0800 
 40 H        0.5860    -4.8050    -0.4110 H     1 <1>   0.0800 
 41 H       -0.6010    -5.1560    -1.6280 H     1 <1>   0.0800 
 42 H        5.8200     3.8690    -0.2700 H     1 <1>   0.1500 
 43 H        2.5120     2.5290    -1.2400 H     1 <1>   0.0800 
 44 H        3.7290     3.6690    -1.7290 H     1 <1>   0.0800 
 45 H        2.8440     5.3350    -0.1240 H     1 <1>   0.0800 
 46 H        1.6260     4.1940     0.3960 H     1 <1>   0.0800 
 47 H        1.8630     5.3120    -2.4140 H     1 <1>   0.0800 
 48 H        0.6820     5.7890    -1.2180 H     1 <1>   0.0800 
 49 H        0.6500     4.1710    -1.8690 H     1 <1>   0.0800 
 50 H       -4.1810    -7.0770    -1.6770 H     1 <1>   0.1500 
 51 H       -5.6560    -4.1330     0.9830 H     1 <1>   0.1500 
 52 H       -6.1030    -6.0450    -0.5170 H     1 <1>   0.1500 
@<TRIPOS>BOND
  1   1   2  2   
  2   2   3  am  
  3   2   4  1   
  4   3   5  1   
  5   3   6  1   
  6   4   7  1   
  7   4  27  1   
  8   4  28  1   
  9   5   8  1   
 10   5  29  1   
 11   5  30  1   
 12   6  31  1   
 13   6  32  1   
 14   6  33  1   
 15   7   9  1   
 16   7  10  1   
 17   8  11  2   
 18   8  12  1   
 19   9  13  1   
 20   9  34  1   
 21   9  35  1   
 22  10  14  1   
 23  10  36  1   
 24  10  37  1   
 25  11  15  1   
 26  12  16  1   
 27  12  17  1   
 28  13  18  1   
 29  13  38  1   
 30  13  39  1   
 31  14  18  1   
 32  14  40  1   
 33  14  41  1   
 34  15  16  2   
 35  16  42  1   
 36  17  19  1   
 37  17  43  1   
 38  17  44  1   
 39  18  20  1   
 40  19  21  1   
 41  19  45  1   
 42  19  46  1   
 43  20  22  ar  
 44  20  23  ar  
 45  21  47  1   
 46  21  48  1   
 47  21  49  1   
 48  22  24  ar  
 49  23  25  ar  
 50  24  26  ar  
 51  24  50  1   
 52  25  26  ar  
 53  25  51  1   
 54  26  52  1   
@<TRIPOS>SUBSTRUCTURE
  1 ****   4 GROUP 4 **** **** 0

# MOE 2024.06 (io_trps.svl 2023.06)
