@<TRIPOS>MOLECULE
NONAME
40 42 1 0 0 
SMALL
USER_CHARGES


@<TRIPOS>ATOM
  1 F        1.0640     0.8280    -1.3060 F     1 <1>  -0.1900 
  2 C        1.8960     1.3040    -0.4190 C.ar  1 <1>   0.1900 
  3 C        2.7150     0.4350     0.2850 C.ar  1 <1>  -0.1440 
  4 C        1.9200     2.6720    -0.2270 C.ar  1 <1>  -0.1500 
  5 C        3.5850     0.9800     1.2160 C.ar  1 <1>  -0.1500 
  6 C        2.6620    -1.0680     0.0520 C.3   1 <1>  -0.0960 
  7 C        2.8000     3.2060     0.7040 C.ar  1 <1>  -0.1430 
  8 C        3.6270     2.3510     1.4240 C.ar  1 <1>  -0.1500 
  9 C        2.8630     4.7060     0.9200 C.3   1 <1>   0.4870 
 10 N        4.1850     5.1980     0.4500 N.4   1 <1>  -0.9590 
 11 C        4.4960     6.5910     0.9370 C.3   1 <1>   0.3430 
 12 C        4.4180     4.9290    -1.0110 C.3   1 <1>   0.3430 
 13 C        5.9680     7.0510     0.7310 C.3   1 <1>   0.2200 
 14 C        5.8890     5.0400    -1.4390 C.3   1 <1>  -0.0190 
 15 N        6.2160     7.3680    -0.6940 N.am  1 <1>  -0.7300 
 16 C        7.0150     6.0320     1.2470 C.3   1 <1>   0.1200 
 17 C        6.2010     6.4870    -1.7080 C.2   1 <1>   0.5690 
 18 C        6.9370     4.3950    -0.5050 C.3   1 <1>   0.1200 
 19 O        6.7410     4.7110     0.8490 O.3   1 <1>  -0.5600 
 20 O        6.4020     6.8520    -2.8330 O.2   1 <1>  -0.5700 
 21 H        1.2530     3.2870    -0.8050 H     1 <1>   0.1500 
 22 H        4.2340     0.3370     1.7860 H     1 <1>   0.1500 
 23 H        3.3600    -1.5850     0.6860 H     1 <1>   0.0800 
 24 H        2.9010    -1.2900    -0.9730 H     1 <1>   0.0800 
 25 H        1.6740    -1.4360     0.2620 H     1 <1>   0.0800 
 26 H        4.3140     2.7340     2.1600 H     1 <1>   0.1500 
 27 H        2.7400     4.9150     1.9710 H     1 <1>   0.0800 
 28 H        2.0690     5.1940     0.3780 H     1 <1>   0.0800 
 29 H        4.9030     4.6010     0.9080 H     1 <1>   0.4500 
 30 H        3.8430     7.3000     0.4540 H     1 <1>   0.0800 
 31 H        4.2920     6.6330     1.9940 H     1 <1>   0.0800 
 32 H        4.0970     3.9240    -1.2330 H     1 <1>   0.0800 
 33 H        3.8220     5.5990    -1.6090 H     1 <1>   0.0800 
 34 H        6.1060     7.9660     1.2820 H     1 <1>   0.0800 
 35 H        5.9740     4.5420    -2.3890 H     1 <1>   0.0800 
 36 H        6.4910     8.3270    -0.9360 H     1 <1>   0.3700 
 37 H        7.0100     6.0340     2.3230 H     1 <1>   0.0800 
 38 H        8.0070     6.2990     0.9230 H     1 <1>   0.0800 
 39 H        7.9360     4.6870    -0.7890 H     1 <1>   0.0800 
 40 H        6.8730     3.3230    -0.5850 H     1 <1>   0.0800 
@<TRIPOS>BOND
  1   1   2  1   
  2   2   3  ar  
  3   2   4  ar  
  4   3   5  ar  
  5   3   6  1   
  6   4   7  ar  
  7   4  21  1   
  8   5   8  ar  
  9   5  22  1   
 10   6  23  1   
 11   6  24  1   
 12   6  25  1   
 13   7   8  ar  
 14   7   9  1   
 15   8  26  1   
 16   9  10  1   
 17   9  27  1   
 18   9  28  1   
 19  10  11  1   
 20  10  12  1   
 21  10  29  1   
 22  11  13  1   
 23  11  30  1   
 24  11  31  1   
 25  12  14  1   
 26  12  32  1   
 27  12  33  1   
 28  13  15  1   
 29  13  16  1   
 30  13  34  1   
 31  14  17  1   
 32  14  18  1   
 33  14  35  1   
 34  15  17  am  
 35  15  36  1   
 36  16  19  1   
 37  16  37  1   
 38  16  38  1   
 39  17  20  2   
 40  18  19  1   
 41  18  39  1   
 42  18  40  1   
@<TRIPOS>SUBSTRUCTURE
  1 ****  10 GROUP 4 **** **** 0

# MOE 2024.06 (io_trps.svl 2023.06)
