@<TRIPOS>MOLECULE
Untitled Document
42 44 1 0 0 
SMALL
USER_CHARGES


@<TRIPOS>ATOM
  1 S        0.0580     0.0890    -0.5690 S.3   1 <1>  -0.0800 
  2 C        1.6440     0.6110     0.0170 C.ar  1 <1>   0.0400 
  3 C       -0.1330     1.5640    -1.5180 C.2   1 <1>  -0.1100 
  4 C        1.9640     1.8510    -0.5140 C.ar  1 <1>   0.0000 
  5 C        2.4760    -0.0810     0.8760 C.ar  1 <1>  -0.1500 
  6 C        0.9370     2.3660    -1.3790 C.2   1 <1>  -0.1500 
  7 C        3.1840     2.4180    -0.1590 C.ar  1 <1>  -0.1500 
  8 C        3.6840     0.5010     1.2160 C.ar  1 <1>  -0.1500 
  9 C        4.0410     1.7470     0.7010 C.ar  1 <1>  -0.1440 
 10 C        5.3780     2.3640     1.0810 C.3   1 <1>  -0.0160 
 11 C        6.4720     1.8630     0.1400 C.3   1 <1>   0.1200 
 12 O        7.6800     2.4450     0.5170 O.3   1 <1>  -0.5600 
 13 C        8.7590     2.0700    -0.2620 C.3   1 <1>   0.1200 
 14 C        9.9800     2.7840     0.3110 C.3   1 <1>  -0.1600 
 15 C       11.2310     2.4680    -0.5020 C.3   1 <1>   0.3430 
 16 N       12.4010     3.1350     0.1140 N.4   1 <1>  -0.8970 
 17 C       12.5190     4.6280    -0.0640 C.3   1 <1>   0.4720 
 18 C       13.7050     3.0270    -0.6340 C.3   1 <1>   0.4720 
 19 C       14.0620     4.4230    -0.0440 C.3   1 <1>   0.2580 
 20 O       14.5820     4.3270     1.2570 O.3   1 <1>  -0.6580 
 21 H       -1.0430     1.6660    -2.0820 H     1 <1>   0.1500 
 22 H        2.1840    -1.0400     1.2640 H     1 <1>   0.1500 
 23 H        1.0650     3.3220    -1.8540 H     1 <1>   0.1500 
 24 H        3.4490     3.3790    -0.5610 H     1 <1>   0.1500 
 25 H        4.3510    -0.0160     1.8850 H     1 <1>   0.1500 
 26 H        5.6250     2.0980     2.0930 H     1 <1>   0.0800 
 27 H        5.3160     3.4350     1.0180 H     1 <1>   0.0800 
 28 H        6.2470     2.1450    -0.8750 H     1 <1>   0.0800 
 29 H        6.5610     0.7920     0.2100 H     1 <1>   0.0800 
 30 H        8.5690     2.3710    -1.2800 H     1 <1>   0.0800 
 31 H        8.8710     0.9990    -0.2060 H     1 <1>   0.0800 
 32 H       10.1160     2.4600     1.3270 H     1 <1>   0.0800 
 33 H        9.7900     3.8430     0.2960 H     1 <1>   0.0800 
 34 H       11.1020     2.8060    -1.5180 H     1 <1>   0.0800 
 35 H       11.3880     1.4010    -0.5150 H     1 <1>   0.0800 
 36 H       12.5680     2.8990     1.1030 H     1 <1>   0.4500 
 37 H       12.1280     5.1800     0.7710 H     1 <1>   0.0000 
 38 H       12.1430     4.9360    -1.0230 H     1 <1>   0.0000 
 39 H       13.5460     3.0440    -1.6970 H     1 <1>   0.0000 
 40 H       14.3230     2.2200    -0.2840 H     1 <1>   0.0000 
 41 H       14.6540     5.0680    -0.6690 H     1 <1>   0.0000 
 42 H       14.9940     5.1720     1.5390 H     1 <1>   0.4000 
@<TRIPOS>BOND
  1   1   2  1   
  2   1   3  1   
  3   2   4  ar  
  4   2   5  ar  
  5   3   6  2   
  6   3  21  1   
  7   4   6  1   
  8   4   7  ar  
  9   5   8  ar  
 10   5  22  1   
 11   6  23  1   
 12   7   9  ar  
 13   7  24  1   
 14   8   9  ar  
 15   8  25  1   
 16   9  10  1   
 17  10  11  1   
 18  10  26  1   
 19  10  27  1   
 20  11  12  1   
 21  11  28  1   
 22  11  29  1   
 23  12  13  1   
 24  13  14  1   
 25  13  30  1   
 26  13  31  1   
 27  14  15  1   
 28  14  32  1   
 29  14  33  1   
 30  15  16  1   
 31  15  34  1   
 32  15  35  1   
 33  16  17  1   
 34  16  18  1   
 35  16  36  1   
 36  17  19  1   
 37  17  37  1   
 38  17  38  1   
 39  18  19  1   
 40  18  39  1   
 41  18  40  1   
 42  19  20  1   
 43  19  41  1   
 44  20  42  1   
@<TRIPOS>SUBSTRUCTURE
  1 ****  11 GROUP 4 **** **** 0

# MOE 2024.06 (io_trps.svl 2023.06)
