@<TRIPOS>MOLECULE
NONAME
49 51 1 0 0 
SMALL
USER_CHARGES


@<TRIPOS>ATOM
  1 CL      -2.5010    -0.8870     3.1760 Cl    1 <1>  -0.1770 
  2 C       -3.0670    -1.1220     1.5370 C.ar  1 <1>   0.1770 
  3 C       -3.6470    -0.0790     0.8190 C.ar  1 <1>  -0.1440 
  4 C       -2.9210    -2.3860     1.0030 C.ar  1 <1>  -0.1500 
  5 C       -4.1210    -0.3270    -0.4760 C.ar  1 <1>  -0.0090 
  6 C       -3.7590     1.3040     1.4660 C.3   1 <1>  -0.0970 
  7 C       -3.3670    -2.6310    -0.2780 C.ar  1 <1>  -0.1500 
  8 S       -4.9450     0.9260    -1.5170 S.o2  1 <1>   1.4470 
  9 C       -3.9580    -1.6090    -0.9980 C.ar  1 <1>  -0.1500 
 10 O       -4.0410     2.0290    -1.7600 O.2   1 <1>  -0.6500 
 11 O       -5.5800     0.2840    -2.6490 O.2   1 <1>  -0.6500 
 12 N       -6.2020     1.5120    -0.5370 N.am  1 <1>  -0.8490 
 13 C       -6.6870     2.8120    -1.0190 C.3   1 <1>   0.1960 
 14 C       -7.2570     0.5160    -0.2710 C.3   1 <1>   0.1960 
 15 C       -7.9240     3.2250    -0.2240 C.3   1 <1>  -0.1600 
 16 C       -8.5830     0.8810    -0.9430 C.3   1 <1>  -0.1600 
 17 C       -9.1080     2.2560    -0.4740 C.3   1 <1>   0.2800 
 18 O       -9.8210     2.7340    -1.5760 O.3   1 <1>  -0.5600 
 19 C      -10.0260     2.0910     0.7770 C.3   1 <1>  -0.1600 
 20 C      -10.6840     3.8470    -1.4910 C.3   1 <1>   0.1200 
 21 C      -11.4110     2.7500     0.6780 C.3   1 <1>   0.2800 
 22 C      -11.3010     4.0790    -0.1000 C.3   1 <1>   0.2000 
 23 O      -12.2500     1.8990    -0.0160 O.3   1 <1>  -0.6800 
 24 C      -12.0550     2.9180     2.0580 C.3   1 <1>  -0.2400 
 25 O      -10.5070     4.9920     0.6000 O.3   1 <1>  -0.6800 
 26 H       -2.4630    -3.1640     1.5870 H     1 <1>   0.1500 
 27 H       -3.6920     2.0920     0.7410 H     1 <1>   0.0800 
 28 H       -2.9660     1.4750     2.1700 H     1 <1>   0.0800 
 29 H       -4.6990     1.3910     1.9820 H     1 <1>   0.0800 
 30 H       -3.2570    -3.6100    -0.7140 H     1 <1>   0.1500 
 31 H       -4.3040    -1.8190    -1.9980 H     1 <1>   0.1500 
 32 H       -5.9120     3.5510    -0.8950 H     1 <1>   0.0800 
 33 H       -6.9300     2.7560    -2.0690 H     1 <1>   0.0800 
 34 H       -6.9510    -0.4650    -0.5970 H     1 <1>   0.0800 
 35 H       -7.4110     0.4640     0.7940 H     1 <1>   0.0800 
 36 H       -8.1830     4.2300    -0.4950 H     1 <1>   0.0800 
 37 H       -7.6370     3.2310     0.8120 H     1 <1>   0.0800 
 38 H       -9.3090     0.1110    -0.7580 H     1 <1>   0.0800 
 39 H       -8.4150     0.8920    -2.0070 H     1 <1>   0.0800 
 40 H      -10.1530     1.0550     1.0320 H     1 <1>   0.0800 
 41 H       -9.5210     2.5160     1.6230 H     1 <1>   0.0800 
 42 H      -10.1560     4.7220    -1.8270 H     1 <1>   0.0800 
 43 H      -11.4810     3.6520    -2.1860 H     1 <1>   0.0800 
 44 H      -12.2730     4.5300    -0.1990 H     1 <1>   0.0800 
 45 H      -12.3150     1.0450     0.4460 H     1 <1>   0.4000 
 46 H      -11.4660     3.5810     2.6660 H     1 <1>   0.0800 
 47 H      -12.1290     1.9740     2.5660 H     1 <1>   0.0800 
 48 H      -13.0360     3.3480     1.9580 H     1 <1>   0.0800 
 49 H       -9.5950     4.6540     0.6500 H     1 <1>   0.4000 
@<TRIPOS>BOND
  1   1   2  1   
  2   2   3  ar  
  3   2   4  ar  
  4   3   5  ar  
  5   3   6  1   
  6   4   7  ar  
  7   4  26  1   
  8   5   8  1   
  9   5   9  ar  
 10   6  27  1   
 11   6  28  1   
 12   6  29  1   
 13   7   9  ar  
 14   7  30  1   
 15   8  10  2   
 16   8  11  2   
 17   8  12  am  
 18   9  31  1   
 19  12  13  1   
 20  12  14  1   
 21  13  15  1   
 22  13  32  1   
 23  13  33  1   
 24  14  16  1   
 25  14  34  1   
 26  14  35  1   
 27  15  17  1   
 28  15  36  1   
 29  15  37  1   
 30  16  17  1   
 31  16  38  1   
 32  16  39  1   
 33  17  18  1   
 34  17  19  1   
 35  18  20  1   
 36  19  21  1   
 37  19  40  1   
 38  19  41  1   
 39  20  22  1   
 40  20  42  1   
 41  20  43  1   
 42  21  22  1   
 43  21  23  1   
 44  21  24  1   
 45  22  25  1   
 46  22  44  1   
 47  23  45  1   
 48  24  46  1   
 49  24  47  1   
 50  24  48  1   
 51  25  49  1   
@<TRIPOS>SUBSTRUCTURE
  1 ****  14 GROUP 4 **** **** 0

# MOE 2024.06 (io_trps.svl 2023.06)
