@<TRIPOS>MOLECULE
NONAME
54 56 1 0 0 
SMALL
USER_CHARGES


@<TRIPOS>ATOM
  1 O       -3.1340    -0.8130     2.4310 O.2   1 <1>  -0.5700 
  2 C       -3.0780    -0.0440     1.4940 C.2   1 <1>   0.6340 
  3 O       -2.5840     1.1830     1.6910 O.3   1 <1>  -0.4300 
  4 C       -3.5330    -0.3920     0.1600 C.ar  1 <1>   0.0860 
  5 C       -2.1170     1.6040     2.9580 C.3   1 <1>   0.0400 
  6 C       -3.6130     0.5500    -0.8660 C.ar  1 <1>  -0.1500 
  7 C       -3.9200    -1.6990    -0.1410 C.ar  1 <1>  -0.1500 
  8 C       -4.0630     0.1870    -2.1220 C.ar  1 <1>   0.0830 
  9 C       -4.3890    -2.0840    -1.3950 C.ar  1 <1>   0.0860 
 10 O       -4.1360     1.0980    -3.1030 O.3   1 <1>  -0.5320 
 11 C       -4.4450    -1.1120    -2.3880 C.ar  1 <1>  -0.1500 
 12 C       -4.7990    -3.4500    -1.6630 C.2   1 <1>   0.5440 
 13 O       -4.3240    -4.0270    -2.6200 O.2   1 <1>  -0.5700 
 14 N       -5.7080    -4.1120    -0.8600 N.am  1 <1>  -0.6600 
 15 C       -5.9330    -5.5910    -0.9780 C.3   1 <1>   0.1400 
 16 C       -6.6720    -3.4190     0.0340 C.3   1 <1>   0.1400 
 17 C       -5.8370    -6.2870     0.4020 C.3   1 <1>   0.0000 
 18 C       -6.5930    -4.0320     1.4320 C.3   1 <1>  -0.1600 
 19 C       -6.8190    -5.5440     1.3500 C.3   1 <1>   0.2000 
 20 C       -6.3450    -7.7460     0.2820 C.3   1 <1>   0.1200 
 21 C       -4.3730    -6.2380     0.9450 C.3   1 <1>  -0.0170 
 22 O       -6.7680    -6.0550     2.6360 O.3   1 <1>  -0.6800 
 23 O       -5.7790    -8.4040    -0.8010 O.3   1 <1>  -0.6800 
 24 C       -3.3760    -7.1390     0.2220 C.ar  1 <1>  -0.1430 
 25 C       -2.7340    -6.7060    -0.9280 C.ar  1 <1>  -0.1500 
 26 C       -3.0980    -8.4070     0.7120 C.ar  1 <1>  -0.1500 
 27 C       -1.8440    -7.5330    -1.5900 C.ar  1 <1>  -0.1500 
 28 C       -2.2080    -9.2360     0.0520 C.ar  1 <1>  -0.1500 
 29 C       -1.5820    -8.8000    -1.1020 C.ar  1 <1>  -0.1500 
 30 H       -1.7690     2.6180     2.8750 H     1 <1>   0.0800 
 31 H       -1.3120     0.9590     3.2650 H     1 <1>   0.0800 
 32 H       -2.9280     1.5460     3.6640 H     1 <1>   0.0800 
 33 H       -3.3220     1.5680    -0.6780 H     1 <1>   0.1500 
 34 H       -3.8510    -2.4480     0.6290 H     1 <1>   0.1500 
 35 H       -3.8250     1.9840    -2.8460 H     1 <1>   0.4500 
 36 H       -4.7850    -1.3780    -3.3740 H     1 <1>   0.1500 
 37 H       -6.9110    -5.7540    -1.3970 H     1 <1>   0.0800 
 38 H       -5.2270    -6.0280    -1.6610 H     1 <1>   0.0800 
 39 H       -6.4760    -2.3630     0.0830 H     1 <1>   0.0800 
 40 H       -7.6650    -3.5470    -0.3630 H     1 <1>   0.0800 
 41 H       -7.3580    -3.5890     2.0450 H     1 <1>   0.0800 
 42 H       -5.6370    -3.8040     1.8650 H     1 <1>   0.0800 
 43 H       -7.8240    -5.7110     0.9980 H     1 <1>   0.0800 
 44 H       -7.4110    -7.7660     0.1340 H     1 <1>   0.0800 
 45 H       -6.1170    -8.3050     1.1740 H     1 <1>   0.0800 
 46 H       -4.0020    -5.2300     0.9050 H     1 <1>   0.0800 
 47 H       -4.3630    -6.5250     1.9800 H     1 <1>   0.0800 
 48 H       -5.9620    -5.7470     3.0930 H     1 <1>   0.4000 
 49 H       -4.7950    -8.3590    -0.7420 H     1 <1>   0.4000 
 50 H       -2.9230    -5.7220    -1.3210 H     1 <1>   0.1500 
 51 H       -3.5770    -8.7610     1.6080 H     1 <1>   0.1500 
 52 H       -1.3590    -7.1850    -2.4860 H     1 <1>   0.1500 
 53 H       -2.0030   -10.2200     0.4350 H     1 <1>   0.1500 
 54 H       -0.8910    -9.4430    -1.6180 H     1 <1>   0.1500 
@<TRIPOS>BOND
  1   1   2  2   
  2   2   3  1   
  3   2   4  1   
  4   3   5  1   
  5   4   6  ar  
  6   4   7  ar  
  7   5  30  1   
  8   5  31  1   
  9   5  32  1   
 10   6   8  ar  
 11   6  33  1   
 12   7   9  ar  
 13   7  34  1   
 14   8  10  1   
 15   8  11  ar  
 16   9  11  ar  
 17   9  12  1   
 18  10  35  1   
 19  11  36  1   
 20  12  13  2   
 21  12  14  am  
 22  14  15  1   
 23  14  16  1   
 24  15  17  1   
 25  15  37  1   
 26  15  38  1   
 27  16  18  1   
 28  16  39  1   
 29  16  40  1   
 30  17  19  1   
 31  17  20  1   
 32  17  21  1   
 33  18  19  1   
 34  18  41  1   
 35  18  42  1   
 36  19  22  1   
 37  19  43  1   
 38  20  23  1   
 39  20  44  1   
 40  20  45  1   
 41  21  24  1   
 42  21  46  1   
 43  21  47  1   
 44  22  48  1   
 45  23  49  1   
 46  24  25  ar  
 47  24  26  ar  
 48  25  27  ar  
 49  25  50  1   
 50  26  28  ar  
 51  26  51  1   
 52  27  29  ar  
 53  27  52  1   
 54  28  29  ar  
 55  28  53  1   
 56  29  54  1   
@<TRIPOS>SUBSTRUCTURE
  1 ****  14 GROUP 4 **** **** 0

# MOE 2024.06 (io_trps.svl 2023.06)
