@<TRIPOS>MOLECULE
NONAME
52 54 1 0 0 
SMALL
USER_CHARGES


@<TRIPOS>ATOM
  1 O        0.4260    -0.3570    -0.1850 O.3   1 <1>  -0.3630 
  2 C        0.1530    -1.6630     0.1010 C.ar  1 <1>   0.0830 
  3 C       -0.3160     0.7140     0.3510 C.3   1 <1>   0.1200 
  4 C        0.9900    -2.6840    -0.3840 C.ar  1 <1>   0.0820 
  5 C       -0.9590    -2.0130     0.8630 C.ar  1 <1>  -0.1500 
  6 C        0.3210     2.0130    -0.1330 C.3   1 <1>  -0.2400 
  7 O        2.1180    -2.5350    -1.1370 O.3   1 <1>  -0.3620 
  8 C        0.6840    -4.0040    -0.1010 C.ar  1 <1>  -0.1500 
  9 C       -1.2490    -3.3390     1.1330 C.ar  1 <1>  -0.1500 
 10 C        2.7800    -1.2990    -1.2980 C.3   1 <1>   0.0400 
 11 C       -0.4320    -4.3450     0.6450 C.ar  1 <1>  -0.1430 
 12 C       -0.7580    -5.8010     0.9120 C.3   1 <1>   0.4860 
 13 N       -1.1730    -6.4310    -0.3720 N.4   1 <1>  -0.9590 
 14 C       -2.4740    -5.8540    -0.8450 C.3   1 <1>   0.3430 
 15 C       -1.3890    -7.9010    -0.1990 C.3   1 <1>   0.3430 
 16 C       -3.5520    -6.8390    -0.3860 C.3   1 <1>   0.2000 
 17 C       -2.8500    -8.1850    -0.5700 C.3   1 <1>  -0.0800 
 18 O       -3.8020    -6.6170     0.9660 O.3   1 <1>  -0.6800 
 19 C       -3.4450    -9.3800     0.1990 C.3   1 <1>  -0.0170 
 20 C       -2.5580   -10.6030     0.0260 C.ar  1 <1>  -0.1430 
 21 C       -2.4930   -11.2930    -1.1680 C.ar  1 <1>  -0.1500 
 22 C       -1.7660   -11.0810     1.0520 C.ar  1 <1>  -0.1500 
 23 C       -1.6470   -12.3840    -1.2820 C.ar  1 <1>   0.1600 
 24 C       -0.9550   -12.1820     0.8340 C.ar  1 <1>   0.1600 
 25 N       -0.8690   -12.8350    -0.3130 N.ar  1 <1>  -0.6200 
 26 H       -1.3310     0.6370     0.0010 H     1 <1>   0.0800 
 27 H       -0.2810     0.6520     1.4250 H     1 <1>   0.0800 
 28 H       -1.6210    -1.2660     1.2590 H     1 <1>   0.1500 
 29 H        0.2980     2.0590    -1.2070 H     1 <1>   0.0800 
 30 H        1.3390     2.0760     0.2080 H     1 <1>   0.0800 
 31 H       -0.2240     2.8540     0.2580 H     1 <1>   0.0800 
 32 H        1.3500    -4.7600    -0.4790 H     1 <1>   0.1500 
 33 H       -2.1190    -3.5740     1.7260 H     1 <1>   0.1500 
 34 H        3.7220    -1.4830    -1.7820 H     1 <1>   0.0800 
 35 H        2.9450    -0.8610    -0.3300 H     1 <1>   0.0800 
 36 H        2.1750    -0.6570    -1.9120 H     1 <1>   0.0800 
 37 H       -1.5510    -5.8760     1.6380 H     1 <1>   0.0800 
 38 H        0.1160    -6.2940     1.3040 H     1 <1>   0.0800 
 39 H       -0.4390    -6.2300    -1.0630 H     1 <1>   0.4500 
 40 H       -2.6560    -4.8660    -0.4550 H     1 <1>   0.0800 
 41 H       -2.4750    -5.8090    -1.9210 H     1 <1>   0.0800 
 42 H       -0.7220    -8.4750    -0.8220 H     1 <1>   0.0800 
 43 H       -1.2260    -8.1780     0.8300 H     1 <1>   0.0800 
 44 H       -4.4700    -6.7390    -0.9400 H     1 <1>   0.0800 
 45 H       -2.8670    -8.4250    -1.6190 H     1 <1>   0.0800 
 46 H       -4.6560    -7.0170     1.2380 H     1 <1>   0.4000 
 47 H       -4.4320    -9.6010    -0.1700 H     1 <1>   0.0800 
 48 H       -3.5310    -9.1570     1.2480 H     1 <1>   0.0800 
 49 H       -3.0910   -11.0030    -2.0120 H     1 <1>   0.1500 
 50 H       -1.7700   -10.6190     2.0230 H     1 <1>   0.1500 
 51 H       -1.6070   -12.9140    -2.2190 H     1 <1>   0.1500 
 52 H       -0.3440   -12.5470     1.6430 H     1 <1>   0.1500 
@<TRIPOS>BOND
  1   1   2  1   
  2   1   3  1   
  3   2   4  ar  
  4   2   5  ar  
  5   3   6  1   
  6   3  26  1   
  7   3  27  1   
  8   4   7  1   
  9   4   8  ar  
 10   5   9  ar  
 11   5  28  1   
 12   6  29  1   
 13   6  30  1   
 14   6  31  1   
 15   7  10  1   
 16   8  11  ar  
 17   8  32  1   
 18   9  11  ar  
 19   9  33  1   
 20  10  34  1   
 21  10  35  1   
 22  10  36  1   
 23  11  12  1   
 24  12  13  1   
 25  12  37  1   
 26  12  38  1   
 27  13  14  1   
 28  13  15  1   
 29  13  39  1   
 30  14  16  1   
 31  14  40  1   
 32  14  41  1   
 33  15  17  1   
 34  15  42  1   
 35  15  43  1   
 36  16  17  1   
 37  16  18  1   
 38  16  44  1   
 39  17  19  1   
 40  17  45  1   
 41  18  46  1   
 42  19  20  1   
 43  19  47  1   
 44  19  48  1   
 45  20  21  ar  
 46  20  22  ar  
 47  21  23  ar  
 48  21  49  1   
 49  22  24  ar  
 50  22  50  1   
 51  23  25  ar  
 52  23  51  1   
 53  24  25  ar  
 54  24  52  1   
@<TRIPOS>SUBSTRUCTURE
  1 ****  13 GROUP 4 **** **** 0

# MOE 2024.06 (io_trps.svl 2023.06)
