@<TRIPOS>MOLECULE
NONAME
43 45 1 0 0 
SMALL
USER_CHARGES


@<TRIPOS>ATOM
  1 O        0.9720     0.3480    -2.0960 O.2   1 <1>  -0.5700 
  2 C        1.6480    -0.5100    -1.5480 C.2   1 <1>   0.5650 
  3 N        2.6790    -0.2200    -0.6150 N.pl3 1 <1>   0.5610 
  4 C        1.3980    -1.8870    -1.8240 C.2   1 <1>  -0.1360 
  5 N        3.1430     0.9780    -0.1330 N.2   1 <1>  -0.7070 
  6 C        3.3810    -1.2490    -0.0290 C.2   1 <1>  -0.0680 
  7 C        2.0940    -2.8980    -1.2350 C.2   1 <1>  -0.0380 
  8 C        4.0880     0.6760     0.6960 C.2   1 <1>   0.1080 
  9 N        3.1040    -2.5930    -0.3390 N.pl3 1 <1>  -0.5840 
 10 C        4.2880    -0.6950     0.8060 C.2   1 <1>  -0.1500 
 11 C        1.7850    -4.3660    -1.5110 C.3   1 <1>   0.4810 
 12 C        4.8660     1.7340     1.4450 C.3   1 <1>  -0.0590 
 13 N        1.1880    -4.9550    -0.2760 N.4   1 <1>  -0.9590 
 14 C        1.2800    -6.4540    -0.3320 C.3   1 <1>   0.3430 
 15 C       -0.1980    -4.4570    -0.0590 C.3   1 <1>   0.3430 
 16 C        0.9230    -7.1560     0.9850 C.3   1 <1>   0.0960 
 17 C       -0.2690    -3.8410     1.3310 C.3   1 <1>  -0.2400 
 18 N        1.1350    -8.6030     0.8220 N.pl3 1 <1>   0.3140 
 19 N        1.7900    -9.1050    -0.2410 N.2   1 <1>  -0.7070 
 20 C        0.7320    -9.5780     1.6570 C.2   1 <1>  -0.3020 
 21 C        1.7890   -10.3920    -0.0540 C.2   1 <1>   0.1390 
 22 C        1.1390   -10.7490     1.1210 C.2   1 <1>  -0.1500 
 23 H        0.6100    -2.0650    -2.5330 H     1 <1>   0.1500 
 24 H        3.7710    -3.2890     0.0270 H     1 <1>   0.4000 
 25 H        5.0160    -1.1770     1.4320 H     1 <1>   0.1500 
 26 H        2.6990    -4.8760    -1.7670 H     1 <1>   0.0800 
 27 H        1.1000    -4.4570    -2.3380 H     1 <1>   0.0800 
 28 H        4.1930     2.3130     2.0500 H     1 <1>   0.0800 
 29 H        5.3490     2.3880     0.7430 H     1 <1>   0.0800 
 30 H        5.6090     1.2840     2.0770 H     1 <1>   0.0800 
 31 H        1.7600    -4.5950     0.4990 H     1 <1>   0.4500 
 32 H        2.2900    -6.7350    -0.5890 H     1 <1>   0.0800 
 33 H        0.6320    -6.8300    -1.1090 H     1 <1>   0.0800 
 34 H       -0.9110    -5.2610    -0.1480 H     1 <1>   0.0800 
 35 H       -0.4480    -3.7040    -0.7900 H     1 <1>   0.0800 
 36 H       -0.1080    -6.9960     1.2400 H     1 <1>   0.0800 
 37 H        1.5580    -6.8150     1.7810 H     1 <1>   0.0800 
 38 H       -0.0510    -4.5660     2.0940 H     1 <1>   0.0800 
 39 H       -1.2640    -3.4700     1.5020 H     1 <1>   0.0800 
 40 H        0.4090    -3.0090     1.4150 H     1 <1>   0.0800 
 41 H        0.1920    -9.4020     2.5690 H     1 <1>   0.1500 
 42 H        2.2410   -11.0950    -0.7340 H     1 <1>   0.1500 
 43 H        1.0060   -11.7500     1.4930 H     1 <1>   0.1500 
@<TRIPOS>BOND
  1   1   2  2   
  2   2   3  1   
  3   2   4  1   
  4   3   5  1   
  5   3   6  1   
  6   4   7  2   
  7   4  23  1   
  8   5   8  2   
  9   6   9  1   
 10   6  10  2   
 11   7   9  1   
 12   7  11  1   
 13   8  10  1   
 14   8  12  1   
 15   9  24  1   
 16  10  25  1   
 17  11  13  1   
 18  11  26  1   
 19  11  27  1   
 20  12  28  1   
 21  12  29  1   
 22  12  30  1   
 23  13  14  1   
 24  13  15  1   
 25  13  31  1   
 26  14  16  1   
 27  14  32  1   
 28  14  33  1   
 29  15  17  1   
 30  15  34  1   
 31  15  35  1   
 32  16  18  1   
 33  16  36  1   
 34  16  37  1   
 35  17  38  1   
 36  17  39  1   
 37  17  40  1   
 38  18  19  1   
 39  18  20  1   
 40  19  21  2   
 41  20  22  2   
 42  20  41  1   
 43  21  22  1   
 44  21  42  1   
 45  22  43  1   
@<TRIPOS>SUBSTRUCTURE
  1 ****  13 GROUP 4 **** **** 0

# MOE 2024.06 (io_trps.svl 2023.06)
