@<TRIPOS>MOLECULE
NONAME
41 44 1 0 0 
SMALL
USER_CHARGES


@<TRIPOS>ATOM
  1 S        0.3990    -0.2330     1.9860 S.3   1 <1>  -0.0800 
  2 C        1.4680    -1.0050     0.7880 C.2   1 <1>  -0.0450 
  3 C        1.0950     1.3580     1.7090 C.2   1 <1>  -0.1100 
  4 C        2.2710    -0.0450     0.2590 C.2   1 <1>   0.0620 
  5 C        1.3860    -2.4210     0.5700 C.2   1 <1>   0.7150 
  6 C        2.0570     1.2760     0.7740 C.2   1 <1>   0.0620 
  7 O        3.2050    -0.2630    -0.6900 O.3   1 <1>  -0.3420 
  8 O        2.4020    -3.0930     0.5200 O.2   1 <1>  -0.5700 
  9 N        0.1760    -3.0660     0.4090 N.am  1 <1>  -0.6600 
 10 O        2.7890     2.3330     0.3290 O.3   1 <1>  -0.3420 
 11 C        4.1710     0.7500    -0.8920 C.3   1 <1>   0.1200 
 12 C       -1.0830    -2.3990    -0.0030 C.3   1 <1>   0.1400 
 13 C        0.0880    -4.5310     0.1850 C.3   1 <1>   0.1400 
 14 C        3.5000     2.1330    -0.8800 C.3   1 <1>   0.1200 
 15 C       -1.9220    -3.5040    -0.6450 C.3   1 <1>   0.2000 
 16 C       -1.3980    -4.8100    -0.0530 C.3   1 <1>  -0.0800 
 17 O       -3.2690    -3.3590    -0.3550 O.3   1 <1>  -0.6800 
 18 C       -1.6780    -6.0240    -0.9550 C.3   1 <1>  -0.0170 
 19 C       -1.2140    -7.3220    -0.3140 C.ar  1 <1>   0.1670 
 20 N        0.0690    -7.6180    -0.4400 N.ar  1 <1>  -0.6200 
 21 C       -2.1260    -8.1280     0.3650 C.ar  1 <1>   0.1600 
 22 C        0.3780    -8.7590     0.1530 C.ar  1 <1>   0.1600 
 23 N       -1.8200    -9.2690     0.9610 N.ar  1 <1>  -0.6200 
 24 C       -0.5360    -9.5570     0.8310 C.ar  1 <1>   0.1600 
 25 H        0.7140     2.1890     2.2730 H     1 <1>   0.1500 
 26 H        4.9000     0.6790    -0.1050 H     1 <1>   0.0800 
 27 H        4.6500     0.5640    -1.8360 H     1 <1>   0.0800 
 28 H       -1.5770    -2.0070     0.8680 H     1 <1>   0.0800 
 29 H       -0.8840    -1.6100    -0.7080 H     1 <1>   0.0800 
 30 H        0.6730    -4.7920    -0.6810 H     1 <1>   0.0800 
 31 H        0.4630    -5.0730     1.0370 H     1 <1>   0.0800 
 32 H        2.8040     2.2180    -1.6960 H     1 <1>   0.0800 
 33 H        4.2360     2.9130    -0.9620 H     1 <1>   0.0800 
 34 H       -1.7980    -3.4810    -1.7150 H     1 <1>   0.0800 
 35 H       -1.8480    -4.9690     0.9120 H     1 <1>   0.0800 
 36 H       -3.4110    -3.3470     0.6120 H     1 <1>   0.4000 
 37 H       -1.1800    -5.9020    -1.9010 H     1 <1>   0.0800 
 38 H       -2.7340    -6.0800    -1.1520 H     1 <1>   0.0800 
 39 H       -3.1530    -7.8160     0.4210 H     1 <1>   0.1500 
 40 H        1.4040    -9.0780     0.1010 H     1 <1>   0.1500 
 41 H       -0.1890   -10.4700     1.2820 H     1 <1>   0.1500 
@<TRIPOS>BOND
  1   1   2  1   
  2   1   3  1   
  3   2   4  2   
  4   2   5  1   
  5   3   6  2   
  6   3  25  1   
  7   4   6  1   
  8   4   7  1   
  9   5   8  2   
 10   5   9  am  
 11   6  10  1   
 12   7  11  1   
 13   9  12  1   
 14   9  13  1   
 15  10  14  1   
 16  11  14  1   
 17  11  26  1   
 18  11  27  1   
 19  12  15  1   
 20  12  28  1   
 21  12  29  1   
 22  13  16  1   
 23  13  30  1   
 24  13  31  1   
 25  14  32  1   
 26  14  33  1   
 27  15  16  1   
 28  15  17  1   
 29  15  34  1   
 30  16  18  1   
 31  16  35  1   
 32  17  36  1   
 33  18  19  1   
 34  18  37  1   
 35  18  38  1   
 36  19  20  ar  
 37  19  21  ar  
 38  20  22  ar  
 39  21  23  ar  
 40  21  39  1   
 41  22  24  ar  
 42  22  40  1   
 43  23  24  ar  
 44  24  41  1   
@<TRIPOS>SUBSTRUCTURE
  1 ****   9 GROUP 4 **** **** 0

# MOE 2024.06 (io_trps.svl 2023.06)
