@<TRIPOS>MOLECULE
NONAME
49 52 1 0 0 
SMALL
USER_CHARGES


@<TRIPOS>ATOM
  1 O       -0.5570     0.0680    -0.7220 O.3   1 <1>  -0.2800 
  2 C       -1.6210     0.7800    -0.3620 C.2   1 <1>   0.5620 
  3 C        0.4790     0.8530    -0.4900 C.ar  1 <1>   0.1400 
  4 N       -1.3600     1.9560     0.0910 N.2   1 <1>  -0.5650 
  5 N       -2.8760     0.2190    -0.4850 N.pl3 1 <1>  -0.8220 
  6 C       -0.0080     2.0300     0.0160 C.ar  1 <1>   0.2270 
  7 C        1.8330     0.6300    -0.6830 C.ar  1 <1>  -0.1500 
  8 C       -3.0880    -1.1830    -0.9230 C.3   1 <1>   0.2090 
  9 C       -4.0960     0.9740    -0.0880 C.3   1 <1>   0.2090 
 10 C        0.8720     3.0510     0.3560 C.ar  1 <1>  -0.1500 
 11 C        2.7060     1.6480    -0.3450 C.ar  1 <1>  -0.1500 
 12 C       -3.8400    -1.9750     0.1770 C.3   1 <1>   0.4230 
 13 C       -4.8070     0.1930     1.0210 C.3   1 <1>  -0.1600 
 14 C        2.2320     2.8570     0.1740 C.ar  1 <1>  -0.1440 
 15 N       -4.0100    -3.4620    -0.1310 N.4   1 <1>  -0.9590 
 16 C       -5.1560    -1.2710     0.6260 C.3   1 <1>   0.0000 
 17 C        3.2230     3.9490     0.5340 C.3   1 <1>  -0.0970 
 18 C       -5.0660    -4.1420     0.6880 C.3   1 <1>   0.3430 
 19 C       -4.1990    -3.8030    -1.5810 C.3   1 <1>   0.2630 
 20 C       -5.7270    -1.9950     1.8820 C.3   1 <1>  -0.1600 
 21 C       -6.1940    -1.2850    -0.5320 C.3   1 <1>   0.1200 
 22 C       -5.2420    -3.4490     2.0370 C.3   1 <1>  -0.1600 
 23 O       -7.2930    -0.4920    -0.2470 O.3   1 <1>  -0.6800 
 24 H        2.1780    -0.3050    -1.0840 H     1 <1>   0.1500 
 25 H       -3.6490    -1.1640    -1.8390 H     1 <1>   0.0800 
 26 H       -2.1430    -1.6590    -1.1150 H     1 <1>   0.0800 
 27 H       -3.8410     1.9570     0.2720 H     1 <1>   0.0800 
 28 H       -4.7410     1.0990    -0.9420 H     1 <1>   0.0800 
 29 H        0.4720     3.9660     0.7510 H     1 <1>   0.1500 
 30 H        3.7650     1.5090    -0.4820 H     1 <1>   0.1500 
 31 H       -3.1930    -1.9200     1.0370 H     1 <1>   0.0800 
 32 H       -4.1550     0.2000     1.8780 H     1 <1>   0.0800 
 33 H       -5.6930     0.7330     1.3050 H     1 <1>   0.0800 
 34 H       -3.1170    -3.8890     0.1590 H     1 <1>   0.4500 
 35 H        3.9080     3.5910     1.2820 H     1 <1>   0.0800 
 36 H        2.7170     4.8150     0.9200 H     1 <1>   0.0800 
 37 H        3.7810     4.2390    -0.3390 H     1 <1>   0.0800 
 38 H       -6.0090    -4.1150     0.1660 H     1 <1>   0.0800 
 39 H       -4.8030    -5.1770     0.8410 H     1 <1>   0.0800 
 40 H       -5.1000    -3.3510    -1.9610 H     1 <1>   0.0800 
 41 H       -4.2730    -4.8710    -1.7070 H     1 <1>   0.0800 
 42 H       -3.3630    -3.4530    -2.1650 H     1 <1>   0.0800 
 43 H       -5.4510    -1.4690     2.7810 H     1 <1>   0.0800 
 44 H       -6.8030    -1.9880     1.8540 H     1 <1>   0.0800 
 45 H       -6.5590    -2.2780    -0.7250 H     1 <1>   0.0800 
 46 H       -5.7710    -0.8970    -1.4420 H     1 <1>   0.0800 
 47 H       -5.9570    -3.9970     2.6270 H     1 <1>   0.0800 
 48 H       -4.3080    -3.4750     2.5720 H     1 <1>   0.0800 
 49 H       -7.7800    -0.8000     0.5430 H     1 <1>   0.4000 
@<TRIPOS>BOND
  1   1   2  1   
  2   1   3  1   
  3   2   4  2   
  4   2   5  1   
  5   3   6  ar  
  6   3   7  ar  
  7   4   6  1   
  8   5   8  1   
  9   5   9  1   
 10   6  10  ar  
 11   7  11  ar  
 12   7  24  1   
 13   8  12  1   
 14   8  25  1   
 15   8  26  1   
 16   9  13  1   
 17   9  27  1   
 18   9  28  1   
 19  10  14  ar  
 20  10  29  1   
 21  11  14  ar  
 22  11  30  1   
 23  12  15  1   
 24  12  16  1   
 25  12  31  1   
 26  13  16  1   
 27  13  32  1   
 28  13  33  1   
 29  14  17  1   
 30  15  18  1   
 31  15  19  1   
 32  15  34  1   
 33  16  20  1   
 34  16  21  1   
 35  17  35  1   
 36  17  36  1   
 37  17  37  1   
 38  18  22  1   
 39  18  38  1   
 40  18  39  1   
 41  19  40  1   
 42  19  41  1   
 43  19  42  1   
 44  20  22  1   
 45  20  43  1   
 46  20  44  1   
 47  21  23  1   
 48  21  45  1   
 49  21  46  1   
 50  22  47  1   
 51  22  48  1   
 52  23  49  1   
@<TRIPOS>SUBSTRUCTURE
  1 ****   5 GROUP 4 **** **** 0

# MOE 2024.06 (io_trps.svl 2023.06)
