@<TRIPOS>MOLECULE
NONAME
54 57 1 0 0 
SMALL
USER_CHARGES


@<TRIPOS>ATOM
  1 O       -0.7370     0.3110     1.4760 O.2   1 <1>  -0.5700 
  2 C       -1.5050     0.9030     0.7570 C.2   1 <1>   0.5690 
  3 N       -2.4520     0.2390     0.0320 N.am  1 <1>  -0.6600 
  4 C       -1.4120     2.4140     0.6620 C.3   1 <1>  -0.0990 
  5 C       -3.4900     0.8340    -0.8490 C.3   1 <1>   0.1400 
  6 C       -2.6110    -1.2370     0.0890 C.3   1 <1>   0.1400 
  7 C       -0.1990     2.9720     1.4180 C.3   1 <1>   0.0960 
  8 C       -4.5630    -0.2480    -0.9450 C.3   1 <1>   0.2000 
  9 C       -3.7660    -1.5580    -0.8720 C.3   1 <1>  -0.0800 
 10 N       -0.0990     4.4320     1.2130 N.pl3 1 <1>   0.0480 
 11 O       -5.3840    -0.1360     0.1670 O.3   1 <1>  -0.6800 
 12 C       -4.5990    -2.7930    -0.4690 C.3   1 <1>  -0.0160 
 13 C        0.7930     5.1460     0.4780 C.2   1 <1>   0.0060 
 14 C       -0.9320     5.3540     1.7300 C.2   1 <1>  -0.3020 
 15 C       -3.8920    -4.1540    -0.5270 C.ar  1 <1>  -0.1440 
 16 N        0.5720     6.4210     0.4970 N.2   1 <1>  -0.5650 
 17 C        1.9530     4.5370    -0.2940 C.3   1 <1>   0.0200 
 18 C       -0.5090     6.5550     1.2830 C.2   1 <1>   0.0770 
 19 C       -4.5340    -5.2990     0.0090 C.ar  1 <1>   0.0000 
 20 C       -2.6590    -4.3430    -1.0860 C.ar  1 <1>  -0.1500 
 21 C        1.4890     3.8680    -1.5930 C.3   1 <1>  -0.2400 
 22 C       -3.8470    -6.5370    -0.0490 C.ar  1 <1>   0.3100 
 23 C       -5.8240    -5.2910     0.5940 C.ar  1 <1>  -0.1500 
 24 C       -2.0690    -5.6130    -1.0950 C.ar  1 <1>   0.1600 
 25 N       -2.6180    -6.6760    -0.6020 N.ar  1 <1>  -0.6200 
 26 C       -4.4590    -7.6830     0.4830 C.ar  1 <1>  -0.1500 
 27 C       -6.3930    -6.4270     1.1010 C.ar  1 <1>  -0.1500 
 28 C       -5.7030    -7.6410     1.0480 C.ar  1 <1>  -0.1500 
 29 H       -1.3410     2.6880    -0.3730 H     1 <1>   0.0800 
 30 H       -2.3100     2.8340     1.0750 H     1 <1>   0.0800 
 31 H       -3.8900     1.7510    -0.4510 H     1 <1>   0.0800 
 32 H       -3.0640     1.0140    -1.8200 H     1 <1>   0.0800 
 33 H       -1.6960    -1.7240    -0.2020 H     1 <1>   0.0800 
 34 H       -2.8560    -1.5250     1.0970 H     1 <1>   0.0800 
 35 H        0.7020     2.5000     1.0700 H     1 <1>   0.0800 
 36 H       -0.2950     2.7750     2.4710 H     1 <1>   0.0800 
 37 H       -5.1720    -0.1640    -1.8300 H     1 <1>   0.0800 
 38 H       -3.3520    -1.7220    -1.8510 H     1 <1>   0.0800 
 39 H       -4.8250    -0.0950     0.9700 H     1 <1>   0.4000 
 40 H       -5.4640    -2.8420    -1.1080 H     1 <1>   0.0800 
 41 H       -4.9500    -2.6440     0.5360 H     1 <1>   0.0800 
 42 H       -1.7590     5.1170     2.3720 H     1 <1>   0.1500 
 43 H        2.6460     5.3240    -0.5390 H     1 <1>   0.0800 
 44 H        2.4750     3.8300     0.3250 H     1 <1>   0.0800 
 45 H       -0.9310     7.5240     1.4900 H     1 <1>   0.1500 
 46 H       -2.0930    -3.5520    -1.5350 H     1 <1>   0.1500 
 47 H        0.9470     4.5790    -2.1920 H     1 <1>   0.0800 
 48 H        0.8520     3.0300    -1.3850 H     1 <1>   0.0800 
 49 H        2.3400     3.5240    -2.1520 H     1 <1>   0.0800 
 50 H       -6.3800    -4.3740     0.6430 H     1 <1>   0.1500 
 51 H       -1.0940    -5.7110    -1.5420 H     1 <1>   0.1500 
 52 H       -3.9100    -8.6050     0.4280 H     1 <1>   0.1500 
 53 H       -7.3740    -6.4030     1.5440 H     1 <1>   0.1500 
 54 H       -6.1600    -8.5280     1.4520 H     1 <1>   0.1500 
@<TRIPOS>BOND
  1   1   2  2   
  2   2   3  am  
  3   2   4  1   
  4   3   5  1   
  5   3   6  1   
  6   4   7  1   
  7   4  29  1   
  8   4  30  1   
  9   5   8  1   
 10   5  31  1   
 11   5  32  1   
 12   6   9  1   
 13   6  33  1   
 14   6  34  1   
 15   7  10  1   
 16   7  35  1   
 17   7  36  1   
 18   8   9  1   
 19   8  11  1   
 20   8  37  1   
 21   9  12  1   
 22   9  38  1   
 23  10  13  1   
 24  10  14  1   
 25  11  39  1   
 26  12  15  1   
 27  12  40  1   
 28  12  41  1   
 29  13  16  2   
 30  13  17  1   
 31  14  18  2   
 32  14  42  1   
 33  15  19  ar  
 34  15  20  ar  
 35  16  18  1   
 36  17  21  1   
 37  17  43  1   
 38  17  44  1   
 39  18  45  1   
 40  19  22  ar  
 41  19  23  ar  
 42  20  24  ar  
 43  20  46  1   
 44  21  47  1   
 45  21  48  1   
 46  21  49  1   
 47  22  25  ar  
 48  22  26  ar  
 49  23  27  ar  
 50  23  50  1   
 51  24  25  ar  
 52  24  51  1   
 53  26  28  ar  
 54  26  52  1   
 55  27  28  ar  
 56  27  53  1   
 57  28  54  1   
@<TRIPOS>SUBSTRUCTURE
  1 ****   6 GROUP 4 **** **** 0

# MOE 2024.06 (io_trps.svl 2023.06)
