@<TRIPOS>MOLECULE
NONAME
51 53 1 0 0 
SMALL
USER_CHARGES


@<TRIPOS>ATOM
  1 S        0.1660    -0.0070    -0.4220 S.o2  1 <1>   1.4470 
  2 O        0.9190    -0.9650    -1.1910 O.2   1 <1>  -0.6500 
  3 O        0.8570     0.8880     0.4730 O.2   1 <1>  -0.6500 
  4 N       -0.3860     1.0010    -1.6130 N.am  1 <1>  -0.9780 
  5 C       -1.3420    -0.7400     0.3030 C.ar  1 <1>  -0.0090 
  6 C       -2.2210    -0.0470     1.1440 C.ar  1 <1>  -0.1430 
  7 C       -1.6390    -2.0610    -0.0080 C.ar  1 <1>  -0.1500 
  8 C       -3.3370    -0.6970     1.6720 C.ar  1 <1>  -0.1430 
  9 C       -1.9440     1.4200     1.4870 C.3   1 <1>  -0.0970 
 10 C       -2.7540    -2.7310     0.4850 C.ar  1 <1>   0.0860 
 11 C       -3.5840    -2.0160     1.3400 C.ar  1 <1>  -0.1500 
 12 C       -4.3150    -0.0150     2.6220 C.3   1 <1>  -0.0970 
 13 C       -3.0270    -4.1150     0.1220 C.2   1 <1>   0.5440 
 14 O       -2.1600    -4.8070    -0.3780 O.2   1 <1>  -0.5700 
 15 N       -4.2550    -4.6930     0.3460 N.am  1 <1>  -0.6600 
 16 C       -5.3580    -4.5600    -0.6460 C.3   1 <1>   0.2200 
 17 C       -4.2720    -5.9860     1.0840 C.3   1 <1>   0.0600 
 18 C       -6.7090    -4.3900     0.0430 C.3   1 <1>  -0.1600 
 19 C       -5.2730    -3.3360    -1.5570 C.3   1 <1>  -0.1600 
 20 C       -7.6320    -3.8100    -1.0370 C.3   1 <1>  -0.0800 
 21 C       -6.7010    -3.1510    -2.0840 C.3   1 <1>  -0.0800 
 22 C       -8.7300    -2.8970    -0.4570 C.3   1 <1>   0.1400 
 23 C       -7.0440    -1.6830    -2.4150 C.3   1 <1>  -0.0990 
 24 N       -9.2980    -2.0660    -1.5380 N.am  1 <1>  -0.7300 
 25 C       -8.5430    -1.4850    -2.4940 C.2   1 <1>   0.5690 
 26 O       -9.0370    -0.8270    -3.3730 O.2   1 <1>  -0.5700 
 27 H       -0.1520     0.4950    -2.4630 H     1 <1>   0.4200 
 28 H        0.2640     1.7810    -1.5700 H     1 <1>   0.4200 
 29 H       -0.9770    -2.6050    -0.6620 H     1 <1>   0.1500 
 30 H       -2.7970     1.9210     1.9010 H     1 <1>   0.0800 
 31 H       -1.6670     1.9710     0.6080 H     1 <1>   0.0800 
 32 H       -1.1410     1.4810     2.2010 H     1 <1>   0.0800 
 33 H       -4.4420    -2.5160     1.7520 H     1 <1>   0.1500 
 34 H       -5.0350    -0.7130     3.0090 H     1 <1>   0.0800 
 35 H       -4.8480     0.7640     2.1060 H     1 <1>   0.0800 
 36 H       -3.7860     0.4100     3.4570 H     1 <1>   0.0800 
 37 H       -5.3840    -5.4430    -1.2640 H     1 <1>   0.0800 
 38 H       -5.1120    -6.0190     1.7550 H     1 <1>   0.0800 
 39 H       -3.3670    -6.0940     1.6590 H     1 <1>   0.0800 
 40 H       -4.3340    -6.8060     0.3890 H     1 <1>   0.0800 
 41 H       -7.0850    -5.3240     0.4180 H     1 <1>   0.0800 
 42 H       -6.6000    -3.6900     0.8530 H     1 <1>   0.0800 
 43 H       -4.9970    -2.4710    -0.9850 H     1 <1>   0.0800 
 44 H       -4.5690    -3.4850    -2.3570 H     1 <1>   0.0800 
 45 H       -8.1270    -4.6340    -1.5240 H     1 <1>   0.0800 
 46 H       -6.7990    -3.7200    -2.9950 H     1 <1>   0.0800 
 47 H       -8.3170    -2.2430     0.2920 H     1 <1>   0.0800 
 48 H       -9.5050    -3.4920    -0.0050 H     1 <1>   0.0800 
 49 H       -6.5930    -1.3970    -3.3470 H     1 <1>   0.0800 
 50 H       -6.6750    -1.0280    -1.6480 H     1 <1>   0.0800 
 51 H      -10.3080    -1.9100    -1.5700 H     1 <1>   0.3700 
@<TRIPOS>BOND
  1   1   2  2   
  2   1   3  2   
  3   1   4  am  
  4   1   5  1   
  5   4  27  1   
  6   4  28  1   
  7   5   6  ar  
  8   5   7  ar  
  9   6   8  ar  
 10   6   9  1   
 11   7  10  ar  
 12   7  29  1   
 13   8  11  ar  
 14   8  12  1   
 15   9  30  1   
 16   9  31  1   
 17   9  32  1   
 18  10  11  ar  
 19  10  13  1   
 20  11  33  1   
 21  12  34  1   
 22  12  35  1   
 23  12  36  1   
 24  13  14  2   
 25  13  15  am  
 26  15  16  1   
 27  15  17  1   
 28  16  18  1   
 29  16  19  1   
 30  16  37  1   
 31  17  38  1   
 32  17  39  1   
 33  17  40  1   
 34  18  20  1   
 35  18  41  1   
 36  18  42  1   
 37  19  21  1   
 38  19  43  1   
 39  19  44  1   
 40  20  21  1   
 41  20  22  1   
 42  20  45  1   
 43  21  23  1   
 44  21  46  1   
 45  22  24  1   
 46  22  47  1   
 47  22  48  1   
 48  23  25  1   
 49  23  49  1   
 50  23  50  1   
 51  24  25  am  
 52  24  51  1   
 53  25  26  2   
@<TRIPOS>SUBSTRUCTURE
  1 ****  10 GROUP 4 **** **** 0

# MOE 2024.06 (io_trps.svl 2023.06)
