@<TRIPOS>MOLECULE
NONAME
30 30 1 0 0 
SMALL
USER_CHARGES


@<TRIPOS>ATOM
  1 O        0.2600     0.1400    -0.7300 O.2   1 <1>  -0.5700 
  2 C        1.1860     0.3540     0.0230 C.2   1 <1>   0.7800 
  3 O        1.4390     1.5590     0.5270 O.3   1 <1>  -0.4300 
  4 N        2.0350    -0.6190     0.4120 N.am  1 <1>  -0.7300 
  5 C        0.7320     2.7520     0.2630 C.3   1 <1>   0.2800 
  6 C        2.0120    -2.0100    -0.0860 C.3   1 <1>   0.2350 
  7 C       -0.7170     2.6300     0.7470 C.3   1 <1>  -0.2400 
  8 C        1.4470     3.8290     1.0790 C.3   1 <1>  -0.2400 
  9 C        0.8250     3.1030    -1.2270 C.3   1 <1>  -0.2400 
 10 C        3.4300    -2.4760    -0.4340 C.3   1 <1>   0.0100 
 11 C        3.9820    -1.7630    -1.6300 C.1   1 <1>   0.4520 
 12 C        4.3670    -2.8810     0.6650 C.3   1 <1>  -0.2000 
 13 C        3.7890    -3.9210    -0.2520 C.3   1 <1>  -0.2000 
 14 N        4.4210    -1.2370    -2.5380 N.1   1 <1>  -0.5570 
 15 H        2.7850    -0.3510     1.0470 H     1 <1>   0.3700 
 16 H        1.3790    -2.0830    -0.9560 H     1 <1>   0.0800 
 17 H        1.5960    -2.6410     0.6810 H     1 <1>   0.0800 
 18 H       -0.7440     2.3140     1.7740 H     1 <1>   0.0800 
 19 H       -1.2690     1.9300     0.1470 H     1 <1>   0.0800 
 20 H       -1.2110     3.5810     0.6690 H     1 <1>   0.0800 
 21 H        1.4150     3.5870     2.1260 H     1 <1>   0.0800 
 22 H        0.9730     4.7830     0.9370 H     1 <1>   0.0800 
 23 H        2.4740     3.9120     0.7690 H     1 <1>   0.0800 
 24 H        0.2720     2.4040    -1.8260 H     1 <1>   0.0800 
 25 H        1.8510     3.1080    -1.5480 H     1 <1>   0.0800 
 26 H        0.4080     4.0780    -1.4010 H     1 <1>   0.0800 
 27 H        4.0270    -2.8510     1.6860 H     1 <1>   0.1000 
 28 H        5.4130    -2.6390     0.5740 H     1 <1>   0.1000 
 29 H        4.4420    -4.3910    -0.9680 H     1 <1>   0.1000 
 30 H        3.0570    -4.6030     0.1430 H     1 <1>   0.1000 
@<TRIPOS>BOND
  1   1   2  2   
  2   2   3  1   
  3   2   4  am  
  4   3   5  1   
  5   4   6  1   
  6   4  15  1   
  7   5   7  1   
  8   5   8  1   
  9   5   9  1   
 10   6  10  1   
 11   6  16  1   
 12   6  17  1   
 13   7  18  1   
 14   7  19  1   
 15   7  20  1   
 16   8  21  1   
 17   8  22  1   
 18   8  23  1   
 19   9  24  1   
 20   9  25  1   
 21   9  26  1   
 22  10  11  1   
 23  10  12  1   
 24  10  13  1   
 25  11  14  3   
 26  12  13  1   
 27  12  27  1   
 28  12  28  1   
 29  13  29  1   
 30  13  30  1   
@<TRIPOS>SUBSTRUCTURE
  1 ****   4 GROUP 4 **** **** 0

# MOE 2024.06 (io_trps.svl 2023.06)
