@<TRIPOS>MOLECULE
NONAME
48 50 1 0 0 
SMALL
USER_CHARGES


@<TRIPOS>ATOM
  1 CL      -1.4170    -2.3730     3.4080 Cl    1 <1>  -0.1770 
  2 C       -2.5010    -2.0290     2.0880 C.ar  1 <1>   0.1770 
  3 C       -3.2600    -3.0490     1.5480 C.ar  1 <1>  -0.1500 
  4 C       -2.5860    -0.7410     1.5980 C.ar  1 <1>  -0.1500 
  5 C       -4.1280    -2.7820     0.5010 C.ar  1 <1>  -0.1440 
  6 C       -3.4530    -0.4760     0.5540 C.ar  1 <1>  -0.1500 
  7 C       -4.2410    -1.4810    -0.0090 C.ar  1 <1>   0.0860 
  8 C       -4.9530    -3.9150    -0.0960 C.3   1 <1>  -0.0960 
  9 C       -5.1590    -1.1540    -1.0820 C.2   1 <1>   0.5440 
 10 O       -4.8210    -1.3480    -2.2350 O.2   1 <1>  -0.5700 
 11 N       -6.4090    -0.6330    -0.8190 N.am  1 <1>  -0.6600 
 12 C       -7.3880    -0.3240    -1.8910 C.3   1 <1>   0.1400 
 13 C       -6.9380    -0.3760     0.5460 C.3   1 <1>   0.1400 
 14 C       -8.6400    -1.1820    -1.6900 C.3   1 <1>  -0.1600 
 15 C       -8.1800    -1.2390     0.7720 C.3   1 <1>  -0.1600 
 16 C       -9.2760    -1.0060    -0.2890 C.3   1 <1>   0.2800 
 17 O       -9.6470     0.3500    -0.1630 O.3   1 <1>  -0.5600 
 18 C      -10.4920    -1.9720    -0.0330 C.3   1 <1>   0.2000 
 19 C      -10.9340     0.7120    -0.5430 C.3   1 <1>   0.1200 
 20 O      -11.1010    -2.3600    -1.2400 O.3   1 <1>  -0.6800 
 21 C      -11.5630    -1.3350     0.8970 C.3   1 <1>   0.2800 
 22 C      -11.9730     0.0610     0.3850 C.3   1 <1>  -0.1600 
 23 O      -11.0230    -1.1790     2.1600 O.3   1 <1>  -0.6800 
 24 C      -12.7890    -2.2320     1.1130 C.3   1 <1>  -0.2400 
 25 H       -3.1640    -4.0400     1.9520 H     1 <1>   0.1500 
 26 H       -1.9810     0.0370     2.0290 H     1 <1>   0.1500 
 27 H       -3.5290     0.5230     0.1590 H     1 <1>   0.1500 
 28 H       -4.7550    -4.8470     0.4020 H     1 <1>   0.0800 
 29 H       -4.7140    -4.0300    -1.1390 H     1 <1>   0.0800 
 30 H       -6.0020    -3.6970    -0.0080 H     1 <1>   0.0800 
 31 H       -7.6450     0.7200    -1.8420 H     1 <1>   0.0800 
 32 H       -6.9670    -0.5190    -2.8620 H     1 <1>   0.0800 
 33 H       -6.2040    -0.5980     1.2990 H     1 <1>   0.0800 
 34 H       -7.1980     0.6660     0.6320 H     1 <1>   0.0800 
 35 H       -8.3670    -2.2130    -1.8300 H     1 <1>   0.0800 
 36 H       -9.3470    -0.9330    -2.4580 H     1 <1>   0.0800 
 37 H       -8.5640    -1.0260     1.7510 H     1 <1>   0.0800 
 38 H       -7.8840    -2.2710     0.7630 H     1 <1>   0.0800 
 39 H      -10.1380    -2.8830     0.4140 H     1 <1>   0.0800 
 40 H      -11.0030     1.7840    -0.4870 H     1 <1>   0.0800 
 41 H      -11.0800     0.4150    -1.5670 H     1 <1>   0.0800 
 42 H      -11.3920    -1.5710    -1.7310 H     1 <1>   0.4000 
 43 H      -12.8860    -0.0170    -0.1780 H     1 <1>   0.0800 
 44 H      -12.1760     0.7200     1.2100 H     1 <1>   0.0800 
 45 H      -11.6720    -0.7450     2.7420 H     1 <1>   0.4000 
 46 H      -13.2990    -2.4030     0.1830 H     1 <1>   0.0800 
 47 H      -13.4840    -1.7770     1.7960 H     1 <1>   0.0800 
 48 H      -12.4820    -3.1870     1.5010 H     1 <1>   0.0800 
@<TRIPOS>BOND
  1   1   2  1   
  2   2   3  ar  
  3   2   4  ar  
  4   3   5  ar  
  5   3  25  1   
  6   4   6  ar  
  7   4  26  1   
  8   5   7  ar  
  9   5   8  1   
 10   6   7  ar  
 11   6  27  1   
 12   7   9  1   
 13   8  28  1   
 14   8  29  1   
 15   8  30  1   
 16   9  10  2   
 17   9  11  am  
 18  11  12  1   
 19  11  13  1   
 20  12  14  1   
 21  12  31  1   
 22  12  32  1   
 23  13  15  1   
 24  13  33  1   
 25  13  34  1   
 26  14  16  1   
 27  14  35  1   
 28  14  36  1   
 29  15  16  1   
 30  15  37  1   
 31  15  38  1   
 32  16  17  1   
 33  16  18  1   
 34  17  19  1   
 35  18  20  1   
 36  18  21  1   
 37  18  39  1   
 38  19  22  1   
 39  19  40  1   
 40  19  41  1   
 41  20  42  1   
 42  21  22  1   
 43  21  23  1   
 44  21  24  1   
 45  22  43  1   
 46  22  44  1   
 47  23  45  1   
 48  24  46  1   
 49  24  47  1   
 50  24  48  1   
@<TRIPOS>SUBSTRUCTURE
  1 ****  13 GROUP 4 **** **** 0

# MOE 2024.06 (io_trps.svl 2023.06)
