@<TRIPOS>MOLECULE
NONAME
53 55 1 0 0 
SMALL
USER_CHARGES


@<TRIPOS>ATOM
  1 S       -0.3460     0.2780    -0.9460 S.o2  1 <1>   1.5760 
  2 O       -0.3820    -0.9380    -1.7290 O.2   1 <1>  -0.6500 
  3 O       -0.4330     1.5730    -1.5770 O.2   1 <1>  -0.6500 
  4 N       -1.5240     0.1570     0.2600 N.am  1 <1>  -0.8490 
  5 N        1.0220     0.2270     0.0360 N.am  1 <1>  -0.8490 
  6 C       -1.6640    -1.1940     0.8400 C.3   1 <1>   0.1960 
  7 C       -2.8240     0.7470    -0.0900 C.3   1 <1>   0.1960 
  8 C        1.1330     1.4190     0.9000 C.3   1 <1>   0.3390 
  9 C        2.2420    -0.1030    -0.7120 C.3   1 <1>   0.1160 
 10 C       -2.4620    -2.1690    -0.0760 C.3   1 <1>   0.4230 
 11 C       -3.6290    -0.1770    -1.0200 C.3   1 <1>  -0.1600 
 12 C        2.2510     2.3900     0.5170 C.ar  1 <1>  -0.1440 
 13 N       -2.6000    -3.5670     0.4600 N.4   1 <1>  -0.9590 
 14 C       -3.8490    -1.5760    -0.3860 C.3   1 <1>  -0.1060 
 15 C        2.0500     3.3550    -0.4590 C.ar  1 <1>  -0.1500 
 16 C        3.4830     2.3190     1.1530 C.ar  1 <1>  -0.1500 
 17 C       -3.2500    -4.4700    -0.5250 C.3   1 <1>   0.3430 
 18 C       -1.3590    -4.1530     1.0300 C.3   1 <1>   0.2630 
 19 C       -4.6480    -1.4610     0.9260 C.2   1 <1>   0.9060 
 20 C       -4.5840    -2.4830    -1.4000 C.3   1 <1>  -0.1600 
 21 C        3.0660     4.2300    -0.8000 C.ar  1 <1>  -0.1500 
 22 C        4.5000     3.1950     0.8140 C.ar  1 <1>  -0.1500 
 23 C       -4.6330    -3.9390    -0.9100 C.3   1 <1>  -0.1600 
 24 O       -4.4210    -2.2680     1.8420 O.co2 1 <1>  -0.9000 
 25 O       -5.4850    -0.5680     1.0470 O.co2 1 <1>  -0.9000 
 26 C        4.2920     4.1510    -0.1640 C.ar  1 <1>  -0.1500 
 27 H       -0.6800    -1.5860     1.0220 H     1 <1>   0.0800 
 28 H       -2.1630    -1.1040     1.7900 H     1 <1>   0.0800 
 29 H       -3.3850     0.9180     0.8150 H     1 <1>   0.0800 
 30 H       -2.6860     1.7080    -0.5570 H     1 <1>   0.0800 
 31 H        0.2020     1.9590     0.9330 H     1 <1>   0.0800 
 32 H        1.3170     1.0760     1.9030 H     1 <1>   0.0800 
 33 H        3.0830    -0.1720    -0.0450 H     1 <1>   0.0800 
 34 H        2.4430     0.6480    -1.4590 H     1 <1>   0.0800 
 35 H        2.1260    -1.0530    -1.2060 H     1 <1>   0.0800 
 36 H       -1.9310    -2.2450    -1.0070 H     1 <1>   0.0800 
 37 H       -4.5840     0.2840    -1.2080 H     1 <1>   0.0800 
 38 H       -3.1240    -0.2570    -1.9670 H     1 <1>   0.0800 
 39 H       -3.3040    -3.4140     1.2330 H     1 <1>   0.4500 
 40 H        1.1020     3.4320    -0.9620 H     1 <1>   0.1500 
 41 H        3.6580     1.5810     1.9160 H     1 <1>   0.1500 
 42 H       -2.6350    -4.5410    -1.4070 H     1 <1>   0.0800 
 43 H       -3.3570    -5.4550    -0.1020 H     1 <1>   0.0800 
 44 H       -0.5930    -4.2110     0.2730 H     1 <1>   0.0800 
 45 H       -1.5570    -5.1430     1.4060 H     1 <1>   0.0800 
 46 H       -1.0020    -3.5460     1.8460 H     1 <1>   0.0800 
 47 H       -5.5880    -2.1180    -1.5430 H     1 <1>   0.0800 
 48 H       -4.0810    -2.4490    -2.3520 H     1 <1>   0.0800 
 49 H        2.9010     4.9730    -1.5610 H     1 <1>   0.1500 
 50 H        5.4520     3.1330     1.3110 H     1 <1>   0.1500 
 51 H       -5.0480    -4.5610    -1.6830 H     1 <1>   0.0800 
 52 H       -5.2870    -4.0140    -0.0570 H     1 <1>   0.0800 
 53 H        5.0820     4.8310    -0.4300 H     1 <1>   0.1500 
@<TRIPOS>BOND
  1   1   2  2   
  2   1   3  2   
  3   1   4  am  
  4   1   5  am  
  5   4   6  1   
  6   4   7  1   
  7   5   8  1   
  8   5   9  1   
  9   6  10  1   
 10   6  27  1   
 11   6  28  1   
 12   7  11  1   
 13   7  29  1   
 14   7  30  1   
 15   8  12  1   
 16   8  31  1   
 17   8  32  1   
 18   9  33  1   
 19   9  34  1   
 20   9  35  1   
 21  10  13  1   
 22  10  14  1   
 23  10  36  1   
 24  11  14  1   
 25  11  37  1   
 26  11  38  1   
 27  12  15  ar  
 28  12  16  ar  
 29  13  17  1   
 30  13  18  1   
 31  13  39  1   
 32  14  19  1   
 33  14  20  1   
 34  15  21  ar  
 35  15  40  1   
 36  16  22  ar  
 37  16  41  1   
 38  17  23  1   
 39  17  42  1   
 40  17  43  1   
 41  18  44  1   
 42  18  45  1   
 43  18  46  1   
 44  19  24  ar  
 45  19  25  ar  
 46  20  23  1   
 47  20  47  1   
 48  20  48  1   
 49  21  26  ar  
 50  21  49  1   
 51  22  26  ar  
 52  22  50  1   
 53  23  51  1   
 54  23  52  1   
 55  26  53  1   
@<TRIPOS>SUBSTRUCTURE
  1 ****   4 GROUP 4 **** **** 0

# MOE 2024.06 (io_trps.svl 2023.06)
