@<TRIPOS>MOLECULE
NONAME
44 45 1 0 0 
SMALL
USER_CHARGES


@<TRIPOS>ATOM
  1 S        0.6130     1.0880    -1.8150 S.3   1 <1>  -0.3320 
  2 C        0.2860     2.4610    -0.7300 C.ar  1 <1>   0.7720 
  3 C       -0.3980    -0.3690    -1.2750 C.3   1 <1>  -0.0100 
  4 N        0.9110     3.5660    -0.9610 N.ar  1 <1>  -0.6200 
  5 N       -0.5970     2.2640     0.2700 N.ar  1 <1>  -0.1790 
  6 C        0.6550     4.5890    -0.1360 C.ar  1 <1>   0.4100 
  7 C       -0.8850     3.2620     1.1200 C.ar  1 <1>   0.4610 
  8 N        1.3430     5.7010    -0.4410 N.pl3 1 <1>  -0.8690 
  9 C       -0.2400     4.4640     0.9110 C.ar  1 <1>  -0.1500 
 10 N       -1.7700     3.0610     2.1200 N.pl3 1 <1>  -0.9000 
 11 C        1.3750     7.0260     0.2160 C.3   1 <1>   0.2090 
 12 C        2.8320     7.4450     0.3940 C.3   1 <1>  -0.1600 
 13 C        2.9340     8.8120     1.0820 C.3   1 <1>   0.0960 
 14 N        4.3510     9.1930     1.2640 N.pl3 1 <1>   0.0480 
 15 C        5.1540     9.9630     0.4820 C.2   1 <1>   0.0060 
 16 C        5.1240     8.8280     2.3020 C.2   1 <1>  -0.3020 
 17 N        6.3510    10.1000     0.9620 N.2   1 <1>  -0.5650 
 18 C        4.6830    10.6070    -0.8240 C.3   1 <1>   0.1000 
 19 C        6.3350     9.3880     2.1010 C.2   1 <1>   0.0770 
 20 C        5.8280    10.7510    -1.8360 C.3   1 <1>  -0.2400 
 21 C        4.0640    11.9800    -0.5380 C.3   1 <1>  -0.2400 
 22 H       -0.1740    -1.1760    -1.9520 H     1 <1>   0.0800 
 23 H       -1.4400    -0.1120    -1.3450 H     1 <1>   0.0800 
 24 H       -0.1100    -0.6400    -0.2750 H     1 <1>   0.0800 
 25 H       -1.0350     1.3600     0.3670 H     1 <1>   0.4570 
 26 H        1.9520     5.6260    -1.2650 H     1 <1>   0.4000 
 27 H       -0.4370     5.2940     1.5590 H     1 <1>   0.1500 
 28 H       -2.0110     3.8100     2.7850 H     1 <1>   0.4000 
 29 H       -2.2860     2.1990     2.3340 H     1 <1>   0.4000 
 30 H        0.8880     6.9860     1.1740 H     1 <1>   0.0800 
 31 H        0.8580     7.7390    -0.4050 H     1 <1>   0.0800 
 32 H        3.3080     7.4980    -0.5700 H     1 <1>   0.0800 
 33 H        3.3390     6.7090     0.9940 H     1 <1>   0.0800 
 34 H        2.4690     8.7770     2.0510 H     1 <1>   0.0800 
 35 H        2.4400     9.5670     0.4980 H     1 <1>   0.0800 
 36 H        4.7860     8.2060     3.1090 H     1 <1>   0.1500 
 37 H        3.9380     9.9770    -1.2750 H     1 <1>   0.0800 
 38 H        7.2100     9.3170     2.7260 H     1 <1>   0.1500 
 39 H        6.5890    11.4050    -1.4480 H     1 <1>   0.0800 
 40 H        5.4660    11.1510    -2.7650 H     1 <1>   0.0800 
 41 H        6.2730     9.7890    -2.0210 H     1 <1>   0.0800 
 42 H        4.8000    12.6250    -0.0900 H     1 <1>   0.0800 
 43 H        3.2380    11.8840     0.1430 H     1 <1>   0.0800 
 44 H        3.7130    12.4330    -1.4470 H     1 <1>   0.0800 
@<TRIPOS>BOND
  1   1   2  1   
  2   1   3  1   
  3   2   4  ar  
  4   2   5  ar  
  5   3  22  1   
  6   3  23  1   
  7   3  24  1   
  8   4   6  ar  
  9   5   7  ar  
 10   5  25  1   
 11   6   8  1   
 12   6   9  ar  
 13   7   9  ar  
 14   7  10  1   
 15   8  11  1   
 16   8  26  1   
 17   9  27  1   
 18  10  28  1   
 19  10  29  1   
 20  11  12  1   
 21  11  30  1   
 22  11  31  1   
 23  12  13  1   
 24  12  32  1   
 25  12  33  1   
 26  13  14  1   
 27  13  34  1   
 28  13  35  1   
 29  14  15  1   
 30  14  16  1   
 31  15  17  2   
 32  15  18  1   
 33  16  19  2   
 34  16  36  1   
 35  17  19  1   
 36  18  20  1   
 37  18  21  1   
 38  18  37  1   
 39  19  38  1   
 40  20  39  1   
 41  20  40  1   
 42  20  41  1   
 43  21  42  1   
 44  21  43  1   
 45  21  44  1   
@<TRIPOS>SUBSTRUCTURE
  1 ****  11 GROUP 4 **** **** 0

# MOE 2024.06 (io_trps.svl 2023.06)
