@<TRIPOS>MOLECULE
NONAME
49 51 1 0 0 
SMALL
USER_CHARGES


@<TRIPOS>ATOM
  1 O       -2.3750     0.4010    -0.0520 O.co2 1 <1>  -0.9000 
  2 C       -1.6100     1.1520    -0.6650 C.2   1 <1>   0.9060 
  3 O       -1.5570     1.1570    -1.9000 O.co2 1 <1>  -0.9000 
  4 C       -0.7410     2.1540     0.1040 C.3   1 <1>  -0.1060 
  5 C       -1.4780     2.7530     1.3320 C.3   1 <1>   0.2000 
  6 C       -0.4630     3.2720    -0.9190 C.3   1 <1>   0.3430 
  7 C        0.5840     1.5060     0.5980 C.3   1 <1>  -0.1600 
  8 O       -2.1090     1.7850     2.0760 O.3   1 <1>  -0.6800 
  9 C       -2.5100     3.7970     0.9200 C.3   1 <1>  -0.1600 
 10 N       -0.4760     4.6330    -0.3050 N.4   1 <1>  -0.9590 
 11 C        1.4150     0.8060    -0.4930 C.3   1 <1>  -0.1600 
 12 C       -1.8350     4.9820     0.2230 C.3   1 <1>   0.3430 
 13 C        0.0540     5.6410    -1.2560 C.3   1 <1>   0.4810 
 14 C        2.6910     0.2030     0.1000 C.3   1 <1>  -0.2400 
 15 C        0.2030     6.9840    -0.5720 C.2   1 <1>  -0.1240 
 16 C        1.0730     7.0230     0.5610 C.2   1 <1>   0.6160 
 17 C       -0.4330     8.1070    -0.9950 C.2   1 <1>  -0.1780 
 18 O        1.6100     6.0240     1.0080 O.2   1 <1>  -0.5700 
 19 N        1.2690     8.2170     1.1820 N.am  1 <1>  -0.5470 
 20 C       -0.2400     9.3530    -0.3150 C.ar  1 <1>   0.0280 
 21 C        0.6330     9.3890     0.7880 C.ar  1 <1>   0.1170 
 22 C       -0.8790    10.5310    -0.7030 C.ar  1 <1>  -0.1500 
 23 C        0.8430    10.5870     1.4660 C.ar  1 <1>  -0.1500 
 24 C       -0.6630    11.7100    -0.0210 C.ar  1 <1>  -0.1500 
 25 C        0.2010    11.7390     1.0660 C.ar  1 <1>  -0.1500 
 26 H       -0.7690     3.2190     1.9950 H     1 <1>   0.0800 
 27 H       -1.2240     3.2510    -1.6830 H     1 <1>   0.0800 
 28 H        0.4770     3.0840    -1.4070 H     1 <1>   0.0800 
 29 H        1.1940     2.2510     1.0780 H     1 <1>   0.0800 
 30 H        0.3340     0.7680     1.3440 H     1 <1>   0.0800 
 31 H       -2.3980     1.0660     1.4300 H     1 <1>   0.4000 
 32 H       -3.2240     3.3500     0.2500 H     1 <1>   0.0800 
 33 H       -3.0420     4.1510     1.7850 H     1 <1>   0.0800 
 34 H        0.1960     4.6200     0.4850 H     1 <1>   0.4500 
 35 H        0.8350     0.0140    -0.9400 H     1 <1>   0.0800 
 36 H        1.6880     1.4920    -1.2740 H     1 <1>   0.0800 
 37 H       -1.7400     5.7950     0.9250 H     1 <1>   0.0800 
 38 H       -2.4700     5.3120    -0.5830 H     1 <1>   0.0800 
 39 H        1.0200     5.3230    -1.6140 H     1 <1>   0.0800 
 40 H       -0.6080     5.7300    -2.1020 H     1 <1>   0.0800 
 41 H        2.4440    -0.5190     0.8590 H     1 <1>   0.0800 
 42 H        3.3070     0.9690     0.5360 H     1 <1>   0.0800 
 43 H        3.2540    -0.2940    -0.6710 H     1 <1>   0.0800 
 44 H       -1.0930     8.1150    -1.8460 H     1 <1>   0.1500 
 45 H        1.9110     8.2160     1.9750 H     1 <1>   0.3700 
 46 H       -1.5480    10.5220    -1.5450 H     1 <1>   0.1500 
 47 H        1.5120    10.6130     2.3070 H     1 <1>   0.1500 
 48 H       -1.1610    12.6150    -0.3280 H     1 <1>   0.1500 
 49 H        0.3640    12.6640     1.5920 H     1 <1>   0.1500 
@<TRIPOS>BOND
  1   1   2  ar  
  2   2   3  ar  
  3   2   4  1   
  4   4   5  1   
  5   4   6  1   
  6   4   7  1   
  7   5   8  1   
  8   5   9  1   
  9   5  26  1   
 10   6  10  1   
 11   6  27  1   
 12   6  28  1   
 13   7  11  1   
 14   7  29  1   
 15   7  30  1   
 16   8  31  1   
 17   9  12  1   
 18   9  32  1   
 19   9  33  1   
 20  10  12  1   
 21  10  13  1   
 22  10  34  1   
 23  11  14  1   
 24  11  35  1   
 25  11  36  1   
 26  12  37  1   
 27  12  38  1   
 28  13  15  1   
 29  13  39  1   
 30  13  40  1   
 31  14  41  1   
 32  14  42  1   
 33  14  43  1   
 34  15  16  1   
 35  15  17  2   
 36  16  18  2   
 37  16  19  am  
 38  17  20  1   
 39  17  44  1   
 40  19  21  1   
 41  19  45  1   
 42  20  21  ar  
 43  20  22  ar  
 44  21  23  ar  
 45  22  24  ar  
 46  22  46  1   
 47  23  25  ar  
 48  23  47  1   
 49  24  25  ar  
 50  24  48  1   
 51  25  49  1   
@<TRIPOS>SUBSTRUCTURE
  1 ****  10 GROUP 4 **** **** 0

# MOE 2024.06 (io_trps.svl 2023.06)
