@<TRIPOS>MOLECULE
NONAME
45 48 1 0 0 
SMALL
USER_CHARGES


@<TRIPOS>ATOM
  1 O       -0.7850    -0.2790    -0.0890 O.3   1 <1>  -0.2800 
  2 C       -0.8210     0.9010     0.4610 C.2   1 <1>   0.4780 
  3 C       -1.7990    -0.9060     0.4070 C.2   1 <1>   0.2980 
  4 N       -1.8250     0.9950     1.2700 N.2   1 <1>  -0.3380 
  5 C        0.1630     1.9050     0.1510 C.2   1 <1>   0.1400 
  6 N       -2.4520    -0.1780     1.2330 N.2   1 <1>  -0.3380 
  7 C       -2.0520    -2.3500    -0.0350 C.3   1 <1>   0.2900 
  8 O        1.1430     1.6610    -0.7150 O.3   1 <1>  -0.2800 
  9 C        0.3020     3.1780     0.6130 C.2   1 <1>  -0.1500 
 10 N       -3.4380    -2.8400     0.1640 N.3   1 <1>  -0.8100 
 11 C        1.8950     2.7360    -0.8140 C.2   1 <1>  -0.0100 
 12 C        1.4270     3.7170    -0.0140 C.2   1 <1>  -0.1500 
 13 C       -3.5180    -4.2950    -0.0780 C.3   1 <1>   0.1100 
 14 C       -4.4020    -2.1060    -0.6750 C.3   1 <1>   0.1100 
 15 C       -4.9250    -4.8300     0.2430 C.3   1 <1>   0.2000 
 16 C       -5.8310    -2.5700    -0.3710 C.3   1 <1>  -0.1600 
 17 O       -5.0010    -6.1770    -0.1050 O.3   1 <1>  -0.5600 
 18 C       -5.9870    -4.0850    -0.5680 C.3   1 <1>  -0.1600 
 19 C       -4.5800    -7.0650     0.8970 C.3   1 <1>   0.2630 
 20 C       -4.4880    -8.5020     0.3900 C.ar  1 <1>   0.1670 
 21 N       -3.7850    -9.3290     1.1540 N.ar  1 <1>  -0.6200 
 22 C       -5.1110    -8.8900    -0.7900 C.ar  1 <1>  -0.1500 
 23 C       -3.6980   -10.5790     0.7260 C.ar  1 <1>   0.1600 
 24 C       -5.0120   -10.1950    -1.2230 C.ar  1 <1>  -0.1500 
 25 C       -4.2820   -11.0560    -0.4350 C.ar  1 <1>  -0.1500 
 26 H       -1.3780    -2.9740     0.5240 H     1 <1>   0.0800 
 27 H       -1.7940    -2.4380    -1.0760 H     1 <1>   0.0800 
 28 H       -0.3260     3.6850     1.3250 H     1 <1>   0.1500 
 29 H        2.7440     2.7200    -1.4770 H     1 <1>   0.1500 
 30 H        1.8150     4.7100     0.1310 H     1 <1>   0.1500 
 31 H       -2.8010    -4.7950     0.5490 H     1 <1>   0.0800 
 32 H       -3.2870    -4.5040    -1.1090 H     1 <1>   0.0800 
 33 H       -4.1810    -2.2670    -1.7170 H     1 <1>   0.0800 
 34 H       -4.3360    -1.0500    -0.4730 H     1 <1>   0.0800 
 35 H       -5.1300    -4.7180     1.2940 H     1 <1>   0.0800 
 36 H       -6.5190    -2.0490    -1.0120 H     1 <1>   0.0800 
 37 H       -6.0670    -2.3080     0.6460 H     1 <1>   0.0800 
 38 H       -6.9670    -4.3950    -0.2520 H     1 <1>   0.0800 
 39 H       -5.8670    -4.3210    -1.6110 H     1 <1>   0.0800 
 40 H       -5.2810    -7.0180     1.7110 H     1 <1>   0.0800 
 41 H       -3.6100    -6.7610     1.2470 H     1 <1>   0.0800 
 42 H       -5.6710    -8.1770    -1.3680 H     1 <1>   0.1500 
 43 H       -3.1300   -11.2610     1.3340 H     1 <1>   0.1500 
 44 H       -5.4840   -10.5220    -2.1330 H     1 <1>   0.1500 
 45 H       -4.1650   -12.0870    -0.7140 H     1 <1>   0.1500 
@<TRIPOS>BOND
  1   1   2  1   
  2   1   3  1   
  3   2   4  2   
  4   2   5  1   
  5   3   6  2   
  6   3   7  1   
  7   4   6  1   
  8   5   8  1   
  9   5   9  2   
 10   7  10  1   
 11   7  26  1   
 12   7  27  1   
 13   8  11  1   
 14   9  12  1   
 15   9  28  1   
 16  10  13  1   
 17  10  14  1   
 18  11  12  2   
 19  11  29  1   
 20  12  30  1   
 21  13  15  1   
 22  13  31  1   
 23  13  32  1   
 24  14  16  1   
 25  14  33  1   
 26  14  34  1   
 27  15  17  1   
 28  15  18  1   
 29  15  35  1   
 30  16  18  1   
 31  16  36  1   
 32  16  37  1   
 33  17  19  1   
 34  18  38  1   
 35  18  39  1   
 36  19  20  1   
 37  19  40  1   
 38  19  41  1   
 39  20  21  ar  
 40  20  22  ar  
 41  21  23  ar  
 42  22  24  ar  
 43  22  42  1   
 44  23  25  ar  
 45  23  43  1   
 46  24  25  ar  
 47  24  44  1   
 48  25  45  1   
@<TRIPOS>SUBSTRUCTURE
  1 ****  10 GROUP 4 **** **** 0

# MOE 2024.06 (io_trps.svl 2023.06)
