@<TRIPOS>MOLECULE
NONAME
48 50 1 0 0 
SMALL
USER_CHARGES


@<TRIPOS>ATOM
  1 O        0.2780    -1.9510     1.4250 O.3   1 <1>  -0.6800 
  2 C        0.7610    -2.8140     0.4670 C.3   1 <1>   0.2000 
  3 C        1.9550    -3.5750     1.0240 C.3   1 <1>  -0.1600 
  4 C        1.3090    -2.0080    -0.6990 C.3   1 <1>  -0.1600 
  5 C        2.8710    -3.8410    -0.1810 C.3   1 <1>  -0.0800 
  6 C        2.4370    -2.8640    -1.2900 C.3   1 <1>  -0.0800 
  7 C        4.3480    -3.5380     0.1060 C.3   1 <1>  -0.1600 
  8 C        3.6790    -2.0420    -1.6530 C.3   1 <1>  -0.1600 
  9 C        4.5340    -2.1070    -0.3940 C.3   1 <1>   0.4230 
 10 N        5.9490    -1.7110    -0.6280 N.4   1 <1>  -0.9590 
 11 C        6.6690    -1.5390     0.6650 C.3   1 <1>   0.4860 
 12 C        6.7290    -2.5690    -1.5780 C.3   1 <1>   0.2630 
 13 C        7.9550    -0.7750     0.3990 C.ar  1 <1>  -0.1430 
 14 C        9.1830    -1.4330     0.4730 C.ar  1 <1>  -0.1430 
 15 C        7.9110     0.5820     0.0710 C.ar  1 <1>  -0.1430 
 16 C       10.3470    -0.7400     0.1850 C.ar  1 <1>  -0.1500 
 17 C        9.3090    -2.8980     0.8780 C.3   1 <1>  -0.0970 
 18 C        9.0900     1.2510    -0.2150 C.ar  1 <1>  -0.1500 
 19 C        6.6190     1.3930     0.0180 C.3   1 <1>  -0.0970 
 20 C       10.3020     0.5940    -0.1630 C.ar  1 <1>  -0.1500 
 21 H       -0.1680    -2.4480     2.1380 H     1 <1>   0.4000 
 22 H       -0.0250    -3.4790     0.1450 H     1 <1>   0.0800 
 23 H        2.4570    -2.9630     1.7530 H     1 <1>   0.0800 
 24 H        1.6440    -4.4970     1.4850 H     1 <1>   0.0800 
 25 H        0.5410    -1.8130    -1.4260 H     1 <1>   0.0800 
 26 H        1.6930    -1.0710    -0.3310 H     1 <1>   0.0800 
 27 H        2.7460    -4.8590    -0.5130 H     1 <1>   0.0800 
 28 H        2.0670    -3.4060    -2.1450 H     1 <1>   0.0800 
 29 H        4.9430    -4.2270    -0.4660 H     1 <1>   0.0800 
 30 H        4.5860    -3.6420     1.1490 H     1 <1>   0.0800 
 31 H        3.4290    -1.0310    -1.9230 H     1 <1>   0.0800 
 32 H        4.1670    -2.5230    -2.4800 H     1 <1>   0.0800 
 33 H        4.0900    -1.4430     0.3320 H     1 <1>   0.0800 
 34 H        5.9400    -0.7670    -1.0350 H     1 <1>   0.4500 
 35 H        6.0640    -0.9780     1.3570 H     1 <1>   0.0800 
 36 H        6.8780    -2.4990     1.1040 H     1 <1>   0.0800 
 37 H        6.8300    -3.5690    -1.1900 H     1 <1>   0.0800 
 38 H        7.7160    -2.1580    -1.7240 H     1 <1>   0.0800 
 39 H        6.2400    -2.6160    -2.5360 H     1 <1>   0.0800 
 40 H       11.3050    -1.2300     0.2330 H     1 <1>   0.1500 
 41 H       10.3420    -3.1970     0.9150 H     1 <1>   0.0800 
 42 H        8.8090    -3.5370     0.1740 H     1 <1>   0.0800 
 43 H        8.8940    -3.0510     1.8580 H     1 <1>   0.0800 
 44 H        9.0780     2.2950    -0.4780 H     1 <1>   0.1500 
 45 H        6.8330     2.4390     0.1570 H     1 <1>   0.0800 
 46 H        5.9400     1.1050     0.7990 H     1 <1>   0.0800 
 47 H        6.1420     1.2800    -0.9380 H     1 <1>   0.0800 
 48 H       11.2130     1.1240    -0.3870 H     1 <1>   0.1500 
@<TRIPOS>BOND
  1   1   2  1   
  2   1  21  1   
  3   2   3  1   
  4   2   4  1   
  5   2  22  1   
  6   3   5  1   
  7   3  23  1   
  8   3  24  1   
  9   4   6  1   
 10   4  25  1   
 11   4  26  1   
 12   5   6  1   
 13   5   7  1   
 14   5  27  1   
 15   6   8  1   
 16   6  28  1   
 17   7   9  1   
 18   7  29  1   
 19   7  30  1   
 20   8   9  1   
 21   8  31  1   
 22   8  32  1   
 23   9  10  1   
 24   9  33  1   
 25  10  11  1   
 26  10  12  1   
 27  10  34  1   
 28  11  13  1   
 29  11  35  1   
 30  11  36  1   
 31  12  37  1   
 32  12  38  1   
 33  12  39  1   
 34  13  14  ar  
 35  13  15  ar  
 36  14  16  ar  
 37  14  17  1   
 38  15  18  ar  
 39  15  19  1   
 40  16  20  ar  
 41  16  40  1   
 42  17  41  1   
 43  17  42  1   
 44  17  43  1   
 45  18  20  ar  
 46  18  44  1   
 47  19  45  1   
 48  19  46  1   
 49  19  47  1   
 50  20  48  1   
@<TRIPOS>SUBSTRUCTURE
  1 ****  10 GROUP 4 **** **** 0

# MOE 2024.06 (io_trps.svl 2023.06)
