@<TRIPOS>MOLECULE
NONAME
39 40 1 0 0 
SMALL
USER_CHARGES


@<TRIPOS>ATOM
  1 S       -1.1630    -0.3920     0.6290 S.3   1 <1>  -0.0800 
  2 C       -0.9220    -1.2470    -0.8580 C.2   1 <1>   0.4420 
  3 C       -0.3340     0.9510    -0.0880 C.2   1 <1>   0.1980 
  4 N       -0.2840    -0.5480    -1.7220 N.2   1 <1>  -0.3380 
  5 N       -1.4300    -2.5260    -0.9200 N.am  1 <1>  -0.4940 
  6 N        0.0490     0.7020    -1.2780 N.2   1 <1>  -0.3380 
  7 C       -0.1460     2.2090     0.7610 C.3   1 <1>   0.3800 
  8 C       -1.3670    -3.4490    -1.9250 C.2   1 <1>   0.5690 
  9 O       -1.3630     2.5400     1.3710 O.3   1 <1>  -0.5600 
 10 C        0.3150     3.4130    -0.0680 C.3   1 <1>  -0.2400 
 11 O       -0.7910    -3.2660    -2.9660 O.2   1 <1>  -0.5700 
 12 C       -2.0560    -4.7920    -1.7320 C.3   1 <1>   0.1310 
 13 C       -1.2700     3.2090     2.5900 C.3   1 <1>   0.0400 
 14 S       -2.8120    -4.9420    -0.0360 S.3   1 <1>  -0.3310 
 15 C       -3.5950    -6.5630     0.0380 C.ar  1 <1>   0.1010 
 16 C       -4.2390    -6.8930     1.2150 C.ar  1 <1>  -0.1500 
 17 C       -3.5620    -7.4500    -1.0280 C.ar  1 <1>  -0.1500 
 18 C       -4.8630    -8.1230     1.3410 C.ar  1 <1>   0.0830 
 19 C       -4.1850    -8.6800    -0.9030 C.ar  1 <1>  -0.1500 
 20 O       -5.4760    -8.3780     2.5240 O.3   1 <1>  -0.3630 
 21 C       -4.8340    -9.0190     0.2740 C.ar  1 <1>  -0.1500 
 22 C       -6.1400    -9.5990     2.7590 C.3   1 <1>   0.0400 
 23 H       -1.9360    -2.8340    -0.0900 H     1 <1>   0.3700 
 24 H        0.5770     1.9870     1.5280 H     1 <1>   0.0800 
 25 H       -0.4260     3.6470    -0.8120 H     1 <1>   0.0800 
 26 H        1.2350     3.1750    -0.5710 H     1 <1>   0.0800 
 27 H        0.4850     4.2700     0.5550 H     1 <1>   0.0800 
 28 H       -1.3430    -5.5880    -1.8390 H     1 <1>   0.0800 
 29 H       -2.8480    -4.9020    -2.4490 H     1 <1>   0.0800 
 30 H       -2.2680     3.3900     2.9470 H     1 <1>   0.0800 
 31 H       -0.7640     4.1490     2.4520 H     1 <1>   0.0800 
 32 H       -0.7420     2.5920     3.2970 H     1 <1>   0.0800 
 33 H       -4.2610    -6.2010     2.0360 H     1 <1>   0.1500 
 34 H       -3.0650    -7.2100    -1.9470 H     1 <1>   0.1500 
 35 H       -4.1670    -9.3780    -1.7230 H     1 <1>   0.1500 
 36 H       -5.3080    -9.9790     0.3410 H     1 <1>   0.1500 
 37 H       -6.5440    -9.5730     3.7550 H     1 <1>   0.0800 
 38 H       -5.4320   -10.4040     2.6730 H     1 <1>   0.0800 
 39 H       -6.9370    -9.7070     2.0450 H     1 <1>   0.0800 
@<TRIPOS>BOND
  1   1   2  1   
  2   1   3  1   
  3   2   4  2   
  4   2   5  1   
  5   3   6  2   
  6   3   7  1   
  7   4   6  1   
  8   5   8  am  
  9   5  23  1   
 10   7   9  1   
 11   7  10  1   
 12   7  24  1   
 13   8  11  2   
 14   8  12  1   
 15   9  13  1   
 16  10  25  1   
 17  10  26  1   
 18  10  27  1   
 19  12  14  1   
 20  12  28  1   
 21  12  29  1   
 22  13  30  1   
 23  13  31  1   
 24  13  32  1   
 25  14  15  1   
 26  15  16  ar  
 27  15  17  ar  
 28  16  18  ar  
 29  16  33  1   
 30  17  19  ar  
 31  17  34  1   
 32  18  20  1   
 33  18  21  ar  
 34  19  21  ar  
 35  19  35  1   
 36  20  22  1   
 37  21  36  1   
 38  22  37  1   
 39  22  38  1   
 40  22  39  1   
@<TRIPOS>SUBSTRUCTURE
  1 ****   5 GROUP 4 **** **** 0

# MOE 2024.06 (io_trps.svl 2023.06)
