@<TRIPOS>MOLECULE
NONAME
56 57 1 0 0 
SMALL
USER_CHARGES


@<TRIPOS>ATOM
  1 O       -0.9030    -0.5210    -3.1610 O.2   1 <1>  -0.5700 
  2 C       -1.2520     0.2040    -2.2540 C.2   1 <1>   0.5440 
  3 N       -1.8150    -0.3630    -1.1240 N.am  1 <1>  -0.6600 
  4 C       -1.1380     1.6420    -2.4140 C.ar  1 <1>   0.0860 
  5 C       -2.3540    -1.7550    -1.1950 C.3   1 <1>   0.3200 
  6 C       -1.9590     0.3300     0.2000 C.3   1 <1>   0.1400 
  7 C       -0.4000     2.4360    -1.5400 C.ar  1 <1>  -0.1500 
  8 C       -1.8210     2.2880    -3.4430 C.ar  1 <1>  -0.1500 
  9 C       -3.7760    -1.7390    -0.6660 C.2   1 <1>  -0.3320 
 10 C       -3.1090     1.3590     0.1870 C.3   1 <1>   0.3430 
 11 C       -0.4350     3.8180    -1.5970 C.ar  1 <1>   0.0730 
 12 C       -1.8160     3.6660    -3.5550 C.ar  1 <1>  -0.1500 
 13 N       -4.2100    -2.4330     0.4040 N.pl3 1 <1>   0.0330 
 14 C       -4.8380    -1.0420    -1.1240 C.2   1 <1>   0.0770 
 15 N       -3.1920     2.1700     1.4490 N.4   1 <1>  -0.9590 
 16 C        0.1850     4.5740    -0.5550 C.1   1 <1>  -0.0730 
 17 C       -1.1350     4.4300    -2.6250 C.ar  1 <1>  -0.1500 
 18 C       -5.5020    -2.0710     0.5560 C.2   1 <1>   0.0060 
 19 N       -5.9080    -1.2210    -0.3290 N.2   1 <1>  -0.5650 
 20 C       -4.5190     2.8570     1.5020 C.3   1 <1>   0.2630 
 21 C       -2.0860     3.1780     1.5640 C.3   1 <1>   0.2630 
 22 C        0.5540     5.1050     0.4430 C.1   1 <1>  -0.2000 
 23 C       -6.3860    -2.6250     1.6530 C.3   1 <1>  -0.0600 
 24 C        0.8800     5.6700     1.7790 C.3   1 <1>   0.4800 
 25 O       -0.3140     5.7590     2.4470 O.3   1 <1>  -0.6800 
 26 C        1.4570     7.0760     1.6760 C.3   1 <1>  -0.2400 
 27 C        1.7770     4.7320     2.5740 C.3   1 <1>  -0.2400 
 28 H       -1.7320    -2.4100    -0.6100 H     1 <1>   0.0800 
 29 H       -2.3620    -2.1190    -2.2090 H     1 <1>   0.0800 
 30 H       -1.0310     0.8060     0.4500 H     1 <1>   0.0800 
 31 H       -2.1530    -0.4020     0.9630 H     1 <1>   0.0800 
 32 H        0.2100     1.9660    -0.7900 H     1 <1>   0.1500 
 33 H       -2.3620     1.6940    -4.1610 H     1 <1>   0.1500 
 34 H       -4.0350     0.8250     0.0600 H     1 <1>   0.0800 
 35 H       -2.9870     2.0210    -0.6540 H     1 <1>   0.0800 
 36 H       -2.3460     4.1440    -4.3630 H     1 <1>   0.1500 
 37 H       -3.6960    -3.1120     0.9750 H     1 <1>   0.2700 
 38 H       -4.8850    -0.3980    -1.9870 H     1 <1>   0.1500 
 39 H       -3.1450     1.5280     2.2540 H     1 <1>   0.4500 
 40 H       -1.1490     5.5040    -2.6970 H     1 <1>   0.1500 
 41 H       -4.6200     3.5440     0.6780 H     1 <1>   0.0800 
 42 H       -4.6210     3.4070     2.4240 H     1 <1>   0.0800 
 43 H       -5.3180     2.1330     1.4450 H     1 <1>   0.0800 
 44 H       -2.1200     3.8710     0.7390 H     1 <1>   0.0800 
 45 H       -1.1240     2.6940     1.5610 H     1 <1>   0.0800 
 46 H       -2.1770     3.7400     2.4810 H     1 <1>   0.0800 
 47 H       -5.9750    -2.3960     2.6190 H     1 <1>   0.0800 
 48 H       -6.4780    -3.6910     1.5490 H     1 <1>   0.0800 
 49 H       -7.3680    -2.1910     1.5840 H     1 <1>   0.0800 
 50 H       -0.7470     6.5850     2.1620 H     1 <1>   0.4000 
 51 H        0.8010     7.7210     1.1190 H     1 <1>   0.0800 
 52 H        2.4020     7.0410     1.1640 H     1 <1>   0.0800 
 53 H        1.6220     7.4880     2.6560 H     1 <1>   0.0800 
 54 H        1.3250     3.7610     2.6620 H     1 <1>   0.0800 
 55 H        1.9560     5.1300     3.5570 H     1 <1>   0.0800 
 56 H        2.7230     4.6220     2.0760 H     1 <1>   0.0800 
@<TRIPOS>BOND
  1   1   2  2   
  2   2   3  am  
  3   2   4  1   
  4   3   5  1   
  5   3   6  1   
  6   4   7  ar  
  7   4   8  ar  
  8   5   9  1   
  9   5  28  1   
 10   5  29  1   
 11   6  10  1   
 12   6  30  1   
 13   6  31  1   
 14   7  11  ar  
 15   7  32  1   
 16   8  12  ar  
 17   8  33  1   
 18   9  13  1   
 19   9  14  2   
 20  10  15  1   
 21  10  34  1   
 22  10  35  1   
 23  11  16  1   
 24  11  17  ar  
 25  12  17  ar  
 26  12  36  1   
 27  13  18  1   
 28  13  37  1   
 29  14  19  1   
 30  14  38  1   
 31  15  20  1   
 32  15  21  1   
 33  15  39  1   
 34  16  22  3   
 35  17  40  1   
 36  18  19  2   
 37  18  23  1   
 38  20  41  1   
 39  20  42  1   
 40  20  43  1   
 41  21  44  1   
 42  21  45  1   
 43  21  46  1   
 44  22  24  1   
 45  23  47  1   
 46  23  48  1   
 47  23  49  1   
 48  24  25  1   
 49  24  26  1   
 50  24  27  1   
 51  25  50  1   
 52  26  51  1   
 53  26  52  1   
 54  26  53  1   
 55  27  54  1   
 56  27  55  1   
 57  27  56  1   
@<TRIPOS>SUBSTRUCTURE
  1 ****  10 GROUP 4 **** **** 0

# MOE 2024.06 (io_trps.svl 2023.06)
