@<TRIPOS>MOLECULE
NONAME
47 50 1 0 0 
SMALL
USER_CHARGES


@<TRIPOS>ATOM
  1 O        1.1140    -0.4470     0.7860 O.3   1 <1>  -0.5600 
  2 C        2.0250    -1.1550    -0.0220 C.3   1 <1>   0.4240 
  3 C       -0.2430    -0.5900     0.5050 C.3   1 <1>   0.1200 
  4 C        1.5050    -2.5710    -0.3600 C.ar  1 <1>  -0.1440 
  5 C        3.3130    -1.2410     0.8080 C.3   1 <1>  -0.1600 
  6 C        2.2760    -0.3360    -1.3000 C.3   1 <1>  -0.1600 
  7 C       -0.6560    -2.0280     0.7990 C.3   1 <1>  -0.0160 
  8 C        0.2360    -2.9850     0.0330 C.ar  1 <1>  -0.1440 
  9 C        2.2990    -3.4610    -1.0750 C.ar  1 <1>  -0.1500 
 10 C        3.8960     0.1440     1.0870 C.3   1 <1>   0.2090 
 11 C        2.8830     1.0300    -0.9850 C.3   1 <1>   0.2090 
 12 C       -0.2190    -4.2590    -0.2690 C.ar  1 <1>  -0.1500 
 13 C        1.8450    -4.7310    -1.3800 C.ar  1 <1>  -0.1500 
 14 N        4.1340     0.8330    -0.2060 N.pl3 1 <1>  -0.8380 
 15 C        0.5870    -5.1420    -0.9800 C.ar  1 <1>   0.0820 
 16 C        5.0980     1.8330    -0.2260 C.ar  1 <1>   0.4100 
 17 O        0.2180    -6.4030    -1.3160 O.3   1 <1>  -0.3630 
 18 N        4.6760     3.0790    -0.4050 N.ar  1 <1>  -0.6200 
 19 C        6.4570     1.5220    -0.0510 C.ar  1 <1>   0.1600 
 20 C       -1.0350    -6.9270    -0.9370 C.3   1 <1>   0.0400 
 21 C        5.6570     3.9620    -0.3900 C.ar  1 <1>   0.1670 
 22 N        7.4450     2.3970    -0.0310 N.ar  1 <1>  -0.6200 
 23 C        6.9970     3.6310    -0.2080 C.ar  1 <1>   0.1600 
 24 C        5.2410     5.4060    -0.5870 C.3   1 <1>  -0.0970 
 25 H       -0.4230    -0.3360    -0.5250 H     1 <1>   0.0800 
 26 H       -0.7840     0.0940     1.1350 H     1 <1>   0.0800 
 27 H        4.0550    -1.8160     0.2880 H     1 <1>   0.0800 
 28 H        3.1020    -1.7430     1.7340 H     1 <1>   0.0800 
 29 H        1.3640    -0.2160    -1.8510 H     1 <1>   0.0800 
 30 H        2.9620    -0.8620    -1.9360 H     1 <1>   0.0800 
 31 H       -1.6830    -2.1660     0.5130 H     1 <1>   0.0800 
 32 H       -0.5690    -2.2170     1.8540 H     1 <1>   0.0800 
 33 H        3.2820    -3.1740    -1.4030 H     1 <1>   0.1500 
 34 H        4.8170     0.0500     1.6360 H     1 <1>   0.0800 
 35 H        3.2080     0.7250     1.6790 H     1 <1>   0.0800 
 36 H        2.1930     1.6270    -0.4110 H     1 <1>   0.0800 
 37 H        3.1030     1.5520    -1.9010 H     1 <1>   0.0800 
 38 H       -1.2000    -4.5500     0.0530 H     1 <1>   0.1500 
 39 H        2.4650    -5.4140    -1.9320 H     1 <1>   0.1500 
 40 H        6.7070     0.4860     0.0730 H     1 <1>   0.1500 
 41 H       -1.1000    -7.9350    -1.3030 H     1 <1>   0.0800 
 42 H       -1.8120    -6.3270    -1.3790 H     1 <1>   0.0800 
 43 H       -1.1050    -6.9220     0.1360 H     1 <1>   0.0800 
 44 H        7.7320     4.4150    -0.2070 H     1 <1>   0.1500 
 45 H        4.5530     5.6890     0.1890 H     1 <1>   0.0800 
 46 H        4.7500     5.5100    -1.5370 H     1 <1>   0.0800 
 47 H        6.0890     6.0640    -0.5590 H     1 <1>   0.0800 
@<TRIPOS>BOND
  1   1   2  1   
  2   1   3  1   
  3   2   4  1   
  4   2   5  1   
  5   2   6  1   
  6   3   7  1   
  7   3  25  1   
  8   3  26  1   
  9   4   8  ar  
 10   4   9  ar  
 11   5  10  1   
 12   5  27  1   
 13   5  28  1   
 14   6  11  1   
 15   6  29  1   
 16   6  30  1   
 17   7   8  1   
 18   7  31  1   
 19   7  32  1   
 20   8  12  ar  
 21   9  13  ar  
 22   9  33  1   
 23  10  14  1   
 24  10  34  1   
 25  10  35  1   
 26  11  14  1   
 27  11  36  1   
 28  11  37  1   
 29  12  15  ar  
 30  12  38  1   
 31  13  15  ar  
 32  13  39  1   
 33  14  16  1   
 34  15  17  1   
 35  16  18  ar  
 36  16  19  ar  
 37  17  20  1   
 38  18  21  ar  
 39  19  22  ar  
 40  19  40  1   
 41  20  41  1   
 42  20  42  1   
 43  20  43  1   
 44  21  23  ar  
 45  21  24  1   
 46  22  23  ar  
 47  23  44  1   
 48  24  45  1   
 49  24  46  1   
 50  24  47  1   
@<TRIPOS>SUBSTRUCTURE
  1 ****   2 GROUP 4 **** **** 0

# MOE 2024.06 (io_trps.svl 2023.06)
