@<TRIPOS>MOLECULE
NONAME
50 52 1 0 0 
SMALL
USER_CHARGES


@<TRIPOS>ATOM
  1 O       -1.9170     0.7320     1.9730 O.2   1 <1>  -0.5700 
  2 C       -2.1660     0.9930     0.8100 C.2   1 <1>   0.7160 
  3 N       -2.6490     0.0130    -0.0230 N.am  1 <1>  -0.6600 
  4 C       -1.9640     2.3290     0.3110 C.2   1 <1>  -0.0860 
  5 C       -2.5440    -1.4260     0.3860 C.3   1 <1>   0.3640 
  6 C       -3.4400     0.3750    -1.2390 C.3   1 <1>   0.1400 
  7 C       -0.9920     2.7240    -0.6140 C.2   1 <1>   0.1080 
  8 C       -2.6290     3.4860     0.5760 C.2   1 <1>  -0.3020 
  9 C       -1.1240    -1.9150     0.0900 C.ar  1 <1>  -0.1440 
 10 C       -3.5840    -2.3860    -0.2680 C.3   1 <1>   0.2000 
 11 C       -4.0580    -0.8330    -1.9530 C.3   1 <1>   0.1200 
 12 N       -1.0650     3.9800    -0.9130 N.2   1 <1>  -0.7070 
 13 C        0.0580     1.8140    -1.2150 C.3   1 <1>  -0.0590 
 14 N       -2.0740     4.4570    -0.1640 N.pl3 1 <1>   0.3140 
 15 C       -0.5570    -1.7950    -1.1730 C.ar  1 <1>  -0.1500 
 16 C       -0.3790    -2.4970     1.1050 C.ar  1 <1>  -0.1500 
 17 O       -4.5710    -1.7230    -1.0160 O.3   1 <1>  -0.5600 
 18 C       -4.3150    -3.2440     0.7740 C.3   1 <1>   0.1200 
 19 C       -2.4610     5.8800    -0.1940 C.3   1 <1>   0.0960 
 20 C        0.7270    -2.2510    -1.4160 C.ar  1 <1>  -0.1500 
 21 C        0.9050    -2.9540     0.8650 C.ar  1 <1>  -0.1500 
 22 O       -3.4120    -4.0180     1.5000 O.3   1 <1>  -0.6800 
 23 C       -1.7720     6.6580     0.9370 C.3   1 <1>  -0.1600 
 24 C        1.4590    -2.8320    -0.3960 C.ar  1 <1>  -0.1500 
 25 C       -2.1680     8.1380     0.9200 C.3   1 <1>  -0.2400 
 26 H       -2.6920    -1.4770     1.4510 H     1 <1>   0.0800 
 27 H       -4.2370     1.0360    -0.9420 H     1 <1>   0.0800 
 28 H       -2.8160     0.9120    -1.9310 H     1 <1>   0.0800 
 29 H       -3.4500     3.6470     1.2490 H     1 <1>   0.1500 
 30 H       -3.0790    -3.0490    -0.9480 H     1 <1>   0.0800 
 31 H       -3.3330    -1.3420    -2.5620 H     1 <1>   0.0800 
 32 H       -4.8680    -0.5120    -2.5840 H     1 <1>   0.0800 
 33 H        0.3390     1.0500    -0.5140 H     1 <1>   0.0800 
 34 H        0.9310     2.3880    -1.4660 H     1 <1>   0.0800 
 35 H       -0.3240     1.3540    -2.1070 H     1 <1>   0.0800 
 36 H       -1.1080    -1.3400    -1.9740 H     1 <1>   0.1500 
 37 H       -0.7970    -2.5940     2.0940 H     1 <1>   0.1500 
 38 H       -5.0130    -3.9060     0.2940 H     1 <1>   0.0800 
 39 H       -4.8390    -2.6120     1.4710 H     1 <1>   0.0800 
 40 H       -2.1750     6.2850    -1.1470 H     1 <1>   0.0800 
 41 H       -3.5290     5.9460    -0.0970 H     1 <1>   0.0800 
 42 H        1.1590    -2.1530    -2.3970 H     1 <1>   0.1500 
 43 H        1.4730    -3.4010     1.6620 H     1 <1>   0.1500 
 44 H       -2.9730    -4.6780     0.9280 H     1 <1>   0.4000 
 45 H       -2.0440     6.2280     1.8860 H     1 <1>   0.0800 
 46 H       -0.7040     6.5750     0.8200 H     1 <1>   0.0800 
 47 H        2.4580    -3.1860    -0.5820 H     1 <1>   0.1500 
 48 H       -3.2300     8.2480     1.0530 H     1 <1>   0.0800 
 49 H       -1.8850     8.5930    -0.0130 H     1 <1>   0.0800 
 50 H       -1.6690     8.6600     1.7180 H     1 <1>   0.0800 
@<TRIPOS>BOND
  1   1   2  2   
  2   2   3  am  
  3   2   4  1   
  4   3   5  1   
  5   3   6  1   
  6   4   7  1   
  7   4   8  2   
  8   5   9  1   
  9   5  10  1   
 10   5  26  1   
 11   6  11  1   
 12   6  27  1   
 13   6  28  1   
 14   7  12  2   
 15   7  13  1   
 16   8  14  1   
 17   8  29  1   
 18   9  15  ar  
 19   9  16  ar  
 20  10  17  1   
 21  10  18  1   
 22  10  30  1   
 23  11  17  1   
 24  11  31  1   
 25  11  32  1   
 26  12  14  1   
 27  13  33  1   
 28  13  34  1   
 29  13  35  1   
 30  14  19  1   
 31  15  20  ar  
 32  15  36  1   
 33  16  21  ar  
 34  16  37  1   
 35  18  22  1   
 36  18  38  1   
 37  18  39  1   
 38  19  23  1   
 39  19  40  1   
 40  19  41  1   
 41  20  24  ar  
 42  20  42  1   
 43  21  24  ar  
 44  21  43  1   
 45  22  44  1   
 46  23  25  1   
 47  23  45  1   
 48  23  46  1   
 49  24  47  1   
 50  25  48  1   
 51  25  49  1   
 52  25  50  1   
@<TRIPOS>SUBSTRUCTURE
  1 ****   3 GROUP 4 **** **** 0

# MOE 2024.06 (io_trps.svl 2023.06)
