@<TRIPOS>MOLECULE
NONAME
45 46 1 0 0 
SMALL
USER_CHARGES


@<TRIPOS>ATOM
  1 S        0.9690    -1.3130     2.2250 S.o2  1 <1>   1.4470 
  2 O        2.0870    -2.2290     2.2600 O.2   1 <1>  -0.6500 
  3 O        0.5960    -0.5850     3.4120 O.2   1 <1>  -0.6500 
  4 N       -0.3870    -2.2280     1.8550 N.am  1 <1>  -0.9140 
  5 C        1.0880    -0.2000     0.7980 C.ar  1 <1>  -0.0090 
  6 C       -0.1350    -3.3620     0.9750 C.3   1 <1>   0.2760 
  7 C        2.2050    -0.2000    -0.0290 C.ar  1 <1>  -0.1500 
  8 C        0.0520     0.6710     0.4880 C.ar  1 <1>  -0.1500 
  9 C       -1.4420    -3.8060     0.3330 C.3   1 <1>  -0.0800 
 10 C        0.1950    -4.6030     1.8010 C.3   1 <1>   0.1200 
 11 C        2.2820     0.6350    -1.1300 C.ar  1 <1>  -0.1500 
 12 C        0.1220     1.5090    -0.6120 C.ar  1 <1>  -0.1500 
 13 C       -2.0510    -4.7400     1.3890 C.3   1 <1>   0.1200 
 14 C       -2.3740    -2.6590    -0.1090 C.3   1 <1>  -0.0550 
 15 O       -1.0330    -5.0250     2.3050 O.3   1 <1>  -0.5600 
 16 C        1.2390     1.4930    -1.4290 C.ar  1 <1>  -0.1430 
 17 S       -3.7990    -3.2310    -1.0280 S.o2  1 <1>   1.3330 
 18 C        1.3170     2.4150    -2.6330 C.3   1 <1>  -0.0960 
 19 O       -4.6730    -3.9670    -0.1410 O.2   1 <1>  -0.6500 
 20 O       -3.3110    -3.8600    -2.2340 O.2   1 <1>  -0.6500 
 21 N       -4.5840    -1.7880    -1.4560 N.am  1 <1>  -0.8490 
 22 C       -5.4300    -1.2470    -0.3870 C.3   1 <1>   0.1160 
 23 C       -5.3680    -1.9300    -2.6880 C.3   1 <1>   0.1160 
 24 H       -0.6740    -2.6330     2.7490 H     1 <1>   0.4200 
 25 H        0.6180    -3.1330     0.2390 H     1 <1>   0.0800 
 26 H        3.0270    -0.8620     0.1880 H     1 <1>   0.1500 
 27 H       -0.8220     0.6940     1.1170 H     1 <1>   0.1500 
 28 H       -1.2030    -4.4030    -0.5300 H     1 <1>   0.0800 
 29 H        0.8750    -4.4160     2.6130 H     1 <1>   0.0800 
 30 H        0.5850    -5.3880     1.1750 H     1 <1>   0.0800 
 31 H        3.1610     0.6160    -1.7520 H     1 <1>   0.1500 
 32 H       -0.6960     2.1750    -0.8280 H     1 <1>   0.1500 
 33 H       -2.3990    -5.6620     0.9540 H     1 <1>   0.0800 
 34 H       -2.8550    -4.2710     1.9300 H     1 <1>   0.0800 
 35 H       -1.8160    -1.9830    -0.7290 H     1 <1>   0.0800 
 36 H       -2.7060    -2.1120     0.7510 H     1 <1>   0.0800 
 37 H        2.0010     2.0260    -3.3660 H     1 <1>   0.0800 
 38 H        1.6570     3.3870    -2.3250 H     1 <1>   0.0800 
 39 H        0.3500     2.5140    -3.0920 H     1 <1>   0.0800 
 40 H       -5.8330    -0.2930    -0.6820 H     1 <1>   0.0800 
 41 H       -4.8530    -1.1080     0.5100 H     1 <1>   0.0800 
 42 H       -6.2450    -1.9200    -0.1730 H     1 <1>   0.0800 
 43 H       -5.8380    -0.9950    -2.9420 H     1 <1>   0.0800 
 44 H       -6.1250    -2.6870    -2.5650 H     1 <1>   0.0800 
 45 H       -4.7240    -2.2140    -3.5040 H     1 <1>   0.0800 
@<TRIPOS>BOND
  1   1   2  2   
  2   1   3  2   
  3   1   4  am  
  4   1   5  1   
  5   4   6  1   
  6   4  24  1   
  7   5   7  ar  
  8   5   8  ar  
  9   6   9  1   
 10   6  10  1   
 11   6  25  1   
 12   7  11  ar  
 13   7  26  1   
 14   8  12  ar  
 15   8  27  1   
 16   9  13  1   
 17   9  14  1   
 18   9  28  1   
 19  10  15  1   
 20  10  29  1   
 21  10  30  1   
 22  11  16  ar  
 23  11  31  1   
 24  12  16  ar  
 25  12  32  1   
 26  13  15  1   
 27  13  33  1   
 28  13  34  1   
 29  14  17  1   
 30  14  35  1   
 31  14  36  1   
 32  16  18  1   
 33  17  19  2   
 34  17  20  2   
 35  17  21  am  
 36  18  37  1   
 37  18  38  1   
 38  18  39  1   
 39  21  22  1   
 40  21  23  1   
 41  22  40  1   
 42  22  41  1   
 43  22  42  1   
 44  23  43  1   
 45  23  44  1   
 46  23  45  1   
@<TRIPOS>SUBSTRUCTURE
  1 ****  14 GROUP 4 **** **** 0

# MOE 2024.06 (io_trps.svl 2023.06)
