@<TRIPOS>MOLECULE
NONAME
47 50 1 0 0 
SMALL
USER_CHARGES


@<TRIPOS>ATOM
  1 CL       1.4180    -0.5590    -0.4180 Cl    1 <1>  -0.1770 
  2 C        0.6300    -2.0970    -0.1860 C.ar  1 <1>   0.1770 
  3 C        0.1930    -2.4640     1.0560 C.ar  1 <1>  -0.1500 
  4 C        0.4610    -2.9320    -1.2920 C.ar  1 <1>  -0.1500 
  5 C       -0.4440    -3.7070     1.2430 C.ar  1 <1>   0.0000 
  6 C       -0.1570    -4.1440    -1.1260 C.ar  1 <1>  -0.1500 
  7 C       -0.6250    -4.5630     0.1330 C.ar  1 <1>   0.3100 
  8 C       -0.9110    -4.1430     2.4930 C.ar  1 <1>  -0.1500 
  9 N       -1.2380    -5.7730     0.2360 N.ar  1 <1>  -0.6200 
 10 C       -1.5140    -5.3610     2.5720 C.ar  1 <1>  -0.1500 
 11 C       -1.6560    -6.1450     1.4150 C.ar  1 <1>   0.1670 
 12 C       -2.3480    -7.5060     1.5320 C.3   1 <1>   0.4870 
 13 N       -2.9420    -7.8820     0.2080 N.4   1 <1>  -0.9590 
 14 C       -4.4020    -7.6160     0.1120 C.3   1 <1>   0.4230 
 15 C       -2.5540    -9.2690    -0.1870 C.3   1 <1>   0.2630 
 16 C       -4.9310    -7.8650    -1.2980 C.3   1 <1>  -0.1600 
 17 C       -4.7540    -6.1530     0.3760 C.3   1 <1>  -0.1600 
 18 C       -6.2080    -7.0220    -1.4030 C.3   1 <1>  -0.0800 
 19 C       -6.0980    -5.9320    -0.3250 C.3   1 <1>  -0.0800 
 20 C       -7.4950    -7.8050    -1.0990 C.3   1 <1>  -0.1600 
 21 C       -7.3150    -6.1080     0.5950 C.3   1 <1>  -0.1600 
 22 C       -8.3300    -6.8510    -0.2590 C.3   1 <1>   0.2000 
 23 O       -9.2060    -7.5520     0.5370 O.3   1 <1>  -0.6800 
 24 H        0.3340    -1.8060     1.8940 H     1 <1>   0.1500 
 25 H        0.8220    -2.6050    -2.2520 H     1 <1>   0.1500 
 26 H       -0.2960    -4.8040    -1.9620 H     1 <1>   0.1500 
 27 H       -0.7830    -3.5130     3.3570 H     1 <1>   0.1500 
 28 H       -1.8800    -5.7230     3.5180 H     1 <1>   0.1500 
 29 H       -3.1110    -7.4700     2.2910 H     1 <1>   0.0800 
 30 H       -1.6080    -8.2330     1.8230 H     1 <1>   0.0800 
 31 H       -2.4680    -7.2100    -0.4290 H     1 <1>   0.4500 
 32 H       -4.9480    -8.2390     0.8040 H     1 <1>   0.0800 
 33 H       -3.0110    -9.9900     0.4720 H     1 <1>   0.0800 
 34 H       -1.4830    -9.3850    -0.1410 H     1 <1>   0.0800 
 35 H       -2.8720    -9.4740    -1.1960 H     1 <1>   0.0800 
 36 H       -4.2250    -7.4970    -2.0220 H     1 <1>   0.0800 
 37 H       -5.1260    -8.9060    -1.4860 H     1 <1>   0.0800 
 38 H       -4.8090    -5.9220     1.4250 H     1 <1>   0.0800 
 39 H       -4.0280    -5.5110    -0.0940 H     1 <1>   0.0800 
 40 H       -6.2870    -6.5700    -2.3790 H     1 <1>   0.0800 
 41 H       -6.1340    -4.9560    -0.7820 H     1 <1>   0.0800 
 42 H       -7.2760    -8.6910    -0.5310 H     1 <1>   0.0800 
 43 H       -8.0130    -8.0750    -2.0020 H     1 <1>   0.0800 
 44 H       -7.7040    -5.1570     0.9170 H     1 <1>   0.0800 
 45 H       -7.0590    -6.7020     1.4550 H     1 <1>   0.0800 
 46 H       -8.8880    -6.1700    -0.8810 H     1 <1>   0.0800 
 47 H       -8.7330    -8.1840     1.1070 H     1 <1>   0.4000 
@<TRIPOS>BOND
  1   1   2  1   
  2   2   3  ar  
  3   2   4  ar  
  4   3   5  ar  
  5   3  24  1   
  6   4   6  ar  
  7   4  25  1   
  8   5   7  ar  
  9   5   8  ar  
 10   6   7  ar  
 11   6  26  1   
 12   7   9  ar  
 13   8  10  ar  
 14   8  27  1   
 15   9  11  ar  
 16  10  11  ar  
 17  10  28  1   
 18  11  12  1   
 19  12  13  1   
 20  12  29  1   
 21  12  30  1   
 22  13  14  1   
 23  13  15  1   
 24  13  31  1   
 25  14  16  1   
 26  14  17  1   
 27  14  32  1   
 28  15  33  1   
 29  15  34  1   
 30  15  35  1   
 31  16  18  1   
 32  16  36  1   
 33  16  37  1   
 34  17  19  1   
 35  17  38  1   
 36  17  39  1   
 37  18  19  1   
 38  18  20  1   
 39  18  40  1   
 40  19  21  1   
 41  19  41  1   
 42  20  22  1   
 43  20  42  1   
 44  20  43  1   
 45  21  22  1   
 46  21  44  1   
 47  21  45  1   
 48  22  23  1   
 49  22  46  1   
 50  23  47  1   
@<TRIPOS>SUBSTRUCTURE
  1 ****  17 GROUP 4 **** **** 0

# MOE 2024.06 (io_trps.svl 2023.06)
