@<TRIPOS>MOLECULE
NONAME
51 53 1 0 0 
SMALL
USER_CHARGES


@<TRIPOS>ATOM
  1 F       -1.2950    -0.6180     0.9430 F     1 <1>  -0.1900 
  2 C       -1.6270    -1.4460    -0.0160 C.ar  1 <1>   0.1900 
  3 C       -1.9470    -2.7840     0.2460 C.ar  1 <1>   0.0820 
  4 C       -1.6540    -0.9200    -1.2930 C.ar  1 <1>  -0.1500 
  5 O       -1.9250    -3.3910     1.4690 O.3   1 <1>  -0.3630 
  6 C       -2.3230    -3.5860    -0.8300 C.ar  1 <1>  -0.1440 
  7 C       -2.0110    -1.7360    -2.3500 C.ar  1 <1>  -0.1500 
  8 C       -1.2780    -2.8310     2.5940 C.3   1 <1>   0.0400 
  9 C       -2.3410    -3.0610    -2.1170 C.ar  1 <1>  -0.1500 
 10 C       -2.6920    -5.0450    -0.5980 C.3   1 <1>   0.4870 
 11 N       -4.1520    -5.2080    -0.4060 N.4   1 <1>  -0.9590 
 12 C       -5.0080    -4.7590    -1.5450 C.3   1 <1>   0.3430 
 13 C       -4.6470    -4.6910     0.9100 C.3   1 <1>   0.3430 
 14 C       -6.4450    -5.3220    -1.4260 C.3   1 <1>   0.2000 
 15 C       -6.1880    -4.6400     0.9560 C.3   1 <1>  -0.1600 
 16 O       -6.5650    -6.4200    -2.2630 O.3   1 <1>  -0.6800 
 17 C       -6.8260    -5.7150     0.0350 C.3   1 <1>  -0.1060 
 18 C       -6.2160    -7.0660     0.4540 C.2   1 <1>   0.9060 
 19 C       -8.3630    -5.7970     0.2150 C.3   1 <1>  -0.0170 
 20 O       -6.4220    -7.4830     1.5900 O.co2 1 <1>  -0.9000 
 21 O       -5.3780    -7.6080    -0.2880 O.co2 1 <1>  -0.9000 
 22 C       -9.1100    -4.5070    -0.1150 C.ar  1 <1>  -0.1430 
 23 C       -9.6290    -4.3050    -1.3850 C.ar  1 <1>  -0.1500 
 24 C       -9.2920    -3.5320     0.8530 C.ar  1 <1>  -0.1500 
 25 C      -10.3030    -3.1350    -1.6890 C.ar  1 <1>  -0.1500 
 26 C       -9.9650    -2.3600     0.5510 C.ar  1 <1>  -0.1500 
 27 C      -10.4690    -2.1600    -0.7220 C.ar  1 <1>  -0.1500 
 28 H       -1.3980     0.1130    -1.4550 H     1 <1>   0.1500 
 29 H       -2.0300    -1.3400    -3.3520 H     1 <1>   0.1500 
 30 H       -1.2520    -3.5730     3.3720 H     1 <1>   0.0800 
 31 H       -1.8360    -1.9750     2.9310 H     1 <1>   0.0800 
 32 H       -0.2740    -2.5530     2.3230 H     1 <1>   0.0800 
 33 H       -2.6090    -3.6810    -2.9570 H     1 <1>   0.1500 
 34 H       -2.1710    -5.4170     0.2690 H     1 <1>   0.0800 
 35 H       -2.3760    -5.6300    -1.4460 H     1 <1>   0.0800 
 36 H       -4.3340    -6.2460    -0.3610 H     1 <1>   0.4500 
 37 H       -5.0540    -3.6830    -1.5360 H     1 <1>   0.0800 
 38 H       -4.5890    -5.0760    -2.4840 H     1 <1>   0.0800 
 39 H       -4.2970    -5.3460     1.6930 H     1 <1>   0.0800 
 40 H       -4.2560    -3.7050     1.0980 H     1 <1>   0.0800 
 41 H       -7.1080    -4.5710    -1.8120 H     1 <1>   0.0800 
 42 H       -6.5000    -4.7970     1.9740 H     1 <1>   0.0800 
 43 H       -6.5140    -3.6570     0.6680 H     1 <1>   0.0800 
 44 H       -6.1390    -7.1910    -1.7850 H     1 <1>   0.4000 
 45 H       -8.7420    -6.5910    -0.4050 H     1 <1>   0.0800 
 46 H       -8.5860    -6.0740     1.2320 H     1 <1>   0.0800 
 47 H       -9.5080    -5.0610    -2.1420 H     1 <1>   0.1500 
 48 H       -8.9130    -3.6840     1.8490 H     1 <1>   0.1500 
 49 H      -10.7000    -2.9850    -2.6780 H     1 <1>   0.1500 
 50 H      -10.1000    -1.6070     1.3080 H     1 <1>   0.1500 
 51 H      -10.9930    -1.2500    -0.9570 H     1 <1>   0.1500 
@<TRIPOS>BOND
  1   1   2  1   
  2   2   3  ar  
  3   2   4  ar  
  4   3   5  1   
  5   3   6  ar  
  6   4   7  ar  
  7   4  28  1   
  8   5   8  1   
  9   6   9  ar  
 10   6  10  1   
 11   7   9  ar  
 12   7  29  1   
 13   8  30  1   
 14   8  31  1   
 15   8  32  1   
 16   9  33  1   
 17  10  11  1   
 18  10  34  1   
 19  10  35  1   
 20  11  12  1   
 21  11  13  1   
 22  11  36  1   
 23  12  14  1   
 24  12  37  1   
 25  12  38  1   
 26  13  15  1   
 27  13  39  1   
 28  13  40  1   
 29  14  16  1   
 30  14  17  1   
 31  14  41  1   
 32  15  17  1   
 33  15  42  1   
 34  15  43  1   
 35  16  44  1   
 36  17  18  1   
 37  17  19  1   
 38  18  20  ar  
 39  18  21  ar  
 40  19  22  1   
 41  19  45  1   
 42  19  46  1   
 43  22  23  ar  
 44  22  24  ar  
 45  23  25  ar  
 46  23  47  1   
 47  24  26  ar  
 48  24  48  1   
 49  25  27  ar  
 50  25  49  1   
 51  26  27  ar  
 52  26  50  1   
 53  27  51  1   
@<TRIPOS>SUBSTRUCTURE
  1 ****  13 GROUP 4 **** **** 0

# MOE 2024.06 (io_trps.svl 2023.06)
