@<TRIPOS>MOLECULE
NONAME
44 46 1 0 0 
SMALL
USER_CHARGES


@<TRIPOS>ATOM
  1 CL       1.2370     1.2930     2.6070 Cl    1 <1>  -0.1230 
  2 C        1.6910     2.8150     1.8750 C.2   1 <1>   0.4120 
  3 N        2.5890     3.5990     2.3520 N.2   1 <1>  -0.4100 
  4 C        1.1180     3.3070     0.7100 C.2   1 <1>  -0.1500 
  5 O        2.6220     4.6070     1.5280 O.3   1 <1>  -0.0190 
  6 C        1.7690     4.4690     0.5410 C.2   1 <1>  -0.0400 
  7 C        1.6810     5.5520    -0.5170 C.3   1 <1>   0.0200 
  8 C        2.9990     5.6520    -1.2990 C.3   1 <1>  -0.0990 
  9 C        3.2820     7.0780    -1.7280 C.2   1 <1>   0.5690 
 10 O        2.9130     7.3970    -2.8300 O.2   1 <1>  -0.5700 
 11 N        3.9320     7.9670    -0.9050 N.am  1 <1>  -0.6600 
 12 C        4.2400     7.6990     0.5530 C.3   1 <1>   0.2200 
 13 C        4.3170     9.2950    -1.4900 C.3   1 <1>   0.1400 
 14 C        3.7080     8.8050     1.4790 C.3   1 <1>   0.1200 
 15 C        5.7460     7.4410     0.7980 C.3   1 <1>   0.3430 
 16 C        5.3190    10.1330    -0.6740 C.3   1 <1>  -0.0800 
 17 O        4.6410     9.8290     1.6280 O.3   1 <1>  -0.5600 
 18 N        6.6160     7.9620    -0.2990 N.4   1 <1>  -0.9590 
 19 C        4.6990    10.7470     0.5890 C.3   1 <1>   0.1200 
 20 C        6.6750     9.4570    -0.3990 C.3   1 <1>   0.3430 
 21 C        8.0320     7.4070    -0.2270 C.3   1 <1>   0.2370 
 22 C        8.9470     7.8200    -1.3840 C.2   1 <1>   0.9060 
 23 O        9.4540     8.9450    -1.3430 O.co2 1 <1>  -0.9000 
 24 O        9.0390     7.0620    -2.3490 O.co2 1 <1>  -0.9000 
 25 H        0.3490     2.8320     0.1290 H     1 <1>   0.1500 
 26 H        0.8730     5.3450    -1.1970 H     1 <1>   0.0800 
 27 H        1.4620     6.4850    -0.0260 H     1 <1>   0.0800 
 28 H        2.9330     5.0320    -2.1760 H     1 <1>   0.0800 
 29 H        3.8290     5.2840    -0.7270 H     1 <1>   0.0800 
 30 H        3.7210     6.8150     0.8640 H     1 <1>   0.0800 
 31 H        4.7400     9.1230    -2.4670 H     1 <1>   0.0800 
 32 H        3.4180     9.8690    -1.6400 H     1 <1>   0.0800 
 33 H        3.5510     8.3940     2.4620 H     1 <1>   0.0800 
 34 H        2.7710     9.2030     1.1280 H     1 <1>   0.0800 
 35 H        5.8910     6.3770     0.8790 H     1 <1>   0.0800 
 36 H        6.0390     7.8790     1.7380 H     1 <1>   0.0800 
 37 H        5.5490    10.9800    -1.2950 H     1 <1>   0.0800 
 38 H        6.2190     7.6400    -1.1970 H     1 <1>   0.4500 
 39 H        3.7100    11.1320     0.4000 H     1 <1>   0.0800 
 40 H        5.3130    11.5630     0.9310 H     1 <1>   0.0800 
 41 H        7.1040     9.8650     0.5010 H     1 <1>   0.0800 
 42 H        7.3360     9.7190    -1.2100 H     1 <1>   0.0800 
 43 H        8.5060     7.7360     0.6790 H     1 <1>   0.0800 
 44 H        8.0030     6.3330    -0.2260 H     1 <1>   0.0800 
@<TRIPOS>BOND
  1   1   2  1   
  2   2   3  2   
  3   2   4  1   
  4   3   5  1   
  5   4   6  2   
  6   4  25  1   
  7   5   6  1   
  8   6   7  1   
  9   7   8  1   
 10   7  26  1   
 11   7  27  1   
 12   8   9  1   
 13   8  28  1   
 14   8  29  1   
 15   9  10  2   
 16   9  11  am  
 17  11  12  1   
 18  11  13  1   
 19  12  14  1   
 20  12  15  1   
 21  12  30  1   
 22  13  16  1   
 23  13  31  1   
 24  13  32  1   
 25  14  17  1   
 26  14  33  1   
 27  14  34  1   
 28  15  18  1   
 29  15  35  1   
 30  15  36  1   
 31  16  19  1   
 32  16  20  1   
 33  16  37  1   
 34  17  19  1   
 35  18  20  1   
 36  18  21  1   
 37  18  38  1   
 38  19  39  1   
 39  19  40  1   
 40  20  41  1   
 41  20  42  1   
 42  21  22  1   
 43  21  43  1   
 44  21  44  1   
 45  22  23  ar  
 46  22  24  ar  
@<TRIPOS>SUBSTRUCTURE
  1 ****  12 GROUP 4 **** **** 0

# MOE 2024.06 (io_trps.svl 2023.06)
