@<TRIPOS>MOLECULE
NONAME
33 34 1 0 0 
SMALL
USER_CHARGES


@<TRIPOS>ATOM
  1 CL      -0.6370    -0.8980     0.8570 Cl    1 <1>  -0.1770 
  2 C        0.6970    -1.8120     0.1750 C.ar  1 <1>   0.1770 
  3 C        0.8540    -3.1650     0.4520 C.ar  1 <1>   0.4100 
  4 C        1.6070    -1.2080    -0.6460 C.ar  1 <1>   0.1600 
  5 N        1.8590    -3.8420    -0.0730 N.ar  1 <1>  -0.6200 
  6 N       -0.0240    -3.8480     1.2590 N.pl3 1 <1>  -0.8690 
  7 N        2.6180    -1.8780    -1.1750 N.ar  1 <1>  -0.6200 
  8 C        2.6820    -3.1590    -0.8500 C.ar  1 <1>   0.4770 
  9 C        0.1340    -5.2260     1.7580 C.3   1 <1>   0.4690 
 10 C        3.8340    -3.9300    -1.4470 C.3   1 <1>  -0.0960 
 11 C       -1.1090    -6.0380     1.3970 C.2   1 <1>   0.0060 
 12 C        0.3700    -5.1330     3.2630 C.3   1 <1>  -0.2400 
 13 N       -1.9790    -6.5120     2.2250 N.2   1 <1>  -0.5650 
 14 N       -1.4290    -6.3570     0.1320 N.pl3 1 <1>   0.3140 
 15 C       -2.8300    -7.1320     1.4010 C.2   1 <1>   0.3660 
 16 N       -2.5450    -7.0750     0.1450 N.2   1 <1>  -0.7070 
 17 C       -0.7340    -6.0370    -1.1370 C.3   1 <1>   0.0960 
 18 C       -1.4130    -4.8710    -1.8680 C.3   1 <1>  -0.2400 
 19 H        1.5110    -0.1620    -0.8790 H     1 <1>   0.1500 
 20 H       -0.8080    -3.3450     1.6830 H     1 <1>   0.4000 
 21 H        0.9930    -5.6960     1.3100 H     1 <1>   0.0800 
 22 H        3.9850    -4.8530    -0.9190 H     1 <1>   0.0800 
 23 H        4.7330    -3.3450    -1.3870 H     1 <1>   0.0800 
 24 H        3.6230    -4.1440    -2.4780 H     1 <1>   0.0800 
 25 H       -0.4720    -4.6710     3.7470 H     1 <1>   0.0800 
 26 H        1.2600    -4.5640     3.4620 H     1 <1>   0.0800 
 27 H        0.4950    -6.1200     3.6680 H     1 <1>   0.0800 
 28 H       -3.6960    -7.6460     1.7880 H     1 <1>   0.1500 
 29 H       -0.7580    -6.9140    -1.7570 H     1 <1>   0.0800 
 30 H        0.2920    -5.7980    -0.9310 H     1 <1>   0.0800 
 31 H       -2.4280    -5.1310    -2.1140 H     1 <1>   0.0800 
 32 H       -0.8840    -4.6540    -2.7780 H     1 <1>   0.0800 
 33 H       -1.4130    -3.9900    -1.2530 H     1 <1>   0.0800 
@<TRIPOS>BOND
  1   1   2  1   
  2   2   3  ar  
  3   2   4  ar  
  4   3   5  ar  
  5   3   6  1   
  6   4   7  ar  
  7   4  19  1   
  8   5   8  ar  
  9   6   9  1   
 10   6  20  1   
 11   7   8  ar  
 12   8  10  1   
 13   9  11  1   
 14   9  12  1   
 15   9  21  1   
 16  10  22  1   
 17  10  23  1   
 18  10  24  1   
 19  11  13  2   
 20  11  14  1   
 21  12  25  1   
 22  12  26  1   
 23  12  27  1   
 24  13  15  1   
 25  14  16  1   
 26  14  17  1   
 27  15  16  2   
 28  15  28  1   
 29  17  18  1   
 30  17  29  1   
 31  17  30  1   
 32  18  31  1   
 33  18  32  1   
 34  18  33  1   
@<TRIPOS>SUBSTRUCTURE
  1 ****   6 GROUP 4 **** **** 0

# MOE 2024.06 (io_trps.svl 2023.06)
