@<TRIPOS>MOLECULE
NONAME
56 59 1 0 0 
SMALL
USER_CHARGES


@<TRIPOS>ATOM
  1 O        0.9770    -2.1510    -0.7650 O.3   1 <1>  -0.5600 
  2 C        0.2370    -2.6560     0.3210 C.3   1 <1>   0.2800 
  3 C        1.0510    -0.7580    -0.9100 C.3   1 <1>   0.1200 
  4 C       -1.1980    -2.0870     0.2850 C.3   1 <1>  -0.1600 
  5 C        1.0030    -2.3980     1.6390 C.3   1 <1>  -0.1600 
  6 C        0.1900    -4.1830     0.1150 C.3   1 <1>  -0.1600 
  7 C       -0.3500    -0.1850    -1.1110 C.3   1 <1>  -0.1600 
  8 C       -1.2780    -0.5750     0.0420 C.3   1 <1>   0.2800 
  9 C        2.4250    -2.9710     1.6360 C.3   1 <1>   0.3430 
 10 C        1.5160    -4.9050     0.3990 C.3   1 <1>   0.3430 
 11 O       -0.8370     0.0730     1.1740 O.3   1 <1>  -0.6800 
 12 C       -2.7280    -0.0990    -0.2030 C.3   1 <1>   0.1200 
 13 N        2.6100    -3.9120     0.4940 N.4   1 <1>  -0.9590 
 14 O       -2.8060     1.2960    -0.1300 O.3   1 <1>  -0.6800 
 15 C        3.9770    -4.4770     0.3970 C.3   1 <1>   0.4860 
 16 C        4.9650    -3.3340     0.2500 C.ar  1 <1>  -0.1440 
 17 C        4.9740    -2.5520    -0.8970 C.ar  1 <1>  -0.1500 
 18 C        5.8660    -3.0510     1.2660 C.ar  1 <1>  -0.1500 
 19 C        5.8660    -1.5030    -1.0190 C.ar  1 <1>  -0.1500 
 20 C        6.7560    -2.0000     1.1350 C.ar  1 <1>  -0.1500 
 21 C        6.7740    -1.2070    -0.0070 C.ar  1 <1>   0.0000 
 22 C        7.7100    -0.1130    -0.1420 C.ar  1 <1>   0.0000 
 23 C        8.5880    -0.0390    -1.2220 C.ar  1 <1>   0.1600 
 24 C        7.7740     0.9050     0.7980 C.ar  1 <1>  -0.1500 
 25 N        9.4750     0.9190    -1.4370 N.ar  1 <1>  -0.6200 
 26 C        8.6930     1.9120     0.5970 C.ar  1 <1>  -0.1500 
 27 C        9.5080     1.8730    -0.5210 C.ar  1 <1>   0.1600 
 28 H        1.6620    -0.5490    -1.7720 H     1 <1>   0.0800 
 29 H        1.5250    -0.3300    -0.0440 H     1 <1>   0.0800 
 30 H       -1.7190    -2.3340     1.1920 H     1 <1>   0.0800 
 31 H       -1.7240    -2.5700    -0.5190 H     1 <1>   0.0800 
 32 H        0.4570    -2.8500     2.4470 H     1 <1>   0.0800 
 33 H        1.0570    -1.3540     1.8730 H     1 <1>   0.0800 
 34 H       -0.1200    -4.3950    -0.8940 H     1 <1>   0.0800 
 35 H       -0.5560    -4.6090     0.7620 H     1 <1>   0.0800 
 36 H       -0.7430    -0.5630    -2.0370 H     1 <1>   0.0800 
 37 H       -0.2990     0.8860    -1.1970 H     1 <1>   0.0800 
 38 H        2.6210    -3.4690     2.5710 H     1 <1>   0.0800 
 39 H        3.1250    -2.1550     1.5360 H     1 <1>   0.0800 
 40 H        1.7150    -5.6070    -0.3940 H     1 <1>   0.0800 
 41 H        1.4420    -5.4500     1.3270 H     1 <1>   0.0800 
 42 H       -1.2350     0.9730     1.1340 H     1 <1>   0.4000 
 43 H       -3.3840    -0.5110     0.5450 H     1 <1>   0.0800 
 44 H       -3.0680    -0.4100    -1.1750 H     1 <1>   0.0800 
 45 H        2.4680    -3.2970    -0.3310 H     1 <1>   0.4500 
 46 H       -3.7220     1.6010    -0.2920 H     1 <1>   0.4000 
 47 H        4.0510    -5.1230    -0.4630 H     1 <1>   0.0800 
 48 H        4.2060    -5.0520     1.2800 H     1 <1>   0.0800 
 49 H        4.2900    -2.7490    -1.7060 H     1 <1>   0.1500 
 50 H        5.8900    -3.6420     2.1650 H     1 <1>   0.1500 
 51 H        5.8600    -0.9000    -1.9110 H     1 <1>   0.1500 
 52 H        7.4560    -1.7910     1.9260 H     1 <1>   0.1500 
 53 H        8.5520    -0.8290    -1.9520 H     1 <1>   0.1500 
 54 H        7.1230     0.9080     1.6540 H     1 <1>   0.1500 
 55 H        8.7810     2.7230     1.2970 H     1 <1>   0.1500 
 56 H       10.2220     2.6660    -0.6700 H     1 <1>   0.1500 
@<TRIPOS>BOND
  1   1   2  1   
  2   1   3  1   
  3   2   4  1   
  4   2   5  1   
  5   2   6  1   
  6   3   7  1   
  7   3  28  1   
  8   3  29  1   
  9   4   8  1   
 10   4  30  1   
 11   4  31  1   
 12   5   9  1   
 13   5  32  1   
 14   5  33  1   
 15   6  10  1   
 16   6  34  1   
 17   6  35  1   
 18   7   8  1   
 19   7  36  1   
 20   7  37  1   
 21   8  11  1   
 22   8  12  1   
 23   9  13  1   
 24   9  38  1   
 25   9  39  1   
 26  10  13  1   
 27  10  40  1   
 28  10  41  1   
 29  11  42  1   
 30  12  14  1   
 31  12  43  1   
 32  12  44  1   
 33  13  15  1   
 34  13  45  1   
 35  14  46  1   
 36  15  16  1   
 37  15  47  1   
 38  15  48  1   
 39  16  17  ar  
 40  16  18  ar  
 41  17  19  ar  
 42  17  49  1   
 43  18  20  ar  
 44  18  50  1   
 45  19  21  ar  
 46  19  51  1   
 47  20  21  ar  
 48  20  52  1   
 49  21  22  1   
 50  22  23  ar  
 51  22  24  ar  
 52  23  25  ar  
 53  23  53  1   
 54  24  26  ar  
 55  24  54  1   
 56  25  27  ar  
 57  26  27  ar  
 58  26  55  1   
 59  27  56  1   
@<TRIPOS>SUBSTRUCTURE
  1 ****  17 GROUP 4 **** **** 0

# MOE 2024.06 (io_trps.svl 2023.06)
