@<TRIPOS>MOLECULE
NONAME
43 45 1 0 0 
SMALL
USER_CHARGES


@<TRIPOS>ATOM
  1 S       -0.2240     1.4730     0.0110 S.o2  1 <1>   1.3330 
  2 O       -0.5370     0.4450    -0.9530 O.2   1 <1>  -0.6500 
  3 O       -1.1950     2.4780     0.3650 O.2   1 <1>  -0.6500 
  4 N        1.1600     2.2660    -0.5850 N.am  1 <1>  -0.8490 
  5 C        0.3360     0.7190     1.5250 C.3   1 <1>  -0.1350 
  6 C        2.0920     1.2930    -1.2200 C.3   1 <1>   0.1960 
  7 C        0.7530     3.2990    -1.5680 C.3   1 <1>   0.1960 
  8 C        3.5750     1.7180    -1.1310 C.3   1 <1>   0.3430 
  9 C        1.7900     4.4180    -1.7330 C.3   1 <1>  -0.1600 
 10 N        3.7210     3.1870    -0.9250 N.4   1 <1>  -0.9590 
 11 C        3.2010     3.9610    -2.0780 C.3   1 <1>   0.3430 
 12 C        5.0830     3.5960    -0.4870 C.3   1 <1>   0.5230 
 13 C        5.0030     4.9660     0.1510 C.2   1 <1>  -0.1400 
 14 S        5.2650     6.3530    -0.8920 S.3   1 <1>  -0.0800 
 15 C        4.7770     5.3760     1.4140 C.2   1 <1>  -0.1500 
 16 C        5.0380     7.4970     0.4330 C.2   1 <1>   0.0410 
 17 C        4.7950     6.7950     1.5680 C.2   1 <1>  -0.1500 
 18 C        5.1330     8.9080     0.1550 C.2   1 <1>   0.2880 
 19 N        5.2990     9.4230    -1.0400 N.2   1 <1>  -0.7070 
 20 C        5.0580     9.9190     1.1180 C.2   1 <1>  -0.1500 
 21 N        5.3350    10.7520    -0.8530 N.pl3 1 <1>   0.3000 
 22 C        5.1910    11.0780     0.4450 C.2   1 <1>  -0.3020 
 23 H       -0.4810     0.2090     1.9970 H     1 <1>   0.0800 
 24 H        0.6990     1.4700     2.1990 H     1 <1>   0.0800 
 25 H        1.1140     0.0080     1.3360 H     1 <1>   0.0800 
 26 H        1.8190     1.1310    -2.2500 H     1 <1>   0.0800 
 27 H        2.0140     0.3320    -0.7410 H     1 <1>   0.0800 
 28 H       -0.1540     3.7840    -1.2490 H     1 <1>   0.0800 
 29 H        0.5330     2.8420    -2.5200 H     1 <1>   0.0800 
 30 H        4.0970     1.4040    -2.0210 H     1 <1>   0.0800 
 31 H        4.0160     1.2000    -0.2960 H     1 <1>   0.0800 
 32 H        1.8110     5.0200    -0.8410 H     1 <1>   0.0800 
 33 H        1.4490     5.0630    -2.5230 H     1 <1>   0.0800 
 34 H        3.0660     3.4100    -0.1570 H     1 <1>   0.4500 
 35 H        3.8140     4.8280    -2.2610 H     1 <1>   0.0800 
 36 H        3.1950     3.3600    -2.9720 H     1 <1>   0.0800 
 37 H        5.7680     3.6110    -1.3190 H     1 <1>   0.0800 
 38 H        5.4500     2.8980     0.2480 H     1 <1>   0.0800 
 39 H        4.5960     4.7430     2.2670 H     1 <1>   0.1500 
 40 H        4.6240     7.2440     2.5310 H     1 <1>   0.1500 
 41 H        4.9230     9.7690     2.1740 H     1 <1>   0.1500 
 42 H        5.4610    11.4120    -1.6310 H     1 <1>   0.2700 
 43 H        5.1910    12.0920     0.8030 H     1 <1>   0.1500 
@<TRIPOS>BOND
  1   1   2  2   
  2   1   3  2   
  3   1   4  am  
  4   1   5  1   
  5   4   6  1   
  6   4   7  1   
  7   5  23  1   
  8   5  24  1   
  9   5  25  1   
 10   6   8  1   
 11   6  26  1   
 12   6  27  1   
 13   7   9  1   
 14   7  28  1   
 15   7  29  1   
 16   8  10  1   
 17   8  30  1   
 18   8  31  1   
 19   9  11  1   
 20   9  32  1   
 21   9  33  1   
 22  10  11  1   
 23  10  12  1   
 24  10  34  1   
 25  11  35  1   
 26  11  36  1   
 27  12  13  1   
 28  12  37  1   
 29  12  38  1   
 30  13  14  1   
 31  13  15  2   
 32  14  16  1   
 33  15  17  1   
 34  15  39  1   
 35  16  17  2   
 36  16  18  1   
 37  17  40  1   
 38  18  19  2   
 39  18  20  1   
 40  19  21  1   
 41  20  22  2   
 42  20  41  1   
 43  21  22  1   
 44  21  42  1   
 45  22  43  1   
@<TRIPOS>SUBSTRUCTURE
  1 ****  13 GROUP 4 **** **** 0

# MOE 2024.06 (io_trps.svl 2023.06)
