@<TRIPOS>MOLECULE
NONAME
42 44 1 0 0 
SMALL
USER_CHARGES


@<TRIPOS>ATOM
  1 CL       2.8520     1.2380    -2.1530 Cl    1 <1>  -0.1770 
  2 C        1.9280     2.5470    -1.4480 C.ar  1 <1>   0.1770 
  3 C        1.9040     2.7700    -0.0730 C.ar  1 <1>  -0.1440 
  4 C        1.2340     3.3610    -2.3250 C.ar  1 <1>  -0.1500 
  5 C        1.1720     3.8520     0.3970 C.ar  1 <1>  -0.1500 
  6 C        2.6550     1.9060     0.9400 C.3   1 <1>   0.3640 
  7 C        0.5050     4.4300    -1.8370 C.ar  1 <1>  -0.1500 
  8 C        0.4780     4.6740    -0.4750 C.ar  1 <1>  -0.1500 
  9 N        2.2280     0.4930     0.8140 N.am  1 <1>  -0.7300 
 10 C        4.1900     2.0700     0.8000 C.3   1 <1>   0.2610 
 11 C        3.0890    -0.5460     0.8880 C.2   1 <1>   0.5690 
 12 O        4.8880     1.0330     1.4700 O.3   1 <1>  -0.5600 
 13 C        4.6350     3.4600     1.2870 C.2   1 <1>   0.5690 
 14 O        2.6860    -1.6810     0.8480 O.2   1 <1>  -0.5700 
 15 C        4.5920    -0.2670     1.0010 C.3   1 <1>   0.1810 
 16 O        4.0010     3.9920     2.1720 O.2   1 <1>  -0.5700 
 17 N        5.7040     4.1000     0.7050 N.am  1 <1>  -0.6600 
 18 C        5.9220     5.5700     0.9370 C.3   1 <1>   0.2010 
 19 C        6.6650     3.4560    -0.2250 C.3   1 <1>   0.1400 
 20 C        5.3540     6.4360    -0.1890 C.2   1 <1>   0.5690 
 21 C        6.3460     3.8150    -1.6810 C.3   1 <1>  -0.1600 
 22 O        4.6180     7.3530     0.0800 O.2   1 <1>  -0.5700 
 23 N        5.6780     6.2110    -1.4880 N.am  1 <1>  -0.7300 
 24 C        6.6680     5.2680    -2.0470 C.3   1 <1>   0.1400 
 25 H        1.2680     3.1600    -3.3800 H     1 <1>   0.1500 
 26 H        1.1420     4.0730     1.4520 H     1 <1>   0.1500 
 27 H        2.3770     2.2210     1.9310 H     1 <1>   0.0800 
 28 H       -0.0360     5.0710    -2.5110 H     1 <1>   0.1500 
 29 H       -0.0800     5.5110    -0.0910 H     1 <1>   0.1500 
 30 H        1.2300     0.3010     0.7310 H     1 <1>   0.3700 
 31 H        4.4420     1.9960    -0.2380 H     1 <1>   0.0800 
 32 H        5.0480    -0.3910     0.0360 H     1 <1>   0.0800 
 33 H        5.0320    -0.9690     1.6850 H     1 <1>   0.0800 
 34 H        5.4560     5.8720     1.8580 H     1 <1>   0.0800 
 35 H        6.9730     5.7690     1.0310 H     1 <1>   0.0800 
 36 H        7.6650     3.7700     0.0220 H     1 <1>   0.0800 
 37 H        6.6350     2.3870    -0.1000 H     1 <1>   0.0800 
 38 H        6.9550     3.1850    -2.3050 H     1 <1>   0.0800 
 39 H        5.3200     3.5920    -1.9130 H     1 <1>   0.0800 
 40 H        5.2290     6.8450    -2.1540 H     1 <1>   0.3700 
 41 H        6.6600     5.3690    -3.1190 H     1 <1>   0.0800 
 42 H        7.6530     5.5340    -1.6980 H     1 <1>   0.0800 
@<TRIPOS>BOND
  1   1   2  1   
  2   2   3  ar  
  3   2   4  ar  
  4   3   5  ar  
  5   3   6  1   
  6   4   7  ar  
  7   4  25  1   
  8   5   8  ar  
  9   5  26  1   
 10   6   9  1   
 11   6  10  1   
 12   6  27  1   
 13   7   8  ar  
 14   7  28  1   
 15   8  29  1   
 16   9  11  am  
 17   9  30  1   
 18  10  12  1   
 19  10  13  1   
 20  10  31  1   
 21  11  14  2   
 22  11  15  1   
 23  12  15  1   
 24  13  16  2   
 25  13  17  am  
 26  15  32  1   
 27  15  33  1   
 28  17  18  1   
 29  17  19  1   
 30  18  20  1   
 31  18  34  1   
 32  18  35  1   
 33  19  21  1   
 34  19  36  1   
 35  19  37  1   
 36  20  22  2   
 37  20  23  am  
 38  21  24  1   
 39  21  38  1   
 40  21  39  1   
 41  23  24  1   
 42  23  40  1   
 43  24  41  1   
 44  24  42  1   
@<TRIPOS>SUBSTRUCTURE
  1 ****  10 GROUP 4 **** **** 0

# MOE 2024.06 (io_trps.svl 2023.06)
