@<TRIPOS>MOLECULE
NONAME
56 59 1 0 0 
SMALL
USER_CHARGES


@<TRIPOS>ATOM
  1 O       -1.3300     0.0900     0.2380 O.2   1 <1>  -0.5700 
  2 C       -2.0810     0.8910    -0.2950 C.2   1 <1>   0.5440 
  3 N       -3.2480     0.3920    -0.8370 N.am  1 <1>  -0.6600 
  4 C       -1.7710     2.3110    -0.3070 C.ar  1 <1>   0.0860 
  5 C       -3.3230    -1.0480    -1.1770 C.3   1 <1>   0.1400 
  6 C       -4.5650     0.9510    -0.4150 C.3   1 <1>   0.1400 
  7 C       -2.2350     3.1590    -1.3130 C.ar  1 <1>  -0.1500 
  8 C       -0.9870     2.8880     0.6930 C.ar  1 <1>  -0.1500 
  9 C       -3.9400    -1.7000     0.0680 C.3   1 <1>   0.4230 
 10 C       -5.2610     0.0170     0.6140 C.3   1 <1>  -0.1600 
 11 C       -1.9430     4.5100    -1.3120 C.ar  1 <1>  -0.1500 
 12 C       -0.6950     4.2380     0.6940 C.ar  1 <1>  -0.1500 
 13 N       -3.3760    -3.0300     0.4970 N.4   1 <1>  -0.9590 
 14 C       -5.5250    -1.4880     0.0620 C.3   1 <1>   0.0000 
 15 C       -1.1680     5.0790    -0.3070 C.ar  1 <1>   0.0000 
 16 C       -3.4960    -4.0780    -0.5250 C.3   1 <1>   0.3430 
 17 C       -1.9640    -2.8730     0.9730 C.3   1 <1>   0.2630 
 18 C       -5.8170    -2.9520    -0.5570 C.3   1 <1>  -0.1600 
 19 C       -7.1060    -1.2380     0.1480 C.3   1 <1>   0.1200 
 20 C       -0.8610     6.4900    -0.3070 C.ar  1 <1>   0.0000 
 21 C       -4.7760    -3.8310    -1.2990 C.3   1 <1>  -0.1600 
 22 O       -7.4830    -1.3550     1.4840 O.3   1 <1>  -0.6800 
 23 C        0.4580     6.9360    -0.3110 C.ar  1 <1>  -0.1500 
 24 C       -1.8720     7.4470    -0.3020 C.ar  1 <1>  -0.1500 
 25 C        0.7580     8.2860    -0.3110 C.ar  1 <1>  -0.1500 
 26 C       -1.5790     8.7990    -0.3020 C.ar  1 <1>  -0.1500 
 27 C       -0.2620     9.2210    -0.3060 C.ar  1 <1>  -0.1500 
 28 H       -3.9440    -1.1790    -2.0440 H     1 <1>   0.0800 
 29 H       -2.3390    -1.4320    -1.3830 H     1 <1>   0.0800 
 30 H       -4.4270     1.9250     0.0260 H     1 <1>   0.0800 
 31 H       -5.1900     1.0700    -1.2850 H     1 <1>   0.0800 
 32 H       -2.8280     2.7520    -2.1130 H     1 <1>   0.1500 
 33 H       -0.6010     2.2630     1.4800 H     1 <1>   0.1500 
 34 H       -3.5240    -1.0900     0.8470 H     1 <1>   0.0800 
 35 H       -4.7090     0.0180     1.5420 H     1 <1>   0.0800 
 36 H       -6.1060     0.6070     0.9330 H     1 <1>   0.0800 
 37 H       -2.3110     5.1390    -2.1040 H     1 <1>   0.1500 
 38 H       -0.0910     4.6540     1.4830 H     1 <1>   0.1500 
 39 H       -3.9590    -3.3140     1.2970 H     1 <1>   0.4500 
 40 H       -2.6550    -4.0500    -1.2000 H     1 <1>   0.0800 
 41 H       -3.5270    -5.0460    -0.0510 H     1 <1>   0.0800 
 42 H       -1.3260    -2.5530     0.1640 H     1 <1>   0.0800 
 43 H       -1.5900    -3.8050     1.3630 H     1 <1>   0.0800 
 44 H       -1.9120    -2.1270     1.7500 H     1 <1>   0.0800 
 45 H       -6.2450    -3.5660     0.2220 H     1 <1>   0.0800 
 46 H       -6.5400    -2.8940    -1.3570 H     1 <1>   0.0800 
 47 H       -7.7890    -1.8950    -0.3630 H     1 <1>   0.0800 
 48 H       -7.4120    -0.2720    -0.2250 H     1 <1>   0.0800 
 49 H       -4.5240    -3.3780    -2.2410 H     1 <1>   0.0800 
 50 H       -5.2150    -4.7850    -1.5380 H     1 <1>   0.0800 
 51 H       -8.4430    -1.1930     1.5980 H     1 <1>   0.4000 
 52 H        1.2560     6.2140    -0.3190 H     1 <1>   0.1500 
 53 H       -2.8990     7.1260    -0.2940 H     1 <1>   0.1500 
 54 H        1.7840     8.6110    -0.3150 H     1 <1>   0.1500 
 55 H       -2.3750     9.5240    -0.2980 H     1 <1>   0.1500 
 56 H       -0.0310    10.2720    -0.3060 H     1 <1>   0.1500 
@<TRIPOS>BOND
  1   1   2  2   
  2   2   3  am  
  3   2   4  1   
  4   3   5  1   
  5   3   6  1   
  6   4   7  ar  
  7   4   8  ar  
  8   5   9  1   
  9   5  28  1   
 10   5  29  1   
 11   6  10  1   
 12   6  30  1   
 13   6  31  1   
 14   7  11  ar  
 15   7  32  1   
 16   8  12  ar  
 17   8  33  1   
 18   9  13  1   
 19   9  14  1   
 20   9  34  1   
 21  10  14  1   
 22  10  35  1   
 23  10  36  1   
 24  11  15  ar  
 25  11  37  1   
 26  12  15  ar  
 27  12  38  1   
 28  13  16  1   
 29  13  17  1   
 30  13  39  1   
 31  14  18  1   
 32  14  19  1   
 33  15  20  1   
 34  16  21  1   
 35  16  40  1   
 36  16  41  1   
 37  17  42  1   
 38  17  43  1   
 39  17  44  1   
 40  18  21  1   
 41  18  45  1   
 42  18  46  1   
 43  19  22  1   
 44  19  47  1   
 45  19  48  1   
 46  20  23  ar  
 47  20  24  ar  
 48  21  49  1   
 49  21  50  1   
 50  22  51  1   
 51  23  25  ar  
 52  23  52  1   
 53  24  26  ar  
 54  24  53  1   
 55  25  27  ar  
 56  25  54  1   
 57  26  27  ar  
 58  26  55  1   
 59  27  56  1   
@<TRIPOS>SUBSTRUCTURE
  1 ****   2 GROUP 4 **** **** 0

# MOE 2024.06 (io_trps.svl 2023.06)
