@<TRIPOS>MOLECULE
NONAME
41 42 1 0 0 
SMALL
USER_CHARGES


@<TRIPOS>ATOM
  1 F        0.8590     1.2430     2.3570 F     1 <1>  -0.1900 
  2 C        1.7490     1.4430     1.4150 C.ar  1 <1>   0.1900 
  3 C        2.0370     2.7420     1.0230 C.ar  1 <1>   0.1900 
  4 C        2.3850     0.3560     0.8340 C.ar  1 <1>  -0.1440 
  5 F        1.4190     3.7530     1.5810 F     1 <1>  -0.1900 
  6 C        2.9790     3.0010     0.0450 C.ar  1 <1>  -0.1500 
  7 C        3.3390     0.6240    -0.1470 C.ar  1 <1>   0.0830 
  8 C        2.0760    -1.0740     1.2660 C.3   1 <1>   0.2540 
  9 C        3.6340     1.9270    -0.5370 C.ar  1 <1>  -0.1500 
 10 O        4.0180    -0.3880    -0.7230 O.3   1 <1>  -0.3630 
 11 N        1.1220    -1.7590     0.3640 N.3   1 <1>  -0.8100 
 12 C        3.5110    -0.8330    -1.9600 C.3   1 <1>   0.0400 
 13 C        1.0370    -3.1860     0.7310 C.3   1 <1>   0.2900 
 14 C       -0.2030    -1.0880     0.3670 C.3   1 <1>   0.1100 
 15 C        0.8520    -4.0600    -0.4960 C.2   1 <1>  -0.3320 
 16 C       -1.1730    -1.6280    -0.6930 C.3   1 <1>   0.1200 
 17 N        0.5110    -5.3640    -0.4480 N.pl3 1 <1>   0.0480 
 18 C        0.9910    -3.7560    -1.8060 C.2   1 <1>   0.0770 
 19 O       -2.3590    -0.9080    -0.6340 O.3   1 <1>  -0.6800 
 20 C        0.4630    -5.7560    -1.7410 C.2   1 <1>   0.0360 
 21 C        0.2520    -6.1980     0.7380 C.3   1 <1>   0.0160 
 22 N        0.7430    -4.8210    -2.5880 N.2   1 <1>  -0.5650 
 23 H        3.1930     4.0130    -0.2470 H     1 <1>   0.1500 
 24 H        1.6930    -1.0820     2.2730 H     1 <1>   0.0800 
 25 H        3.0060    -1.6180     1.2730 H     1 <1>   0.0800 
 26 H        4.3810     2.0910    -1.2940 H     1 <1>   0.1500 
 27 H        3.9870    -1.7650    -2.2060 H     1 <1>   0.0800 
 28 H        3.7280    -0.0950    -2.7110 H     1 <1>   0.0800 
 29 H        2.4490    -0.9730    -1.8710 H     1 <1>   0.0800 
 30 H        0.2290    -3.3370     1.4270 H     1 <1>   0.0800 
 31 H        1.9480    -3.5020     1.2110 H     1 <1>   0.0800 
 32 H       -0.0670    -0.0450     0.1470 H     1 <1>   0.0800 
 33 H       -0.6470    -1.1740     1.3430 H     1 <1>   0.0800 
 34 H       -1.4070    -2.6650    -0.5320 H     1 <1>   0.0800 
 35 H       -0.7590    -1.4980    -1.6780 H     1 <1>   0.0800 
 36 H        1.2610    -2.8040    -2.2290 H     1 <1>   0.1500 
 37 H       -2.8220    -1.0680     0.2100 H     1 <1>   0.4000 
 38 H        0.2110    -6.7630    -2.0230 H     1 <1>   0.1500 
 39 H        1.1170    -6.1900     1.3750 H     1 <1>   0.0800 
 40 H        0.0450    -7.2070     0.4310 H     1 <1>   0.0800 
 41 H       -0.5960    -5.8060     1.2700 H     1 <1>   0.0800 
@<TRIPOS>BOND
  1   1   2  1   
  2   2   3  ar  
  3   2   4  ar  
  4   3   5  1   
  5   3   6  ar  
  6   4   7  ar  
  7   4   8  1   
  8   6   9  ar  
  9   6  23  1   
 10   7   9  ar  
 11   7  10  1   
 12   8  11  1   
 13   8  24  1   
 14   8  25  1   
 15   9  26  1   
 16  10  12  1   
 17  11  13  1   
 18  11  14  1   
 19  12  27  1   
 20  12  28  1   
 21  12  29  1   
 22  13  15  1   
 23  13  30  1   
 24  13  31  1   
 25  14  16  1   
 26  14  32  1   
 27  14  33  1   
 28  15  17  1   
 29  15  18  2   
 30  16  19  1   
 31  16  34  1   
 32  16  35  1   
 33  17  20  1   
 34  17  21  1   
 35  18  22  1   
 36  18  36  1   
 37  19  37  1   
 38  20  22  2   
 39  20  38  1   
 40  21  39  1   
 41  21  40  1   
 42  21  41  1   
@<TRIPOS>SUBSTRUCTURE
  1 ****  11 GROUP 4 **** **** 0

# MOE 2024.06 (io_trps.svl 2023.06)
