@<TRIPOS>MOLECULE
NONAME
52 54 1 0 0 
SMALL
USER_CHARGES


@<TRIPOS>ATOM
  1 F        1.5600     0.6880    -0.7550 F     1 <1>  -0.1900 
  2 C        1.6540     1.8660    -0.1940 C.ar  1 <1>   0.1900 
  3 C        1.3980     2.9850    -0.9490 C.ar  1 <1>  -0.1500 
  4 C        2.0130     1.9200     1.1570 C.ar  1 <1>  -0.1500 
  5 C        1.5070     4.2230    -0.3190 C.ar  1 <1>   0.2270 
  6 C        2.1200     3.1460     1.7770 C.ar  1 <1>  -0.1500 
  7 N        1.3130     5.4710    -0.8270 N.2   1 <1>  -0.5650 
  8 C        1.8620     4.2940     1.0190 C.ar  1 <1>  -0.1520 
  9 C        1.5400     6.2590     0.1650 C.2   1 <1>   0.0060 
 10 N        1.8770     5.6180     1.3130 N.pl3 1 <1>   0.0330 
 11 C        1.4560     7.7700     0.0840 C.3   1 <1>   0.0200 
 12 C        2.8060     8.3460    -0.3490 C.3   1 <1>   0.1100 
 13 N        2.8700     9.7970    -0.1100 N.3   1 <1>  -0.8100 
 14 C        4.2910    10.2670    -0.0780 C.3   1 <1>   0.1710 
 15 C        2.0390    10.5590    -1.0530 C.3   1 <1>   0.0300 
 16 C        4.5250    11.7410     0.3120 C.2   1 <1>   0.5690 
 17 O        4.6700    11.9570     1.4940 O.2   1 <1>  -0.5700 
 18 N        4.6080    12.7520    -0.6340 N.am  1 <1>  -0.6600 
 19 C        4.7720    14.1950    -0.2730 C.3   1 <1>   0.2200 
 20 C        4.5510    12.5400    -2.1110 C.3   1 <1>   0.0600 
 21 C        6.1240    14.4690     0.4010 C.3   1 <1>  -0.1600 
 22 C        3.5950    14.7150     0.5660 C.3   1 <1>  -0.1600 
 23 C        6.2870    15.9660     0.7070 C.3   1 <1>  -0.1600 
 24 C        3.7620    16.2110     0.8710 C.3   1 <1>  -0.1600 
 25 C        5.1130    16.4900     1.5480 C.3   1 <1>  -0.1600 
 26 H        1.1230     2.9320    -1.9840 H     1 <1>   0.1500 
 27 H        2.1990     1.0030     1.6870 H     1 <1>   0.1500 
 28 H        2.3940     3.2260     2.8140 H     1 <1>   0.1500 
 29 H        2.0960     6.0440     2.2170 H     1 <1>   0.2700 
 30 H        1.1790     8.1700     1.0420 H     1 <1>   0.0800 
 31 H        0.7000     8.0340    -0.6330 H     1 <1>   0.0800 
 32 H        2.9870     8.1220    -1.3880 H     1 <1>   0.0800 
 33 H        3.5730     7.8620     0.2320 H     1 <1>   0.0800 
 34 H        4.7670    10.0530    -1.0150 H     1 <1>   0.0800 
 35 H        4.8100     9.6850     0.6620 H     1 <1>   0.0800 
 36 H        1.0100    10.2570    -0.9730 H     1 <1>   0.0800 
 37 H        2.3720    10.4010    -2.0640 H     1 <1>   0.0800 
 38 H        2.0860    11.6090    -0.8210 H     1 <1>   0.0800 
 39 H        4.7670    14.7680    -1.1860 H     1 <1>   0.0800 
 40 H        4.3870    11.5130    -2.3710 H     1 <1>   0.0800 
 41 H        5.4780    12.8600    -2.5540 H     1 <1>   0.0800 
 42 H        3.7470    13.1230    -2.5260 H     1 <1>   0.0800 
 43 H        6.9200    14.1450    -0.2440 H     1 <1>   0.0800 
 44 H        6.1920    13.9240     1.3250 H     1 <1>   0.0800 
 45 H        3.5430    14.1820     1.4980 H     1 <1>   0.0800 
 46 H        2.6750    14.5560     0.0330 H     1 <1>   0.0800 
 47 H        6.3380    16.5180    -0.2160 H     1 <1>   0.0800 
 48 H        7.2090    16.1250     1.2390 H     1 <1>   0.0800 
 49 H        2.9640    16.5370     1.5160 H     1 <1>   0.0800 
 50 H        3.6990    16.7740    -0.0440 H     1 <1>   0.0800 
 51 H        5.2260    17.5480     1.7060 H     1 <1>   0.0800 
 52 H        5.1290    16.0100     2.5120 H     1 <1>   0.0800 
@<TRIPOS>BOND
  1   1   2  1   
  2   2   3  ar  
  3   2   4  ar  
  4   3   5  ar  
  5   3  26  1   
  6   4   6  ar  
  7   4  27  1   
  8   5   7  1   
  9   5   8  ar  
 10   6   8  ar  
 11   6  28  1   
 12   7   9  2   
 13   8  10  1   
 14   9  10  1   
 15   9  11  1   
 16  10  29  1   
 17  11  12  1   
 18  11  30  1   
 19  11  31  1   
 20  12  13  1   
 21  12  32  1   
 22  12  33  1   
 23  13  14  1   
 24  13  15  1   
 25  14  16  1   
 26  14  34  1   
 27  14  35  1   
 28  15  36  1   
 29  15  37  1   
 30  15  38  1   
 31  16  17  2   
 32  16  18  am  
 33  18  19  1   
 34  18  20  1   
 35  19  21  1   
 36  19  22  1   
 37  19  39  1   
 38  20  40  1   
 39  20  41  1   
 40  20  42  1   
 41  21  23  1   
 42  21  43  1   
 43  21  44  1   
 44  22  24  1   
 45  22  45  1   
 46  22  46  1   
 47  23  25  1   
 48  23  47  1   
 49  23  48  1   
 50  24  25  1   
 51  24  49  1   
 52  24  50  1   
 53  25  51  1   
 54  25  52  1   
@<TRIPOS>SUBSTRUCTURE
  1 ****  12 GROUP 4 **** **** 0

# MOE 2024.06 (io_trps.svl 2023.06)
