@<TRIPOS>MOLECULE
NONAME
50 52 1 0 0 
SMALL
USER_CHARGES


@<TRIPOS>ATOM
  1 N       -0.1780     0.5410    -0.9140 N.ar  1 <1>  -0.6200 
  2 C       -1.1910    -0.2490    -1.1870 C.ar  1 <1>   0.7710 
  3 C       -0.3640     1.4990    -0.0220 C.ar  1 <1>   0.4100 
  4 N       -2.3960    -0.1360    -0.6030 N.ar  1 <1>  -0.1790 
  5 N       -0.9710    -1.1970    -2.0940 N.pl3 1 <1>  -0.9000 
  6 N        0.6900     2.3120     0.2450 N.pl3 1 <1>  -0.8380 
  7 C       -1.6100     1.6610     0.6200 C.ar  1 <1>  -0.1500 
  8 C       -2.6340     0.8270     0.3180 C.ar  1 <1>   0.2170 
  9 C        0.6850     3.5340     1.0960 C.3   1 <1>   0.4330 
 10 C        2.0740     2.0180    -0.2130 C.3   1 <1>   0.2090 
 11 C       -4.0110     0.9180     0.9530 C.3   1 <1>  -0.0970 
 12 C       -0.2990     4.5990     0.6010 C.ar  1 <1>  -0.1430 
 13 C        2.1210     4.0530     1.0580 C.3   1 <1>  -0.1600 
 14 C        2.9720     2.8420     0.6980 C.3   1 <1>  -0.1600 
 15 C       -0.5140     4.8090    -0.7540 C.ar  1 <1>  -0.1500 
 16 C       -0.9850     5.3840     1.5160 C.ar  1 <1>  -0.1500 
 17 C       -1.3890     5.7890    -1.1870 C.ar  1 <1>  -0.1500 
 18 C       -1.8600     6.3660     1.0860 C.ar  1 <1>  -0.1500 
 19 C       -2.0610     6.5830    -0.2690 C.ar  1 <1>  -0.1430 
 20 C       -2.9920     7.6830    -0.7450 C.3   1 <1>   0.4860 
 21 N       -2.3000     8.9950    -0.5910 N.4   1 <1>  -0.9590 
 22 C       -3.2380    10.1380    -0.8030 C.3   1 <1>   0.2630 
 23 C       -1.1080     9.0980    -1.4910 C.3   1 <1>   0.2630 
 24 H       -3.1090    -0.8010    -0.8820 H     1 <1>   0.4570 
 25 H       -1.6100    -1.9060    -2.4550 H     1 <1>   0.4000 
 26 H       -0.0350    -1.2320    -2.5100 H     1 <1>   0.4000 
 27 H       -1.7280     2.4440     1.3430 H     1 <1>   0.1500 
 28 H        0.4460     3.2410     2.1040 H     1 <1>   0.0800 
 29 H        2.1820     2.3360    -1.2360 H     1 <1>   0.0800 
 30 H        2.3010     0.9670    -0.1360 H     1 <1>   0.0800 
 31 H       -4.2470     0.0070     1.4740 H     1 <1>   0.0800 
 32 H       -4.7610     1.1000     0.2030 H     1 <1>   0.0800 
 33 H       -4.0450     1.7270     1.6630 H     1 <1>   0.0800 
 34 H        2.4080     4.4900     1.9970 H     1 <1>   0.0800 
 35 H        2.2160     4.7980     0.2870 H     1 <1>   0.0800 
 36 H        3.8920     3.1130     0.2120 H     1 <1>   0.0800 
 37 H        3.1950     2.2690     1.5810 H     1 <1>   0.0800 
 38 H        0.0100     4.2050    -1.4770 H     1 <1>   0.1500 
 39 H       -0.8340     5.2380     2.5730 H     1 <1>   0.1500 
 40 H       -1.5310     5.9230    -2.2470 H     1 <1>   0.1500 
 41 H       -2.3780     6.9570     1.8240 H     1 <1>   0.1500 
 42 H       -3.8910     7.6660    -0.1500 H     1 <1>   0.0800 
 43 H       -3.2620     7.5200    -1.7760 H     1 <1>   0.0800 
 44 H       -1.9520     9.0160     0.3790 H     1 <1>   0.4500 
 45 H       -3.6210    10.1300    -1.8110 H     1 <1>   0.0800 
 46 H       -2.7290    11.0750    -0.6370 H     1 <1>   0.0800 
 47 H       -4.0680    10.0760    -0.1170 H     1 <1>   0.0800 
 48 H       -1.4080     9.0280    -2.5240 H     1 <1>   0.0800 
 49 H       -0.4100     8.3020    -1.2800 H     1 <1>   0.0800 
 50 H       -0.6040    10.0390    -1.3400 H     1 <1>   0.0800 
@<TRIPOS>BOND
  1   1   2  ar  
  2   1   3  ar  
  3   2   4  ar  
  4   2   5  1   
  5   3   6  1   
  6   3   7  ar  
  7   4   8  ar  
  8   4  24  1   
  9   5  25  1   
 10   5  26  1   
 11   6   9  1   
 12   6  10  1   
 13   7   8  ar  
 14   7  27  1   
 15   8  11  1   
 16   9  12  1   
 17   9  13  1   
 18   9  28  1   
 19  10  14  1   
 20  10  29  1   
 21  10  30  1   
 22  11  31  1   
 23  11  32  1   
 24  11  33  1   
 25  12  15  ar  
 26  12  16  ar  
 27  13  14  1   
 28  13  34  1   
 29  13  35  1   
 30  14  36  1   
 31  14  37  1   
 32  15  17  ar  
 33  15  38  1   
 34  16  18  ar  
 35  16  39  1   
 36  17  19  ar  
 37  17  40  1   
 38  18  19  ar  
 39  18  41  1   
 40  19  20  1   
 41  20  21  1   
 42  20  42  1   
 43  20  43  1   
 44  21  22  1   
 45  21  23  1   
 46  21  44  1   
 47  22  45  1   
 48  22  46  1   
 49  22  47  1   
 50  23  48  1   
 51  23  49  1   
 52  23  50  1   
@<TRIPOS>SUBSTRUCTURE
  1 ****  12 GROUP 4 **** **** 0

# MOE 2024.06 (io_trps.svl 2023.06)
