@<TRIPOS>MOLECULE
NONAME
43 44 1 0 0 
SMALL
USER_CHARGES


@<TRIPOS>ATOM
  1 S        0.1140    -0.2690     0.9470 S.3   1 <1>  -0.0800 
  2 C       -0.8170     1.0270     0.2390 C.2   1 <1>  -0.1400 
  3 C       -0.4900    -1.3430    -0.2930 C.2   1 <1>   0.2280 
  4 C       -1.4840     0.5460    -0.8230 C.2   1 <1>   0.0460 
  5 C       -0.7480     2.3880     0.8910 C.3   1 <1>   0.5230 
  6 N       -1.2820    -0.7870    -1.1190 N.2   1 <1>  -0.5650 
  7 C       -2.4380     1.2830    -1.7410 C.3   1 <1>  -0.0590 
  8 N        0.3040     3.1990     0.2120 N.4   1 <1>  -0.9590 
  9 C        1.6770     2.6970     0.5400 C.3   1 <1>   0.3430 
 10 C        0.1300     4.6440     0.5500 C.3   1 <1>   0.3430 
 11 C        2.3790     2.1750    -0.7120 C.3   1 <1>  -0.0170 
 12 C        0.9590     5.5560    -0.3570 C.3   1 <1>  -0.0990 
 13 C        3.7670     1.7100    -0.3220 C.ar  1 <1>  -0.1440 
 14 C        0.6530     6.9970    -0.0210 C.2   1 <1>   0.5690 
 15 C        4.8380     2.5910    -0.3550 C.ar  1 <1>  -0.1500 
 16 C        3.9740     0.4000     0.0830 C.ar  1 <1>  -0.1500 
 17 O       -0.1880     7.2430     0.8020 O.2   1 <1>  -0.5700 
 18 N        1.3150     7.9850    -0.6400 N.am  1 <1>  -0.8000 
 19 C        6.1010     2.1680     0.0220 C.ar  1 <1>  -0.1500 
 20 C        5.2370    -0.0220     0.4600 C.ar  1 <1>  -0.1500 
 21 C        6.3000     0.8620     0.4310 C.ar  1 <1>  -0.1500 
 22 H       -0.1570    -2.3670    -0.2700 H     1 <1>   0.1500 
 23 H       -0.5410     2.2890     1.9440 H     1 <1>   0.0800 
 24 H       -1.7060     2.8700     0.7780 H     1 <1>   0.0800 
 25 H       -2.5530     2.3100    -1.4490 H     1 <1>   0.0800 
 26 H       -3.4010     0.8060    -1.7120 H     1 <1>   0.0800 
 27 H       -2.0720     1.2430    -2.7510 H     1 <1>   0.0800 
 28 H        0.1480     3.0650    -0.7950 H     1 <1>   0.4500 
 29 H        1.6260     1.9040     1.2690 H     1 <1>   0.0800 
 30 H        2.2720     3.4880     0.9680 H     1 <1>   0.0800 
 31 H        0.4030     4.8220     1.5790 H     1 <1>   0.0800 
 32 H       -0.9080     4.9190     0.4410 H     1 <1>   0.0800 
 33 H        2.4590     2.9510    -1.4520 H     1 <1>   0.0800 
 34 H        1.8320     1.3500    -1.1340 H     1 <1>   0.0800 
 35 H        0.7050     5.3890    -1.3870 H     1 <1>   0.0800 
 36 H        2.0090     5.3920    -0.2080 H     1 <1>   0.0800 
 37 H        4.7080     3.6100    -0.6750 H     1 <1>   0.1500 
 38 H        3.1610    -0.3050     0.1080 H     1 <1>   0.1500 
 39 H        1.0920     8.9560    -0.4020 H     1 <1>   0.3700 
 40 H        2.0370     7.8660    -1.3520 H     1 <1>   0.3700 
 41 H        6.9320     2.8520    -0.0040 H     1 <1>   0.1500 
 42 H        5.3950    -1.0400     0.7730 H     1 <1>   0.1500 
 43 H        7.2830     0.5320     0.7230 H     1 <1>   0.1500 
@<TRIPOS>BOND
  1   1   2  1   
  2   1   3  1   
  3   2   4  2   
  4   2   5  1   
  5   3   6  2   
  6   3  22  1   
  7   4   6  1   
  8   4   7  1   
  9   5   8  1   
 10   5  23  1   
 11   5  24  1   
 12   7  25  1   
 13   7  26  1   
 14   7  27  1   
 15   8   9  1   
 16   8  10  1   
 17   8  28  1   
 18   9  11  1   
 19   9  29  1   
 20   9  30  1   
 21  10  12  1   
 22  10  31  1   
 23  10  32  1   
 24  11  13  1   
 25  11  33  1   
 26  11  34  1   
 27  12  14  1   
 28  12  35  1   
 29  12  36  1   
 30  13  15  ar  
 31  13  16  ar  
 32  14  17  2   
 33  14  18  am  
 34  15  19  ar  
 35  15  37  1   
 36  16  20  ar  
 37  16  38  1   
 38  18  39  1   
 39  18  40  1   
 40  19  21  ar  
 41  19  41  1   
 42  20  21  ar  
 43  20  42  1   
 44  21  43  1   
@<TRIPOS>SUBSTRUCTURE
  1 ****   9 GROUP 4 **** **** 0

# MOE 2024.06 (io_trps.svl 2023.06)
