@<TRIPOS>MOLECULE
NONAME
46 47 1 0 0 
SMALL
USER_CHARGES


@<TRIPOS>ATOM
  1 CL       1.2420    -0.0530     2.3150 Cl    1 <1>  -0.1770 
  2 C        1.7400    -1.0970     0.9950 C.ar  1 <1>   0.1770 
  3 C        1.1160    -2.3170     0.7570 C.ar  1 <1>   0.4100 
  4 C        2.7580    -0.7210     0.1640 C.ar  1 <1>   0.1600 
  5 N        1.4860    -3.0810    -0.2580 N.ar  1 <1>  -0.6200 
  6 N        0.0720    -2.7960     1.5280 N.pl3 1 <1>  -0.8380 
  7 N        3.1450    -1.4810    -0.8460 N.ar  1 <1>  -0.6200 
  8 C        2.4860    -2.6170    -0.9930 C.ar  1 <1>   0.4770 
  9 C       -1.2770    -2.2140     1.2910 C.3   1 <1>   0.2090 
 10 C        0.0750    -4.2390     1.9120 C.3   1 <1>   0.2090 
 11 C        2.9370    -3.4830    -2.1450 C.3   1 <1>  -0.0960 
 12 C       -2.0720    -3.0830     0.2900 C.3   1 <1>   0.3430 
 13 C       -0.7410    -5.0750     0.9010 C.3   1 <1>   0.3430 
 14 N       -2.1480    -4.5420     0.6970 N.4   1 <1>  -0.9590 
 15 C       -2.9270    -5.3190    -0.3110 C.3   1 <1>   0.3430 
 16 C       -3.3290    -6.6980     0.2330 C.3   1 <1>  -0.1600 
 17 C       -4.2240    -7.4380    -0.7740 C.3   1 <1>   0.3430 
 18 N       -4.5650    -8.8140    -0.2970 N.4   1 <1>  -0.9590 
 19 C       -5.1610    -9.6190    -1.4140 C.3   1 <1>   0.2630 
 20 C       -5.5100    -8.8210     0.8690 C.3   1 <1>   0.2630 
 21 H        3.2660     0.2150     0.3230 H     1 <1>   0.1500 
 22 H       -1.1780    -1.2170     0.8950 H     1 <1>   0.0800 
 23 H       -1.8060    -2.1410     2.2260 H     1 <1>   0.0800 
 24 H       -0.3330    -4.3460     2.9010 H     1 <1>   0.0800 
 25 H        1.0900    -4.6020     1.9380 H     1 <1>   0.0800 
 26 H        2.2930    -4.3350    -2.2610 H     1 <1>   0.0800 
 27 H        3.9390    -3.8240    -1.9620 H     1 <1>   0.0800 
 28 H        2.9250    -2.9090    -3.0530 H     1 <1>   0.0800 
 29 H       -1.5860    -3.0030    -0.6690 H     1 <1>   0.0800 
 30 H       -3.0650    -2.6750     0.1910 H     1 <1>   0.0800 
 31 H       -0.7740    -6.0940     1.2470 H     1 <1>   0.0800 
 32 H       -0.2090    -5.0600    -0.0370 H     1 <1>   0.0800 
 33 H       -2.6220    -4.5650     1.6100 H     1 <1>   0.4500 
 34 H       -2.3420    -5.4300    -1.2110 H     1 <1>   0.0800 
 35 H       -3.8210    -4.7690    -0.5630 H     1 <1>   0.0800 
 36 H       -3.8650    -6.5640     1.1550 H     1 <1>   0.0800 
 37 H       -2.4460    -7.2860     0.4090 H     1 <1>   0.0800 
 38 H       -3.7020    -7.5140    -1.7160 H     1 <1>   0.0800 
 39 H       -5.1320    -6.8800    -0.9430 H     1 <1>   0.0800 
 40 H       -3.6980    -9.2980    -0.0100 H     1 <1>   0.4500 
 41 H       -6.0830    -9.1720    -1.7520 H     1 <1>   0.0800 
 42 H       -5.3710   -10.6240    -1.0810 H     1 <1>   0.0800 
 43 H       -4.4790    -9.6740    -2.2470 H     1 <1>   0.0800 
 44 H       -6.4320    -8.3270     0.6100 H     1 <1>   0.0800 
 45 H       -5.0730    -8.3190     1.7170 H     1 <1>   0.0800 
 46 H       -5.7370    -9.8350     1.1590 H     1 <1>   0.0800 
@<TRIPOS>BOND
  1   1   2  1   
  2   2   3  ar  
  3   2   4  ar  
  4   3   5  ar  
  5   3   6  1   
  6   4   7  ar  
  7   4  21  1   
  8   5   8  ar  
  9   6   9  1   
 10   6  10  1   
 11   7   8  ar  
 12   8  11  1   
 13   9  12  1   
 14   9  22  1   
 15   9  23  1   
 16  10  13  1   
 17  10  24  1   
 18  10  25  1   
 19  11  26  1   
 20  11  27  1   
 21  11  28  1   
 22  12  14  1   
 23  12  29  1   
 24  12  30  1   
 25  13  14  1   
 26  13  31  1   
 27  13  32  1   
 28  14  15  1   
 29  14  33  1   
 30  15  16  1   
 31  15  34  1   
 32  15  35  1   
 33  16  17  1   
 34  16  36  1   
 35  16  37  1   
 36  17  18  1   
 37  17  38  1   
 38  17  39  1   
 39  18  19  1   
 40  18  20  1   
 41  18  40  1   
 42  19  41  1   
 43  19  42  1   
 44  19  43  1   
 45  20  44  1   
 46  20  45  1   
 47  20  46  1   
@<TRIPOS>SUBSTRUCTURE
  1 ****  13 GROUP 4 **** **** 0

# MOE 2024.06 (io_trps.svl 2023.06)
