@<TRIPOS>MOLECULE
NONAME
23 23 1 0 0 
SMALL
USER_CHARGES


@<TRIPOS>ATOM
  1 O        0.4480    -0.2000     1.4210 O.3   1 <1>  -0.5320 
  2 C        1.5660    -0.8840     1.1230 C.ar  1 <1>   0.0830 
  3 C        2.5430    -0.3120     0.3170 C.ar  1 <1>  -0.1430 
  4 C        1.7300    -2.1630     1.6310 C.ar  1 <1>  -0.1500 
  5 C        3.6850    -1.0410     0.0270 C.ar  1 <1>  -0.1500 
  6 C        2.3690     1.0930    -0.2420 C.3   1 <1>  -0.0970 
  7 C        2.8750    -2.8800     1.3330 C.ar  1 <1>  -0.1500 
  8 C        3.8580    -2.3220     0.5290 C.ar  1 <1>  -0.1430 
  9 C        5.1130    -3.1100     0.1930 C.3   1 <1>  -0.0170 
 10 C        4.9210    -3.8750    -1.1200 C.3   1 <1>   0.0400 
 11 C        6.1400    -4.6520    -1.4730 C.1   1 <1>   0.3570 
 12 N        7.0760    -5.2420    -1.7330 N.1   1 <1>  -0.5570 
 13 H       -0.1570    -0.6920     2.0020 H     1 <1>   0.4500 
 14 H        0.9740    -2.6020     2.2550 H     1 <1>   0.1500 
 15 H        4.4470    -0.6050    -0.5950 H     1 <1>   0.1500 
 16 H        1.4850     1.1330    -0.8520 H     1 <1>   0.0800 
 17 H        3.2140     1.3840    -0.8380 H     1 <1>   0.0800 
 18 H        2.2600     1.7930     0.5670 H     1 <1>   0.0800 
 19 H        2.9950    -3.8720     1.7310 H     1 <1>   0.1500 
 20 H        5.3330    -3.8000     0.9900 H     1 <1>   0.0800 
 21 H        5.9480    -2.4370     0.1050 H     1 <1>   0.0800 
 22 H        4.7080    -3.1860    -1.9160 H     1 <1>   0.0800 
 23 H        4.0920    -4.5540    -1.0290 H     1 <1>   0.0800 
@<TRIPOS>BOND
  1   1   2  1   
  2   1  13  1   
  3   2   3  ar  
  4   2   4  ar  
  5   3   5  ar  
  6   3   6  1   
  7   4   7  ar  
  8   4  14  1   
  9   5   8  ar  
 10   5  15  1   
 11   6  16  1   
 12   6  17  1   
 13   6  18  1   
 14   7   8  ar  
 15   7  19  1   
 16   8   9  1   
 17   9  10  1   
 18   9  20  1   
 19   9  21  1   
 20  10  11  1   
 21  10  22  1   
 22  10  23  1   
 23  11  12  3   
@<TRIPOS>SUBSTRUCTURE
  1 ****   8 GROUP 4 **** **** 0

# MOE 2024.06 (io_trps.svl 2023.06)
