@<TRIPOS>MOLECULE
NONAME
63 65 1 0 0 
SMALL
USER_CHARGES


@<TRIPOS>ATOM
  1 O       -1.3540     2.1760    -0.5170 O.co2 1 <1>  -0.9000 
  2 C       -0.7280     2.4060     0.5250 C.2   1 <1>   0.9060 
  3 O       -1.2460     2.1960     1.6290 O.co2 1 <1>  -0.9000 
  4 C        0.6640     3.0460     0.4870 C.3   1 <1>  -0.1060 
  5 C        0.4690     4.4600     1.0890 C.3   1 <1>   0.2000 
  6 C        1.2130     3.1350    -0.9730 C.3   1 <1>   0.1400 
  7 C        1.6320     2.2110     1.3730 C.3   1 <1>  -0.0160 
  8 O        1.6950     5.1170     1.1450 O.3   1 <1>  -0.6800 
  9 C       -0.4590     5.3220     0.2130 C.3   1 <1>  -0.1600 
 10 N        1.0860     4.5170    -1.5600 N.am  1 <1>  -0.6600 
 11 C        1.9980     0.8460     0.7930 C.ar  1 <1>  -0.1430 
 12 C       -0.2630     5.0950    -1.2970 C.3   1 <1>   0.1400 
 13 C        2.1640     5.1670    -2.1020 C.2   1 <1>   0.5690 
 14 C        1.0930    -0.2030     0.8430 C.ar  1 <1>  -0.1500 
 15 C        3.2430     0.6360     0.2170 C.ar  1 <1>  -0.1500 
 16 O        3.2410     4.6370    -2.2290 O.2   1 <1>  -0.5700 
 17 C        2.1100     6.6420    -2.4620 C.3   1 <1>  -0.0990 
 18 C        1.4230    -1.4420     0.3220 C.ar  1 <1>  -0.1500 
 19 C        3.5760    -0.6020    -0.3040 C.ar  1 <1>  -0.1500 
 20 C        2.3860     7.4870    -1.2070 C.3   1 <1>  -0.1600 
 21 C        2.6660    -1.6430    -0.2520 C.ar  1 <1>  -0.1500 
 22 C        2.5840     8.9670    -1.5250 C.3   1 <1>   0.3430 
 23 N        2.7900     9.7160    -0.2560 N.4   1 <1>  -0.9590 
 24 C        2.5880    11.1770    -0.4370 C.3   1 <1>   0.3430 
 25 C        4.1220     9.4570     0.3530 C.3   1 <1>   0.3430 
 26 C        2.1310    11.8300     0.8710 C.3   1 <1>  -0.1600 
 27 C        3.9630     9.1990     1.8510 C.3   1 <1>  -0.1600 
 28 C        3.0280    11.5960     2.1030 C.3   1 <1>  -0.1600 
 29 C        3.0050    10.1420     2.6020 C.3   1 <1>  -0.1600 
 30 H        0.0830     4.3990     2.0940 H     1 <1>   0.0800 
 31 H        0.7150     2.4280    -1.6140 H     1 <1>   0.0800 
 32 H        2.2510     2.8570    -0.9740 H     1 <1>   0.0800 
 33 H        2.5410     2.7600     1.5330 H     1 <1>   0.0800 
 34 H        1.1910     2.0660     2.3440 H     1 <1>   0.0800 
 35 H        2.1250     4.9310     0.2830 H     1 <1>   0.4000 
 36 H       -1.4780     5.0640     0.4450 H     1 <1>   0.0800 
 37 H       -0.3430     6.3590     0.4650 H     1 <1>   0.0800 
 38 H       -0.4260     6.0090    -1.8350 H     1 <1>   0.0800 
 39 H       -1.0000     4.3880    -1.6440 H     1 <1>   0.0800 
 40 H        0.1200    -0.0540     1.2860 H     1 <1>   0.1500 
 41 H        3.9570     1.4390     0.1690 H     1 <1>   0.1500 
 42 H        2.8740     6.8240    -3.1970 H     1 <1>   0.0800 
 43 H        1.1680     6.8910    -2.9120 H     1 <1>   0.0800 
 44 H        0.7060    -2.2410     0.3630 H     1 <1>   0.1500 
 45 H        4.5420    -0.7520    -0.7510 H     1 <1>   0.1500 
 46 H        3.2700     7.0930    -0.7350 H     1 <1>   0.0800 
 47 H        1.5630     7.3730    -0.5250 H     1 <1>   0.0800 
 48 H        2.9210    -2.6050    -0.6590 H     1 <1>   0.1500 
 49 H        1.7040     9.3350    -2.0270 H     1 <1>   0.0800 
 50 H        3.4320     9.0980    -2.1790 H     1 <1>   0.0800 
 51 H        2.0920     9.3920     0.4270 H     1 <1>   0.4500 
 52 H        3.5040    11.6360    -0.7750 H     1 <1>   0.0800 
 53 H        1.8330    11.3520    -1.1860 H     1 <1>   0.0800 
 54 H        4.5930     8.6020    -0.1050 H     1 <1>   0.0800 
 55 H        4.7650    10.3100     0.2010 H     1 <1>   0.0800 
 56 H        2.0790    12.8910     0.6980 H     1 <1>   0.0800 
 57 H        1.1280    11.5100     1.0920 H     1 <1>   0.0800 
 58 H        3.6450     8.1810     2.0010 H     1 <1>   0.0800 
 59 H        4.9410     9.2810     2.2930 H     1 <1>   0.0800 
 60 H        4.0380    11.9170     1.9110 H     1 <1>   0.0800 
 61 H        2.6510    12.2190     2.8980 H     1 <1>   0.0800 
 62 H        1.9990     9.7600     2.5560 H     1 <1>   0.0800 
 63 H        3.2840    10.1320     3.6430 H     1 <1>   0.0800 
@<TRIPOS>BOND
  1   1   2  ar  
  2   2   3  ar  
  3   2   4  1   
  4   4   5  1   
  5   4   6  1   
  6   4   7  1   
  7   5   8  1   
  8   5   9  1   
  9   5  30  1   
 10   6  10  1   
 11   6  31  1   
 12   6  32  1   
 13   7  11  1   
 14   7  33  1   
 15   7  34  1   
 16   8  35  1   
 17   9  12  1   
 18   9  36  1   
 19   9  37  1   
 20  10  12  1   
 21  10  13  am  
 22  11  14  ar  
 23  11  15  ar  
 24  12  38  1   
 25  12  39  1   
 26  13  16  2   
 27  13  17  1   
 28  14  18  ar  
 29  14  40  1   
 30  15  19  ar  
 31  15  41  1   
 32  17  20  1   
 33  17  42  1   
 34  17  43  1   
 35  18  21  ar  
 36  18  44  1   
 37  19  21  ar  
 38  19  45  1   
 39  20  22  1   
 40  20  46  1   
 41  20  47  1   
 42  21  48  1   
 43  22  23  1   
 44  22  49  1   
 45  22  50  1   
 46  23  24  1   
 47  23  25  1   
 48  23  51  1   
 49  24  26  1   
 50  24  52  1   
 51  24  53  1   
 52  25  27  1   
 53  25  54  1   
 54  25  55  1   
 55  26  28  1   
 56  26  56  1   
 57  26  57  1   
 58  27  29  1   
 59  27  58  1   
 60  27  59  1   
 61  28  29  1   
 62  28  60  1   
 63  28  61  1   
 64  29  62  1   
 65  29  63  1   
@<TRIPOS>SUBSTRUCTURE
  1 ****   8 GROUP 4 **** **** 0

# MOE 2024.06 (io_trps.svl 2023.06)
