@<TRIPOS>MOLECULE
NONAME
45 47 1 0 0 
SMALL
USER_CHARGES


@<TRIPOS>ATOM
  1 O       -3.5930     1.0180    -2.2590 O.2   1 <1>  -0.5700 
  2 C       -2.8200     1.0290    -1.3300 C.2   1 <1>   0.5690 
  3 N       -2.3920    -0.1180    -0.7470 N.am  1 <1>  -0.7300 
  4 C       -2.3220     2.3660    -0.7850 C.3   1 <1>   0.1810 
  5 C       -2.8180    -1.4830    -1.1200 C.3   1 <1>   0.2200 
  6 O       -1.5460     2.1970     0.3790 O.3   1 <1>  -0.5600 
  7 C       -3.9750    -1.9000    -0.2300 C.3   1 <1>  -0.0800 
  8 C       -1.7350    -2.4980    -0.7520 C.3   1 <1>   0.1200 
  9 C       -1.0740     3.3850     0.9190 C.3   1 <1>   0.1200 
 10 C       -3.2380    -2.4390     0.9950 C.3   1 <1>   0.1200 
 11 C       -4.8460    -2.9750    -0.9080 C.3   1 <1>  -0.0170 
 12 O       -2.0400    -2.9810     0.5260 O.3   1 <1>  -0.5600 
 13 C       -0.2620     3.0330     2.1590 C.3   1 <1>  -0.2400 
 14 C       -6.0610    -3.3290    -0.0570 C.ar  1 <1>  -0.1440 
 15 C       -7.1940    -2.4850     0.0350 C.ar  1 <1>   0.0000 
 16 C       -6.0830    -4.4940     0.6520 C.ar  1 <1>  -0.1500 
 17 C       -8.2600    -2.9050     0.8670 C.ar  1 <1>   0.3100 
 18 C       -7.3330    -1.2540    -0.6490 C.ar  1 <1>  -0.1500 
 19 C       -7.1920    -4.8170     1.4430 C.ar  1 <1>   0.1600 
 20 N       -8.2440    -4.0700     1.5630 N.ar  1 <1>  -0.6200 
 21 C       -9.3950    -2.0860     0.9830 C.ar  1 <1>  -0.1500 
 22 C       -8.4530    -0.4800    -0.5140 C.ar  1 <1>  -0.1500 
 23 C       -9.4990    -0.8980     0.3120 C.ar  1 <1>  -0.1500 
 24 H       -1.7920    -0.0240     0.0810 H     1 <1>   0.3700 
 25 H       -3.1690     2.9850    -0.5490 H     1 <1>   0.0800 
 26 H       -1.7200     2.8470    -1.5340 H     1 <1>   0.0800 
 27 H       -3.0600    -1.5120    -2.1690 H     1 <1>   0.0800 
 28 H       -4.5880    -1.0570     0.0340 H     1 <1>   0.0800 
 29 H       -0.7500    -2.0660    -0.7470 H     1 <1>   0.0800 
 30 H       -1.7610    -3.3360    -1.4260 H     1 <1>   0.0800 
 31 H       -0.4550     3.8800     0.1880 H     1 <1>   0.0800 
 32 H       -1.9120     4.0100     1.1790 H     1 <1>   0.0800 
 33 H       -3.7880    -3.1950     1.5270 H     1 <1>   0.0800 
 34 H       -2.9900    -1.6370     1.6690 H     1 <1>   0.0800 
 35 H       -4.2590    -3.8590    -1.0830 H     1 <1>   0.0800 
 36 H       -5.1790    -2.6270    -1.8700 H     1 <1>   0.0800 
 37 H        0.5650     2.4000     1.8910 H     1 <1>   0.0800 
 38 H       -0.8840     2.5270     2.8760 H     1 <1>   0.0800 
 39 H        0.1230     3.9290     2.6090 H     1 <1>   0.0800 
 40 H       -5.2600    -5.1850     0.6270 H     1 <1>   0.1500 
 41 H       -6.5430    -0.9100    -1.2920 H     1 <1>   0.1500 
 42 H       -7.1680    -5.7460     1.9870 H     1 <1>   0.1500 
 43 H      -10.1860    -2.4290     1.6230 H     1 <1>   0.1500 
 44 H       -8.5430     0.4550    -1.0400 H     1 <1>   0.1500 
 45 H      -10.3750    -0.2810     0.4110 H     1 <1>   0.1500 
@<TRIPOS>BOND
  1   1   2  2   
  2   2   3  am  
  3   2   4  1   
  4   3   5  1   
  5   3  24  1   
  6   4   6  1   
  7   4  25  1   
  8   4  26  1   
  9   5   7  1   
 10   5   8  1   
 11   5  27  1   
 12   6   9  1   
 13   7  10  1   
 14   7  11  1   
 15   7  28  1   
 16   8  12  1   
 17   8  29  1   
 18   8  30  1   
 19   9  13  1   
 20   9  31  1   
 21   9  32  1   
 22  10  12  1   
 23  10  33  1   
 24  10  34  1   
 25  11  14  1   
 26  11  35  1   
 27  11  36  1   
 28  13  37  1   
 29  13  38  1   
 30  13  39  1   
 31  14  15  ar  
 32  14  16  ar  
 33  15  17  ar  
 34  15  18  ar  
 35  16  19  ar  
 36  16  40  1   
 37  17  20  ar  
 38  17  21  ar  
 39  18  22  ar  
 40  18  41  1   
 41  19  20  ar  
 42  19  42  1   
 43  21  23  ar  
 44  21  43  1   
 45  22  23  ar  
 46  22  44  1   
 47  23  45  1   
@<TRIPOS>SUBSTRUCTURE
  1 ****   7 GROUP 4 **** **** 0

# MOE 2024.06 (io_trps.svl 2023.06)
