@<TRIPOS>MOLECULE
NONAME
37 38 1 0 0 
SMALL
USER_CHARGES


@<TRIPOS>ATOM
  1 CL      -3.7620     1.2130    -0.3110 Cl    1 <1>  -0.1770 
  2 C       -3.9750    -0.4770     0.0850 C.ar  1 <1>   0.1770 
  3 C       -4.3600    -1.3860    -0.8720 C.ar  1 <1>   0.1600 
  4 C       -3.7620    -0.9400     1.3620 C.ar  1 <1>   0.1600 
  5 N       -4.5250    -2.6610    -0.5880 N.ar  1 <1>  -0.6200 
  6 N       -3.9190    -2.2100     1.6730 N.ar  1 <1>  -0.6200 
  7 C       -4.2920    -3.0030     0.6780 C.ar  1 <1>   0.7200 
  8 N       -4.4530    -4.2940     1.0300 N.pl3 1 <1>  -0.8690 
  9 C       -4.4620    -5.4390     0.0920 C.3   1 <1>   0.2890 
 10 C       -5.8550    -6.0150    -0.0250 C.3   1 <1>  -0.0800 
 11 C       -3.6550    -6.6330     0.5830 C.3   1 <1>   0.1200 
 12 C       -5.5760    -7.4700    -0.3950 C.3   1 <1>   0.1200 
 13 C       -6.7230    -5.2430    -1.0350 C.3   1 <1>  -0.0550 
 14 O       -4.3060    -7.7730     0.1030 O.3   1 <1>  -0.5600 
 15 S       -8.4150    -5.8230    -1.1480 S.o2  1 <1>   1.3330 
 16 O       -9.1940    -4.8680    -1.9040 O.2   1 <1>  -0.6500 
 17 O       -8.3880    -7.2070    -1.5630 O.2   1 <1>  -0.6500 
 18 N       -8.9720    -5.7760     0.4560 N.am  1 <1>  -0.8490 
 19 C      -10.1510    -6.6230     0.6480 C.3   1 <1>   0.1160 
 20 C       -9.2500    -4.4170     0.9340 C.3   1 <1>   0.1160 
 21 H       -4.5340    -1.0540    -1.8810 H     1 <1>   0.1500 
 22 H       -3.4600    -0.2530     2.1330 H     1 <1>   0.1500 
 23 H       -4.1900    -4.4850     1.9960 H     1 <1>   0.4000 
 24 H       -4.0880    -5.1470    -0.8760 H     1 <1>   0.0800 
 25 H       -6.3230    -6.0070     0.9450 H     1 <1>   0.0800 
 26 H       -3.6570    -6.6890     1.6570 H     1 <1>   0.0800 
 27 H       -2.6480    -6.6220     0.2060 H     1 <1>   0.0800 
 28 H       -5.5480    -7.6080    -1.4630 H     1 <1>   0.0800 
 29 H       -6.2950    -8.1450     0.0370 H     1 <1>   0.0800 
 30 H       -6.2690    -5.2920    -2.0050 H     1 <1>   0.0800 
 31 H       -6.7380    -4.2110    -0.7440 H     1 <1>   0.0800 
 32 H      -10.4690    -6.5940     1.6760 H     1 <1>   0.0800 
 33 H       -9.9160    -7.6440     0.3980 H     1 <1>   0.0800 
 34 H      -10.9580    -6.2890     0.0160 H     1 <1>   0.0800 
 35 H       -9.5400    -4.4430     1.9710 H     1 <1>   0.0800 
 36 H      -10.0440    -3.9690     0.3590 H     1 <1>   0.0800 
 37 H       -8.3700    -3.8040     0.8480 H     1 <1>   0.0800 
@<TRIPOS>BOND
  1   1   2  1   
  2   2   3  ar  
  3   2   4  ar  
  4   3   5  ar  
  5   3  21  1   
  6   4   6  ar  
  7   4  22  1   
  8   5   7  ar  
  9   6   7  ar  
 10   7   8  1   
 11   8   9  1   
 12   8  23  1   
 13   9  10  1   
 14   9  11  1   
 15   9  24  1   
 16  10  12  1   
 17  10  13  1   
 18  10  25  1   
 19  11  14  1   
 20  11  26  1   
 21  11  27  1   
 22  12  14  1   
 23  12  28  1   
 24  12  29  1   
 25  13  15  1   
 26  13  30  1   
 27  13  31  1   
 28  15  16  2   
 29  15  17  2   
 30  15  18  am  
 31  18  19  1   
 32  18  20  1   
 33  19  32  1   
 34  19  33  1   
 35  19  34  1   
 36  20  35  1   
 37  20  36  1   
 38  20  37  1   
@<TRIPOS>SUBSTRUCTURE
  1 ****  13 GROUP 4 **** **** 0

# MOE 2024.06 (io_trps.svl 2023.06)
