@<TRIPOS>MOLECULE
NONAME
39 40 1 0 0 
SMALL
USER_CHARGES


@<TRIPOS>ATOM
  1 O       -0.0830    -0.5610     1.2520 O.2   1 <1>  -0.5700 
  2 C       -0.6780    -1.5090     0.7770 C.2   1 <1>   0.7800 
  3 O       -1.6960    -1.3230    -0.0670 O.3   1 <1>  -0.4300 
  4 N       -0.2960    -2.8060     1.0400 N.am  1 <1>  -0.5090 
  5 C       -2.2730    -0.0990    -0.4650 C.3   1 <1>   0.2800 
  6 C       -0.9260    -3.9990     0.4370 C.3   1 <1>   0.0540 
  7 C        1.0040    -3.0940     1.6860 C.3   1 <1>   0.1400 
  8 C       -2.8430     0.6380     0.7520 C.3   1 <1>  -0.2400 
  9 C       -3.4190    -0.4860    -1.4010 C.3   1 <1>  -0.2400 
 10 C       -1.2520     0.7450    -1.2370 C.3   1 <1>  -0.2400 
 11 C       -0.0450    -4.5400    -0.6860 C.3   1 <1>  -0.0650 
 12 C       -1.5760    -4.9510     1.3900 C.3   1 <1>  -0.2000 
 13 C       -2.4120    -4.1550     0.4300 C.3   1 <1>  -0.2000 
 14 C        1.9630    -3.6210     0.6110 C.3   1 <1>  -0.1600 
 15 C        1.3600    -4.8210    -0.1350 C.3   1 <1>   0.4230 
 16 N        2.2630    -5.1890    -1.2430 N.4   1 <1>  -0.8530 
 17 H        0.8580    -3.8250     2.4630 H     1 <1>   0.0800 
 18 H        1.4100    -2.2060     2.1440 H     1 <1>   0.0800 
 19 H       -3.4980    -0.0070     1.3080 H     1 <1>   0.0800 
 20 H       -3.4030     1.4970     0.4310 H     1 <1>   0.0800 
 21 H       -2.0580     0.9880     1.3980 H     1 <1>   0.0800 
 22 H       -4.1330    -1.0990    -0.8820 H     1 <1>   0.0800 
 23 H       -3.0420    -1.0280    -2.2500 H     1 <1>   0.0800 
 24 H       -3.9230     0.3930    -1.7570 H     1 <1>   0.0800 
 25 H       -0.4670     1.0930    -0.5920 H     1 <1>   0.0800 
 26 H       -1.7350     1.6120    -1.6520 H     1 <1>   0.0800 
 27 H       -0.8260     0.1760    -2.0430 H     1 <1>   0.0800 
 28 H       -0.0160    -3.8030    -1.4700 H     1 <1>   0.0800 
 29 H       -0.4800    -5.4430    -1.0760 H     1 <1>   0.0800 
 30 H       -1.6480    -4.6940     2.4330 H     1 <1>   0.1000 
 31 H       -1.5450    -6.0140     1.2300 H     1 <1>   0.1000 
 32 H       -2.8880    -4.6730    -0.3840 H     1 <1>   0.1000 
 33 H       -3.0340    -3.3730     0.8330 H     1 <1>   0.1000 
 34 H        2.8840    -3.9050     1.0890 H     1 <1>   0.0800 
 35 H        2.1670    -2.8130    -0.0710 H     1 <1>   0.0800 
 36 H        1.2850    -5.6440     0.5590 H     1 <1>   0.0800 
 37 H        2.3430    -4.4120    -1.9080 H     1 <1>   0.4500 
 38 H        1.9090    -6.0090    -1.7480 H     1 <1>   0.4500 
 39 H        3.2010    -5.4070    -0.8920 H     1 <1>   0.4500 
@<TRIPOS>BOND
  1   1   2  2   
  2   2   3  1   
  3   2   4  am  
  4   3   5  1   
  5   4   6  1   
  6   4   7  1   
  7   5   8  1   
  8   5   9  1   
  9   5  10  1   
 10   6  11  1   
 11   6  12  1   
 12   6  13  1   
 13   7  14  1   
 14   7  17  1   
 15   7  18  1   
 16   8  19  1   
 17   8  20  1   
 18   8  21  1   
 19   9  22  1   
 20   9  23  1   
 21   9  24  1   
 22  10  25  1   
 23  10  26  1   
 24  10  27  1   
 25  11  15  1   
 26  11  28  1   
 27  11  29  1   
 28  12  13  1   
 29  12  30  1   
 30  12  31  1   
 31  13  32  1   
 32  13  33  1   
 33  14  15  1   
 34  14  34  1   
 35  14  35  1   
 36  15  16  1   
 37  15  36  1   
 38  16  37  1   
 39  16  38  1   
 40  16  39  1   
@<TRIPOS>SUBSTRUCTURE
  1 ****   4 GROUP 4 **** **** 0

# MOE 2024.06 (io_trps.svl 2023.06)
