@<TRIPOS>MOLECULE
NONAME
47 50 1 0 0 
SMALL
USER_CHARGES


@<TRIPOS>ATOM
  1 O       -0.4640     0.3200    -1.1110 O.2   1 <1>  -0.5700 
  2 C       -1.4600     0.8590    -0.6720 C.2   1 <1>   0.5440 
  3 N       -2.5490     0.0880    -0.3460 N.am  1 <1>  -0.6600 
  4 C       -1.4810     2.2880    -0.4850 C.ar  1 <1>   0.0860 
  5 C       -3.7590     0.5730     0.3650 C.3   1 <1>   0.1400 
  6 C       -2.5340    -1.3950    -0.4050 C.3   1 <1>   0.1400 
  7 C       -0.7050     2.9140     0.4930 C.ar  1 <1>   0.0000 
  8 C       -2.2690     3.1410    -1.2360 C.ar  1 <1>  -0.1500 
  9 C       -4.5920    -0.6820     0.6260 C.3   1 <1>   0.2000 
 10 C       -3.5980    -1.8400     0.5990 C.3   1 <1>  -0.0800 
 11 C       -0.8000     4.2740     0.6410 C.ar  1 <1>   0.3970 
 12 C        0.2280     2.5620     1.4850 C.2   1 <1>   0.1080 
 13 C       -2.2780     4.5170    -0.9970 C.ar  1 <1>   0.1660 
 14 O       -5.2310    -0.6230     1.8530 O.3   1 <1>  -0.6800 
 15 C       -4.2440    -3.1910     0.2540 C.3   1 <1>   0.0210 
 16 O        0.0010     4.6280     1.6310 O.3   1 <1>  -0.0190 
 17 N       -1.5640     5.1080    -0.0660 N.ar  1 <1>  -0.5670 
 18 N        0.6220     3.5880     2.1410 N.2   1 <1>  -0.4100 
 19 C        0.7190     1.1540     1.7540 C.3   1 <1>  -0.0590 
 20 C       -3.1520     5.4220    -1.8400 C.3   1 <1>  -0.0970 
 21 C       -3.1940    -4.2780     0.1270 C.2   1 <1>   0.1080 
 22 N       -2.3840    -4.5890     1.0900 N.2   1 <1>  -0.7070 
 23 C       -2.9740    -5.0420    -1.0140 C.2   1 <1>  -0.1500 
 24 N       -1.6170    -5.5740     0.5840 N.pl3 1 <1>   0.3000 
 25 C       -1.9540    -5.8640    -0.6900 C.2   1 <1>  -0.3320 
 26 C       -1.2700    -6.9250    -1.5320 C.3   1 <1>  -0.0600 
 27 H       -3.4680     1.0390     1.2900 H     1 <1>   0.0800 
 28 H       -4.3050     1.2670    -0.2490 H     1 <1>   0.0800 
 29 H       -2.7880    -1.7080    -1.4030 H     1 <1>   0.0800 
 30 H       -1.5650    -1.7900    -0.1450 H     1 <1>   0.0800 
 31 H       -2.8820     2.7310    -2.0180 H     1 <1>   0.1500 
 32 H       -5.3400    -0.7860    -0.1420 H     1 <1>   0.0800 
 33 H       -3.1110    -1.9200     1.5550 H     1 <1>   0.0800 
 34 H       -4.5850    -0.7300     2.5780 H     1 <1>   0.4000 
 35 H       -4.7920    -3.1160    -0.6680 H     1 <1>   0.0800 
 36 H       -4.9330    -3.4680     1.0310 H     1 <1>   0.0800 
 37 H       -0.1130     0.4960     1.9240 H     1 <1>   0.0800 
 38 H        1.3530     1.1430     2.6220 H     1 <1>   0.0800 
 39 H        1.2820     0.7970     0.9110 H     1 <1>   0.0800 
 40 H       -3.6980     4.8650    -2.5780 H     1 <1>   0.0800 
 41 H       -2.5390     6.1500    -2.3390 H     1 <1>   0.0800 
 42 H       -3.8510     5.9390    -1.2070 H     1 <1>   0.0800 
 43 H       -3.5130    -4.9710    -1.9420 H     1 <1>   0.1500 
 44 H       -0.8760    -6.0260     1.1320 H     1 <1>   0.2700 
 45 H       -1.7180    -6.9670    -2.5090 H     1 <1>   0.0800 
 46 H       -1.3700    -7.8910    -1.0680 H     1 <1>   0.0800 
 47 H       -0.2260    -6.6950    -1.6440 H     1 <1>   0.0800 
@<TRIPOS>BOND
  1   1   2  2   
  2   2   3  am  
  3   2   4  1   
  4   3   5  1   
  5   3   6  1   
  6   4   7  ar  
  7   4   8  ar  
  8   5   9  1   
  9   5  27  1   
 10   5  28  1   
 11   6  10  1   
 12   6  29  1   
 13   6  30  1   
 14   7  11  ar  
 15   7  12  1   
 16   8  13  ar  
 17   8  31  1   
 18   9  10  1   
 19   9  14  1   
 20   9  32  1   
 21  10  15  1   
 22  10  33  1   
 23  11  16  1   
 24  11  17  ar  
 25  12  18  2   
 26  12  19  1   
 27  13  17  ar  
 28  13  20  1   
 29  14  34  1   
 30  15  21  1   
 31  15  35  1   
 32  15  36  1   
 33  16  18  1   
 34  19  37  1   
 35  19  38  1   
 36  19  39  1   
 37  20  40  1   
 38  20  41  1   
 39  20  42  1   
 40  21  22  2   
 41  21  23  1   
 42  22  24  1   
 43  23  25  2   
 44  23  43  1   
 45  24  25  1   
 46  24  44  1   
 47  25  26  1   
 48  26  45  1   
 49  26  46  1   
 50  26  47  1   
@<TRIPOS>SUBSTRUCTURE
  1 ****   3 GROUP 4 **** **** 0

# MOE 2024.06 (io_trps.svl 2023.06)
