@<TRIPOS>MOLECULE
NONAME
45 47 1 0 0 
SMALL
USER_CHARGES


@<TRIPOS>ATOM
  1 CL      -1.2440    -2.8630    -0.3670 Cl    1 <1>  -0.1770 
  2 C       -2.0510    -1.3210    -0.5160 C.ar  1 <1>   0.1770 
  3 C       -2.9680    -0.9300     0.4470 C.ar  1 <1>  -0.1440 
  4 C       -1.7560    -0.5210    -1.6030 C.ar  1 <1>  -0.1500 
  5 C       -3.5920     0.3020     0.3070 C.ar  1 <1>  -0.1500 
  6 C       -3.2670    -1.8390     1.6190 C.3   1 <1>   0.4870 
  7 C       -2.3870     0.7040    -1.7410 C.ar  1 <1>  -0.1440 
  8 C       -3.3030     1.1080    -0.7820 C.ar  1 <1>  -0.1500 
  9 N       -4.3050    -2.8140     1.2090 N.4   1 <1>  -0.9590 
 10 C       -2.0830     1.6040    -2.9250 C.3   1 <1>  -0.0970 
 11 C       -5.6480    -2.2440     0.8960 C.3   1 <1>   0.3430 
 12 C       -4.5100    -3.9790     2.0960 C.3   1 <1>   0.3430 
 13 C       -6.6600    -3.3580     1.1950 C.3   1 <1>   0.2000 
 14 C       -5.8440    -4.5770     1.6460 C.3   1 <1>  -0.0800 
 15 O       -7.4870    -2.9590     2.2390 O.3   1 <1>  -0.6800 
 16 C       -5.6770    -5.6310     0.5260 C.3   1 <1>   0.0210 
 17 C       -4.6910    -5.2770    -0.5810 C.2   1 <1>   0.1080 
 18 N       -4.7260    -4.1740    -1.2670 N.2   1 <1>  -0.7070 
 19 C       -3.6490    -6.1050    -0.9810 C.2   1 <1>  -0.1500 
 20 N       -3.7180    -4.2920    -2.1600 N.pl3 1 <1>   0.3000 
 21 C       -3.0430    -5.4450    -1.9890 C.2   1 <1>  -0.3320 
 22 C       -1.8440    -5.8590    -2.8230 C.3   1 <1>  -0.0600 
 23 H       -1.0360    -0.8560    -2.3290 H     1 <1>   0.1500 
 24 H       -4.3030     0.6510     1.0370 H     1 <1>   0.1500 
 25 H       -3.6100    -1.2590     2.4600 H     1 <1>   0.0800 
 26 H       -2.3670    -2.3580     1.9060 H     1 <1>   0.0800 
 27 H       -3.7940     2.0620    -0.8830 H     1 <1>   0.1500 
 28 H       -4.0120    -3.2240     0.2940 H     1 <1>   0.4500 
 29 H       -1.9280     2.6150    -2.5920 H     1 <1>   0.0800 
 30 H       -2.9060     1.5910    -3.6170 H     1 <1>   0.0800 
 31 H       -1.1960     1.2790    -3.4390 H     1 <1>   0.0800 
 32 H       -5.8600    -1.3820     1.5050 H     1 <1>   0.0800 
 33 H       -5.6930    -1.9710    -0.1460 H     1 <1>   0.0800 
 34 H       -3.7050    -4.6910     2.0060 H     1 <1>   0.0800 
 35 H       -4.5870    -3.6490     3.1200 H     1 <1>   0.0800 
 36 H       -7.2840    -3.5600     0.3400 H     1 <1>   0.0800 
 37 H       -6.3280    -5.0680     2.4730 H     1 <1>   0.0800 
 38 H       -7.0270    -2.9120     3.0990 H     1 <1>   0.4000 
 39 H       -6.6340    -5.8320     0.0750 H     1 <1>   0.0800 
 40 H       -5.3500    -6.5530     0.9740 H     1 <1>   0.0800 
 41 H       -3.3990    -7.0690    -0.5720 H     1 <1>   0.1500 
 42 H       -3.5160    -3.5810    -2.8760 H     1 <1>   0.2700 
 43 H       -1.4810    -6.8190    -2.5020 H     1 <1>   0.0800 
 44 H       -1.0490    -5.1420    -2.7180 H     1 <1>   0.0800 
 45 H       -2.1170    -5.9290    -3.8620 H     1 <1>   0.0800 
@<TRIPOS>BOND
  1   1   2  1   
  2   2   3  ar  
  3   2   4  ar  
  4   3   5  ar  
  5   3   6  1   
  6   4   7  ar  
  7   4  23  1   
  8   5   8  ar  
  9   5  24  1   
 10   6   9  1   
 11   6  25  1   
 12   6  26  1   
 13   7   8  ar  
 14   7  10  1   
 15   8  27  1   
 16   9  11  1   
 17   9  12  1   
 18   9  28  1   
 19  10  29  1   
 20  10  30  1   
 21  10  31  1   
 22  11  13  1   
 23  11  32  1   
 24  11  33  1   
 25  12  14  1   
 26  12  34  1   
 27  12  35  1   
 28  13  14  1   
 29  13  15  1   
 30  13  36  1   
 31  14  16  1   
 32  14  37  1   
 33  15  38  1   
 34  16  17  1   
 35  16  39  1   
 36  16  40  1   
 37  17  18  2   
 38  17  19  1   
 39  18  20  1   
 40  19  21  2   
 41  19  41  1   
 42  20  21  1   
 43  20  42  1   
 44  21  22  1   
 45  22  43  1   
 46  22  44  1   
 47  22  45  1   
@<TRIPOS>SUBSTRUCTURE
  1 ****   9 GROUP 4 **** **** 0

# MOE 2024.06 (io_trps.svl 2023.06)
