@<TRIPOS>MOLECULE
NONAME
57 61 1 0 0 
SMALL
USER_CHARGES


@<TRIPOS>ATOM
  1 O        2.1350    -0.2040    -0.9430 O.3   1 <1>  -0.5600 
  2 C        2.7270    -1.1280    -0.0490 C.3   1 <1>   0.4600 
  3 C        0.7840     0.1470    -0.7360 C.3   1 <1>   0.1200 
  4 C        1.7240    -2.2150     0.3100 C.2   1 <1>  -0.3320 
  5 C        3.2190    -0.3650     1.1850 C.3   1 <1>  -0.1600 
  6 C        3.9310    -1.7220    -0.7920 C.3   1 <1>  -0.1600 
  7 C       -0.1380    -1.0710    -0.9000 C.3   1 <1>   0.0210 
  8 N        1.9510    -3.3430     1.0550 N.pl3 1 <1>   0.0330 
  9 C        0.4320    -2.1990    -0.0780 C.2   1 <1>  -0.1810 
 10 C        4.1950     0.7620     0.8290 C.3   1 <1>   0.3430 
 11 C        5.1220    -0.7620    -0.9080 C.3   1 <1>   0.3430 
 12 C        0.7760    -4.0500     1.1260 C.ar  1 <1>  -0.1520 
 13 C       -0.2010    -3.3560     0.4180 C.ar  1 <1>   0.0000 
 14 N        4.7050     0.6200    -0.5690 N.4   1 <1>  -0.9590 
 15 C        0.4790    -5.2590     1.7590 C.ar  1 <1>  -0.1500 
 16 C       -1.4970    -3.8750     0.3360 C.ar  1 <1>  -0.1500 
 17 C        5.6830     1.6670    -0.9470 C.3   1 <1>   0.5240 
 18 C       -0.8000    -5.7590     1.6720 C.ar  1 <1>  -0.1500 
 19 C       -1.7880    -5.0670     0.9600 C.ar  1 <1>  -0.1500 
 20 C        4.9880     3.0010    -0.8150 C.2   1 <1>  -0.1810 
 21 C        5.3030     4.0170     0.0820 C.2   1 <1>   0.1080 
 22 C        3.9280     3.4730    -1.5100 C.2   1 <1>  -0.3020 
 23 N        4.5020     5.0240    -0.0350 N.2   1 <1>  -0.7070 
 24 C        6.4280     4.0190     1.0950 C.3   1 <1>  -0.0590 
 25 N        3.6550     4.7000    -1.0260 N.pl3 1 <1>   0.3140 
 26 C        2.5910     5.6180    -1.4680 C.3   1 <1>   0.0960 
 27 C        1.5450     5.7600    -0.3640 C.3   1 <1>   0.1200 
 28 O        0.4970     6.5390    -0.8310 O.3   1 <1>  -0.6800 
 29 H        0.5220     0.9050    -1.4540 H     1 <1>   0.0800 
 30 H        0.6820     0.5570     0.2530 H     1 <1>   0.0800 
 31 H        3.7140    -1.0530     1.8450 H     1 <1>   0.0800 
 32 H        2.3840     0.0330     1.7320 H     1 <1>   0.0800 
 33 H        3.6130    -2.0340    -1.7710 H     1 <1>   0.0800 
 34 H        4.2720    -2.6050    -0.2850 H     1 <1>   0.0800 
 35 H       -0.1920    -1.3620    -1.9330 H     1 <1>   0.0800 
 36 H       -1.1270    -0.8270    -0.5580 H     1 <1>   0.0800 
 37 H        2.8250    -3.6460     1.4930 H     1 <1>   0.2700 
 38 H        5.0160     0.7630     1.5290 H     1 <1>   0.0800 
 39 H        3.6820     1.7070     0.9190 H     1 <1>   0.0800 
 40 H        5.5070    -0.7990    -1.9150 H     1 <1>   0.0800 
 41 H        5.9040    -1.0760    -0.2360 H     1 <1>   0.0800 
 42 H        3.8600     0.7930    -1.1470 H     1 <1>   0.4500 
 43 H        1.2420    -5.7870     2.3030 H     1 <1>   0.1500 
 44 H       -2.2450    -3.3360    -0.2130 H     1 <1>   0.1500 
 45 H        5.9990     1.5310    -1.9690 H     1 <1>   0.0800 
 46 H        6.5480     1.6280    -0.3060 H     1 <1>   0.0800 
 47 H       -1.0550    -6.6880     2.1500 H     1 <1>   0.1500 
 48 H       -2.7800    -5.4790     0.9070 H     1 <1>   0.1500 
 49 H        3.3590     3.0270    -2.3060 H     1 <1>   0.1500 
 50 H        6.5000     3.0700     1.5920 H     1 <1>   0.0800 
 51 H        6.2450     4.7790     1.8340 H     1 <1>   0.0800 
 52 H        7.3570     4.2420     0.6040 H     1 <1>   0.0800 
 53 H        2.1390     5.2220    -2.3570 H     1 <1>   0.0800 
 54 H        3.0380     6.5710    -1.6810 H     1 <1>   0.0800 
 55 H        1.9610     6.2310     0.5110 H     1 <1>   0.0800 
 56 H        1.1420     4.7980    -0.1010 H     1 <1>   0.0800 
 57 H        0.7370     7.4880    -0.8320 H     1 <1>   0.4000 
@<TRIPOS>BOND
  1   1   2  1   
  2   1   3  1   
  3   2   4  1   
  4   2   5  1   
  5   2   6  1   
  6   3   7  1   
  7   3  29  1   
  8   3  30  1   
  9   4   8  1   
 10   4   9  2   
 11   5  10  1   
 12   5  31  1   
 13   5  32  1   
 14   6  11  1   
 15   6  33  1   
 16   6  34  1   
 17   7   9  1   
 18   7  35  1   
 19   7  36  1   
 20   8  12  1   
 21   8  37  1   
 22   9  13  1   
 23  10  14  1   
 24  10  38  1   
 25  10  39  1   
 26  11  14  1   
 27  11  40  1   
 28  11  41  1   
 29  12  13  ar  
 30  12  15  ar  
 31  13  16  ar  
 32  14  17  1   
 33  14  42  1   
 34  15  18  ar  
 35  15  43  1   
 36  16  19  ar  
 37  16  44  1   
 38  17  20  1   
 39  17  45  1   
 40  17  46  1   
 41  18  19  ar  
 42  18  47  1   
 43  19  48  1   
 44  20  21  1   
 45  20  22  2   
 46  21  23  2   
 47  21  24  1   
 48  22  25  1   
 49  22  49  1   
 50  23  25  1   
 51  24  50  1   
 52  24  51  1   
 53  24  52  1   
 54  25  26  1   
 55  26  27  1   
 56  26  53  1   
 57  26  54  1   
 58  27  28  1   
 59  27  55  1   
 60  27  56  1   
 61  28  57  1   
@<TRIPOS>SUBSTRUCTURE
  1 ****   1 GROUP 4 **** **** 0

# MOE 2024.06 (io_trps.svl 2023.06)
