@<TRIPOS>MOLECULE
NONAME
39 41 1 0 0 
SMALL
USER_CHARGES


@<TRIPOS>ATOM
  1 O       -1.9190     1.6520    -1.7690 O.2   1 <1>  -0.5700 
  2 C       -1.9300     1.7110    -0.5600 C.2   1 <1>   0.5690 
  3 N       -1.8250     0.6020     0.2240 N.am  1 <1>  -0.5790 
  4 C       -2.0680     3.0840     0.1130 C.3   1 <1>   0.1710 
  5 C       -1.6720    -0.7760    -0.2590 C.3   1 <1>   0.0490 
  6 N       -0.7940     3.7700     0.4690 N.3   1 <1>  -0.8100 
  7 C       -2.2630    -1.8760     0.5600 C.3   1 <1>  -0.2000 
  8 C       -0.7750    -1.6900     0.5070 C.3   1 <1>  -0.2000 
  9 C        0.0010     4.0650    -0.7430 C.3   1 <1>   0.2530 
 10 C       -0.0160     3.0400     1.4800 C.3   1 <1>   0.0300 
 11 C        1.2520     4.8820    -0.4260 C.ar  1 <1>  -0.1440 
 12 C        1.1560     6.2080     0.0610 C.ar  1 <1>   0.0000 
 13 C        2.4850     4.3150    -0.6300 C.ar  1 <1>  -0.1500 
 14 C        2.3320     6.9330     0.3210 C.ar  1 <1>   0.0000 
 15 C       -0.0440     6.8990     0.3230 C.ar  1 <1>  -0.1500 
 16 C        3.6550     5.0320    -0.3650 C.ar  1 <1>  -0.1500 
 17 C        2.2100     8.2590     0.7970 C.ar  1 <1>   0.1600 
 18 C        3.5780     6.3150     0.1000 C.ar  1 <1>  -0.1500 
 19 C       -0.0290     8.1830     0.7860 C.ar  1 <1>   0.1600 
 20 N        1.0940     8.8830     1.0270 N.ar  1 <1>  -0.6200 
 21 H       -1.8110     0.7080     1.2370 H     1 <1>   0.3700 
 22 H       -2.6600     2.9710     1.0030 H     1 <1>   0.0800 
 23 H       -2.6240     3.7190    -0.5530 H     1 <1>   0.0800 
 24 H       -1.7000    -0.8590    -1.3350 H     1 <1>   0.1000 
 25 H       -2.6870    -2.7240     0.0510 H     1 <1>   0.1000 
 26 H       -2.7900    -1.6290     1.4640 H     1 <1>   0.1000 
 27 H       -0.2630    -1.3140     1.3740 H     1 <1>   0.1000 
 28 H       -0.1930    -2.4140    -0.0360 H     1 <1>   0.1000 
 29 H       -0.6030     4.6180    -1.4420 H     1 <1>   0.0800 
 30 H        0.2850     3.1430    -1.2230 H     1 <1>   0.0800 
 31 H       -0.6370     2.8090     2.3280 H     1 <1>   0.0800 
 32 H        0.8010     3.6510     1.8260 H     1 <1>   0.0800 
 33 H        0.3850     2.1290     1.0690 H     1 <1>   0.0800 
 34 H        2.5770     3.3080    -0.9990 H     1 <1>   0.1500 
 35 H       -0.9800     6.4010     0.1610 H     1 <1>   0.1500 
 36 H        4.6080     4.5610    -0.5340 H     1 <1>   0.1500 
 37 H        3.1240     8.7940     0.9840 H     1 <1>   0.1500 
 38 H        4.4750     6.8720     0.3040 H     1 <1>   0.1500 
 39 H       -0.9550     8.6950     0.9830 H     1 <1>   0.1500 
@<TRIPOS>BOND
  1   1   2  2   
  2   2   3  am  
  3   2   4  1   
  4   3   5  1   
  5   3  21  1   
  6   4   6  1   
  7   4  22  1   
  8   4  23  1   
  9   5   7  1   
 10   5   8  1   
 11   5  24  1   
 12   6   9  1   
 13   6  10  1   
 14   7   8  1   
 15   7  25  1   
 16   7  26  1   
 17   8  27  1   
 18   8  28  1   
 19   9  11  1   
 20   9  29  1   
 21   9  30  1   
 22  10  31  1   
 23  10  32  1   
 24  10  33  1   
 25  11  12  ar  
 26  11  13  ar  
 27  12  14  ar  
 28  12  15  ar  
 29  13  16  ar  
 30  13  34  1   
 31  14  17  ar  
 32  14  18  ar  
 33  15  19  ar  
 34  15  35  1   
 35  16  18  ar  
 36  16  36  1   
 37  17  20  ar  
 38  17  37  1   
 39  18  38  1   
 40  19  20  ar  
 41  19  39  1   
@<TRIPOS>SUBSTRUCTURE
  1 ****   9 GROUP 4 **** **** 0

# MOE 2024.06 (io_trps.svl 2023.06)
