@<TRIPOS>MOLECULE
NONAME
42 43 1 0 0 
SMALL
USER_CHARGES


@<TRIPOS>ATOM
  1 O       -2.6930     1.0220    -1.5680 O.2   1 <1>  -0.5700 
  2 C       -2.2420     0.8820    -0.4580 C.2   1 <1>   0.5690 
  3 N       -2.1380    -0.3380     0.1200 N.am  1 <1>  -0.7300 
  4 C       -1.7840     2.0960     0.3150 C.3   1 <1>  -0.0990 
  5 C       -2.5540    -1.6070    -0.5150 C.3   1 <1>   0.2200 
  6 C       -0.7200     2.8520    -0.4710 C.3   1 <1>   0.1200 
  7 C       -3.8990    -2.0280     0.0500 C.3   1 <1>  -0.0800 
  8 C       -1.6500    -2.7390    -0.0420 C.3   1 <1>   0.1200 
  9 O       -0.2560     3.8870     0.3300 O.3   1 <1>  -0.5600 
 10 C       -3.4980    -2.7630     1.3350 C.3   1 <1>   0.1200 
 11 C       -4.6640    -2.9360    -0.9310 C.3   1 <1>  -0.0160 
 12 O       -2.1600    -3.1490     1.1910 O.3   1 <1>  -0.5600 
 13 C        0.6920     4.6920    -0.2850 C.3   1 <1>   0.1200 
 14 C       -6.0280    -3.3230    -0.3810 C.ar  1 <1>  -0.1440 
 15 C        1.1060     5.7620     0.7180 C.3   1 <1>  -0.2400 
 16 C       -7.0750    -2.4250    -0.3480 C.ar  1 <1>  -0.1500 
 17 C       -6.2920    -4.5850     0.1120 C.ar  1 <1>  -0.1500 
 18 C       -8.3000    -2.8190     0.1650 C.ar  1 <1>   0.1600 
 19 C       -7.5530    -4.8780     0.6040 C.ar  1 <1>   0.1600 
 20 N       -8.5630    -4.0240     0.6440 N.ar  1 <1>  -0.6200 
 21 H       -1.7900    -0.4380     1.0770 H     1 <1>   0.3700 
 22 H       -2.6290     2.7370     0.4790 H     1 <1>   0.0800 
 23 H       -1.3810     1.7950     1.2630 H     1 <1>   0.0800 
 24 H       -2.5540    -1.5050    -1.5880 H     1 <1>   0.0800 
 25 H       -1.1400     3.2640    -1.3740 H     1 <1>   0.0800 
 26 H        0.1060     2.2040    -0.7130 H     1 <1>   0.0800 
 27 H       -4.5110    -1.1710     0.2720 H     1 <1>   0.0800 
 28 H       -0.6250    -2.4330     0.0730 H     1 <1>   0.0800 
 29 H       -1.7060    -3.5770    -0.7130 H     1 <1>   0.0800 
 30 H       -4.0950    -3.6380     1.5250 H     1 <1>   0.0800 
 31 H       -3.5550    -2.1030     2.1830 H     1 <1>   0.0800 
 32 H       -4.0930    -3.8240    -1.1410 H     1 <1>   0.0800 
 33 H       -4.8060    -2.4140    -1.8620 H     1 <1>   0.0800 
 34 H        1.5380     4.0850    -0.5640 H     1 <1>   0.0800 
 35 H        0.2540     5.1410    -1.1600 H     1 <1>   0.0800 
 36 H        1.5280     5.3020     1.5930 H     1 <1>   0.0800 
 37 H        0.2520     6.3520     0.9990 H     1 <1>   0.0800 
 38 H        1.8420     6.4090     0.2780 H     1 <1>   0.0800 
 39 H       -6.9510    -1.4230    -0.7170 H     1 <1>   0.1500 
 40 H       -5.5310    -5.3440     0.1190 H     1 <1>   0.1500 
 41 H       -9.1050    -2.1040     0.1830 H     1 <1>   0.1500 
 42 H       -7.7410    -5.8670     0.9850 H     1 <1>   0.1500 
@<TRIPOS>BOND
  1   1   2  2   
  2   2   3  am  
  3   2   4  1   
  4   3   5  1   
  5   3  21  1   
  6   4   6  1   
  7   4  22  1   
  8   4  23  1   
  9   5   7  1   
 10   5   8  1   
 11   5  24  1   
 12   6   9  1   
 13   6  25  1   
 14   6  26  1   
 15   7  10  1   
 16   7  11  1   
 17   7  27  1   
 18   8  12  1   
 19   8  28  1   
 20   8  29  1   
 21   9  13  1   
 22  10  12  1   
 23  10  30  1   
 24  10  31  1   
 25  11  14  1   
 26  11  32  1   
 27  11  33  1   
 28  13  15  1   
 29  13  34  1   
 30  13  35  1   
 31  14  16  ar  
 32  14  17  ar  
 33  15  36  1   
 34  15  37  1   
 35  15  38  1   
 36  16  18  ar  
 37  16  39  1   
 38  17  19  ar  
 39  17  40  1   
 40  18  20  ar  
 41  18  41  1   
 42  19  20  ar  
 43  19  42  1   
@<TRIPOS>SUBSTRUCTURE
  1 ****   7 GROUP 4 **** **** 0

# MOE 2024.06 (io_trps.svl 2023.06)
