@<TRIPOS>MOLECULE
NONAME
50 51 1 0 0 
SMALL
USER_CHARGES


@<TRIPOS>ATOM
  1 S        0.4090    -0.2000     0.4090 S.o2  1 <1>   1.3330 
  2 O        1.1130    -1.1450     1.2470 O.2   1 <1>  -0.6500 
  3 O       -0.4100     0.8220     1.0210 O.2   1 <1>  -0.6500 
  4 N       -0.5600    -1.0860    -0.6670 N.am  1 <1>  -0.8490 
  5 C        1.5660     0.6160    -0.6930 C.3   1 <1>  -0.0550 
  6 C        0.0100    -2.3890    -1.0260 C.3   1 <1>   0.1160 
  7 C       -1.9280    -1.2610    -0.1690 C.3   1 <1>   0.1160 
  8 C        2.5350     1.5750     0.0270 C.3   1 <1>  -0.0800 
  9 C        3.3260     2.4020    -0.9710 C.3   1 <1>   0.2200 
 10 C        3.6460     0.8220     0.7690 C.3   1 <1>   0.1200 
 11 N        3.8010     3.6380    -0.3120 N.am  1 <1>  -0.7300 
 12 C        4.5130     1.4910    -1.2640 C.3   1 <1>   0.1200 
 13 O        4.7450     0.7650    -0.0930 O.3   1 <1>  -0.5600 
 14 C        3.4410     4.8930    -0.6730 C.2   1 <1>   0.5690 
 15 O        2.6650     5.1020    -1.5710 O.2   1 <1>  -0.5700 
 16 C        4.0400     6.0630     0.0810 C.3   1 <1>  -0.0990 
 17 C        5.5250     6.2690    -0.2570 C.3   1 <1>  -0.1600 
 18 C        6.1130     7.4760     0.4820 C.3   1 <1>  -0.0170 
 19 C        7.5870     7.6350     0.1450 C.ar  1 <1>  -0.1440 
 20 C        7.9740     8.3610    -0.9710 C.ar  1 <1>  -0.1500 
 21 C        8.5570     7.0510     0.9450 C.ar  1 <1>  -0.1500 
 22 C        9.3150     8.5060    -1.2810 C.ar  1 <1>  -0.1500 
 23 C        9.8980     7.1940     0.6360 C.ar  1 <1>  -0.1500 
 24 C       10.2780     7.9220    -0.4780 C.ar  1 <1>  -0.1500 
 25 H        2.1240    -0.1220    -1.2350 H     1 <1>   0.0800 
 26 H        0.9940     1.1810    -1.4040 H     1 <1>   0.0800 
 27 H       -0.5970    -2.8630    -1.7790 H     1 <1>   0.0800 
 28 H        0.0590    -3.0310    -0.1610 H     1 <1>   0.0800 
 29 H        1.0040    -2.2650    -1.4190 H     1 <1>   0.0800 
 30 H       -2.5180    -1.8120    -0.8810 H     1 <1>   0.0800 
 31 H       -2.3930    -0.2990    -0.0230 H     1 <1>   0.0800 
 32 H       -1.9200    -1.7870     0.7710 H     1 <1>   0.0800 
 33 H        1.9710     2.2050     0.6930 H     1 <1>   0.0800 
 34 H        2.7710     2.6420    -1.8630 H     1 <1>   0.0800 
 35 H        3.3770    -0.1800     1.0520 H     1 <1>   0.0800 
 36 H        3.9520     1.3660     1.6470 H     1 <1>   0.0800 
 37 H        4.4970     3.4890     0.4210 H     1 <1>   0.3700 
 38 H        5.3990     2.0390    -1.5330 H     1 <1>   0.0800 
 39 H        4.2700     0.7880    -2.0400 H     1 <1>   0.0800 
 40 H        3.4850     6.9480    -0.1740 H     1 <1>   0.0800 
 41 H        3.9190     5.8900     1.1350 H     1 <1>   0.0800 
 42 H        6.0850     5.3880     0.0050 H     1 <1>   0.0800 
 43 H        5.6290     6.4210    -1.3190 H     1 <1>   0.0800 
 44 H        6.0000     7.3480     1.5440 H     1 <1>   0.0800 
 45 H        5.5840     8.3710     0.2020 H     1 <1>   0.0800 
 46 H        7.2310     8.8170    -1.6030 H     1 <1>   0.1500 
 47 H        8.2730     6.4830     1.8130 H     1 <1>   0.1500 
 48 H        9.6080     9.0710    -2.1480 H     1 <1>   0.1500 
 49 H       10.6460     6.7390     1.2610 H     1 <1>   0.1500 
 50 H       11.3210     8.0350    -0.7190 H     1 <1>   0.1500 
@<TRIPOS>BOND
  1   1   2  2   
  2   1   3  2   
  3   1   4  am  
  4   1   5  1   
  5   4   6  1   
  6   4   7  1   
  7   5   8  1   
  8   5  25  1   
  9   5  26  1   
 10   6  27  1   
 11   6  28  1   
 12   6  29  1   
 13   7  30  1   
 14   7  31  1   
 15   7  32  1   
 16   8   9  1   
 17   8  10  1   
 18   8  33  1   
 19   9  11  1   
 20   9  12  1   
 21   9  34  1   
 22  10  13  1   
 23  10  35  1   
 24  10  36  1   
 25  11  14  am  
 26  11  37  1   
 27  12  13  1   
 28  12  38  1   
 29  12  39  1   
 30  14  15  2   
 31  14  16  1   
 32  16  17  1   
 33  16  40  1   
 34  16  41  1   
 35  17  18  1   
 36  17  42  1   
 37  17  43  1   
 38  18  19  1   
 39  18  44  1   
 40  18  45  1   
 41  19  20  ar  
 42  19  21  ar  
 43  20  22  ar  
 44  20  46  1   
 45  21  23  ar  
 46  21  47  1   
 47  22  24  ar  
 48  22  48  1   
 49  23  24  ar  
 50  23  49  1   
 51  24  50  1   
@<TRIPOS>SUBSTRUCTURE
  1 ****  11 GROUP 4 **** **** 0

# MOE 2024.06 (io_trps.svl 2023.06)
