@<TRIPOS>MOLECULE
NONAME
38 40 1 0 0 
SMALL
USER_CHARGES


@<TRIPOS>ATOM
  1 O       -1.5750     0.4120     2.7180 O.2   1 <1>  -0.5700 
  2 C       -2.0880     0.9170     1.7170 C.2   1 <1>   0.5440 
  3 N       -3.3880     0.5050     1.4390 N.am  1 <1>  -0.6600 
  4 C       -1.3890     1.9140     0.9290 C.ar  1 <1>   0.3960 
  5 C       -4.2010     1.1260     0.3600 C.3   1 <1>   0.1400 
  6 C       -3.7180    -0.9350     1.5450 C.3   1 <1>   0.1400 
  7 N       -1.1080     3.1130     1.4950 N.ar  1 <1>  -0.6200 
  8 C       -1.0290     1.6340    -0.4270 C.ar  1 <1>  -0.1710 
  9 C       -5.3020     0.1050     0.0690 C.3   1 <1>   0.2000 
 10 C       -4.6350    -1.2420     0.3500 C.3   1 <1>  -0.0800 
 11 C       -0.4720     3.9930     0.7600 C.ar  1 <1>   0.1600 
 12 O       -1.2880     0.5510    -1.0110 O.3   1 <1>  -0.8290 
 13 C       -0.3550     2.6080    -1.1660 C.ar  1 <1>  -0.1500 
 14 O       -6.3180     0.2840     0.9970 O.3   1 <1>  -0.6800 
 15 C       -3.8540    -1.7110    -0.8950 C.3   1 <1>   0.0200 
 16 C       -0.0760     3.7960    -0.5600 C.ar  1 <1>  -0.1500 
 17 C       -2.9300    -2.8740    -0.6010 C.2   1 <1>  -0.0400 
 18 O       -3.3810    -4.0750    -0.3530 O.3   1 <1>  -0.0190 
 19 C       -1.5940    -2.9040    -0.5260 C.2   1 <1>  -0.1500 
 20 N       -2.4100    -4.9120    -0.1140 N.2   1 <1>  -0.4100 
 21 C       -1.3220    -4.2300    -0.2100 C.2   1 <1>   0.1080 
 22 C        0.0660    -4.7880    -0.0020 C.3   1 <1>  -0.0590 
 23 H       -4.6000     2.0760     0.6680 H     1 <1>   0.0800 
 24 H       -3.5990     1.2630    -0.5200 H     1 <1>   0.0800 
 25 H       -2.8210    -1.5300     1.5500 H     1 <1>   0.0800 
 26 H       -4.2410    -1.0990     2.4710 H     1 <1>   0.0800 
 27 H       -5.7170     0.1930    -0.9200 H     1 <1>   0.0800 
 28 H       -5.3550    -1.9990     0.6070 H     1 <1>   0.0800 
 29 H       -0.2430     4.9380     1.2180 H     1 <1>   0.1500 
 30 H       -0.0830     2.3810    -2.1800 H     1 <1>   0.1500 
 31 H       -5.8930     0.4070     1.8710 H     1 <1>   0.4000 
 32 H       -3.2510    -0.9080    -1.2750 H     1 <1>   0.0800 
 33 H       -4.5390    -1.9950    -1.6720 H     1 <1>   0.0800 
 34 H        0.4420     4.5750    -1.0840 H     1 <1>   0.1500 
 35 H       -0.8990    -2.0900    -0.6640 H     1 <1>   0.1500 
 36 H        0.6560    -4.6280    -0.8850 H     1 <1>   0.0800 
 37 H        0.0140    -5.8410     0.2030 H     1 <1>   0.0800 
 38 H        0.5320    -4.2890     0.8290 H     1 <1>   0.0800 
@<TRIPOS>BOND
  1   1   2  2   
  2   2   3  am  
  3   2   4  1   
  4   3   5  1   
  5   3   6  1   
  6   4   7  ar  
  7   4   8  ar  
  8   5   9  1   
  9   5  23  1   
 10   5  24  1   
 11   6  10  1   
 12   6  25  1   
 13   6  26  1   
 14   7  11  ar  
 15   8  12  1   
 16   8  13  ar  
 17   9  10  1   
 18   9  14  1   
 19   9  27  1   
 20  10  15  1   
 21  10  28  1   
 22  11  16  ar  
 23  11  29  1   
 24  13  16  ar  
 25  13  30  1   
 26  14  31  1   
 27  15  17  1   
 28  15  32  1   
 29  15  33  1   
 30  16  34  1   
 31  17  18  1   
 32  17  19  2   
 33  18  20  1   
 34  19  21  1   
 35  19  35  1   
 36  20  21  2   
 37  21  22  1   
 38  22  36  1   
 39  22  37  1   
 40  22  38  1   
@<TRIPOS>SUBSTRUCTURE
  1 ****   3 GROUP 4 **** **** 0

# MOE 2024.06 (io_trps.svl 2023.06)
