@<TRIPOS>MOLECULE
NONAME
54 55 1 0 0 
SMALL
USER_CHARGES


@<TRIPOS>ATOM
  1 O       -1.8480     5.2300     0.0260 O.co2 1 <1>  -0.9000 
  2 C       -2.0790     4.0200    -0.0660 C.2   1 <1>   0.9060 
  3 O       -2.2780     3.4790    -1.1600 O.co2 1 <1>  -0.9000 
  4 C       -1.7190     3.1460     1.1580 C.3   1 <1>   0.3170 
  5 N       -0.2780     2.6270     1.0950 N.4   1 <1>  -0.9590 
  6 C       -2.7070     1.9900     1.4180 C.3   1 <1>  -0.1600 
  7 C        0.6390     3.8600     1.1740 C.3   1 <1>   0.3430 
  8 C       -0.1530     1.7050    -0.0860 C.3   1 <1>   0.2630 
  9 C       -4.0740     2.5090     1.8830 C.3   1 <1>  -0.2400 
 10 C        1.8310     4.2260     0.1920 C.3   1 <1>   0.5030 
 11 N        1.4560     5.0040    -1.0580 N.4   1 <1>  -0.9590 
 12 C        2.7760     5.1660     1.0040 C.3   1 <1>  -0.1600 
 13 C        2.6420     2.9660    -0.2320 C.3   1 <1>  -0.1600 
 14 C        0.8880     6.3770    -0.8130 C.3   1 <1>   0.3430 
 15 C        0.5460     4.3420    -2.0460 C.3   1 <1>   0.3430 
 16 C        3.8760     4.4280     1.7820 C.3   1 <1>  -0.1600 
 17 C        4.1340     3.2390    -0.4770 C.3   1 <1>  -0.1600 
 18 C        0.9950     7.2010    -2.0980 C.3   1 <1>  -0.1600 
 19 C        0.6620     5.0580    -3.3910 C.3   1 <1>  -0.1600 
 20 C        4.8250     3.6970     0.8180 C.3   1 <1>  -0.1600 
 21 C        0.2500     6.5290    -3.2580 C.3   1 <1>  -0.1600 
 22 H       -1.7920     3.8070     2.0030 H     1 <1>   0.0800 
 23 H       -0.1490     2.0660     1.9470 H     1 <1>   0.4500 
 24 H       -2.3180     1.3390     2.1810 H     1 <1>   0.0800 
 25 H       -2.8560     1.4220     0.5160 H     1 <1>   0.0800 
 26 H        1.1000     3.8020     2.1450 H     1 <1>   0.0800 
 27 H        0.0200     4.7400     1.2200 H     1 <1>   0.0800 
 28 H       -0.3380     2.2370    -1.0040 H     1 <1>   0.0800 
 29 H       -0.8810     0.9140    -0.0180 H     1 <1>   0.0800 
 30 H        0.8210     1.2510    -0.1200 H     1 <1>   0.0800 
 31 H       -3.9800     3.0860     2.7870 H     1 <1>   0.0800 
 32 H       -4.7360     1.6830     2.0740 H     1 <1>   0.0800 
 33 H       -4.5230     3.1270     1.1240 H     1 <1>   0.0800 
 34 H        2.3350     5.1560    -1.5600 H     1 <1>   0.4500 
 35 H        2.2100     5.7660     1.6960 H     1 <1>   0.0800 
 36 H        3.2890     5.8450     0.3430 H     1 <1>   0.0800 
 37 H        2.2350     2.5030    -1.1100 H     1 <1>   0.0800 
 38 H        2.5920     2.2360     0.5570 H     1 <1>   0.0800 
 39 H        1.4230     6.8890    -0.0320 H     1 <1>   0.0800 
 40 H       -0.1450     6.3160    -0.5240 H     1 <1>   0.0800 
 41 H       -0.4700     4.4280    -1.7170 H     1 <1>   0.0800 
 42 H        0.7860     3.3020    -2.1760 H     1 <1>   0.0800 
 43 H        3.4350     3.7200     2.4630 H     1 <1>   0.0800 
 44 H        4.4450     5.1270     2.3740 H     1 <1>   0.0800 
 45 H        4.2490     3.9960    -1.2350 H     1 <1>   0.0800 
 46 H        4.6210     2.3480    -0.8400 H     1 <1>   0.0800 
 47 H        2.0310     7.3430    -2.3530 H     1 <1>   0.0800 
 48 H        0.5680     8.1740    -1.9240 H     1 <1>   0.0800 
 49 H        0.0070     4.5760    -4.0950 H     1 <1>   0.0800 
 50 H        1.6660     4.9770    -3.7680 H     1 <1>   0.0800 
 51 H        5.2440     2.8440     1.3270 H     1 <1>   0.0800 
 52 H        5.6480     4.3430     0.5600 H     1 <1>   0.0800 
 53 H        0.4380     7.0550    -4.1800 H     1 <1>   0.0800 
 54 H       -0.8110     6.5760    -3.0640 H     1 <1>   0.0800 
@<TRIPOS>BOND
  1   1   2  ar  
  2   2   3  ar  
  3   2   4  1   
  4   4   5  1   
  5   4   6  1   
  6   4  22  1   
  7   5   7  1   
  8   5   8  1   
  9   5  23  1   
 10   6   9  1   
 11   6  24  1   
 12   6  25  1   
 13   7  10  1   
 14   7  26  1   
 15   7  27  1   
 16   8  28  1   
 17   8  29  1   
 18   8  30  1   
 19   9  31  1   
 20   9  32  1   
 21   9  33  1   
 22  10  11  1   
 23  10  12  1   
 24  10  13  1   
 25  11  14  1   
 26  11  15  1   
 27  11  34  1   
 28  12  16  1   
 29  12  35  1   
 30  12  36  1   
 31  13  17  1   
 32  13  37  1   
 33  13  38  1   
 34  14  18  1   
 35  14  39  1   
 36  14  40  1   
 37  15  19  1   
 38  15  41  1   
 39  15  42  1   
 40  16  20  1   
 41  16  43  1   
 42  16  44  1   
 43  17  20  1   
 44  17  45  1   
 45  17  46  1   
 46  18  21  1   
 47  18  47  1   
 48  18  48  1   
 49  19  21  1   
 50  19  49  1   
 51  19  50  1   
 52  20  51  1   
 53  20  52  1   
 54  21  53  1   
 55  21  54  1   
@<TRIPOS>SUBSTRUCTURE
  1 ****  10 GROUP 4 **** **** 0

# MOE 2024.06 (io_trps.svl 2023.06)
