@<TRIPOS>MOLECULE
NONAME
56 58 1 0 0 
SMALL
USER_CHARGES


@<TRIPOS>ATOM
  1 O        0.1360    -0.8430    -1.1590 O.2   1 <1>  -0.5700 
  2 C        0.9570    -1.5090    -0.5760 C.2   1 <1>   0.5690 
  3 N        0.9040    -1.7610     0.7670 N.am  1 <1>  -0.6600 
  4 C        2.1090    -2.0990    -1.3620 C.3   1 <1>  -0.0990 
  5 C        1.9950    -2.5010     1.4510 C.3   1 <1>   0.1400 
  6 C       -0.1770    -1.2240     1.6370 C.3   1 <1>   0.0600 
  7 C        2.3570    -3.5510    -0.9240 C.3   1 <1>  -0.0800 
  8 C        2.4920    -3.6950     0.6080 C.3   1 <1>  -0.0800 
  9 C        3.6230    -4.1590    -1.5510 C.3   1 <1>  -0.1600 
 10 C        3.9660    -4.0210     0.8690 C.3   1 <1>  -0.1600 
 11 C        4.4150    -4.7550    -0.3890 C.3   1 <1>   0.2200 
 12 N        5.8910    -4.7740    -0.6070 N.am  1 <1>  -0.6600 
 13 C        6.7390    -3.7090    -0.8630 C.2   1 <1>   0.5690 
 14 C        6.4430    -6.1640    -0.6220 C.3   1 <1>   0.0600 
 15 O        7.8650    -3.9060    -1.2620 O.2   1 <1>  -0.5700 
 16 C        6.3440    -2.2390    -0.7010 C.3   1 <1>   0.1810 
 17 O        6.6150    -1.7710     0.6130 O.3   1 <1>  -0.3630 
 18 C        7.1060    -0.5130     0.6990 C.ar  1 <1>   0.0820 
 19 C        8.4710    -0.2820     0.5170 C.ar  1 <1>  -0.1440 
 20 C        6.2300     0.5340     0.9670 C.ar  1 <1>  -0.1440 
 21 C        8.9460     1.0270     0.5540 C.ar  1 <1>  -0.1440 
 22 C        9.4230    -1.4560     0.2840 C.3   1 <1>  -0.0970 
 23 C        6.7210     1.8250     1.0130 C.ar  1 <1>  -0.1500 
 24 C        4.7510     0.2820     1.2170 C.3   1 <1>  -0.0970 
 25 C        8.0650     2.0680     0.8020 C.ar  1 <1>  -0.1500 
 26 C       10.4150     1.3610     0.3300 C.3   1 <1>  -0.0970 
 27 H        1.8760    -2.0660    -2.4110 H     1 <1>   0.0800 
 28 H        2.9770    -1.4940    -1.1880 H     1 <1>   0.0800 
 29 H        2.8000    -1.8100     1.6240 H     1 <1>   0.0800 
 30 H        1.6560    -2.8570     2.4090 H     1 <1>   0.0800 
 31 H       -0.6780    -2.0340     2.1360 H     1 <1>   0.0800 
 32 H       -0.9010    -0.6830     1.0510 H     1 <1>   0.0800 
 33 H        0.2420    -0.5560     2.3690 H     1 <1>   0.0800 
 34 H        1.5020    -4.1300    -1.2340 H     1 <1>   0.0800 
 35 H        1.9140    -4.5570     0.8970 H     1 <1>   0.0800 
 36 H        4.1870    -3.4180    -2.0840 H     1 <1>   0.0800 
 37 H        3.3580    -4.9360    -2.2470 H     1 <1>   0.0800 
 38 H        4.0860    -4.6370     1.7420 H     1 <1>   0.0800 
 39 H        4.5200    -3.1160     1.0040 H     1 <1>   0.0800 
 40 H        4.0710    -5.7720    -0.2810 H     1 <1>   0.0800 
 41 H        6.1240    -6.6940     0.2580 H     1 <1>   0.0800 
 42 H        7.5190    -6.1580    -0.6330 H     1 <1>   0.0800 
 43 H        6.0940    -6.6830    -1.4970 H     1 <1>   0.0800 
 44 H        5.3070    -2.0760    -0.8950 H     1 <1>   0.0800 
 45 H        6.9170    -1.6540    -1.3990 H     1 <1>   0.0800 
 46 H       10.3870    -1.2710     0.7180 H     1 <1>   0.0800 
 47 H        9.5410    -1.6280    -0.7700 H     1 <1>   0.0800 
 48 H        9.0450    -2.3540     0.7360 H     1 <1>   0.0800 
 49 H        6.0630     2.6520     1.2130 H     1 <1>   0.1500 
 50 H        4.2500     1.1840     1.5180 H     1 <1>   0.0800 
 51 H        4.6400    -0.4450     2.0000 H     1 <1>   0.0800 
 52 H        4.2850    -0.0860     0.3220 H     1 <1>   0.0800 
 53 H        8.4230     3.0820     0.8370 H     1 <1>   0.1500 
 54 H       10.5550     2.4200     0.2080 H     1 <1>   0.0800 
 55 H       10.7750     0.8730    -0.5580 H     1 <1>   0.0800 
 56 H       10.9960     1.0360     1.1730 H     1 <1>   0.0800 
@<TRIPOS>BOND
  1   1   2  2   
  2   2   3  am  
  3   2   4  1   
  4   3   5  1   
  5   3   6  1   
  6   4   7  1   
  7   4  27  1   
  8   4  28  1   
  9   5   8  1   
 10   5  29  1   
 11   5  30  1   
 12   6  31  1   
 13   6  32  1   
 14   6  33  1   
 15   7   8  1   
 16   7   9  1   
 17   7  34  1   
 18   8  10  1   
 19   8  35  1   
 20   9  11  1   
 21   9  36  1   
 22   9  37  1   
 23  10  11  1   
 24  10  38  1   
 25  10  39  1   
 26  11  12  1   
 27  11  40  1   
 28  12  13  am  
 29  12  14  1   
 30  13  15  2   
 31  13  16  1   
 32  14  41  1   
 33  14  42  1   
 34  14  43  1   
 35  16  17  1   
 36  16  44  1   
 37  16  45  1   
 38  17  18  1   
 39  18  19  ar  
 40  18  20  ar  
 41  19  21  ar  
 42  19  22  1   
 43  20  23  ar  
 44  20  24  1   
 45  21  25  ar  
 46  21  26  1   
 47  22  46  1   
 48  22  47  1   
 49  22  48  1   
 50  23  25  ar  
 51  23  49  1   
 52  24  50  1   
 53  24  51  1   
 54  24  52  1   
 55  25  53  1   
 56  26  54  1   
 57  26  55  1   
 58  26  56  1   
@<TRIPOS>SUBSTRUCTURE
  1 ****  16 GROUP 4 **** **** 0

# MOE 2024.06 (io_trps.svl 2023.06)
