@<TRIPOS>MOLECULE
NONAME
49 51 1 0 0 
SMALL
USER_CHARGES


@<TRIPOS>ATOM
  1 O       -1.1030    -0.1400    -0.1330 O.2   1 <1>  -0.5700 
  2 C       -1.8430     0.7120    -0.5900 C.2   1 <1>   0.5440 
  3 N       -3.0580     0.2940    -1.0860 N.am  1 <1>  -0.6600 
  4 C       -1.4570     2.1120    -0.5640 C.ar  1 <1>   0.0860 
  5 C       -3.2380    -1.1420    -1.4260 C.3   1 <1>   0.1400 
  6 C       -4.3180     0.9630    -0.6610 C.3   1 <1>   0.1400 
  7 C       -0.6700     2.6410     0.4440 C.ar  1 <1>  -0.1500 
  8 C       -1.8380     3.0200    -1.5440 C.ar  1 <1>  -0.1500 
  9 C       -3.7270    -1.8900    -0.1660 C.3   1 <1>   0.4230 
 10 C       -4.8450     0.2420     0.5890 C.3   1 <1>  -0.1600 
 11 C       -0.3310     3.9820     0.4450 C.ar  1 <1>   0.3920 
 12 C       -1.4470     4.3420    -1.4600 C.ar  1 <1>   0.1600 
 13 N       -3.7370    -3.4050    -0.3080 N.4   1 <1>  -0.9590 
 14 C       -5.0540    -1.2900     0.3900 C.3   1 <1>   0.0000 
 15 O        0.4310     4.4170     1.4700 O.3   1 <1>  -0.3620 
 16 N       -0.7080     4.8480    -0.4890 N.ar  1 <1>  -0.6200 
 17 C       -4.5680    -4.1100     0.7220 C.3   1 <1>   0.3430 
 18 C       -4.0620    -3.9280    -1.6760 C.3   1 <1>   0.2630 
 19 C       -5.3700    -1.9340     1.7730 C.3   1 <1>  -0.1600 
 20 C       -6.2190    -1.5510    -0.6070 C.3   1 <1>   0.1200 
 21 C        0.8430     5.7680     1.5470 C.3   1 <1>   0.0400 
 22 C       -4.6660    -3.2860     2.0050 C.3   1 <1>  -0.1600 
 23 O       -7.3640    -0.8590    -0.2510 O.3   1 <1>  -0.6800 
 24 H       -3.9370    -1.2230    -2.2380 H     1 <1>   0.0800 
 25 H       -2.2940    -1.5480    -1.7490 H     1 <1>   0.0800 
 26 H       -4.1380     1.9990    -0.4270 H     1 <1>   0.0800 
 27 H       -5.0420     0.9240    -1.4580 H     1 <1>   0.0800 
 28 H       -0.3130     2.0130     1.2380 H     1 <1>   0.1500 
 29 H       -2.4360     2.6930    -2.3740 H     1 <1>   0.1500 
 30 H       -2.9840    -1.6690     0.5850 H     1 <1>   0.0800 
 31 H       -4.1320     0.4120     1.3780 H     1 <1>   0.0800 
 32 H       -5.7610     0.7140     0.9000 H     1 <1>   0.0800 
 33 H       -1.7580     5.0240    -2.2350 H     1 <1>   0.1500 
 34 H       -2.7600    -3.6740    -0.1130 H     1 <1>   0.4500 
 35 H       -5.5640    -4.2670     0.3410 H     1 <1>   0.0800 
 36 H       -4.1400    -5.0760     0.9400 H     1 <1>   0.0800 
 37 H       -5.0600    -3.6420    -1.9630 H     1 <1>   0.0800 
 38 H       -3.9970    -5.0050    -1.6880 H     1 <1>   0.0800 
 39 H       -3.3670    -3.5420    -2.4040 H     1 <1>   0.0800 
 40 H       -5.0720    -1.2780     2.5750 H     1 <1>   0.0800 
 41 H       -6.4310    -2.0720     1.8840 H     1 <1>   0.0800 
 42 H       -6.4750    -2.5940    -0.6520 H     1 <1>   0.0800 
 43 H       -5.9680    -1.2210    -1.5990 H     1 <1>   0.0800 
 44 H        1.4390     5.8890     2.4330 H     1 <1>   0.0800 
 45 H       -0.0290     6.3950     1.5980 H     1 <1>   0.0800 
 46 H        1.4250     6.0040     0.6730 H     1 <1>   0.0800 
 47 H       -5.2130    -3.8450     2.7450 H     1 <1>   0.0800 
 48 H       -3.6770    -3.1270     2.3990 H     1 <1>   0.0800 
 49 H       -7.7330    -1.1640     0.6020 H     1 <1>   0.4000 
@<TRIPOS>BOND
  1   1   2  2   
  2   2   3  am  
  3   2   4  1   
  4   3   5  1   
  5   3   6  1   
  6   4   7  ar  
  7   4   8  ar  
  8   5   9  1   
  9   5  24  1   
 10   5  25  1   
 11   6  10  1   
 12   6  26  1   
 13   6  27  1   
 14   7  11  ar  
 15   7  28  1   
 16   8  12  ar  
 17   8  29  1   
 18   9  13  1   
 19   9  14  1   
 20   9  30  1   
 21  10  14  1   
 22  10  31  1   
 23  10  32  1   
 24  11  15  1   
 25  11  16  ar  
 26  12  16  ar  
 27  12  33  1   
 28  13  17  1   
 29  13  18  1   
 30  13  34  1   
 31  14  19  1   
 32  14  20  1   
 33  15  21  1   
 34  17  22  1   
 35  17  35  1   
 36  17  36  1   
 37  18  37  1   
 38  18  38  1   
 39  18  39  1   
 40  19  22  1   
 41  19  40  1   
 42  19  41  1   
 43  20  23  1   
 44  20  42  1   
 45  20  43  1   
 46  21  44  1   
 47  21  45  1   
 48  21  46  1   
 49  22  47  1   
 50  22  48  1   
 51  23  49  1   
@<TRIPOS>SUBSTRUCTURE
  1 ****   3 GROUP 4 **** **** 0

# MOE 2024.06 (io_trps.svl 2023.06)
