@<TRIPOS>MOLECULE
NONAME
50 51 1 0 0 
SMALL
USER_CHARGES


@<TRIPOS>ATOM
  1 O       -1.7540     0.9210    -1.9910 O.2   1 <1>  -0.5700 
  2 C       -2.0250     0.8580    -0.8160 C.2   1 <1>   0.5690 
  3 N       -2.2880    -0.3270    -0.2060 N.am  1 <1>  -0.7300 
  4 C       -2.0750     2.1310     0.0310 C.3   1 <1>  -0.0190 
  5 C       -2.2930    -1.6430    -0.8780 C.3   1 <1>   0.1400 
  6 C       -2.3230     3.4050    -0.8040 C.3   1 <1>  -0.1600 
  7 C       -0.7920     2.2800     0.8820 C.3   1 <1>  -0.1600 
  8 C       -3.6200    -2.3410    -0.5930 C.3   1 <1>  -0.1600 
  9 C       -2.5240     4.6550     0.0810 C.3   1 <1>   0.2000 
 10 C       -0.5380     3.7170     1.3820 C.3   1 <1>  -0.1600 
 11 C       -3.6950    -3.7030    -1.2920 C.3   1 <1>  -0.0170 
 12 O       -1.9960     5.7720    -0.5930 O.3   1 <1>  -0.5600 
 13 C       -1.8360     4.5260     1.4650 C.3   1 <1>   0.2000 
 14 C       -5.0140    -4.3850    -0.9720 C.ar  1 <1>  -0.1440 
 15 C       -2.7840     6.2680    -1.6300 C.3   1 <1>   0.0400 
 16 O       -1.5260     5.7840     1.9380 O.3   1 <1>  -0.6800 
 17 C       -5.1200    -5.2250     0.1250 C.ar  1 <1>  -0.1500 
 18 C       -6.1270    -4.1690    -1.7700 C.ar  1 <1>  -0.1500 
 19 C       -6.3190    -5.8480     0.4300 C.ar  1 <1>   0.0820 
 20 C       -7.3300    -4.7880    -1.4740 C.ar  1 <1>  -0.1500 
 21 O       -6.3270    -6.6520     1.5230 O.3   1 <1>  -0.3630 
 22 C       -7.4300    -5.6260    -0.3770 C.ar  1 <1>  -0.1500 
 23 C       -7.4920    -7.3440     1.9140 C.3   1 <1>   0.0400 
 24 H       -2.4940    -0.3460     0.7930 H     1 <1>   0.3700 
 25 H       -2.9120     2.0240     0.6980 H     1 <1>   0.0800 
 26 H       -2.1660    -1.5130    -1.9410 H     1 <1>   0.0800 
 27 H       -1.4710    -2.2330    -0.5080 H     1 <1>   0.0800 
 28 H       -3.1910     3.2640    -1.4230 H     1 <1>   0.0800 
 29 H       -1.4730     3.5550    -1.4480 H     1 <1>   0.0800 
 30 H       -0.8580     1.6150     1.7260 H     1 <1>   0.0800 
 31 H        0.0610     1.9730     0.3000 H     1 <1>   0.0800 
 32 H       -3.7330    -2.4850     0.4670 H     1 <1>   0.0800 
 33 H       -4.4290    -1.7240    -0.9440 H     1 <1>   0.0800 
 34 H       -3.5740     4.8220     0.2520 H     1 <1>   0.0800 
 35 H        0.1250     4.2120     0.6930 H     1 <1>   0.0800 
 36 H       -0.0610     3.6870     2.3460 H     1 <1>   0.0800 
 37 H       -2.8810    -4.3280    -0.9670 H     1 <1>   0.0800 
 38 H       -3.6050    -3.5750    -2.3570 H     1 <1>   0.0800 
 39 H       -2.5010     4.0620     2.1730 H     1 <1>   0.0800 
 40 H       -2.2910     7.1330    -2.0390 H     1 <1>   0.0800 
 41 H       -3.7470     6.5520    -1.2430 H     1 <1>   0.0800 
 42 H       -2.8870     5.5200    -2.3960 H     1 <1>   0.0800 
 43 H       -1.3500     6.3310     1.1390 H     1 <1>   0.4000 
 44 H       -4.2710    -5.4060     0.7590 H     1 <1>   0.1500 
 45 H       -6.0620    -3.5180    -2.6240 H     1 <1>   0.1500 
 46 H       -8.1880    -4.6150    -2.0990 H     1 <1>   0.1500 
 47 H       -8.3740    -6.0930    -0.1700 H     1 <1>   0.1500 
 48 H       -7.2610    -7.9160     2.7940 H     1 <1>   0.0800 
 49 H       -7.7900    -8.0030     1.1180 H     1 <1>   0.0800 
 50 H       -8.2650    -6.6290     2.1340 H     1 <1>   0.0800 
@<TRIPOS>BOND
  1   1   2  2   
  2   2   3  am  
  3   2   4  1   
  4   3   5  1   
  5   3  24  1   
  6   4   6  1   
  7   4   7  1   
  8   4  25  1   
  9   5   8  1   
 10   5  26  1   
 11   5  27  1   
 12   6   9  1   
 13   6  28  1   
 14   6  29  1   
 15   7  10  1   
 16   7  30  1   
 17   7  31  1   
 18   8  11  1   
 19   8  32  1   
 20   8  33  1   
 21   9  12  1   
 22   9  13  1   
 23   9  34  1   
 24  10  13  1   
 25  10  35  1   
 26  10  36  1   
 27  11  14  1   
 28  11  37  1   
 29  11  38  1   
 30  12  15  1   
 31  13  16  1   
 32  13  39  1   
 33  14  17  ar  
 34  14  18  ar  
 35  15  40  1   
 36  15  41  1   
 37  15  42  1   
 38  16  43  1   
 39  17  19  ar  
 40  17  44  1   
 41  18  20  ar  
 42  18  45  1   
 43  19  21  1   
 44  19  22  ar  
 45  20  22  ar  
 46  20  46  1   
 47  21  23  1   
 48  22  47  1   
 49  23  48  1   
 50  23  49  1   
 51  23  50  1   
@<TRIPOS>SUBSTRUCTURE
  1 ****   3 GROUP 4 **** **** 0

# MOE 2024.06 (io_trps.svl 2023.06)
