@<TRIPOS>MOLECULE
NONAME
56 58 1 0 0 
SMALL
USER_CHARGES


@<TRIPOS>ATOM
  1 O       -0.4360     0.7580    -0.4490 O.2   1 <1>  -0.5700 
  2 C       -0.3940     1.9460    -0.2330 C.2   1 <1>   0.5690 
  3 N       -1.4450     2.6600     0.2930 N.am  1 <1>  -0.6600 
  4 C        0.9090     2.6640    -0.5920 C.3   1 <1>   0.1810 
  5 C       -1.3120     4.1380     0.5420 C.3   1 <1>   0.3640 
  6 C       -2.6640     2.0350     0.8850 C.3   1 <1>   0.2200 
  7 O        1.0840     3.8750     0.0990 O.3   1 <1>  -0.5600 
  8 C       -2.5060     4.8840    -0.0610 C.ar  1 <1>  -0.1440 
  9 C       -0.0100     4.7600    -0.0260 C.3   1 <1>   0.2610 
 10 C       -2.2830     1.1540     2.0750 C.3   1 <1>  -0.2400 
 11 C       -3.4640     1.2630    -0.1650 C.3   1 <1>  -0.2400 
 12 C       -2.9390     4.6230    -1.3550 C.ar  1 <1>  -0.1500 
 13 C       -3.1660     5.8500     0.6860 C.ar  1 <1>  -0.1500 
 14 C        0.3010     6.1300     0.6090 C.2   1 <1>   0.5690 
 15 C       -4.0130     5.3130    -1.8900 C.ar  1 <1>  -0.1500 
 16 C       -4.2390     6.5410     0.1520 C.ar  1 <1>  -0.1500 
 17 O       -0.1680     6.3570     1.7050 O.2   1 <1>  -0.5700 
 18 N        1.0760     7.0560    -0.0720 N.am  1 <1>  -0.5090 
 19 C       -4.6640     6.2730    -1.1370 C.ar  1 <1>  -0.1500 
 20 C        1.0670     8.5370     0.1650 C.3   1 <1>   0.0490 
 21 C        2.0450     6.6410    -1.1350 C.3   1 <1>   0.1400 
 22 C        1.1700     9.0800     1.5560 C.3   1 <1>  -0.2000 
 23 C       -0.1050     9.2300     0.7870 C.3   1 <1>  -0.2000 
 24 C        3.3920     6.1740    -0.5450 C.3   1 <1>  -0.0800 
 25 C        4.1500     7.2990     0.1740 C.3   1 <1>  -0.2400 
 26 C        4.2750     5.5970    -1.6590 C.3   1 <1>  -0.2400 
 27 H        0.9290     2.8650    -1.6470 H     1 <1>   0.0800 
 28 H        1.7390     2.0280    -0.3460 H     1 <1>   0.0800 
 29 H       -1.3190     4.2730     1.6100 H     1 <1>   0.0800 
 30 H       -3.3060     2.8150     1.2610 H     1 <1>   0.0800 
 31 H       -0.1670     4.9240    -1.0760 H     1 <1>   0.0800 
 32 H       -1.7070     0.3050     1.7550 H     1 <1>   0.0800 
 33 H       -3.1720     0.7920     2.5580 H     1 <1>   0.0800 
 34 H       -1.7150     1.7210     2.7890 H     1 <1>   0.0800 
 35 H       -2.9200     0.4060    -0.5170 H     1 <1>   0.0800 
 36 H       -3.7020     1.9000    -0.9950 H     1 <1>   0.0800 
 37 H       -4.3850     0.9160     0.2670 H     1 <1>   0.0800 
 38 H       -2.4460     3.8750    -1.9510 H     1 <1>   0.1500 
 39 H       -2.8420     6.0760     1.6890 H     1 <1>   0.1500 
 40 H       -4.3430     5.1020    -2.8930 H     1 <1>   0.1500 
 41 H       -4.7410     7.2890     0.7400 H     1 <1>   0.1500 
 42 H       -5.4990     6.8110    -1.5510 H     1 <1>   0.1500 
 43 H        1.5810     9.0800    -0.6100 H     1 <1>   0.1000 
 44 H        1.6280     5.8440    -1.7200 H     1 <1>   0.0800 
 45 H        2.2170     7.4590    -1.8120 H     1 <1>   0.0800 
 46 H        1.1980     8.3950     2.3860 H     1 <1>   0.1000 
 47 H        1.7670     9.9580     1.7270 H     1 <1>   0.1000 
 48 H       -0.3690    10.2130     0.4410 H     1 <1>   0.1000 
 49 H       -0.9650     8.6630     1.0940 H     1 <1>   0.1000 
 50 H        3.2020     5.3860     0.1650 H     1 <1>   0.0800 
 51 H        4.3030     8.1380    -0.4820 H     1 <1>   0.0800 
 52 H        5.1080     6.9470     0.5140 H     1 <1>   0.0800 
 53 H        3.5990     7.6290     1.0360 H     1 <1>   0.0800 
 54 H        4.5000     6.3480    -2.3950 H     1 <1>   0.0800 
 55 H        3.7780     4.7750    -2.1430 H     1 <1>   0.0800 
 56 H        5.2000     5.2320    -1.2490 H     1 <1>   0.0800 
@<TRIPOS>BOND
  1   1   2  2   
  2   2   3  am  
  3   2   4  1   
  4   3   5  1   
  5   3   6  1   
  6   4   7  1   
  7   4  27  1   
  8   4  28  1   
  9   5   8  1   
 10   5   9  1   
 11   5  29  1   
 12   6  10  1   
 13   6  11  1   
 14   6  30  1   
 15   7   9  1   
 16   8  12  ar  
 17   8  13  ar  
 18   9  14  1   
 19   9  31  1   
 20  10  32  1   
 21  10  33  1   
 22  10  34  1   
 23  11  35  1   
 24  11  36  1   
 25  11  37  1   
 26  12  15  ar  
 27  12  38  1   
 28  13  16  ar  
 29  13  39  1   
 30  14  17  2   
 31  14  18  am  
 32  15  19  ar  
 33  15  40  1   
 34  16  19  ar  
 35  16  41  1   
 36  18  20  1   
 37  18  21  1   
 38  19  42  1   
 39  20  22  1   
 40  20  23  1   
 41  20  43  1   
 42  21  24  1   
 43  21  44  1   
 44  21  45  1   
 45  22  23  1   
 46  22  46  1   
 47  22  47  1   
 48  23  48  1   
 49  23  49  1   
 50  24  25  1   
 51  24  26  1   
 52  24  50  1   
 53  25  51  1   
 54  25  52  1   
 55  25  53  1   
 56  26  54  1   
 57  26  55  1   
 58  26  56  1   
@<TRIPOS>SUBSTRUCTURE
  1 ****   9 GROUP 4 **** **** 0

# MOE 2024.06 (io_trps.svl 2023.06)
