@<TRIPOS>MOLECULE
NONAME
56 60 1 0 0 
SMALL
USER_CHARGES


@<TRIPOS>ATOM
  1 N        0.8680    -0.1180     0.7760 N.ar  1 <1>  -0.6200 
  2 C       -0.1880     0.4160     1.3770 C.ar  1 <1>   0.4760 
  3 C        1.4400     0.6640    -0.1140 C.ar  1 <1>   0.1660 
  4 N       -0.6960     1.6270     1.2030 N.ar  1 <1>  -0.6200 
  5 C       -0.8950    -0.4520     2.3900 C.3   1 <1>  -0.0960 
  6 C        1.0090     1.9310    -0.3700 C.ar  1 <1>  -0.1440 
  7 C        2.6650     0.3090    -0.9400 C.3   1 <1>   0.1430 
  8 C       -0.0880     2.3880     0.3180 C.ar  1 <1>   0.1600 
  9 C        1.8630     2.6290    -1.3950 C.3   1 <1>  -0.0160 
 10 C        3.8700     0.2920     0.0280 C.3   1 <1>   0.3430 
 11 C        2.5250    -1.0280    -1.7070 C.3   1 <1>  -0.1600 
 12 C        2.7560     1.4980    -1.9360 C.3   1 <1>  -0.1600 
 13 N        4.4120    -1.0850     0.3260 N.4   1 <1>  -0.9590 
 14 C        2.5590    -2.2690    -0.7890 C.3   1 <1>  -0.1600 
 15 C        3.3120    -2.0610     0.5320 C.3   1 <1>   0.3430 
 16 C        5.3400    -1.0410     1.4760 C.3   1 <1>   0.5230 
 17 C        6.4840    -0.1450     1.0690 C.2   1 <1>  -0.3320 
 18 N        7.5040    -0.5230     0.2280 N.pl3 1 <1>   0.0480 
 19 C        6.6680     1.1430     1.4520 C.2   1 <1>  -0.1500 
 20 C        8.3240     0.5660     0.0580 C.ar  1 <1>  -0.1520 
 21 C        7.8040    -1.8590    -0.3280 C.3   1 <1>   0.0160 
 22 C        7.8290     1.6210     0.8150 C.ar  1 <1>   0.0000 
 23 C        9.4840     0.7320    -0.7050 C.ar  1 <1>  -0.1500 
 24 C        8.4890     2.8530     0.8180 C.ar  1 <1>  -0.1500 
 25 C       10.1230     1.9500    -0.6960 C.ar  1 <1>  -0.1500 
 26 C        9.6300     3.0170     0.0650 C.ar  1 <1>  -0.1440 
 27 C       10.3720     4.3410     0.0440 C.3   1 <1>  -0.0970 
 28 H       -0.7160    -1.4900     2.1860 H     1 <1>   0.0800 
 29 H       -1.9530    -0.2700     2.3500 H     1 <1>   0.0800 
 30 H       -0.5370    -0.2150     3.3740 H     1 <1>   0.0800 
 31 H       -0.4700     3.3800     0.1490 H     1 <1>   0.1500 
 32 H        2.4530     3.3940    -0.9200 H     1 <1>   0.0800 
 33 H        1.2640     3.0660    -2.1760 H     1 <1>   0.0800 
 34 H        3.5650     0.7640     0.9490 H     1 <1>   0.0800 
 35 H        4.6640     0.8910    -0.3880 H     1 <1>   0.0800 
 36 H        3.3360    -1.1030    -2.4110 H     1 <1>   0.0800 
 37 H        1.6080    -1.0320    -2.2730 H     1 <1>   0.0800 
 38 H        2.3590     1.2000    -2.8920 H     1 <1>   0.0800 
 39 H        3.7660     1.8360    -2.0910 H     1 <1>   0.0800 
 40 H        4.9580    -1.3730    -0.4900 H     1 <1>   0.4500 
 41 H        2.9900    -3.0980    -1.3230 H     1 <1>   0.0800 
 42 H        1.5500    -2.5520    -0.5430 H     1 <1>   0.0800 
 43 H        2.6300    -1.6790     1.2750 H     1 <1>   0.0800 
 44 H        3.6960    -3.0060     0.8800 H     1 <1>   0.0800 
 45 H        5.7060    -2.0260     1.7170 H     1 <1>   0.0800 
 46 H        4.8410    -0.6330     2.3400 H     1 <1>   0.0800 
 47 H        6.0750     1.7520     2.1130 H     1 <1>   0.1500 
 48 H        7.1080    -2.5890     0.0390 H     1 <1>   0.0800 
 49 H        8.7980    -2.1430    -0.0330 H     1 <1>   0.0800 
 50 H        7.7560    -1.8150    -1.4010 H     1 <1>   0.0800 
 51 H        9.8730    -0.0820    -1.2900 H     1 <1>   0.1500 
 52 H        8.0910     3.6540     1.4130 H     1 <1>   0.1500 
 53 H       11.0170     2.0910    -1.2780 H     1 <1>   0.1500 
 54 H        9.8850     5.0650     0.6720 H     1 <1>   0.0800 
 55 H       10.4070     4.7240    -0.9600 H     1 <1>   0.0800 
 56 H       11.3780     4.2010     0.3990 H     1 <1>   0.0800 
@<TRIPOS>BOND
  1   1   2  ar  
  2   1   3  ar  
  3   2   4  ar  
  4   2   5  1   
  5   3   6  ar  
  6   3   7  1   
  7   4   8  ar  
  8   5  28  1   
  9   5  29  1   
 10   5  30  1   
 11   6   8  ar  
 12   6   9  1   
 13   7  10  1   
 14   7  11  1   
 15   7  12  1   
 16   8  31  1   
 17   9  12  1   
 18   9  32  1   
 19   9  33  1   
 20  10  13  1   
 21  10  34  1   
 22  10  35  1   
 23  11  14  1   
 24  11  36  1   
 25  11  37  1   
 26  12  38  1   
 27  12  39  1   
 28  13  15  1   
 29  13  16  1   
 30  13  40  1   
 31  14  15  1   
 32  14  41  1   
 33  14  42  1   
 34  15  43  1   
 35  15  44  1   
 36  16  17  1   
 37  16  45  1   
 38  16  46  1   
 39  17  18  1   
 40  17  19  2   
 41  18  20  1   
 42  18  21  1   
 43  19  22  1   
 44  19  47  1   
 45  20  22  ar  
 46  20  23  ar  
 47  21  48  1   
 48  21  49  1   
 49  21  50  1   
 50  22  24  ar  
 51  23  25  ar  
 52  23  51  1   
 53  24  26  ar  
 54  24  52  1   
 55  25  26  ar  
 56  25  53  1   
 57  26  27  1   
 58  27  54  1   
 59  27  55  1   
 60  27  56  1   
@<TRIPOS>SUBSTRUCTURE
  1 ****  10 GROUP 4 **** **** 0

# MOE 2024.06 (io_trps.svl 2023.06)
