@<TRIPOS>MOLECULE
NONAME
35 37 1 0 0 
SMALL
USER_CHARGES


@<TRIPOS>ATOM
  1 S        0.2000     0.0990    -0.0500 S.3   1 <1>  -0.1570 
  2 C        0.7940     1.7650     0.0880 C.2   1 <1>   0.2420 
  3 C        1.8670    -0.4950    -0.2650 C.2   1 <1>  -0.0490 
  4 N        0.2010     2.8920     0.2680 N.2   1 <1>  -0.5650 
  5 N        2.1330     1.7930    -0.0290 N.pl3 1 <1>   0.3340 
  6 C        2.7350     0.5310    -0.2250 C.2   1 <1>  -0.1810 
  7 C        1.2450     3.7850     0.2780 C.2   1 <1>   0.1410 
  8 C        2.4230     3.1000     0.0920 C.2   1 <1>  -0.3020 
  9 C        1.0770     5.2230     0.4520 C.2   1 <1>   0.7160 
 10 O        0.0670     5.7050     0.9320 O.2   1 <1>  -0.5700 
 11 N        2.1070     6.0540     0.0700 N.am  1 <1>  -0.4940 
 12 C        2.2660     7.4610     0.1230 C.2   1 <1>  -0.0880 
 13 N        1.3150     8.4230    -0.0520 N.pl3 1 <1>   0.3140 
 14 C        3.4340     8.1160     0.3270 C.2   1 <1>  -0.1810 
 15 N        1.8500     9.6610     0.0290 N.2   1 <1>  -0.7070 
 16 C       -0.1060     8.2720    -0.3950 C.3   1 <1>   0.0160 
 17 C        3.1080     9.4680     0.2580 C.2   1 <1>   0.1080 
 18 C        4.8100     7.5250     0.5860 C.3   1 <1>   0.0210 
 19 C        4.0700    10.6230     0.4250 C.3   1 <1>  -0.0590 
 20 C        5.5560     7.3040    -0.7310 C.3   1 <1>  -0.2400 
 21 H        1.9890    -1.5570    -0.3970 H     1 <1>   0.1500 
 22 H        3.8040     0.4890    -0.3240 H     1 <1>   0.1500 
 23 H        3.4320     3.4620     0.0480 H     1 <1>   0.1500 
 24 H        2.9400     5.5580    -0.2350 H     1 <1>   0.3700 
 25 H       -0.2310     7.4270    -1.0440 H     1 <1>   0.0800 
 26 H       -0.4450     9.1620    -0.8900 H     1 <1>   0.0800 
 27 H       -0.6680     8.1270     0.5080 H     1 <1>   0.0800 
 28 H        4.7060     6.5910     1.1070 H     1 <1>   0.0800 
 29 H        5.3740     8.1880     1.2190 H     1 <1>   0.0800 
 30 H        4.9640    10.4460    -0.1420 H     1 <1>   0.0800 
 31 H        4.3190    10.7360     1.4630 H     1 <1>   0.0800 
 32 H        3.6110    11.5300     0.0760 H     1 <1>   0.0800 
 33 H        5.0030     6.6370    -1.3670 H     1 <1>   0.0800 
 34 H        6.5270     6.8820    -0.5420 H     1 <1>   0.0800 
 35 H        5.6810     8.2400    -1.2470 H     1 <1>   0.0800 
@<TRIPOS>BOND
  1   1   2  1   
  2   1   3  1   
  3   2   4  2   
  4   2   5  1   
  5   3   6  2   
  6   3  21  1   
  7   4   7  1   
  8   5   6  1   
  9   5   8  1   
 10   6  22  1   
 11   7   8  2   
 12   7   9  1   
 13   8  23  1   
 14   9  10  2   
 15   9  11  am  
 16  11  12  1   
 17  11  24  1   
 18  12  13  1   
 19  12  14  2   
 20  13  15  1   
 21  13  16  1   
 22  14  17  1   
 23  14  18  1   
 24  15  17  2   
 25  16  25  1   
 26  16  26  1   
 27  16  27  1   
 28  17  19  1   
 29  18  20  1   
 30  18  28  1   
 31  18  29  1   
 32  19  30  1   
 33  19  31  1   
 34  19  32  1   
 35  20  33  1   
 36  20  34  1   
 37  20  35  1   
@<TRIPOS>SUBSTRUCTURE
  1 ****  11 GROUP 4 **** **** 0

# MOE 2024.06 (io_trps.svl 2023.06)
