@<TRIPOS>MOLECULE
NONAME
58 60 1 0 0 
SMALL
USER_CHARGES


@<TRIPOS>ATOM
  1 O       -1.0080    -0.8510     1.3860 O.3   1 <1>  -0.3630 
  2 C       -2.0110    -0.9040     0.4740 C.ar  1 <1>   0.0830 
  3 C       -0.5960     0.3420     2.0160 C.3   1 <1>   0.2000 
  4 C       -2.2800    -2.1530    -0.0600 C.ar  1 <1>  -0.1500 
  5 C       -2.7600     0.1920     0.0590 C.ar  1 <1>  -0.1500 
  6 C        0.8340     0.1190     2.5030 C.3   1 <1>  -0.2400 
  7 C       -1.5360     0.6320     3.1880 C.3   1 <1>  -0.2400 
  8 C       -3.2930    -2.3250    -0.9920 C.ar  1 <1>  -0.1430 
  9 C       -3.7630     0.0280    -0.8800 C.ar  1 <1>  -0.1500 
 10 C       -4.0300    -1.2240    -1.4050 C.ar  1 <1>  -0.1500 
 11 C       -3.5910    -3.7040    -1.5400 C.3   1 <1>   0.4860 
 12 N       -4.2380    -4.5000    -0.4540 N.4   1 <1>  -0.9590 
 13 C       -4.3050    -5.9650    -0.8080 C.3   1 <1>   0.3430 
 14 C       -5.5840    -3.9310    -0.1380 C.3   1 <1>   0.3430 
 15 C       -5.0390    -6.8410     0.2590 C.3   1 <1>   0.4230 
 16 C       -6.2350    -4.7340     0.9920 C.3   1 <1>  -0.1600 
 17 N       -5.0950    -8.3400    -0.0410 N.4   1 <1>  -0.9590 
 18 C       -6.4160    -6.2440     0.6740 C.3   1 <1>   0.0000 
 19 C       -6.0870    -9.0920     0.8040 C.3   1 <1>   0.3430 
 20 C       -5.3260    -8.6940    -1.4840 C.3   1 <1>   0.2630 
 21 C       -6.8890    -6.9580     1.9730 C.3   1 <1>  -0.1600 
 22 C       -7.5270    -6.4130    -0.4040 C.3   1 <1>   0.1200 
 23 C       -6.3260    -8.3850     2.1400 C.3   1 <1>  -0.1600 
 24 O       -7.0860    -6.0270    -1.6620 O.3   1 <1>  -0.6800 
 25 H       -0.6010     1.1410     1.2950 H     1 <1>   0.0800 
 26 H       -1.6700    -2.9740     0.2710 H     1 <1>   0.1500 
 27 H       -2.5790     1.1760     0.4500 H     1 <1>   0.1500 
 28 H        0.8710    -0.6980     3.2020 H     1 <1>   0.0800 
 29 H        1.1990     1.0050     2.9890 H     1 <1>   0.0800 
 30 H        1.4750    -0.0980     1.6680 H     1 <1>   0.0800 
 31 H       -1.5180    -0.1810     3.8920 H     1 <1>   0.0800 
 32 H       -2.5430     0.7780     2.8440 H     1 <1>   0.0800 
 33 H       -1.2220     1.5270     3.6940 H     1 <1>   0.0800 
 34 H       -4.3350     0.8820    -1.2020 H     1 <1>   0.1500 
 35 H       -4.8140    -1.3200    -2.1390 H     1 <1>   0.1500 
 36 H       -2.6670    -4.1660    -1.8470 H     1 <1>   0.0800 
 37 H       -4.2420    -3.6320    -2.3970 H     1 <1>   0.0800 
 38 H       -3.6460    -4.3410     0.3740 H     1 <1>   0.4500 
 39 H       -4.8200    -6.0650    -1.7480 H     1 <1>   0.0800 
 40 H       -3.3040    -6.3410    -0.9350 H     1 <1>   0.0800 
 41 H       -5.4840    -2.9000     0.1700 H     1 <1>   0.0800 
 42 H       -6.2120    -3.9560    -1.0140 H     1 <1>   0.0800 
 43 H       -4.4320    -6.7490     1.1440 H     1 <1>   0.0800 
 44 H       -5.6330    -4.6020     1.8750 H     1 <1>   0.0800 
 45 H       -7.1940    -4.2940     1.2080 H     1 <1>   0.0800 
 46 H       -4.1750    -8.7300     0.2190 H     1 <1>   0.4500 
 47 H       -7.0290    -9.1650     0.2850 H     1 <1>   0.0800 
 48 H       -5.7340   -10.0960     0.9810 H     1 <1>   0.0800 
 49 H       -6.2770    -8.3130    -1.8190 H     1 <1>   0.0800 
 50 H       -5.3270    -9.7650    -1.6100 H     1 <1>   0.0800 
 51 H       -4.5510    -8.2840    -2.1090 H     1 <1>   0.0800 
 52 H       -6.6000    -6.4010     2.8490 H     1 <1>   0.0800 
 53 H       -7.9660    -6.9990     1.9950 H     1 <1>   0.0800 
 54 H       -8.3860    -5.8100    -0.1530 H     1 <1>   0.0800 
 55 H       -7.8550    -7.4350    -0.4750 H     1 <1>   0.0800 
 56 H       -7.0160    -8.9680     2.7270 H     1 <1>   0.0800 
 57 H       -5.4000    -8.3570     2.6900 H     1 <1>   0.0800 
 58 H       -7.8470    -5.9850    -2.2890 H     1 <1>   0.4000 
@<TRIPOS>BOND
  1   1   2  1   
  2   1   3  1   
  3   2   4  ar  
  4   2   5  ar  
  5   3   6  1   
  6   3   7  1   
  7   3  25  1   
  8   4   8  ar  
  9   4  26  1   
 10   5   9  ar  
 11   5  27  1   
 12   6  28  1   
 13   6  29  1   
 14   6  30  1   
 15   7  31  1   
 16   7  32  1   
 17   7  33  1   
 18   8  10  ar  
 19   8  11  1   
 20   9  10  ar  
 21   9  34  1   
 22  10  35  1   
 23  11  12  1   
 24  11  36  1   
 25  11  37  1   
 26  12  13  1   
 27  12  14  1   
 28  12  38  1   
 29  13  15  1   
 30  13  39  1   
 31  13  40  1   
 32  14  16  1   
 33  14  41  1   
 34  14  42  1   
 35  15  17  1   
 36  15  18  1   
 37  15  43  1   
 38  16  18  1   
 39  16  44  1   
 40  16  45  1   
 41  17  19  1   
 42  17  20  1   
 43  17  46  1   
 44  18  21  1   
 45  18  22  1   
 46  19  23  1   
 47  19  47  1   
 48  19  48  1   
 49  20  49  1   
 50  20  50  1   
 51  20  51  1   
 52  21  23  1   
 53  21  52  1   
 54  21  53  1   
 55  22  24  1   
 56  22  54  1   
 57  22  55  1   
 58  23  56  1   
 59  23  57  1   
 60  24  58  1   
@<TRIPOS>SUBSTRUCTURE
  1 ****  12 GROUP 4 **** **** 0

# MOE 2024.06 (io_trps.svl 2023.06)
