@<TRIPOS>MOLECULE
NONAME
41 44 1 0 0 
SMALL
USER_CHARGES


@<TRIPOS>ATOM
  1 S        0.5500    -0.6580    -0.6170 S.3   1 <1>  -0.0800 
  2 C       -0.0390    -2.3210    -0.5770 C.ar  1 <1>   0.2970 
  3 C       -0.7490    -0.1190     0.4510 C.2   1 <1>  -0.1100 
  4 N        0.5460    -3.3120    -1.2130 N.ar  1 <1>  -0.5670 
  5 C       -1.1650    -2.4100     0.2010 C.ar  1 <1>   0.0000 
  6 C       -1.5470    -1.1490     0.7840 C.2   1 <1>  -0.1500 
  7 C       -0.0660    -4.4650    -1.0300 C.ar  1 <1>   0.4770 
  8 C       -1.7200    -3.6850     0.2910 C.ar  1 <1>   0.4100 
  9 N       -1.1580    -4.7140    -0.3200 N.ar  1 <1>  -0.6200 
 10 C        0.5450    -5.6630    -1.7160 C.3   1 <1>  -0.0960 
 11 N       -2.8810    -3.9260     0.9960 N.pl3 1 <1>  -0.8380 
 12 C       -4.1470    -3.3140     0.5190 C.3   1 <1>   0.2090 
 13 C       -3.0080    -5.1660     1.8090 C.3   1 <1>   0.2090 
 14 C       -4.9460    -4.3550    -0.2640 C.3   1 <1>  -0.1600 
 15 C       -3.8250    -6.2090     1.0450 C.3   1 <1>  -0.1600 
 16 C       -5.1550    -5.6530     0.5240 C.3   1 <1>   0.4240 
 17 O       -5.9120    -5.3280     1.6350 O.3   1 <1>  -0.6800 
 18 C       -5.8960    -6.6970    -0.3240 C.ar  1 <1>  -0.1430 
 19 C       -7.1490    -7.1930     0.0290 C.ar  1 <1>   0.1600 
 20 C       -5.3200    -7.1800    -1.4880 C.ar  1 <1>  -0.1500 
 21 N       -7.8410    -8.0910    -0.6580 N.ar  1 <1>  -0.6200 
 22 C       -6.0250    -8.1140    -2.2150 C.ar  1 <1>  -0.1500 
 23 C       -7.2630    -8.5300    -1.7610 C.ar  1 <1>   0.1600 
 24 H       -0.7640     0.9240     0.7140 H     1 <1>   0.1500 
 25 H       -2.4050    -1.0950     1.4300 H     1 <1>   0.1500 
 26 H        1.4740    -5.3980    -2.1860 H     1 <1>   0.0800 
 27 H       -0.1330    -6.0310    -2.4620 H     1 <1>   0.0800 
 28 H        0.7270    -6.4360    -0.9930 H     1 <1>   0.0800 
 29 H       -3.9340    -2.4750    -0.1220 H     1 <1>   0.0800 
 30 H       -4.7120    -2.9540     1.3620 H     1 <1>   0.0800 
 31 H       -3.4810    -4.9290     2.7460 H     1 <1>   0.0800 
 32 H       -2.0300    -5.5620     2.0280 H     1 <1>   0.0800 
 33 H       -4.4050    -4.5680    -1.1670 H     1 <1>   0.0800 
 34 H       -5.9000    -3.9500    -0.5500 H     1 <1>   0.0800 
 35 H       -4.0090    -7.0650     1.6680 H     1 <1>   0.0800 
 36 H       -3.2280    -6.5430     0.2170 H     1 <1>   0.0800 
 37 H       -5.4090    -4.6980     2.1780 H     1 <1>   0.4000 
 38 H       -7.6200    -6.8360     0.9280 H     1 <1>   0.1500 
 39 H       -4.3540    -6.8450    -1.8270 H     1 <1>   0.1500 
 40 H       -5.6210    -8.5190    -3.1240 H     1 <1>   0.1500 
 41 H       -7.8060    -9.2610    -2.3360 H     1 <1>   0.1500 
@<TRIPOS>BOND
  1   1   2  1   
  2   1   3  1   
  3   2   4  ar  
  4   2   5  ar  
  5   3   6  2   
  6   3  24  1   
  7   4   7  ar  
  8   5   6  1   
  9   5   8  ar  
 10   6  25  1   
 11   7   9  ar  
 12   7  10  1   
 13   8   9  ar  
 14   8  11  1   
 15  10  26  1   
 16  10  27  1   
 17  10  28  1   
 18  11  12  1   
 19  11  13  1   
 20  12  14  1   
 21  12  29  1   
 22  12  30  1   
 23  13  15  1   
 24  13  31  1   
 25  13  32  1   
 26  14  16  1   
 27  14  33  1   
 28  14  34  1   
 29  15  16  1   
 30  15  35  1   
 31  15  36  1   
 32  16  17  1   
 33  16  18  1   
 34  17  37  1   
 35  18  19  ar  
 36  18  20  ar  
 37  19  21  ar  
 38  19  38  1   
 39  20  22  ar  
 40  20  39  1   
 41  21  23  ar  
 42  22  23  ar  
 43  22  40  1   
 44  23  41  1   
@<TRIPOS>SUBSTRUCTURE
  1 ****  11 GROUP 4 **** **** 0

# MOE 2024.06 (io_trps.svl 2023.06)
