@<TRIPOS>MOLECULE
NONAME
45 48 1 0 0 
SMALL
USER_CHARGES


@<TRIPOS>ATOM
  1 CL       2.6990     1.3470     2.9270 Cl    1 <1>  -0.1770 
  2 C        2.5060     0.1960     1.6220 C.ar  1 <1>   0.1770 
  3 C        3.1870     0.4190     0.4050 C.ar  1 <1>   0.3100 
  4 C        1.6980    -0.8900     1.8260 C.ar  1 <1>  -0.1500 
  5 N        3.9730     1.5150     0.2470 N.ar  1 <1>  -0.6200 
  6 C        3.0140    -0.5400    -0.6180 C.ar  1 <1>   0.0000 
  7 C        1.5330    -1.8280     0.8020 C.ar  1 <1>  -0.1500 
  8 C        4.6010     1.7030    -0.8950 C.ar  1 <1>   0.3960 
  9 C        3.6940    -0.3330    -1.8280 C.ar  1 <1>  -0.1500 
 10 C        2.1800    -1.6530    -0.3920 C.ar  1 <1>  -0.1500 
 11 C        5.4500     2.8860    -1.0800 C.2   1 <1>   0.5440 
 12 C        4.4740     0.7750    -1.9520 C.ar  1 <1>  -0.1500 
 13 O        6.3540     2.9060    -1.9020 O.2   1 <1>  -0.5700 
 14 N        5.3360     4.0220    -0.3090 N.am  1 <1>  -0.6600 
 15 C        5.8240     3.9530     1.1140 C.3   1 <1>   0.2200 
 16 C        5.2750     5.3540    -0.9890 C.3   1 <1>   0.1400 
 17 C        5.2130     5.0350     2.0190 C.3   1 <1>   0.1200 
 18 C        7.3730     4.0040     1.1560 C.3   1 <1>   0.3430 
 19 C        6.2430     6.4130    -0.4280 C.3   1 <1>  -0.0800 
 20 O        5.9710     6.2080     1.9650 O.3   1 <1>  -0.5600 
 21 N        7.9710     4.5360    -0.1210 N.4   1 <1>  -0.9590 
 22 C        5.7240     7.0350     0.8780 C.3   1 <1>   0.1200 
 23 C        7.7280     5.9980    -0.3360 C.3   1 <1>   0.3430 
 24 C        9.4120     4.1860    -0.2480 C.3   1 <1>   0.2630 
 25 H        1.1930    -1.0280     2.7660 H     1 <1>   0.1500 
 26 H        0.8960    -2.6810     0.9680 H     1 <1>   0.1500 
 27 H        3.5880    -1.0460    -2.6280 H     1 <1>   0.1500 
 28 H        2.0560    -2.3740    -1.1830 H     1 <1>   0.1500 
 29 H        5.0090     0.9650    -2.8650 H     1 <1>   0.1500 
 30 H        5.5200     3.0120     1.5350 H     1 <1>   0.0800 
 31 H        5.4790     5.2230    -2.0390 H     1 <1>   0.0800 
 32 H        4.2650     5.7220    -0.9160 H     1 <1>   0.0800 
 33 H        5.2460     4.6980     3.0400 H     1 <1>   0.0800 
 34 H        4.1860     5.2360     1.7660 H     1 <1>   0.0800 
 35 H        7.7260     3.0000     1.3160 H     1 <1>   0.0800 
 36 H        7.6940     4.5980     1.9960 H     1 <1>   0.0800 
 37 H        6.2130     7.2250    -1.1330 H     1 <1>   0.0800 
 38 H        7.4400     4.0410    -0.8750 H     1 <1>   0.4500 
 39 H        4.6690     7.2460     0.8300 H     1 <1>   0.0800 
 40 H        6.2390     7.9610     1.0710 H     1 <1>   0.0800 
 41 H        8.1980     6.5600     0.4560 H     1 <1>   0.0800 
 42 H        8.2050     6.2820    -1.2600 H     1 <1>   0.0800 
 43 H        9.9840     4.6650     0.5290 H     1 <1>   0.0800 
 44 H        9.7890     4.5040    -1.2060 H     1 <1>   0.0800 
 45 H        9.5420     3.1190    -0.1690 H     1 <1>   0.0800 
@<TRIPOS>BOND
  1   1   2  1   
  2   2   3  ar  
  3   2   4  ar  
  4   3   5  ar  
  5   3   6  ar  
  6   4   7  ar  
  7   4  25  1   
  8   5   8  ar  
  9   6   9  ar  
 10   6  10  ar  
 11   7  10  ar  
 12   7  26  1   
 13   8  11  1   
 14   8  12  ar  
 15   9  12  ar  
 16   9  27  1   
 17  10  28  1   
 18  11  13  2   
 19  11  14  am  
 20  12  29  1   
 21  14  15  1   
 22  14  16  1   
 23  15  17  1   
 24  15  18  1   
 25  15  30  1   
 26  16  19  1   
 27  16  31  1   
 28  16  32  1   
 29  17  20  1   
 30  17  33  1   
 31  17  34  1   
 32  18  21  1   
 33  18  35  1   
 34  18  36  1   
 35  19  22  1   
 36  19  23  1   
 37  19  37  1   
 38  20  22  1   
 39  21  23  1   
 40  21  24  1   
 41  21  38  1   
 42  22  39  1   
 43  22  40  1   
 44  23  41  1   
 45  23  42  1   
 46  24  43  1   
 47  24  44  1   
 48  24  45  1   
@<TRIPOS>SUBSTRUCTURE
  1 ****  11 GROUP 4 **** **** 0

# MOE 2024.06 (io_trps.svl 2023.06)
