@<TRIPOS>MOLECULE
NONAME
54 59 1 0 0 
SMALL
USER_CHARGES


@<TRIPOS>ATOM
  1 N       -0.0790     0.0650     0.5550 N.4   1 <1>  -0.9590 
  2 C       -0.5850    -1.2820     0.8910 C.3   1 <1>   0.7920 
  3 C        0.3430    -0.0620    -0.8640 C.3   1 <1>   0.3430 
  4 C       -1.0430     1.2160     0.6870 C.3   1 <1>   0.2630 
  5 N       -1.6550    -1.1730     1.8720 N.pl3 1 <1>  -0.8690 
  6 C       -1.2470    -1.8580    -0.3900 C.3   1 <1>   0.1440 
  7 C       -0.6880    -0.9800    -1.5250 C.3   1 <1>  -0.1600 
  8 C       -2.8630    -1.2140     1.2080 C.ar  1 <1>   0.1000 
  9 C       -2.7170    -1.5700    -0.1170 C.ar  1 <1>  -0.1430 
 10 C       -0.9950    -3.3890    -0.4840 C.3   1 <1>   0.1440 
 11 C       -4.1120    -0.9260     1.7290 C.ar  1 <1>  -0.1500 
 12 C       -3.8140    -1.6140    -0.9590 C.ar  1 <1>  -0.1500 
 13 C        0.4610    -3.7370    -0.2200 C.ar  1 <1>  -0.1430 
 14 C       -1.7340    -4.1700     0.6530 C.3   1 <1>   0.7920 
 15 C       -1.4550    -4.0890    -1.7730 C.3   1 <1>  -0.1600 
 16 C       -5.2150    -0.9850     0.8960 C.ar  1 <1>  -0.1500 
 17 C       -5.0670    -1.3230    -0.4420 C.ar  1 <1>  -0.1500 
 18 C        0.5400    -4.5220     0.9090 C.ar  1 <1>   0.1000 
 19 C        1.6080    -3.3840    -0.9110 C.ar  1 <1>  -0.1500 
 20 N       -2.5220    -5.2360     0.0030 N.4   1 <1>  -0.9590 
 21 N       -0.6930    -4.8310     1.4350 N.pl3 1 <1>  -0.8690 
 22 C       -1.8660    -5.4770    -1.3020 C.3   1 <1>   0.3430 
 23 C        1.7670    -4.9290     1.4030 C.ar  1 <1>  -0.1500 
 24 C        2.8400    -3.7950    -0.4250 C.ar  1 <1>  -0.1500 
 25 C       -2.7040    -6.4990     0.7920 C.3   1 <1>   0.2630 
 26 C        2.9190    -4.5580     0.7320 C.ar  1 <1>  -0.1500 
 27 H        0.7420     0.2460     1.1450 H     1 <1>   0.4500 
 28 H        0.2150    -1.9080     1.2550 H     1 <1>   0.0800 
 29 H        0.3930     0.8980    -1.3550 H     1 <1>   0.0800 
 30 H        1.3160    -0.5260    -0.9100 H     1 <1>   0.0800 
 31 H       -1.9310     1.0330     0.1020 H     1 <1>   0.0800 
 32 H       -0.5870     2.1310     0.3460 H     1 <1>   0.0800 
 33 H       -1.3370     1.3470     1.7160 H     1 <1>   0.0800 
 34 H       -1.5300    -0.4550     2.5930 H     1 <1>   0.4000 
 35 H       -1.4650    -0.3720    -1.9560 H     1 <1>   0.0800 
 36 H       -0.2400    -1.5460    -2.3220 H     1 <1>   0.0800 
 37 H       -4.2230    -0.6580     2.7660 H     1 <1>   0.1500 
 38 H       -3.7240    -1.8560    -2.0040 H     1 <1>   0.1500 
 39 H       -2.3500    -3.5540     1.2870 H     1 <1>   0.0800 
 40 H       -0.6760    -4.1520    -2.5140 H     1 <1>   0.0800 
 41 H       -2.3060    -3.6060    -2.2140 H     1 <1>   0.0800 
 42 H       -6.1960    -0.7620     1.2860 H     1 <1>   0.1500 
 43 H       -5.9360    -1.3500    -1.0800 H     1 <1>   0.1500 
 44 H        1.5790    -2.8110    -1.8210 H     1 <1>   0.1500 
 45 H       -3.4470    -4.8300    -0.1760 H     1 <1>   0.4500 
 46 H       -0.7820    -4.6890     2.4480 H     1 <1>   0.4000 
 47 H       -0.9850    -6.0840    -1.1560 H     1 <1>   0.0800 
 48 H       -2.5280    -5.9640    -2.0020 H     1 <1>   0.0800 
 49 H        1.8210    -5.5350     2.2900 H     1 <1>   0.1500 
 50 H        3.7460    -3.5330    -0.9470 H     1 <1>   0.1500 
 51 H       -1.7490    -6.9670     0.9700 H     1 <1>   0.0800 
 52 H       -3.3320    -7.1920     0.2550 H     1 <1>   0.0800 
 53 H       -3.1610    -6.2840     1.7440 H     1 <1>   0.0800 
 54 H        3.8810    -4.8730     1.1020 H     1 <1>   0.1500 
@<TRIPOS>BOND
  1   1   2  1   
  2   1   3  1   
  3   1   4  1   
  4   1  27  1   
  5   2   5  1   
  6   2   6  1   
  7   2  28  1   
  8   3   7  1   
  9   3  29  1   
 10   3  30  1   
 11   4  31  1   
 12   4  32  1   
 13   4  33  1   
 14   5   8  1   
 15   5  34  1   
 16   6   7  1   
 17   6   9  1   
 18   6  10  1   
 19   7  35  1   
 20   7  36  1   
 21   8   9  ar  
 22   8  11  ar  
 23   9  12  ar  
 24  10  13  1   
 25  10  14  1   
 26  10  15  1   
 27  11  16  ar  
 28  11  37  1   
 29  12  17  ar  
 30  12  38  1   
 31  13  18  ar  
 32  13  19  ar  
 33  14  20  1   
 34  14  21  1   
 35  14  39  1   
 36  15  22  1   
 37  15  40  1   
 38  15  41  1   
 39  16  17  ar  
 40  16  42  1   
 41  17  43  1   
 42  18  21  1   
 43  18  23  ar  
 44  19  24  ar  
 45  19  44  1   
 46  20  22  1   
 47  20  25  1   
 48  20  45  1   
 49  21  46  1   
 50  22  47  1   
 51  22  48  1   
 52  23  26  ar  
 53  23  49  1   
 54  24  26  ar  
 55  24  50  1   
 56  25  51  1   
 57  25  52  1   
 58  25  53  1   
 59  26  54  1   
@<TRIPOS>SUBSTRUCTURE
  1 ****  10 GROUP 4 **** **** 0

# MOE 2024.06 (io_trps.svl 2023.06)
