@<TRIPOS>MOLECULE
NONAME
42 43 1 0 0 
SMALL
USER_CHARGES


@<TRIPOS>ATOM
  1 O        0.9800     0.0260     1.0350 O.2   1 <1>  -0.5700 
  2 C        1.5840    -0.6650     0.2490 C.2   1 <1>   0.5690 
  3 N        2.1100    -0.1420    -0.9050 N.am  1 <1>  -0.6600 
  4 C        1.7430    -2.1350     0.6050 C.3   1 <1>  -0.0990 
  5 C        1.9320     1.3100    -1.2100 C.3   1 <1>   0.3210 
  6 C        2.9620    -0.8650    -1.8940 C.3   1 <1>   0.0600 
  7 C        0.8080    -3.0410    -0.2160 C.3   1 <1>  -0.1600 
  8 C        3.1700     2.0960    -0.8120 C.2   1 <1>   0.1080 
  9 C        0.9610    -4.5220     0.1770 C.3   1 <1>  -0.0990 
 10 N        3.9910     2.6420    -1.6400 N.2   1 <1>  -0.4100 
 11 C        3.5720     2.3210     0.5030 C.2   1 <1>  -0.1500 
 12 C        0.0810    -5.4500    -0.6590 C.2   1 <1>   0.4230 
 13 O        4.9090     3.2120    -0.9120 O.3   1 <1>  -0.0190 
 14 C        4.6930     3.0420     0.3650 C.2   1 <1>  -0.0400 
 15 O        0.0380    -5.2470    -1.8460 O.2   1 <1>  -0.5700 
 16 C       -0.6600    -6.5220    -0.0260 C.ar  1 <1>   0.0860 
 17 C        5.6500     3.6290     1.3800 C.3   1 <1>  -0.0600 
 18 C       -1.8420    -6.9900    -0.6060 C.ar  1 <1>  -0.1500 
 19 C       -0.2480    -7.1420     1.1580 C.ar  1 <1>  -0.1500 
 20 C       -2.5840    -8.0050    -0.0320 C.ar  1 <1>  -0.1500 
 21 C       -0.9860    -8.1580     1.7390 C.ar  1 <1>  -0.1500 
 22 C       -2.1580    -8.5900     1.1460 C.ar  1 <1>  -0.1500 
 23 H        1.5130    -2.2490     1.6490 H     1 <1>   0.0800 
 24 H        2.7680    -2.4250     0.4730 H     1 <1>   0.0800 
 25 H        1.0800     1.7050    -0.6840 H     1 <1>   0.0800 
 26 H        1.7510     1.4360    -2.2620 H     1 <1>   0.0800 
 27 H        3.1080    -1.8940    -1.6230 H     1 <1>   0.0800 
 28 H        3.9260    -0.3890    -1.9570 H     1 <1>   0.0800 
 29 H        2.4960    -0.8320    -2.8640 H     1 <1>   0.0800 
 30 H        1.0220    -2.9240    -1.2640 H     1 <1>   0.0800 
 31 H       -0.2120    -2.7340    -0.0580 H     1 <1>   0.0800 
 32 H        0.7120    -4.6190     1.2170 H     1 <1>   0.0800 
 33 H        1.9840    -4.8260     0.0420 H     1 <1>   0.0800 
 34 H        3.0660     1.9730     1.3850 H     1 <1>   0.1500 
 35 H        5.3220     3.3950     2.3770 H     1 <1>   0.0800 
 36 H        5.6910     4.6970     1.2670 H     1 <1>   0.0800 
 37 H        6.6340     3.2220     1.2300 H     1 <1>   0.0800 
 38 H       -2.1800    -6.5430    -1.5260 H     1 <1>   0.1500 
 39 H        0.6660    -6.8410     1.6350 H     1 <1>   0.1500 
 40 H       -3.4930    -8.3410    -0.5020 H     1 <1>   0.1500 
 41 H       -0.6490    -8.6180     2.6530 H     1 <1>   0.1500 
 42 H       -2.7340    -9.3800     1.5970 H     1 <1>   0.1500 
@<TRIPOS>BOND
  1   1   2  2   
  2   2   3  am  
  3   2   4  1   
  4   3   5  1   
  5   3   6  1   
  6   4   7  1   
  7   4  23  1   
  8   4  24  1   
  9   5   8  1   
 10   5  25  1   
 11   5  26  1   
 12   6  27  1   
 13   6  28  1   
 14   6  29  1   
 15   7   9  1   
 16   7  30  1   
 17   7  31  1   
 18   8  10  2   
 19   8  11  1   
 20   9  12  1   
 21   9  32  1   
 22   9  33  1   
 23  10  13  1   
 24  11  14  2   
 25  11  34  1   
 26  12  15  2   
 27  12  16  1   
 28  13  14  1   
 29  14  17  1   
 30  16  18  ar  
 31  16  19  ar  
 32  17  35  1   
 33  17  36  1   
 34  17  37  1   
 35  18  20  ar  
 36  18  38  1   
 37  19  21  ar  
 38  19  39  1   
 39  20  22  ar  
 40  20  40  1   
 41  21  22  ar  
 42  21  41  1   
 43  22  42  1   
@<TRIPOS>SUBSTRUCTURE
  1 ****   4 GROUP 4 **** **** 0

# MOE 2024.06 (io_trps.svl 2023.06)
