@<TRIPOS>MOLECULE
NONAME
54 57 1 0 0 
SMALL
USER_CHARGES


@<TRIPOS>ATOM
  1 O       -0.4430    -2.4310    -0.1550 O.2   1 <1>  -0.5700 
  2 C        0.7100    -2.1860     0.1700 C.2   1 <1>   0.5440 
  3 N        1.1540    -2.5230     1.4300 N.am  1 <1>  -0.4200 
  4 C        1.6400    -1.5620    -0.7290 C.ar  1 <1>   0.0860 
  5 C        2.4600    -2.2780     1.7770 C.2   1 <1>   0.4500 
  6 C        0.2360    -3.1570     2.4060 C.3   1 <1>   0.1400 
  7 C        2.9440    -1.3550    -0.2630 C.ar  1 <1>   0.1790 
  8 C        1.3130    -1.1590    -2.0270 C.ar  1 <1>  -0.1500 
  9 N        3.3250    -1.7330     1.0100 N.2   1 <1>  -0.6290 
 10 C        0.1350    -4.6590     2.1210 C.3   1 <1>  -0.1600 
 11 C        3.8810    -0.7570    -1.0990 C.ar  1 <1>  -0.1500 
 12 C        2.2540    -0.5670    -2.8450 C.ar  1 <1>  -0.1500 
 13 C       -1.0790    -5.2860     2.8250 C.3   1 <1>  -0.0990 
 14 C        3.5440    -0.3640    -2.3780 C.ar  1 <1>  -0.1500 
 15 C       -1.3020    -6.7160     2.3660 C.2   1 <1>   0.5690 
 16 O       -0.8050    -7.6000     3.0210 O.2   1 <1>  -0.5700 
 17 N       -2.0300    -6.9740     1.2380 N.am  1 <1>  -0.6600 
 18 C       -2.6330    -5.9780     0.3120 C.3   1 <1>   0.1400 
 19 C       -2.2280    -8.3510     0.7270 C.3   1 <1>   0.1400 
 20 C       -2.9880    -6.7790    -0.9390 C.3   1 <1>   0.2000 
 21 C       -3.1910    -8.2120    -0.4540 C.3   1 <1>  -0.0800 
 22 O       -4.1430    -6.3070    -1.5400 O.3   1 <1>  -0.6800 
 23 C       -2.9730    -9.2600    -1.5540 C.3   1 <1>   0.0210 
 24 C       -3.0830   -10.6650    -0.9940 C.2   1 <1>   0.1080 
 25 N       -4.1740   -11.1260    -0.4650 N.2   1 <1>  -0.7070 
 26 C       -2.0510   -11.5960    -0.9680 C.2   1 <1>  -0.1500 
 27 N       -3.8620   -12.3800    -0.0850 N.pl3 1 <1>   0.3000 
 28 C       -2.5810   -12.6870    -0.3780 C.2   1 <1>  -0.3320 
 29 C       -1.9320   -14.0230    -0.0690 C.3   1 <1>  -0.0600 
 30 H        2.7530    -2.5740     2.7690 H     1 <1>   0.0600 
 31 H        0.5860    -2.9910     3.4100 H     1 <1>   0.0800 
 32 H       -0.7350    -2.6980     2.3130 H     1 <1>   0.0800 
 33 H        0.3100    -1.3180    -2.3850 H     1 <1>   0.1500 
 34 H        0.0360    -4.8140     1.0620 H     1 <1>   0.0800 
 35 H        1.0330    -5.1560     2.4460 H     1 <1>   0.0800 
 36 H        4.8780    -0.6050    -0.7270 H     1 <1>   0.1500 
 37 H        1.9900    -0.2600    -3.8430 H     1 <1>   0.1500 
 38 H       -1.9660    -4.7130     2.6290 H     1 <1>   0.0800 
 39 H       -0.9200    -5.2880     3.8880 H     1 <1>   0.0800 
 40 H        4.2790     0.0980    -3.0150 H     1 <1>   0.1500 
 41 H       -3.5190    -5.5680     0.7640 H     1 <1>   0.0800 
 42 H       -1.9390    -5.1920     0.0720 H     1 <1>   0.0800 
 43 H       -1.2780    -8.7440     0.4080 H     1 <1>   0.0800 
 44 H       -2.6360    -8.9910     1.4920 H     1 <1>   0.0800 
 45 H       -2.1820    -6.7120    -1.6500 H     1 <1>   0.0800 
 46 H       -4.1870    -8.3220    -0.0590 H     1 <1>   0.0800 
 47 H       -4.9200    -6.5040    -0.9820 H     1 <1>   0.4000 
 48 H       -2.0050    -9.1310    -2.0030 H     1 <1>   0.0800 
 49 H       -3.7170    -9.1360    -2.3210 H     1 <1>   0.0800 
 50 H       -1.0530   -11.4500    -1.3430 H     1 <1>   0.1500 
 51 H       -4.5440   -12.9970     0.3720 H     1 <1>   0.2700 
 52 H       -0.9080   -14.0220    -0.3980 H     1 <1>   0.0800 
 53 H       -2.4540   -14.8160    -0.5740 H     1 <1>   0.0800 
 54 H       -1.9500   -14.2090     0.9910 H     1 <1>   0.0800 
@<TRIPOS>BOND
  1   1   2  2   
  2   2   3  am  
  3   2   4  1   
  4   3   5  1   
  5   3   6  1   
  6   4   7  ar  
  7   4   8  ar  
  8   5   9  2   
  9   5  30  1   
 10   6  10  1   
 11   6  31  1   
 12   6  32  1   
 13   7   9  1   
 14   7  11  ar  
 15   8  12  ar  
 16   8  33  1   
 17  10  13  1   
 18  10  34  1   
 19  10  35  1   
 20  11  14  ar  
 21  11  36  1   
 22  12  14  ar  
 23  12  37  1   
 24  13  15  1   
 25  13  38  1   
 26  13  39  1   
 27  14  40  1   
 28  15  16  2   
 29  15  17  am  
 30  17  18  1   
 31  17  19  1   
 32  18  20  1   
 33  18  41  1   
 34  18  42  1   
 35  19  21  1   
 36  19  43  1   
 37  19  44  1   
 38  20  21  1   
 39  20  22  1   
 40  20  45  1   
 41  21  23  1   
 42  21  46  1   
 43  22  47  1   
 44  23  24  1   
 45  23  48  1   
 46  23  49  1   
 47  24  25  2   
 48  24  26  1   
 49  25  27  1   
 50  26  28  2   
 51  26  50  1   
 52  27  28  1   
 53  27  51  1   
 54  28  29  1   
 55  29  52  1   
 56  29  53  1   
 57  29  54  1   
@<TRIPOS>SUBSTRUCTURE
  1 ****  18 GROUP 4 **** **** 0

# MOE 2024.06 (io_trps.svl 2023.06)
