@<TRIPOS>MOLECULE
NONAME
43 44 1 0 0 
SMALL
USER_CHARGES


@<TRIPOS>ATOM
  1 O       -0.3920     1.6050    -1.2980 O.3   1 <1>  -0.3630 
  2 C       -0.1110     2.3260    -0.1840 C.ar  1 <1>   0.0830 
  3 C       -1.6350     0.9570    -1.4560 C.3   1 <1>   0.0400 
  4 C        1.1420     2.9150    -0.1220 C.ar  1 <1>  -0.1500 
  5 C       -1.0000     2.4990     0.8730 C.ar  1 <1>  -0.1500 
  6 C        1.5190     3.6720     0.9750 C.ar  1 <1>  -0.1430 
  7 C       -0.6280     3.2540     1.9710 C.ar  1 <1>  -0.1500 
  8 C        0.6260     3.8390     2.0220 C.ar  1 <1>  -0.1500 
  9 C        2.8950     4.3140     1.0250 C.3   1 <1>  -0.0170 
 10 C        2.8650     5.6880     0.3480 C.3   1 <1>  -0.1600 
 11 C        4.2350     6.3600     0.3940 C.3   1 <1>   0.2090 
 12 N        4.1480     7.6600    -0.2920 N.pl3 1 <1>  -0.8690 
 13 C        5.1060     8.6360    -0.0530 C.ar  1 <1>   0.4100 
 14 N        6.3380     8.2130     0.1680 N.ar  1 <1>  -0.6200 
 15 C        4.7280    10.0200    -0.0460 C.ar  1 <1>   0.4100 
 16 C        7.1770     9.2160     0.3910 C.ar  1 <1>   0.1600 
 17 N        5.5860    10.9990     0.1860 N.ar  1 <1>  -0.6200 
 18 N        3.4010    10.4030    -0.3030 N.pl3 1 <1>  -0.8380 
 19 C        6.8170    10.5510     0.4010 C.ar  1 <1>   0.1600 
 20 C        2.8660    11.5760     0.4420 C.3   1 <1>   0.1290 
 21 C        3.0110    10.3910    -1.7370 C.3   1 <1>   0.1290 
 22 H       -1.6280     0.4490    -2.4030 H     1 <1>   0.0800 
 23 H       -2.4170     1.6950    -1.4410 H     1 <1>   0.0800 
 24 H       -1.7600     0.2440    -0.6600 H     1 <1>   0.0800 
 25 H        1.8170     2.7750    -0.9470 H     1 <1>   0.1500 
 26 H       -1.9770     2.0570     0.8590 H     1 <1>   0.1500 
 27 H       -1.3150     3.3890     2.7890 H     1 <1>   0.1500 
 28 H        0.9030     4.4260     2.8800 H     1 <1>   0.1500 
 29 H        3.6050     3.6770     0.5260 H     1 <1>   0.0800 
 30 H        3.2090     4.4160     2.0490 H     1 <1>   0.0800 
 31 H        2.1450     6.3110     0.8480 H     1 <1>   0.0800 
 32 H        2.5650     5.5690    -0.6790 H     1 <1>   0.0800 
 33 H        4.9700     5.7510    -0.1050 H     1 <1>   0.0800 
 34 H        4.5450     6.5100     1.4150 H     1 <1>   0.0800 
 35 H        3.2180     8.0930    -0.2330 H     1 <1>   0.4000 
 36 H        8.2040     8.9550     0.5750 H     1 <1>   0.1500 
 37 H        7.5720    11.2920     0.5930 H     1 <1>   0.1500 
 38 H        3.2010    11.5410     1.4650 H     1 <1>   0.0800 
 39 H        1.7910    11.5620     0.4290 H     1 <1>   0.0800 
 40 H        3.2190    12.4890    -0.0060 H     1 <1>   0.0800 
 41 H        3.4760     9.5610    -2.2430 H     1 <1>   0.0800 
 42 H        3.3290    11.3050    -2.2100 H     1 <1>   0.0800 
 43 H        1.9430    10.2960    -1.8250 H     1 <1>   0.0800 
@<TRIPOS>BOND
  1   1   2  1   
  2   1   3  1   
  3   2   4  ar  
  4   2   5  ar  
  5   3  22  1   
  6   3  23  1   
  7   3  24  1   
  8   4   6  ar  
  9   4  25  1   
 10   5   7  ar  
 11   5  26  1   
 12   6   8  ar  
 13   6   9  1   
 14   7   8  ar  
 15   7  27  1   
 16   8  28  1   
 17   9  10  1   
 18   9  29  1   
 19   9  30  1   
 20  10  11  1   
 21  10  31  1   
 22  10  32  1   
 23  11  12  1   
 24  11  33  1   
 25  11  34  1   
 26  12  13  1   
 27  12  35  1   
 28  13  14  ar  
 29  13  15  ar  
 30  14  16  ar  
 31  15  17  ar  
 32  15  18  1   
 33  16  19  ar  
 34  16  36  1   
 35  17  19  ar  
 36  18  20  1   
 37  18  21  1   
 38  19  37  1   
 39  20  38  1   
 40  20  39  1   
 41  20  40  1   
 42  21  41  1   
 43  21  42  1   
 44  21  43  1   
@<TRIPOS>SUBSTRUCTURE
  1 ****  10 GROUP 4 **** **** 0

# MOE 2024.06 (io_trps.svl 2023.06)
