@<TRIPOS>MOLECULE
NONAME
42 45 1 0 0 
SMALL
USER_CHARGES


@<TRIPOS>ATOM
  1 S       -0.8510     1.1180    -1.9670 S.3   1 <1>  -0.0800 
  2 C       -1.0720     1.6660    -0.2940 C.ar  1 <1>   0.0400 
  3 C       -1.9690    -0.2220    -1.7250 C.2   1 <1>  -0.1100 
  4 C       -0.5100     2.7460     0.3720 C.ar  1 <1>   0.4100 
  5 C       -1.9620     0.8480     0.3530 C.ar  1 <1>   0.2560 
  6 C       -2.4580    -0.2220    -0.4710 C.2   1 <1>  -0.1810 
  7 N       -0.8560     2.9830     1.6260 N.ar  1 <1>  -0.6200 
  8 N        0.4130     3.6000    -0.2030 N.pl3 1 <1>  -0.8380 
  9 N       -2.3000     1.0760     1.6190 N.ar  1 <1>  -0.5660 
 10 C       -3.4470    -1.2320     0.0840 C.3   1 <1>  -0.0590 
 11 C       -1.7250     2.1310     2.1620 C.ar  1 <1>   0.4700 
 12 C        0.3480     5.0630     0.0880 C.3   1 <1>   0.2090 
 13 C        1.7230     3.0710    -0.6630 C.3   1 <1>   0.2090 
 14 C        1.3500     5.4970     1.1690 C.3   1 <1>   0.1400 
 15 C        2.6870     2.9530     0.5210 C.3   1 <1>  -0.1600 
 16 N        2.7570     5.4960     0.6560 N.am  1 <1>  -0.6600 
 17 C        3.5140     4.2160     0.7970 C.3   1 <1>   0.1400 
 18 C        3.4080     6.6470     0.2360 C.2   1 <1>   0.7150 
 19 O        4.6270     6.6140     0.1690 O.2   1 <1>  -0.5700 
 20 C        2.7430     7.8890    -0.1170 C.2   1 <1>   0.0550 
 21 O        1.4430     7.9750    -0.4000 O.3   1 <1>  -0.2800 
 22 C        3.2820     9.1350    -0.2490 C.2   1 <1>  -0.1500 
 23 C        1.1480     9.2200    -0.6970 C.2   1 <1>  -0.0100 
 24 C        2.2490     9.9950    -0.6210 C.2   1 <1>  -0.1500 
 25 H       -2.1400    -0.8720    -2.5650 H     1 <1>   0.1500 
 26 H       -3.7080    -1.9580    -0.6640 H     1 <1>   0.0800 
 27 H       -4.3400    -0.7280     0.4070 H     1 <1>   0.0800 
 28 H       -3.0150    -1.7410     0.9270 H     1 <1>   0.0800 
 29 H       -1.9930     2.3340     3.1850 H     1 <1>   0.1500 
 30 H       -0.6450     5.3070     0.4230 H     1 <1>   0.0800 
 31 H        0.5250     5.6150    -0.8180 H     1 <1>   0.0800 
 32 H        2.1320     3.7080    -1.4290 H     1 <1>   0.0800 
 33 H        1.5800     2.0940    -1.0890 H     1 <1>   0.0800 
 34 H        1.2630     4.8400     2.0170 H     1 <1>   0.0800 
 35 H        1.0920     6.4820     1.5120 H     1 <1>   0.0800 
 36 H        3.3810     2.1590     0.3130 H     1 <1>   0.0800 
 37 H        2.1470     2.6640     1.4050 H     1 <1>   0.0800 
 38 H        4.3390     4.2260     0.1040 H     1 <1>   0.0800 
 39 H        3.9280     4.1650     1.7890 H     1 <1>   0.0800 
 40 H        4.3110     9.4120    -0.1010 H     1 <1>   0.1500 
 41 H        0.1340     9.4730    -0.9530 H     1 <1>   0.1500 
 42 H        2.3440    11.0510    -0.8040 H     1 <1>   0.1500 
@<TRIPOS>BOND
  1   1   2  1   
  2   1   3  1   
  3   2   4  ar  
  4   2   5  ar  
  5   3   6  2   
  6   3  25  1   
  7   4   7  ar  
  8   4   8  1   
  9   5   6  1   
 10   5   9  ar  
 11   6  10  1   
 12   7  11  ar  
 13   8  12  1   
 14   8  13  1   
 15   9  11  ar  
 16  10  26  1   
 17  10  27  1   
 18  10  28  1   
 19  11  29  1   
 20  12  14  1   
 21  12  30  1   
 22  12  31  1   
 23  13  15  1   
 24  13  32  1   
 25  13  33  1   
 26  14  16  1   
 27  14  34  1   
 28  14  35  1   
 29  15  17  1   
 30  15  36  1   
 31  15  37  1   
 32  16  17  1   
 33  16  18  am  
 34  17  38  1   
 35  17  39  1   
 36  18  19  2   
 37  18  20  1   
 38  20  21  1   
 39  20  22  2   
 40  21  23  1   
 41  22  24  1   
 42  22  40  1   
 43  23  24  2   
 44  23  41  1   
 45  24  42  1   
@<TRIPOS>SUBSTRUCTURE
  1 ****   8 GROUP 4 **** **** 0

# MOE 2024.06 (io_trps.svl 2023.06)
