@<TRIPOS>MOLECULE
NONAME
50 52 1 0 0 
SMALL
USER_CHARGES


@<TRIPOS>ATOM
  1 O       -0.3300     0.1930     0.7570 O.2   1 <1>  -0.5700 
  2 C       -1.2960     0.7880     0.3420 C.2   1 <1>   0.5690 
  3 N       -2.3990     0.1240    -0.1170 N.am  1 <1>  -0.6600 
  4 C       -1.2890     2.3090     0.3320 C.3   1 <1>  -0.0990 
  5 C       -3.6640     0.7380    -0.5920 C.3   1 <1>   0.1400 
  6 C       -2.4940    -1.3540    -0.1330 C.3   1 <1>   0.1400 
  7 C        0.0460     2.9300     0.7670 C.3   1 <1>  -0.0160 
  8 C       -4.5790    -0.4430    -0.9220 C.3   1 <1>   0.2000 
  9 C       -3.9940    -1.6490    -0.1890 C.3   1 <1>  -0.0800 
 10 C       -0.0290     4.4510     0.6810 C.ar  1 <1>  -0.1440 
 11 O       -5.8780    -0.2170    -0.4930 O.3   1 <1>  -0.6800 
 12 C       -4.3520    -2.9830    -0.8680 C.3   1 <1>  -0.0170 
 13 C        0.3510     5.1600    -0.4560 C.ar  1 <1>  -0.1440 
 14 C       -0.5050     5.1440     1.7840 C.ar  1 <1>  -0.1500 
 15 C       -3.7870    -4.1740    -0.1110 C.ar  1 <1>   0.1670 
 16 C        0.2450     6.5440    -0.4630 C.ar  1 <1>  -0.1500 
 17 C        0.8880     4.4660    -1.7010 C.3   1 <1>  -0.0970 
 18 C       -0.6070     6.5230     1.7660 C.ar  1 <1>  -0.1500 
 19 N       -2.5230    -4.4810    -0.3520 N.ar  1 <1>  -0.6200 
 20 C       -4.5920    -4.8780     0.7830 C.ar  1 <1>   0.1600 
 21 C       -0.2320     7.2310     0.6390 C.ar  1 <1>  -0.1440 
 22 C       -2.1200    -5.5240     0.3560 C.ar  1 <1>   0.1600 
 23 N       -4.1920    -5.9210     1.4920 N.ar  1 <1>  -0.6200 
 24 C       -0.3340     8.7450     0.6000 C.3   1 <1>  -0.0970 
 25 C       -2.9280    -6.2190     1.2470 C.ar  1 <1>   0.1600 
 26 H       -1.5180     2.6440    -0.6620 H     1 <1>   0.0800 
 27 H       -2.0630     2.6580     0.9890 H     1 <1>   0.0800 
 28 H       -4.0840     1.3460     0.1900 H     1 <1>   0.0800 
 29 H       -3.4830     1.3310    -1.4700 H     1 <1>   0.0800 
 30 H       -1.9930    -1.7280    -1.0100 H     1 <1>   0.0800 
 31 H       -2.0370    -1.7840     0.7430 H     1 <1>   0.0800 
 32 H        0.8450     2.5520     0.1550 H     1 <1>   0.0800 
 33 H        0.2640     2.6360     1.7790 H     1 <1>   0.0800 
 34 H       -4.5960    -0.6020    -1.9870 H     1 <1>   0.0800 
 35 H       -4.3500    -1.6590     0.8270 H     1 <1>   0.0800 
 36 H       -5.8970    -0.0740     0.4730 H     1 <1>   0.4000 
 37 H       -3.9710    -2.9970    -1.8740 H     1 <1>   0.0800 
 38 H       -5.4220    -3.0720    -0.9280 H     1 <1>   0.0800 
 39 H       -0.8000     4.6100     2.6690 H     1 <1>   0.1500 
 40 H        0.5380     7.0980    -1.3370 H     1 <1>   0.1500 
 41 H        1.0110     5.1640    -2.5090 H     1 <1>   0.0800 
 42 H        0.2100     3.6980    -2.0240 H     1 <1>   0.0800 
 43 H        1.8440     4.0250    -1.4870 H     1 <1>   0.0800 
 44 H       -0.9770     7.0380     2.6340 H     1 <1>   0.1500 
 45 H       -5.6120    -4.5640     0.9200 H     1 <1>   0.1500 
 46 H       -1.1020    -5.8430     0.2240 H     1 <1>   0.1500 
 47 H       -0.7150     9.1300     1.5290 H     1 <1>   0.0800 
 48 H       -0.9950     9.0460    -0.1930 H     1 <1>   0.0800 
 49 H        0.6370     9.1720     0.4250 H     1 <1>   0.0800 
 50 H       -2.5090    -7.0560     1.7780 H     1 <1>   0.1500 
@<TRIPOS>BOND
  1   1   2  2   
  2   2   3  am  
  3   2   4  1   
  4   3   5  1   
  5   3   6  1   
  6   4   7  1   
  7   4  26  1   
  8   4  27  1   
  9   5   8  1   
 10   5  28  1   
 11   5  29  1   
 12   6   9  1   
 13   6  30  1   
 14   6  31  1   
 15   7  10  1   
 16   7  32  1   
 17   7  33  1   
 18   8   9  1   
 19   8  11  1   
 20   8  34  1   
 21   9  12  1   
 22   9  35  1   
 23  10  13  ar  
 24  10  14  ar  
 25  11  36  1   
 26  12  15  1   
 27  12  37  1   
 28  12  38  1   
 29  13  16  ar  
 30  13  17  1   
 31  14  18  ar  
 32  14  39  1   
 33  15  19  ar  
 34  15  20  ar  
 35  16  21  ar  
 36  16  40  1   
 37  17  41  1   
 38  17  42  1   
 39  17  43  1   
 40  18  21  ar  
 41  18  44  1   
 42  19  22  ar  
 43  20  23  ar  
 44  20  45  1   
 45  21  24  1   
 46  22  25  ar  
 47  22  46  1   
 48  23  25  ar  
 49  24  47  1   
 50  24  48  1   
 51  24  49  1   
 52  25  50  1   
@<TRIPOS>SUBSTRUCTURE
  1 ****   2 GROUP 4 **** **** 0

# MOE 2024.06 (io_trps.svl 2023.06)
