@<TRIPOS>MOLECULE
NONAME
39 41 1 0 0 
SMALL
USER_CHARGES


@<TRIPOS>ATOM
  1 F       -1.5150    -0.1210     1.3870 F     1 <1>  -0.1900 
  2 C       -2.4770     0.7350     1.1410 C.ar  1 <1>   0.1900 
  3 C       -2.3550     1.6500     0.1270 C.ar  1 <1>   0.1600 
  4 C       -3.6230     0.7300     1.8950 C.ar  1 <1>   0.1600 
  5 N       -3.3140     2.5130    -0.1280 N.ar  1 <1>  -0.6200 
  6 N       -4.5960     1.5840     1.6560 N.ar  1 <1>  -0.6200 
  7 C       -4.4020     2.4440     0.6500 C.ar  1 <1>   0.7200 
  8 N       -5.4130     3.3420     0.3920 N.pl3 1 <1>  -0.8380 
  9 C       -6.8080     3.1110     0.8910 C.3   1 <1>   0.2090 
 10 C       -5.1880     4.5240    -0.4910 C.3   1 <1>   0.2090 
 11 C       -7.8840     3.6300    -0.0940 C.3   1 <1>   0.0000 
 12 C       -6.2130     5.6180    -0.1900 C.3   1 <1>  -0.1600 
 13 C       -9.2810     3.3160     0.4800 C.3   1 <1>   0.2000 
 14 C       -7.6700     5.1470    -0.3570 C.3   1 <1>  -0.1600 
 15 C       -7.8700     2.7890    -1.3880 C.3   1 <1>  -0.1600 
 16 O      -10.2440     4.0870    -0.1830 O.3   1 <1>  -0.5600 
 17 C       -9.5350     1.8400     0.1460 C.3   1 <1>  -0.1600 
 18 C       -8.6720     1.5200    -1.0820 C.3   1 <1>  -0.1600 
 19 C      -11.4160     4.3120     0.5340 C.3   1 <1>   0.0400 
 20 H       -1.4640     1.6710    -0.4750 H     1 <1>   0.1500 
 21 H       -3.7380     0.0220     2.6950 H     1 <1>   0.1500 
 22 H       -6.9590     2.0600     1.0650 H     1 <1>   0.0800 
 23 H       -6.9140     3.6170     1.8350 H     1 <1>   0.0800 
 24 H       -4.1970     4.9140    -0.3290 H     1 <1>   0.0800 
 25 H       -5.2640     4.2180    -1.5200 H     1 <1>   0.0800 
 26 H       -6.0560     5.9440     0.8240 H     1 <1>   0.0800 
 27 H       -6.0330     6.4630    -0.8300 H     1 <1>   0.0800 
 28 H       -9.3310     3.5200     1.5370 H     1 <1>   0.0800 
 29 H       -8.0170     5.3910    -1.3450 H     1 <1>   0.0800 
 30 H       -8.2730     5.7170     0.3280 H     1 <1>   0.0800 
 31 H       -8.3810     3.3250    -2.1700 H     1 <1>   0.0800 
 32 H       -6.8780     2.5530    -1.7290 H     1 <1>   0.0800 
 33 H       -9.2110     1.2300     0.9700 H     1 <1>   0.0800 
 34 H      -10.5750     1.6410    -0.0400 H     1 <1>   0.0800 
 35 H       -8.0050     0.7040    -0.8600 H     1 <1>   0.0800 
 36 H       -9.2840     1.2500    -1.9260 H     1 <1>   0.0800 
 37 H      -12.0830     4.8820    -0.0880 H     1 <1>   0.0800 
 38 H      -11.1840     4.8710     1.4240 H     1 <1>   0.0800 
 39 H      -11.8720     3.3710     0.7860 H     1 <1>   0.0800 
@<TRIPOS>BOND
  1   1   2  1   
  2   2   3  ar  
  3   2   4  ar  
  4   3   5  ar  
  5   3  20  1   
  6   4   6  ar  
  7   4  21  1   
  8   5   7  ar  
  9   6   7  ar  
 10   7   8  1   
 11   8   9  1   
 12   8  10  1   
 13   9  11  1   
 14   9  22  1   
 15   9  23  1   
 16  10  12  1   
 17  10  24  1   
 18  10  25  1   
 19  11  13  1   
 20  11  14  1   
 21  11  15  1   
 22  12  14  1   
 23  12  26  1   
 24  12  27  1   
 25  13  16  1   
 26  13  17  1   
 27  13  28  1   
 28  14  29  1   
 29  14  30  1   
 30  15  18  1   
 31  15  31  1   
 32  15  32  1   
 33  16  19  1   
 34  17  18  1   
 35  17  33  1   
 36  17  34  1   
 37  18  35  1   
 38  18  36  1   
 39  19  37  1   
 40  19  38  1   
 41  19  39  1   
@<TRIPOS>SUBSTRUCTURE
  1 ****   9 GROUP 4 **** **** 0

# MOE 2024.06 (io_trps.svl 2023.06)
