@<TRIPOS>MOLECULE
NONAME
29 31 1 0 0 
SMALL
USER_CHARGES


@<TRIPOS>ATOM
  1 S       -0.4860     0.2120    -0.4860 S.3   1 <1>  -0.0800 
  2 C       -0.1980     1.9380    -0.7120 C.ar  1 <1>   0.2970 
  3 C        1.0590     0.0070     0.3470 C.2   1 <1>  -0.1400 
  4 N       -1.0400     2.7480    -1.3170 N.ar  1 <1>  -0.5670 
  5 C        1.0120     2.2880    -0.1710 C.ar  1 <1>   0.0000 
  6 C        1.7110     1.1810     0.4260 C.2   1 <1>  -0.1500 
  7 C        1.4010    -1.3890     0.8250 C.3   1 <1>  -0.0600 
  8 C       -0.6010     3.9910    -1.3630 C.ar  1 <1>   0.4700 
  9 C        1.3450     3.6340    -0.2930 C.ar  1 <1>   0.4100 
 10 N        0.5380     4.4930    -0.8930 N.ar  1 <1>  -0.6200 
 11 N        2.5270     4.1280     0.2000 N.pl3 1 <1>  -0.8380 
 12 C        3.5510     4.5990    -0.7880 C.3   1 <1>   0.2090 
 13 C        2.4530     5.1540     1.2820 C.3   1 <1>   0.2090 
 14 C        4.0000     5.9930    -0.3310 C.3   1 <1>   0.2600 
 15 C        2.9050     6.4590     0.6230 C.3   1 <1>   0.2000 
 16 F        5.1180     5.8510     0.3830 F     1 <1>  -0.3400 
 17 O        1.8390     6.9600    -0.1210 O.3   1 <1>  -0.6800 
 18 H        2.6720     1.3450     0.8820 H     1 <1>   0.1500 
 19 H        2.3580    -1.3900     1.3140 H     1 <1>   0.0800 
 20 H        1.4370    -2.0640    -0.0120 H     1 <1>   0.0800 
 21 H        0.6550    -1.7320     1.5190 H     1 <1>   0.0800 
 22 H       -1.2550     4.6970    -1.8480 H     1 <1>   0.1500 
 23 H        4.3820     3.9170    -0.8320 H     1 <1>   0.0800 
 24 H        3.1020     4.6710    -1.7640 H     1 <1>   0.0800 
 25 H        1.4610     5.2410     1.6930 H     1 <1>   0.0800 
 26 H        3.1380     4.8820     2.0670 H     1 <1>   0.0800 
 27 H        4.2210     6.6810    -1.1260 H     1 <1>   0.0800 
 28 H        3.2330     7.2170     1.3130 H     1 <1>   0.0800 
 29 H        1.3400     6.1840    -0.4890 H     1 <1>   0.4000 
@<TRIPOS>BOND
  1   1   2  1   
  2   1   3  1   
  3   2   4  ar  
  4   2   5  ar  
  5   3   6  2   
  6   3   7  1   
  7   4   8  ar  
  8   5   6  1   
  9   5   9  ar  
 10   6  18  1   
 11   7  19  1   
 12   7  20  1   
 13   7  21  1   
 14   8  10  ar  
 15   8  22  1   
 16   9  10  ar  
 17   9  11  1   
 18  11  12  1   
 19  11  13  1   
 20  12  14  1   
 21  12  23  1   
 22  12  24  1   
 23  13  15  1   
 24  13  25  1   
 25  13  26  1   
 26  14  15  1   
 27  14  16  1   
 28  14  27  1   
 29  15  17  1   
 30  15  28  1   
 31  17  29  1   
@<TRIPOS>SUBSTRUCTURE
  1 ****   9 GROUP 4 **** **** 0

# MOE 2024.06 (io_trps.svl 2023.06)
