@<TRIPOS>MOLECULE
NONAME
55 58 1 0 0 
SMALL
USER_CHARGES


@<TRIPOS>ATOM
  1 O        2.8210    -2.2270     2.9750 O.2   1 <1>  -0.5700 
  2 C        2.4520    -2.9010     2.0340 C.2   1 <1>   0.5440 
  3 N        3.1470    -2.8380     0.8440 N.am  1 <1>  -0.6600 
  4 C        1.2960    -3.7590     2.1990 C.ar  1 <1>   0.0860 
  5 C        4.1160    -1.7410     0.5680 C.3   1 <1>   0.1400 
  6 C        3.1400    -3.9160    -0.1840 C.3   1 <1>   0.1400 
  7 C        0.2440    -3.7820     1.3030 C.ar  1 <1>  -0.1500 
  8 C        1.1650    -4.6170     3.2810 C.ar  1 <1>  -0.1500 
  9 C        3.8120    -1.1220    -0.8010 C.3   1 <1>  -0.1600 
 10 C        2.8150    -3.3170    -1.5570 C.3   1 <1>  -0.1600 
 11 C       -0.8320    -4.6370     1.4880 C.ar  1 <1>   0.4100 
 12 C        0.0590    -5.4350     3.3860 C.ar  1 <1>   0.1600 
 13 C        3.7840    -2.1800    -1.9150 C.3   1 <1>  -0.1600 
 14 N       -0.9300    -5.4750     2.5090 N.ar  1 <1>  -0.6200 
 15 N       -1.8430    -4.6580     0.5550 N.pl3 1 <1>  -0.8690 
 16 C       -3.2050    -5.2290     0.7790 C.3   1 <1>   0.2090 
 17 C       -3.5350    -6.2920    -0.2800 C.3   1 <1>   0.0200 
 18 C       -2.7010    -7.5590    -0.1850 C.2   1 <1>   0.0060 
 19 N       -2.9730    -8.6370    -0.8340 N.2   1 <1>  -0.5650 
 20 N       -1.5970    -7.6590     0.5940 N.pl3 1 <1>   0.0330 
 21 C       -1.9870    -9.5160    -0.4740 C.ar  1 <1>   0.2270 
 22 C       -1.1230    -8.9150     0.4210 C.ar  1 <1>  -0.1520 
 23 C       -1.7740   -10.8420    -0.8750 C.ar  1 <1>  -0.1430 
 24 C       -0.0300    -9.5980     0.9490 C.ar  1 <1>  -0.1500 
 25 C       -0.6940   -11.5320    -0.3470 C.ar  1 <1>  -0.1430 
 26 C       -2.7500   -11.4600    -1.8720 C.3   1 <1>  -0.0970 
 27 C        0.1720   -10.9010     0.5580 C.ar  1 <1>  -0.1500 
 28 C       -0.4050   -12.9800    -0.7170 C.3   1 <1>  -0.0970 
 29 H        5.1140    -2.1430     0.5790 H     1 <1>   0.0800 
 30 H        4.0530    -0.9790     1.3260 H     1 <1>   0.0800 
 31 H        2.4290    -4.6850     0.0600 H     1 <1>   0.0800 
 32 H        4.1160    -4.3700    -0.2130 H     1 <1>   0.0800 
 33 H        0.2610    -3.1300     0.4520 H     1 <1>   0.1500 
 34 H        1.9320    -4.6350     4.0350 H     1 <1>   0.1500 
 35 H        4.5570    -0.3800    -1.0270 H     1 <1>   0.0800 
 36 H        2.8600    -0.6230    -0.7490 H     1 <1>   0.0800 
 37 H        1.8060    -2.9440    -1.5480 H     1 <1>   0.0800 
 38 H        2.8740    -4.0890    -2.3030 H     1 <1>   0.0800 
 39 H       -0.0170    -6.0930     4.2350 H     1 <1>   0.1500 
 40 H        4.7740    -2.5830    -2.0460 H     1 <1>   0.0800 
 41 H        3.4850    -1.7240    -2.8430 H     1 <1>   0.0800 
 42 H       -1.7990    -3.9510    -0.1830 H     1 <1>   0.4000 
 43 H       -3.9260    -4.4330     0.7170 H     1 <1>   0.0800 
 44 H       -3.2860    -5.6640     1.7610 H     1 <1>   0.0800 
 45 H       -3.4190    -5.8690    -1.2610 H     1 <1>   0.0800 
 46 H       -4.5670    -6.5720    -0.1710 H     1 <1>   0.0800 
 47 H       -1.2190    -6.9080     1.1900 H     1 <1>   0.2700 
 48 H        0.6300    -9.1080     1.6430 H     1 <1>   0.1500 
 49 H       -3.1480   -10.7010    -2.5220 H     1 <1>   0.0800 
 50 H       -3.5650   -11.9160    -1.3410 H     1 <1>   0.0800 
 51 H       -2.2700   -12.1970    -2.4870 H     1 <1>   0.0800 
 52 H        1.0090   -11.4460     0.9560 H     1 <1>   0.1500 
 53 H       -1.3060   -13.5630    -0.6700 H     1 <1>   0.0800 
 54 H        0.3090   -13.4160    -0.0420 H     1 <1>   0.0800 
 55 H       -0.0060   -13.0270    -1.7150 H     1 <1>   0.0800 
@<TRIPOS>BOND
  1   1   2  2   
  2   2   3  am  
  3   2   4  1   
  4   3   5  1   
  5   3   6  1   
  6   4   7  ar  
  7   4   8  ar  
  8   5   9  1   
  9   5  29  1   
 10   5  30  1   
 11   6  10  1   
 12   6  31  1   
 13   6  32  1   
 14   7  11  ar  
 15   7  33  1   
 16   8  12  ar  
 17   8  34  1   
 18   9  13  1   
 19   9  35  1   
 20   9  36  1   
 21  10  13  1   
 22  10  37  1   
 23  10  38  1   
 24  11  14  ar  
 25  11  15  1   
 26  12  14  ar  
 27  12  39  1   
 28  13  40  1   
 29  13  41  1   
 30  15  16  1   
 31  15  42  1   
 32  16  17  1   
 33  16  43  1   
 34  16  44  1   
 35  17  18  1   
 36  17  45  1   
 37  17  46  1   
 38  18  19  2   
 39  18  20  1   
 40  19  21  1   
 41  20  22  1   
 42  20  47  1   
 43  21  22  ar  
 44  21  23  ar  
 45  22  24  ar  
 46  23  25  ar  
 47  23  26  1   
 48  24  27  ar  
 49  24  48  1   
 50  25  27  ar  
 51  25  28  1   
 52  26  49  1   
 53  26  50  1   
 54  26  51  1   
 55  27  52  1   
 56  28  53  1   
 57  28  54  1   
 58  28  55  1   
@<TRIPOS>SUBSTRUCTURE
  1 ****  11 GROUP 4 **** **** 0

# MOE 2024.06 (io_trps.svl 2023.06)
