@<TRIPOS>MOLECULE
NONAME
47 49 1 0 0 
SMALL
USER_CHARGES


@<TRIPOS>ATOM
  1 O       -0.3610     1.4260     2.0820 O.2   1 <1>  -0.5700 
  2 C       -0.1100     2.4200     1.4200 C.2   1 <1>   0.5440 
  3 N       -1.1510     3.2190     0.9920 N.am  1 <1>  -0.6600 
  4 C        1.2600     2.7200     1.0920 C.ar  1 <1>   0.0860 
  5 C       -2.5710     2.9150     1.3430 C.3   1 <1>   0.1400 
  6 C       -1.0220     4.2270    -0.0960 C.3   1 <1>   0.1400 
  7 C        2.0050     1.8480     0.2790 C.ar  1 <1>   0.4100 
  8 C        1.8790     3.8730     1.5550 C.ar  1 <1>  -0.1500 
  9 C       -3.3150     2.3310     0.1270 C.3   1 <1>   0.0000 
 10 C       -1.7270     3.7140    -1.3560 C.3   1 <1>  -0.1600 
 11 N        3.2640     2.0810    -0.0940 N.ar  1 <1>  -0.6200 
 12 N        1.4420     0.6760    -0.1770 N.pl3 1 <1>  -0.8690 
 13 C        3.1820     4.1050     1.1780 C.ar  1 <1>  -0.1500 
 14 C       -4.7780     2.0220     0.4930 C.3   1 <1>   0.2000 
 15 C       -3.1860     3.3090    -1.0750 C.3   1 <1>  -0.1600 
 16 C       -2.8030     0.9290    -0.2520 C.3   1 <1>  -0.1600 
 17 C        3.8170     3.1880     0.3600 C.ar  1 <1>   0.1600 
 18 C        2.2020    -0.3990    -0.8600 C.3   1 <1>   0.1290 
 19 O       -5.5800     3.1660     0.4520 O.3   1 <1>  -0.5600 
 20 C       -5.2420     0.9710    -0.5180 C.3   1 <1>  -0.1600 
 21 C       -3.9700     0.2360    -0.9660 C.3   1 <1>  -0.1600 
 22 C       -6.8320     3.0290     1.0440 C.3   1 <1>   0.0400 
 23 H       -2.6160     2.2280     2.1700 H     1 <1>   0.0800 
 24 H       -3.0560     3.8250     1.6510 H     1 <1>   0.0800 
 25 H       -1.4790     5.1470     0.2260 H     1 <1>   0.0800 
 26 H        0.0100     4.4280    -0.3230 H     1 <1>   0.0800 
 27 H        1.3450     4.5580     2.1910 H     1 <1>   0.1500 
 28 H       -1.7110     4.4850    -2.1060 H     1 <1>   0.0800 
 29 H       -1.1740     2.8790    -1.7470 H     1 <1>   0.0800 
 30 H        0.6350     0.3550     0.3770 H     1 <1>   0.4000 
 31 H        3.7050     4.9830     1.5120 H     1 <1>   0.1500 
 32 H       -4.8110     1.6080     1.4880 H     1 <1>   0.0800 
 33 H       -3.6190     2.8800    -1.9610 H     1 <1>   0.0800 
 34 H       -3.7370     4.2080    -0.8550 H     1 <1>   0.0800 
 35 H       -1.9160     0.9480    -0.8580 H     1 <1>   0.0800 
 36 H       -2.5750     0.3810     0.6460 H     1 <1>   0.0800 
 37 H        4.8360     3.3770     0.0660 H     1 <1>   0.1500 
 38 H        2.7960     0.0190    -1.6550 H     1 <1>   0.0800 
 39 H        1.5210    -1.1200    -1.2750 H     1 <1>   0.0800 
 40 H        2.8540    -0.8860    -0.1550 H     1 <1>   0.0800 
 41 H       -5.9420     0.2900    -0.0680 H     1 <1>   0.0800 
 42 H       -5.6960     1.4520    -1.3670 H     1 <1>   0.0800 
 43 H       -4.0060    -0.8090    -0.7090 H     1 <1>   0.0800 
 44 H       -3.8550     0.3280    -2.0320 H     1 <1>   0.0800 
 45 H       -7.3390     3.9750     0.9750 H     1 <1>   0.0800 
 46 H       -6.7100     2.7590     2.0790 H     1 <1>   0.0800 
 47 H       -7.3980     2.2790     0.5200 H     1 <1>   0.0800 
@<TRIPOS>BOND
  1   1   2  2   
  2   2   3  am  
  3   2   4  1   
  4   3   5  1   
  5   3   6  1   
  6   4   7  ar  
  7   4   8  ar  
  8   5   9  1   
  9   5  23  1   
 10   5  24  1   
 11   6  10  1   
 12   6  25  1   
 13   6  26  1   
 14   7  11  ar  
 15   7  12  1   
 16   8  13  ar  
 17   8  27  1   
 18   9  14  1   
 19   9  15  1   
 20   9  16  1   
 21  10  15  1   
 22  10  28  1   
 23  10  29  1   
 24  11  17  ar  
 25  12  18  1   
 26  12  30  1   
 27  13  17  ar  
 28  13  31  1   
 29  14  19  1   
 30  14  20  1   
 31  14  32  1   
 32  15  33  1   
 33  15  34  1   
 34  16  21  1   
 35  16  35  1   
 36  16  36  1   
 37  17  37  1   
 38  18  38  1   
 39  18  39  1   
 40  18  40  1   
 41  19  22  1   
 42  20  21  1   
 43  20  41  1   
 44  20  42  1   
 45  21  43  1   
 46  21  44  1   
 47  22  45  1   
 48  22  46  1   
 49  22  47  1   
@<TRIPOS>SUBSTRUCTURE
  1 ****   3 GROUP 4 **** **** 0

# MOE 2024.06 (io_trps.svl 2023.06)
