@<TRIPOS>MOLECULE
NONAME
50 53 1 0 0 
SMALL
USER_CHARGES


@<TRIPOS>ATOM
  1 S       -0.1720    -0.2860    -1.0290 S.3   1 <1>  -0.3320 
  2 C       -0.2100    -1.9980    -0.4710 C.ar  1 <1>   0.1020 
  3 C        1.5630     0.3140    -0.8280 C.3   1 <1>  -0.0100 
  4 C       -1.4030    -2.6620    -0.5310 C.ar  1 <1>  -0.1500 
  5 C        0.9380    -2.6370     0.0100 C.ar  1 <1>  -0.1500 
  6 C       -1.5150    -3.9970    -0.1160 C.ar  1 <1>   0.3100 
  7 C        0.8560    -3.9400     0.4230 C.ar  1 <1>  -0.1500 
  8 N       -2.7290    -4.5860    -0.2110 N.ar  1 <1>  -0.6200 
  9 C       -0.3600    -4.6560     0.3740 C.ar  1 <1>   0.0000 
 10 C       -2.8290    -5.8290     0.1680 C.ar  1 <1>   0.4100 
 11 C       -0.5040    -5.9980     0.7900 C.ar  1 <1>  -0.1430 
 12 N       -4.0600    -6.4480     0.0520 N.pl3 1 <1>  -0.8380 
 13 C       -1.7390    -6.5580     0.6800 C.ar  1 <1>  -0.1500 
 14 C        0.6680    -6.7940     1.3470 C.3   1 <1>  -0.0970 
 15 C       -4.1590    -7.6860    -0.7710 C.3   1 <1>   0.2090 
 16 C       -5.2840    -5.6010     0.1130 C.3   1 <1>   0.2090 
 17 C       -4.5850    -8.8920     0.0830 C.3   1 <1>   0.1400 
 18 C       -6.5650    -6.3980     0.3940 C.3   1 <1>  -0.1600 
 19 N       -6.0050    -8.8110     0.5550 N.am  1 <1>  -0.6600 
 20 C       -6.3710    -7.5930     1.3330 C.3   1 <1>   0.1400 
 21 C       -6.9750    -9.7180     0.1790 C.2   1 <1>   0.7160 
 22 O       -8.1370    -9.3580     0.1490 O.2   1 <1>  -0.5700 
 23 C       -6.6550   -11.0760    -0.1920 C.2   1 <1>  -0.0860 
 24 C       -7.2550   -11.8480    -1.1360 C.2   1 <1>  -0.0100 
 25 C       -5.6670   -11.9220     0.3600 C.2   1 <1>  -0.1500 
 26 O       -6.7090   -13.0380    -1.2040 O.3   1 <1>  -0.2800 
 27 C       -5.7530   -13.0930    -0.3020 C.2   1 <1>  -0.0100 
 28 H        1.5930     1.3350    -1.1620 H     1 <1>   0.0800 
 29 H        2.2010    -0.3040    -1.4340 H     1 <1>   0.0800 
 30 H        1.8200     0.2460     0.2140 H     1 <1>   0.0800 
 31 H       -2.2830    -2.1720    -0.9010 H     1 <1>   0.1500 
 32 H        1.8730    -2.1160     0.0580 H     1 <1>   0.1500 
 33 H        1.7380    -4.4290     0.7930 H     1 <1>   0.1500 
 34 H       -1.9240    -7.5670     0.9890 H     1 <1>   0.1500 
 35 H        1.0550    -6.3120     2.2270 H     1 <1>   0.0800 
 36 H        1.4480    -6.8660     0.6110 H     1 <1>   0.0800 
 37 H        0.3620    -7.7900     1.6150 H     1 <1>   0.0800 
 38 H       -3.2000    -7.8940    -1.2120 H     1 <1>   0.0800 
 39 H       -4.8580    -7.5420    -1.5760 H     1 <1>   0.0800 
 40 H       -5.3880    -5.0570    -0.8110 H     1 <1>   0.0800 
 41 H       -5.1490    -4.8790     0.9010 H     1 <1>   0.0800 
 42 H       -3.9320    -8.9720     0.9330 H     1 <1>   0.0800 
 43 H       -4.4510    -9.7710    -0.5200 H     1 <1>   0.0800 
 44 H       -7.0050    -6.7280    -0.5290 H     1 <1>   0.0800 
 45 H       -7.2680    -5.7210     0.8440 H     1 <1>   0.0800 
 46 H       -7.2920    -7.7770     1.8600 H     1 <1>   0.0800 
 47 H       -5.6120    -7.3800     2.0670 H     1 <1>   0.0800 
 48 H       -8.0760   -11.6050    -1.7890 H     1 <1>   0.1500 
 49 H       -5.0000   -11.6520     1.1590 H     1 <1>   0.1500 
 50 H       -5.1920   -14.0060    -0.1980 H     1 <1>   0.1500 
@<TRIPOS>BOND
  1   1   2  1   
  2   1   3  1   
  3   2   4  ar  
  4   2   5  ar  
  5   3  28  1   
  6   3  29  1   
  7   3  30  1   
  8   4   6  ar  
  9   4  31  1   
 10   5   7  ar  
 11   5  32  1   
 12   6   8  ar  
 13   6   9  ar  
 14   7   9  ar  
 15   7  33  1   
 16   8  10  ar  
 17   9  11  ar  
 18  10  12  1   
 19  10  13  ar  
 20  11  13  ar  
 21  11  14  1   
 22  12  15  1   
 23  12  16  1   
 24  13  34  1   
 25  14  35  1   
 26  14  36  1   
 27  14  37  1   
 28  15  17  1   
 29  15  38  1   
 30  15  39  1   
 31  16  18  1   
 32  16  40  1   
 33  16  41  1   
 34  17  19  1   
 35  17  42  1   
 36  17  43  1   
 37  18  20  1   
 38  18  44  1   
 39  18  45  1   
 40  19  20  1   
 41  19  21  am  
 42  20  46  1   
 43  20  47  1   
 44  21  22  2   
 45  21  23  1   
 46  23  24  2   
 47  23  25  1   
 48  24  26  1   
 49  24  48  1   
 50  25  27  2   
 51  25  49  1   
 52  26  27  1   
 53  27  50  1   
@<TRIPOS>SUBSTRUCTURE
  1 ****  12 GROUP 4 **** **** 0

# MOE 2024.06 (io_trps.svl 2023.06)
