@<TRIPOS>MOLECULE
NONAME
50 51 1 0 0 
SMALL
USER_CHARGES


@<TRIPOS>ATOM
  1 O       -0.4770     0.1460    -1.6870 O.2   1 <1>  -0.5700 
  2 C       -1.1140     0.6530    -0.7830 C.2   1 <1>   0.5440 
  3 N       -1.7810    -0.1630     0.1090 N.am  1 <1>  -0.6600 
  4 C       -1.1770     2.0940    -0.6910 C.ar  1 <1>   0.0860 
  5 C       -1.7920    -1.6390    -0.0760 C.3   1 <1>   0.3200 
  6 C       -2.6740     0.3610     1.1860 C.3   1 <1>   0.1400 
  7 C       -0.5880     2.7940     0.3640 C.ar  1 <1>  -0.1500 
  8 C       -1.8440     2.8390    -1.6650 C.ar  1 <1>  -0.1500 
  9 C       -3.1050    -2.0500    -0.7150 C.2   1 <1>  -0.3320 
 10 C       -4.0020     0.8730     0.6150 C.3   1 <1>   0.1200 
 11 C       -0.6860     4.1680     0.4540 C.ar  1 <1>  -0.1500 
 12 C       -1.9420     4.2130    -1.5760 C.ar  1 <1>  -0.1500 
 13 N       -4.1890    -2.5460    -0.0800 N.pl3 1 <1>   0.0480 
 14 C       -3.4270    -1.9780    -2.0250 C.2   1 <1>   0.0770 
 15 O       -4.9340     0.9340     1.6430 O.3   1 <1>  -0.6800 
 16 C       -1.3710     4.8960    -0.5090 C.ar  1 <1>   0.1000 
 17 C       -5.0990    -2.7360    -1.0620 C.2   1 <1>   0.0360 
 18 C       -4.3900    -2.8110     1.3560 C.3   1 <1>   0.0160 
 19 N       -4.6830    -2.4090    -2.2420 N.2   1 <1>  -0.5650 
 20 N       -1.4620     6.2720    -0.3960 N.pl3 1 <1>  -0.8380 
 21 C       -2.7940     6.8610    -0.1120 C.3   1 <1>   0.2090 
 22 C       -0.5500     7.0800    -1.2390 C.3   1 <1>   0.2090 
 23 C       -2.9280     7.0420     1.3950 C.3   1 <1>  -0.2400 
 24 C        0.1550     8.1090    -0.3630 C.3   1 <1>  -0.2400 
 25 H       -1.6510    -2.1280     0.8710 H     1 <1>   0.0800 
 26 H       -0.9810    -1.9430    -0.7150 H     1 <1>   0.0800 
 27 H       -2.1850     1.1580     1.7160 H     1 <1>   0.0800 
 28 H       -2.8710    -0.4260     1.8920 H     1 <1>   0.0800 
 29 H       -0.0470     2.2460     1.1150 H     1 <1>   0.1500 
 30 H       -2.2850     2.3200    -2.4980 H     1 <1>   0.1500 
 31 H       -4.3840     0.2090    -0.1400 H     1 <1>   0.0800 
 32 H       -3.8820     1.8600     0.2050 H     1 <1>   0.0800 
 33 H       -0.2350     4.7020     1.2700 H     1 <1>   0.1500 
 34 H       -2.4590     4.7720    -2.3330 H     1 <1>   0.1500 
 35 H       -2.8050    -1.6240    -2.8310 H     1 <1>   0.1500 
 36 H       -5.7780     1.2990     1.3110 H     1 <1>   0.4000 
 37 H       -6.0800    -3.1270    -0.8610 H     1 <1>   0.1500 
 38 H       -3.4850    -3.2010     1.7830 H     1 <1>   0.0800 
 39 H       -5.1770    -3.5320     1.4800 H     1 <1>   0.0800 
 40 H       -4.6640    -1.8980     1.8510 H     1 <1>   0.0800 
 41 H       -3.5680     6.2030    -0.4690 H     1 <1>   0.0800 
 42 H       -2.8980     7.8110    -0.6070 H     1 <1>   0.0800 
 43 H       -1.1040     7.5670    -2.0230 H     1 <1>   0.0800 
 44 H        0.1840     6.4360    -1.6940 H     1 <1>   0.0800 
 45 H       -2.8500     6.0880     1.8850 H     1 <1>   0.0800 
 46 H       -3.8840     7.4730     1.6270 H     1 <1>   0.0800 
 47 H       -2.1540     7.6920     1.7590 H     1 <1>   0.0800 
 48 H       -0.5570     8.7920     0.0610 H     1 <1>   0.0800 
 49 H        0.8580     8.6680    -0.9530 H     1 <1>   0.0800 
 50 H        0.6860     7.6100     0.4270 H     1 <1>   0.0800 
@<TRIPOS>BOND
  1   1   2  2   
  2   2   3  am  
  3   2   4  1   
  4   3   5  1   
  5   3   6  1   
  6   4   7  ar  
  7   4   8  ar  
  8   5   9  1   
  9   5  25  1   
 10   5  26  1   
 11   6  10  1   
 12   6  27  1   
 13   6  28  1   
 14   7  11  ar  
 15   7  29  1   
 16   8  12  ar  
 17   8  30  1   
 18   9  13  1   
 19   9  14  2   
 20  10  15  1   
 21  10  31  1   
 22  10  32  1   
 23  11  16  ar  
 24  11  33  1   
 25  12  16  ar  
 26  12  34  1   
 27  13  17  1   
 28  13  18  1   
 29  14  19  1   
 30  14  35  1   
 31  15  36  1   
 32  16  20  1   
 33  17  19  2   
 34  17  37  1   
 35  18  38  1   
 36  18  39  1   
 37  18  40  1   
 38  20  21  1   
 39  20  22  1   
 40  21  23  1   
 41  21  41  1   
 42  21  42  1   
 43  22  24  1   
 44  22  43  1   
 45  22  44  1   
 46  23  45  1   
 47  23  46  1   
 48  23  47  1   
 49  24  48  1   
 50  24  49  1   
 51  24  50  1   
@<TRIPOS>SUBSTRUCTURE
  1 ****   4 GROUP 4 **** **** 0

# MOE 2024.06 (io_trps.svl 2023.06)
