@<TRIPOS>MOLECULE
NONAME
48 49 1 0 0 
SMALL
USER_CHARGES


@<TRIPOS>ATOM
  1 O        0.4210    -0.2610    -1.3410 O.2   1 <1>  -0.5700 
  2 C        1.3500    -0.7550    -0.7320 C.2   1 <1>   0.5440 
  3 N        2.3130     0.0500    -0.1800 N.am  1 <1>  -0.4930 
  4 C        1.4280    -2.1960    -0.5680 C.ar  1 <1>   0.0860 
  5 C        2.4570     1.4590    -0.2470 C.2   1 <1>   0.0630 
  6 C        0.2670    -2.9660    -0.5210 C.ar  1 <1>  -0.1500 
  7 C        2.6470    -2.8660    -0.4510 C.ar  1 <1>  -0.1500 
  8 C        1.7030     2.4020    -0.9460 C.2   1 <1>   0.1390 
  9 C        3.4030     2.1850     0.3840 C.2   1 <1>  -0.3020 
 10 C        0.2880    -4.3440    -0.3500 C.ar  1 <1>   0.1170 
 11 C        2.6940    -4.2360    -0.2740 C.ar  1 <1>  -0.1500 
 12 N        2.1400     3.6140    -0.7680 N.2   1 <1>  -0.7070 
 13 N        3.1970     3.4820     0.0590 N.pl3 1 <1>   0.3140 
 14 N       -0.9390    -5.0250    -0.3120 N.am  1 <1>  -0.5470 
 15 C        1.5240    -4.9690    -0.2200 C.ar  1 <1>  -0.1500 
 16 C        4.0100     4.6390     0.5360 C.3   1 <1>   0.1760 
 17 C       -1.2520    -6.3580    -0.3510 C.2   1 <1>   0.5690 
 18 C        3.1450     5.6100     1.3520 C.3   1 <1>  -0.2400 
 19 C        4.6740     5.3590    -0.6460 C.3   1 <1>  -0.2400 
 20 O       -0.4280    -7.2350    -0.4460 O.2   1 <1>  -0.5700 
 21 C       -2.7360    -6.7360    -0.2860 C.3   1 <1>  -0.0190 
 22 C       -2.9920    -7.7610     0.8410 C.3   1 <1>  -0.1600 
 23 C       -3.2200    -7.2510    -1.6540 C.3   1 <1>  -0.2400 
 24 C       -4.4800    -8.0290     1.1050 C.3   1 <1>  -0.2400 
 25 H        3.0010    -0.4150     0.4080 H     1 <1>   0.3700 
 26 H       -0.6780    -2.4650    -0.6260 H     1 <1>   0.1500 
 27 H        3.5720    -2.3200    -0.5080 H     1 <1>   0.1500 
 28 H        0.8550     2.1620    -1.5640 H     1 <1>   0.1500 
 29 H        4.1940     1.8640     1.0320 H     1 <1>   0.1500 
 30 H        3.6420    -4.7400    -0.1810 H     1 <1>   0.1500 
 31 H       -1.7500    -4.4110    -0.2890 H     1 <1>   0.3700 
 32 H        1.5850    -6.0320    -0.0760 H     1 <1>   0.1500 
 33 H        4.7820     4.2500     1.1760 H     1 <1>   0.0800 
 34 H        2.3650     6.0220     0.7350 H     1 <1>   0.0800 
 35 H        3.7460     6.4170     1.7300 H     1 <1>   0.0800 
 36 H        2.6980     5.0970     2.1850 H     1 <1>   0.0800 
 37 H        3.9240     5.7660    -1.3020 H     1 <1>   0.0800 
 38 H        5.2880     4.6730    -1.2000 H     1 <1>   0.0800 
 39 H        5.2930     6.1640    -0.2920 H     1 <1>   0.0800 
 40 H       -3.2940    -5.8480    -0.0520 H     1 <1>   0.0800 
 41 H       -2.5470    -7.3900     1.7490 H     1 <1>   0.0800 
 42 H       -2.4990    -8.6880     0.6010 H     1 <1>   0.0800 
 43 H       -2.7350    -8.1820    -1.8930 H     1 <1>   0.0800 
 44 H       -2.9800    -6.5390    -2.4240 H     1 <1>   0.0800 
 45 H       -4.2840    -7.4030    -1.6580 H     1 <1>   0.0800 
 46 H       -5.0010    -7.1100     1.3110 H     1 <1>   0.0800 
 47 H       -4.5860    -8.6780     1.9570 H     1 <1>   0.0800 
 48 H       -4.9410    -8.5110     0.2620 H     1 <1>   0.0800 
@<TRIPOS>BOND
  1   1   2  2   
  2   2   3  am  
  3   2   4  1   
  4   3   5  1   
  5   3  25  1   
  6   4   6  ar  
  7   4   7  ar  
  8   5   8  1   
  9   5   9  2   
 10   6  10  ar  
 11   6  26  1   
 12   7  11  ar  
 13   7  27  1   
 14   8  12  2   
 15   8  28  1   
 16   9  13  1   
 17   9  29  1   
 18  10  14  1   
 19  10  15  ar  
 20  11  15  ar  
 21  11  30  1   
 22  12  13  1   
 23  13  16  1   
 24  14  17  am  
 25  14  31  1   
 26  15  32  1   
 27  16  18  1   
 28  16  19  1   
 29  16  33  1   
 30  17  20  2   
 31  17  21  1   
 32  18  34  1   
 33  18  35  1   
 34  18  36  1   
 35  19  37  1   
 36  19  38  1   
 37  19  39  1   
 38  21  22  1   
 39  21  23  1   
 40  21  40  1   
 41  22  24  1   
 42  22  41  1   
 43  22  42  1   
 44  23  43  1   
 45  23  44  1   
 46  23  45  1   
 47  24  46  1   
 48  24  47  1   
 49  24  48  1   
@<TRIPOS>SUBSTRUCTURE
  1 ****   4 GROUP 4 **** **** 0

# MOE 2024.06 (io_trps.svl 2023.06)
