@<TRIPOS>MOLECULE
NONAME
46 49 1 0 0 
SMALL
USER_CHARGES


@<TRIPOS>ATOM
  1 S        1.8400     0.5440     1.8650 S.3   1 <1>  -0.0800 
  2 C        2.7010     1.3110     0.5220 C.2   1 <1>  -0.0450 
  3 C        2.5650     1.6590     3.0220 C.2   1 <1>  -0.1100 
  4 C        2.6600     0.9870    -0.8570 C.2   1 <1>   0.8660 
  5 C        3.4600     2.3250     0.9930 C.2   1 <1>   0.0830 
  6 C        3.3880     2.5280     2.4030 C.2   1 <1>  -0.1500 
  7 O        1.9760     0.0760    -1.3010 O.2   1 <1>  -0.5700 
  8 N        3.4170     1.7250    -1.7390 N.2   1 <1>  -0.6610 
  9 N        4.1870     3.0150     0.0600 N.pl3 1 <1>  -0.5330 
 10 C        4.1360     2.6880    -1.2660 C.2   1 <1>   0.4390 
 11 C        4.9930     3.5480    -2.2010 C.3   1 <1>   0.2700 
 12 N        4.8110     5.0270    -1.9730 N.pl3 1 <1>  -0.8380 
 13 C        5.6650     5.7460    -1.1630 C.ar  1 <1>   0.4100 
 14 C        3.5150     5.5900    -2.4480 C.3   1 <1>   0.1290 
 15 N        6.2020     5.0980    -0.1340 N.ar  1 <1>  -0.6200 
 16 C        5.9310     7.0900    -1.4210 C.ar  1 <1>  -0.1500 
 17 C        7.0130     5.8000     0.6420 C.ar  1 <1>   0.1600 
 18 C        6.7750     7.8010    -0.6030 C.ar  1 <1>  -0.1500 
 19 C        7.3570     7.1390     0.4730 C.ar  1 <1>   0.0860 
 20 C        8.2630     7.7790     1.3970 C.2   1 <1>   0.5440 
 21 O        8.1730     7.5230     2.5840 O.2   1 <1>  -0.5700 
 22 N        9.2370     8.6630     0.9830 N.am  1 <1>  -0.6600 
 23 C        9.9530     9.5570     1.9460 C.3   1 <1>   0.1400 
 24 C        9.8860     8.6180    -0.3630 C.3   1 <1>   0.1400 
 25 C       11.4600     9.2570     1.9470 C.3   1 <1>   0.1200 
 26 C       11.4020     8.3850    -0.2280 C.3   1 <1>   0.1200 
 27 O       11.9730     9.3160     0.6460 O.3   1 <1>  -0.5600 
 28 H        2.2920     1.5410     4.0560 H     1 <1>   0.1500 
 29 H        3.9540     3.3100     2.8780 H     1 <1>   0.1500 
 30 H        4.7780     3.8310     0.2980 H     1 <1>   0.4000 
 31 H        4.7460     3.3130    -3.2210 H     1 <1>   0.0800 
 32 H        6.0260     3.2880    -2.0500 H     1 <1>   0.0800 
 33 H        2.7070     4.9260    -2.1920 H     1 <1>   0.0800 
 34 H        3.5420     5.7130    -3.5170 H     1 <1>   0.0800 
 35 H        3.3250     6.5440    -1.9880 H     1 <1>   0.0800 
 36 H        5.4710     7.5580    -2.2690 H     1 <1>   0.1500 
 37 H        7.4470     5.2850     1.4830 H     1 <1>   0.1500 
 38 H        6.9830     8.8420    -0.7800 H     1 <1>   0.1500 
 39 H        9.5640     9.4360     2.9420 H     1 <1>   0.0800 
 40 H        9.7990    10.5810     1.6570 H     1 <1>   0.0800 
 41 H        9.7170     9.5510    -0.8700 H     1 <1>   0.0800 
 42 H        9.4680     7.8280    -0.9610 H     1 <1>   0.0800 
 43 H       11.6490     8.2780     2.3530 H     1 <1>   0.0800 
 44 H       11.9830     9.9850     2.5410 H     1 <1>   0.0800 
 45 H       11.8820     8.4960    -1.1850 H     1 <1>   0.0800 
 46 H       11.6010     7.3950     0.1450 H     1 <1>   0.0800 
@<TRIPOS>BOND
  1   1   2  1   
  2   1   3  1   
  3   2   4  1   
  4   2   5  2   
  5   3   6  2   
  6   3  28  1   
  7   4   7  2   
  8   4   8  1   
  9   5   6  1   
 10   5   9  1   
 11   6  29  1   
 12   8  10  2   
 13   9  10  1   
 14   9  30  1   
 15  10  11  1   
 16  11  12  1   
 17  11  31  1   
 18  11  32  1   
 19  12  13  1   
 20  12  14  1   
 21  13  15  ar  
 22  13  16  ar  
 23  14  33  1   
 24  14  34  1   
 25  14  35  1   
 26  15  17  ar  
 27  16  18  ar  
 28  16  36  1   
 29  17  19  ar  
 30  17  37  1   
 31  18  19  ar  
 32  18  38  1   
 33  19  20  1   
 34  20  21  2   
 35  20  22  am  
 36  22  23  1   
 37  22  24  1   
 38  23  25  1   
 39  23  39  1   
 40  23  40  1   
 41  24  26  1   
 42  24  41  1   
 43  24  42  1   
 44  25  27  1   
 45  25  43  1   
 46  25  44  1   
 47  26  27  1   
 48  26  45  1   
 49  26  46  1   
@<TRIPOS>SUBSTRUCTURE
  1 ****  15 GROUP 4 **** **** 0

# MOE 2024.06 (io_trps.svl 2023.06)
