@<TRIPOS>MOLECULE
NONAME
49 53 1 0 0 
SMALL
USER_CHARGES


@<TRIPOS>ATOM
  1 O       -0.9430     0.2610     0.0860 O.2   1 <1>  -0.5700 
  2 C       -1.9370     0.9700     0.1190 C.2   1 <1>   0.7160 
  3 N       -3.1370     0.3570     0.4310 N.am  1 <1>  -0.6600 
  4 C       -1.7850     2.3980    -0.1750 C.2   1 <1>   0.1410 
  5 C       -4.4720     0.9990     0.3990 C.3   1 <1>   0.1400 
  6 C       -3.2430    -1.0810     0.7480 C.3   1 <1>   0.1400 
  7 N       -2.7480     3.3550    -0.0390 N.2   1 <1>  -0.5650 
  8 C       -0.6370     2.9880    -0.6240 C.2   1 <1>  -0.3020 
  9 C       -5.4880    -0.1280     0.6370 C.3   1 <1>  -0.0800 
 10 C       -4.7070    -1.4530     0.5120 C.3   1 <1>  -0.0800 
 11 C       -2.1770     4.4670    -0.4000 C.2   1 <1>   0.3120 
 12 N       -0.8630     4.2970    -0.7730 N.pl3 1 <1>   0.3340 
 13 C       -6.7920    -0.0420    -0.2020 C.3   1 <1>   0.4240 
 14 C       -4.9250    -2.1350    -0.8500 C.3   1 <1>  -0.1600 
 15 N       -2.7910     5.6980    -0.4170 N.2   1 <1>  -0.5760 
 16 C       -0.1070     5.3790    -1.1820 C.2   1 <1>  -0.1810 
 17 O       -6.5040     0.3800    -1.4880 O.3   1 <1>  -0.6800 
 18 C       -7.7640     0.9750     0.4300 C.ar  1 <1>  -0.1430 
 19 C       -7.3740    -1.4580    -0.3800 C.3   1 <1>  -0.1600 
 20 C       -6.4160    -2.4310    -1.1090 C.3   1 <1>  -0.1600 
 21 C       -2.0770     6.7000    -0.8000 C.2   1 <1>   0.3760 
 22 C       -0.7130     6.5930    -1.1980 C.2   1 <1>  -0.1360 
 23 C       -7.6130     2.3350     0.1710 C.ar  1 <1>  -0.1500 
 24 C       -8.7890     0.5870     1.2880 C.ar  1 <1>  -0.1500 
 25 C       -8.4540     3.2730     0.7420 C.ar  1 <1>  -0.1500 
 26 C       -9.6350     1.5230     1.8600 C.ar  1 <1>  -0.1500 
 27 C       -9.4690     2.8670     1.5880 C.ar  1 <1>  -0.1500 
 28 H       -4.5470     1.7440     1.1730 H     1 <1>   0.0800 
 29 H       -4.6020     1.4810    -0.5530 H     1 <1>   0.0800 
 30 H       -2.5760    -1.6640     0.1350 H     1 <1>   0.0800 
 31 H       -2.9840    -1.2240     1.7830 H     1 <1>   0.0800 
 32 H        0.3090     2.5240    -0.8320 H     1 <1>   0.1500 
 33 H       -5.7810    -0.0540     1.6700 H     1 <1>   0.0800 
 34 H       -5.0200    -2.1400     1.2790 H     1 <1>   0.0800 
 35 H       -4.5390    -1.4950    -1.6250 H     1 <1>   0.0800 
 36 H       -4.3670    -3.0540    -0.8940 H     1 <1>   0.0800 
 37 H        0.9140     5.1920    -1.4620 H     1 <1>   0.1500 
 38 H       -5.9170    -0.2830    -1.8910 H     1 <1>   0.4000 
 39 H       -7.5710    -1.8670     0.5940 H     1 <1>   0.0800 
 40 H       -8.3140    -1.4010    -0.9010 H     1 <1>   0.0800 
 41 H       -6.6430    -3.4330    -0.7880 H     1 <1>   0.0800 
 42 H       -6.5990    -2.3900    -2.1700 H     1 <1>   0.0800 
 43 H       -2.5240     7.6780    -0.8260 H     1 <1>   0.0600 
 44 H       -0.2040     7.4900    -1.5010 H     1 <1>   0.1500 
 45 H       -6.8300     2.6760    -0.4850 H     1 <1>   0.1500 
 46 H       -8.9510    -0.4460     1.5320 H     1 <1>   0.1500 
 47 H       -8.3150     4.3170     0.5250 H     1 <1>   0.1500 
 48 H      -10.4240     1.2040     2.5180 H     1 <1>   0.1500 
 49 H      -10.1250     3.5960     2.0320 H     1 <1>   0.1500 
@<TRIPOS>BOND
  1   1   2  2   
  2   2   3  am  
  3   2   4  1   
  4   3   5  1   
  5   3   6  1   
  6   4   7  1   
  7   4   8  2   
  8   5   9  1   
  9   5  28  1   
 10   5  29  1   
 11   6  10  1   
 12   6  30  1   
 13   6  31  1   
 14   7  11  2   
 15   8  12  1   
 16   8  32  1   
 17   9  10  1   
 18   9  13  1   
 19   9  33  1   
 20  10  14  1   
 21  10  34  1   
 22  11  12  1   
 23  11  15  1   
 24  12  16  1   
 25  13  17  1   
 26  13  18  1   
 27  13  19  1   
 28  14  20  1   
 29  14  35  1   
 30  14  36  1   
 31  15  21  2   
 32  16  22  2   
 33  16  37  1   
 34  17  38  1   
 35  18  23  ar  
 36  18  24  ar  
 37  19  20  1   
 38  19  39  1   
 39  19  40  1   
 40  20  41  1   
 41  20  42  1   
 42  21  22  1   
 43  21  43  1   
 44  22  44  1   
 45  23  25  ar  
 46  23  45  1   
 47  24  26  ar  
 48  24  46  1   
 49  25  27  ar  
 50  25  47  1   
 51  26  27  ar  
 52  26  48  1   
 53  27  49  1   
@<TRIPOS>SUBSTRUCTURE
  1 ****   5 GROUP 4 **** **** 0

# MOE 2024.06 (io_trps.svl 2023.06)
