@<TRIPOS>MOLECULE
NONAME
45 47 1 0 0 
SMALL
USER_CHARGES


@<TRIPOS>ATOM
  1 O        1.8370     0.9000     2.3520 O.co2 1 <1>  -0.9000 
  2 C        1.6560     0.2780     1.2990 C.2   1 <1>   0.9060 
  3 O        1.1500    -0.8540     1.2910 O.co2 1 <1>  -0.9000 
  4 C        2.1620     0.8420    -0.0310 C.3   1 <1>  -0.1060 
  5 C        3.3530    -0.0910    -0.3660 C.3   1 <1>   0.2000 
  6 C        2.6630     2.3160     0.0810 C.3   1 <1>  -0.1600 
  7 C        1.0350     0.7830    -1.1070 C.3   1 <1>  -0.0160 
  8 O        2.8960    -1.2670    -0.9390 O.3   1 <1>  -0.6800 
  9 C        4.4140     0.5770    -1.2490 C.3   1 <1>   0.1400 
 10 C        4.1300     2.4080     0.5000 C.3   1 <1>   0.1400 
 11 C       -0.0430     1.8560    -0.9580 C.ar  1 <1>  -0.1440 
 12 N        4.9920     1.7830    -0.5580 N.am  1 <1>  -0.6600 
 13 C       -0.1350     2.8930    -1.8740 C.ar  1 <1>  -0.1500 
 14 C       -0.9450     1.8010     0.0930 C.ar  1 <1>  -0.1500 
 15 C        6.2400     2.2380    -0.9020 C.2   1 <1>   0.5770 
 16 C       -1.1130     3.8650    -1.7400 C.ar  1 <1>  -0.1500 
 17 C       -1.9220     2.7720     0.2310 C.ar  1 <1>  -0.1500 
 18 O        6.8440     1.7620    -1.8370 O.2   1 <1>  -0.5700 
 19 C        6.8960     3.3740    -0.1160 C.3   1 <1>   0.0530 
 20 C       -2.0070     3.8050    -0.6850 C.ar  1 <1>  -0.1500 
 21 C        8.4240     3.5760    -0.3300 C.3   1 <1>   0.0000 
 22 C        7.2400     3.0300     1.3600 C.3   1 <1>   0.0000 
 23 C        8.5130     3.8960     1.1840 C.3   1 <1>   0.0000 
 24 H        3.8470    -0.3800     0.5480 H     1 <1>   0.0800 
 25 H        2.0510     2.8540     0.7850 H     1 <1>   0.0800 
 26 H        2.5680     2.8190    -0.8640 H     1 <1>   0.0800 
 27 H        1.4820     0.8730    -2.0800 H     1 <1>   0.0800 
 28 H        0.5500    -0.1780    -1.0820 H     1 <1>   0.0800 
 29 H        2.1940    -1.6040    -0.3230 H     1 <1>   0.4000 
 30 H        3.9710     0.8850    -2.1790 H     1 <1>   0.0800 
 31 H        5.1990    -0.1300    -1.4530 H     1 <1>   0.0800 
 32 H        4.2700     1.8950     1.4380 H     1 <1>   0.0800 
 33 H        4.3850     3.4430     0.6360 H     1 <1>   0.0800 
 34 H        0.5570     2.9480    -2.6950 H     1 <1>   0.1500 
 35 H       -0.8850     1.0000     0.8130 H     1 <1>   0.1500 
 36 H       -1.1750     4.6660    -2.4540 H     1 <1>   0.1500 
 37 H       -2.6100     2.7170     1.0560 H     1 <1>   0.1500 
 38 H        6.3630     4.3070    -0.2010 H     1 <1>   0.0000 
 39 H       -2.7660     4.5590    -0.5760 H     1 <1>   0.1500 
 40 H        8.9530     2.6720    -0.5810 H     1 <1>   0.0000 
 41 H        8.6690     4.4080    -0.9650 H     1 <1>   0.0000 
 42 H        6.5420     3.4260     2.0770 H     1 <1>   0.0000 
 43 H        7.4650     1.9870     1.5090 H     1 <1>   0.0000 
 44 H        8.3420     4.9370     1.4000 H     1 <1>   0.0000 
 45 H        9.3850     3.4910     1.6650 H     1 <1>   0.0000 
@<TRIPOS>BOND
  1   1   2  ar  
  2   2   3  ar  
  3   2   4  1   
  4   4   5  1   
  5   4   6  1   
  6   4   7  1   
  7   5   8  1   
  8   5   9  1   
  9   5  24  1   
 10   6  10  1   
 11   6  25  1   
 12   6  26  1   
 13   7  11  1   
 14   7  27  1   
 15   7  28  1   
 16   8  29  1   
 17   9  12  1   
 18   9  30  1   
 19   9  31  1   
 20  10  12  1   
 21  10  32  1   
 22  10  33  1   
 23  11  13  ar  
 24  11  14  ar  
 25  12  15  am  
 26  13  16  ar  
 27  13  34  1   
 28  14  17  ar  
 29  14  35  1   
 30  15  18  2   
 31  15  19  1   
 32  16  20  ar  
 33  16  36  1   
 34  17  20  ar  
 35  17  37  1   
 36  19  21  1   
 37  19  22  1   
 38  19  38  1   
 39  20  39  1   
 40  21  23  1   
 41  21  40  1   
 42  21  41  1   
 43  22  23  1   
 44  22  42  1   
 45  22  43  1   
 46  23  44  1   
 47  23  45  1   
@<TRIPOS>SUBSTRUCTURE
  1 ****   6 GROUP 4 **** **** 0

# MOE 2024.06 (io_trps.svl 2023.06)
