@<TRIPOS>MOLECULE
NONAME
40 41 1 0 0 
SMALL
USER_CHARGES


@<TRIPOS>ATOM
  1 CL       1.8440    -0.8770     0.8170 Cl    1 <1>  -0.1770 
  2 C        0.8760    -2.2600     0.3810 C.ar  1 <1>   0.1770 
  3 C        1.0830    -3.4780     1.0030 C.ar  1 <1>   0.1600 
  4 C       -0.0950    -2.1380    -0.5840 C.ar  1 <1>  -0.1500 
  5 N        0.3960    -4.5780     0.7350 N.ar  1 <1>  -0.6200 
  6 C       -0.8170    -3.2790    -0.8710 C.ar  1 <1>  -0.1500 
  7 C       -0.5640    -4.4870    -0.2090 C.ar  1 <1>   0.3960 
  8 C       -1.3530    -5.6770    -0.5420 C.2   1 <1>   0.5440 
  9 O       -2.2700    -5.6320    -1.3440 O.2   1 <1>  -0.5700 
 10 N       -1.0950    -6.8810     0.0550 N.am  1 <1>  -0.7300 
 11 C       -1.8090    -8.1490    -0.2130 C.3   1 <1>   0.2200 
 12 C       -3.0730    -8.2140     0.6480 C.3   1 <1>  -0.0800 
 13 C       -0.9930    -9.3460     0.2700 C.3   1 <1>   0.1200 
 14 C       -2.8350    -9.4230     1.5610 C.3   1 <1>   0.1200 
 15 C       -4.3800    -8.2060    -0.1770 C.3   1 <1>  -0.0550 
 16 O       -1.4590    -9.6120     1.5540 O.3   1 <1>  -0.5600 
 17 S       -4.7390    -9.6530    -1.1870 S.o2  1 <1>   1.3330 
 18 O       -5.8000    -9.3290    -2.1140 O.2   1 <1>  -0.6500 
 19 O       -3.4990   -10.2040    -1.6890 O.2   1 <1>  -0.6500 
 20 N       -5.3870   -10.7620    -0.0730 N.am  1 <1>  -0.8490 
 21 C       -5.1550   -12.1530    -0.4770 C.3   1 <1>   0.1160 
 22 C       -6.8160   -10.5570     0.1920 C.3   1 <1>   0.1160 
 23 H        1.8510    -3.5410     1.7540 H     1 <1>   0.1500 
 24 H       -0.2750    -1.2010    -1.0810 H     1 <1>   0.1500 
 25 H       -1.5900    -3.2440    -1.6180 H     1 <1>   0.1500 
 26 H       -0.4050    -6.9030     0.8130 H     1 <1>   0.3700 
 27 H       -2.0080    -8.2290    -1.2690 H     1 <1>   0.0800 
 28 H       -3.1030    -7.3480     1.2860 H     1 <1>   0.0800 
 29 H        0.0640    -9.1530     0.2980 H     1 <1>   0.0800 
 30 H       -1.1950   -10.2110    -0.3390 H     1 <1>   0.0800 
 31 H       -3.2780   -10.3270     1.1870 H     1 <1>   0.0800 
 32 H       -3.1600    -9.2470     2.5710 H     1 <1>   0.0800 
 33 H       -4.3350    -7.3520    -0.8270 H     1 <1>   0.0800 
 34 H       -5.2030    -8.0400     0.4890 H     1 <1>   0.0800 
 35 H       -5.5710   -12.8280     0.2510 H     1 <1>   0.0800 
 36 H       -4.0980   -12.3460    -0.5470 H     1 <1>   0.0800 
 37 H       -5.6060   -12.3440    -1.4370 H     1 <1>   0.0800 
 38 H       -7.1470   -11.2220     0.9720 H     1 <1>   0.0800 
 39 H       -7.3960   -10.7460    -0.6980 H     1 <1>   0.0800 
 40 H       -6.9950    -9.5450     0.5100 H     1 <1>   0.0800 
@<TRIPOS>BOND
  1   1   2  1   
  2   2   3  ar  
  3   2   4  ar  
  4   3   5  ar  
  5   3  23  1   
  6   4   6  ar  
  7   4  24  1   
  8   5   7  ar  
  9   6   7  ar  
 10   6  25  1   
 11   7   8  1   
 12   8   9  2   
 13   8  10  am  
 14  10  11  1   
 15  10  26  1   
 16  11  12  1   
 17  11  13  1   
 18  11  27  1   
 19  12  14  1   
 20  12  15  1   
 21  12  28  1   
 22  13  16  1   
 23  13  29  1   
 24  13  30  1   
 25  14  16  1   
 26  14  31  1   
 27  14  32  1   
 28  15  17  1   
 29  15  33  1   
 30  15  34  1   
 31  17  18  2   
 32  17  19  2   
 33  17  20  am  
 34  20  21  1   
 35  20  22  1   
 36  21  35  1   
 37  21  36  1   
 38  21  37  1   
 39  22  38  1   
 40  22  39  1   
 41  22  40  1   
@<TRIPOS>SUBSTRUCTURE
  1 ****  10 GROUP 4 **** **** 0

# MOE 2024.06 (io_trps.svl 2023.06)
