@<TRIPOS>MOLECULE
NONAME
54 57 1 0 0 
SMALL
USER_CHARGES


@<TRIPOS>ATOM
  1 O       -1.9430     0.7320    -0.8420 O.2   1 <1>  -0.5700 
  2 C       -1.2380     1.6870    -0.6110 C.2   1 <1>   0.5690 
  3 N       -1.7170     2.6930     0.1810 N.am  1 <1>  -0.6600 
  4 C        0.1360     1.7690    -1.2530 C.3   1 <1>  -0.0990 
  5 C       -2.5960     2.3550     1.3500 C.3   1 <1>   0.1400 
  6 C       -1.7590     4.1010    -0.2940 C.3   1 <1>   0.1400 
  7 C        1.1460     0.8520    -0.5460 C.3   1 <1>  -0.0800 
  8 C       -4.1050     2.2750     0.9960 C.3   1 <1>   0.4230 
  9 C       -3.2040     4.5900    -0.5310 C.3   1 <1>  -0.0800 
 10 C        1.3980     1.2220     0.9160 C.3   1 <1>  -0.1600 
 11 C        2.5370     0.9030    -1.1730 C.3   1 <1>  -0.1600 
 12 N       -4.3010     2.2440    -0.5090 N.4   1 <1>  -0.9590 
 13 C       -4.9450     3.3550     1.7240 C.3   1 <1>   0.1200 
 14 C       -3.8470     5.2080     0.7290 C.3   1 <1>   0.1200 
 15 C       -4.1280     3.5610    -1.2240 C.3   1 <1>   0.3430 
 16 C        2.7730     0.6380     1.2500 C.3   1 <1>  -0.1600 
 17 C        3.4670     0.3610    -0.0890 C.3   1 <1>  -0.1600 
 18 C       -5.5490     1.5700    -0.9560 C.3   1 <1>   0.4860 
 19 O       -5.0460     4.5630     1.0250 O.3   1 <1>  -0.5600 
 20 C       -5.7670     0.2730    -0.2080 C.ar  1 <1>  -0.1440 
 21 C       -6.8420     0.1270     0.6390 C.ar  1 <1>   0.1600 
 22 C       -4.9100    -0.7990    -0.3260 C.ar  1 <1>   0.1600 
 23 N       -7.0410    -0.9690     1.3300 N.ar  1 <1>  -0.6200 
 24 N       -5.0920    -1.9080     0.3520 N.ar  1 <1>  -0.6200 
 25 C       -6.1530    -1.9330     1.1420 C.ar  1 <1>   0.4700 
 26 H        0.0490     1.4680    -2.2810 H     1 <1>   0.0800 
 27 H        0.5020     2.7770    -1.2320 H     1 <1>   0.0800 
 28 H       -2.2980     1.3920     1.7290 H     1 <1>   0.0800 
 29 H       -2.4230     3.0580     2.1450 H     1 <1>   0.0800 
 30 H       -1.2540     4.7350     0.4160 H     1 <1>   0.0800 
 31 H       -1.2240     4.1750    -1.2250 H     1 <1>   0.0800 
 32 H        0.7940    -0.1670    -0.5850 H     1 <1>   0.0800 
 33 H       -4.4250     1.3330     1.4070 H     1 <1>   0.0800 
 34 H       -3.1090     5.4140    -1.2160 H     1 <1>   0.0800 
 35 H        1.4400     2.2930     1.0220 H     1 <1>   0.0800 
 36 H        0.6340     0.8330     1.5670 H     1 <1>   0.0800 
 37 H        2.5950     0.3220    -2.0770 H     1 <1>   0.0800 
 38 H        2.8080     1.9220    -1.3890 H     1 <1>   0.0800 
 39 H       -3.5000     1.6510    -0.8110 H     1 <1>   0.4500 
 40 H       -4.5490     3.5590     2.7040 H     1 <1>   0.0800 
 41 H       -5.9480     2.9890     1.8550 H     1 <1>   0.0800 
 42 H       -4.0920     6.2400     0.5400 H     1 <1>   0.0800 
 43 H       -3.2010     5.1760     1.5900 H     1 <1>   0.0800 
 44 H       -3.7510     3.3710    -2.2160 H     1 <1>   0.0800 
 45 H       -5.0950     4.0270    -1.3310 H     1 <1>   0.0800 
 46 H        3.3440     1.3300     1.8470 H     1 <1>   0.0800 
 47 H        2.6630    -0.2820     1.7970 H     1 <1>   0.0800 
 48 H        3.5850    -0.7020    -0.2150 H     1 <1>   0.0800 
 49 H        4.4370     0.8260    -0.1380 H     1 <1>   0.0800 
 50 H       -6.3890     2.2240    -0.7830 H     1 <1>   0.0800 
 51 H       -5.4960     1.3660    -2.0130 H     1 <1>   0.0800 
 52 H       -7.5600     0.9220     0.7660 H     1 <1>   0.1500 
 53 H       -4.0520    -0.7580    -0.9790 H     1 <1>   0.1500 
 54 H       -6.3120    -2.8440     1.6980 H     1 <1>   0.1500 
@<TRIPOS>BOND
  1   1   2  2   
  2   2   3  am  
  3   2   4  1   
  4   3   5  1   
  5   3   6  1   
  6   4   7  1   
  7   4  26  1   
  8   4  27  1   
  9   5   8  1   
 10   5  28  1   
 11   5  29  1   
 12   6   9  1   
 13   6  30  1   
 14   6  31  1   
 15   7  10  1   
 16   7  11  1   
 17   7  32  1   
 18   8  12  1   
 19   8  13  1   
 20   8  33  1   
 21   9  14  1   
 22   9  15  1   
 23   9  34  1   
 24  10  16  1   
 25  10  35  1   
 26  10  36  1   
 27  11  17  1   
 28  11  37  1   
 29  11  38  1   
 30  12  15  1   
 31  12  18  1   
 32  12  39  1   
 33  13  19  1   
 34  13  40  1   
 35  13  41  1   
 36  14  19  1   
 37  14  42  1   
 38  14  43  1   
 39  15  44  1   
 40  15  45  1   
 41  16  17  1   
 42  16  46  1   
 43  16  47  1   
 44  17  48  1   
 45  17  49  1   
 46  18  20  1   
 47  18  50  1   
 48  18  51  1   
 49  20  21  ar  
 50  20  22  ar  
 51  21  23  ar  
 52  21  52  1   
 53  22  24  ar  
 54  22  53  1   
 55  23  25  ar  
 56  24  25  ar  
 57  25  54  1   
@<TRIPOS>SUBSTRUCTURE
  1 ****   5 GROUP 4 **** **** 0

# MOE 2024.06 (io_trps.svl 2023.06)
