@<TRIPOS>MOLECULE
NONAME
40 42 1 0 0 
SMALL
USER_CHARGES


@<TRIPOS>ATOM
  1 O        0.4180    -0.2480    -1.5690 O.2   1 <1>  -0.5700 
  2 C        1.3090    -0.7020    -0.8800 C.2   1 <1>   0.5440 
  3 N        2.3110     0.1090    -0.4070 N.am  1 <1>  -0.4940 
  4 C        1.3420    -2.1070    -0.5300 C.ar  1 <1>   0.0860 
  5 C        2.5470     1.4730    -0.6140 C.2   1 <1>   0.2040 
  6 C        0.2870    -2.7510     0.1360 C.ar  1 <1>  -0.1440 
  7 C        2.4750    -2.8600    -0.8450 C.ar  1 <1>  -0.1500 
  8 O        1.8210     2.2040    -1.4270 O.3   1 <1>  -0.0190 
  9 C        3.4950     2.2730    -0.0850 C.2   1 <1>  -0.1810 
 10 C        0.3770    -4.0950     0.4650 C.ar  1 <1>  -0.1500 
 11 C       -0.9810    -1.9910     0.5110 C.3   1 <1>  -0.0970 
 12 C        2.5690    -4.1940    -0.5060 C.ar  1 <1>   0.0830 
 13 N        2.2360     3.4450    -1.4690 N.2   1 <1>  -0.4100 
 14 C        3.2400     3.5120    -0.6720 C.2   1 <1>   0.1080 
 15 C        4.5890     1.9350     0.9140 C.3   1 <1>   0.0210 
 16 C        1.5080    -4.8230     0.1450 C.ar  1 <1>   0.0830 
 17 O        3.7050    -4.8710    -0.8120 O.3   1 <1>  -0.3630 
 18 C        4.0170     4.7870    -0.4260 C.3   1 <1>  -0.0590 
 19 C        5.8920     1.5950     0.1890 C.3   1 <1>  -0.2400 
 20 O        1.5610    -6.1360     0.4650 O.3   1 <1>  -0.3630 
 21 C        3.8930    -6.1290    -0.1880 C.3   1 <1>   0.1200 
 22 C        2.5720    -6.9120    -0.1500 C.3   1 <1>   0.1200 
 23 H        2.9810    -0.3530     0.2010 H     1 <1>   0.3700 
 24 H        3.2950    -2.4030    -1.3680 H     1 <1>   0.1500 
 25 H       -0.4280    -4.5970     0.9700 H     1 <1>   0.1500 
 26 H       -0.7350    -1.0910     1.0460 H     1 <1>   0.0800 
 27 H       -1.6240    -2.5880     1.1310 H     1 <1>   0.0800 
 28 H       -1.5220    -1.7230    -0.3800 H     1 <1>   0.0800 
 29 H        4.2830     1.0950     1.5120 H     1 <1>   0.0800 
 30 H        4.7450     2.7670     1.5770 H     1 <1>   0.0800 
 31 H        5.0440     4.6510    -0.7060 H     1 <1>   0.0800 
 32 H        3.9610     5.0550     0.6130 H     1 <1>   0.0800 
 33 H        3.6010     5.5870    -1.0120 H     1 <1>   0.0800 
 34 H        5.7450     0.7560    -0.4690 H     1 <1>   0.0800 
 35 H        6.6590     1.3460     0.9010 H     1 <1>   0.0800 
 36 H        6.2250     2.4330    -0.3960 H     1 <1>   0.0800 
 37 H        4.2520    -5.9570     0.8110 H     1 <1>   0.0800 
 38 H        4.6400    -6.6670    -0.7440 H     1 <1>   0.0800 
 39 H        2.2500    -7.1500    -1.1480 H     1 <1>   0.0800 
 40 H        2.6820    -7.8210     0.4130 H     1 <1>   0.0800 
@<TRIPOS>BOND
  1   1   2  2   
  2   2   3  am  
  3   2   4  1   
  4   3   5  1   
  5   3  23  1   
  6   4   6  ar  
  7   4   7  ar  
  8   5   8  1   
  9   5   9  2   
 10   6  10  ar  
 11   6  11  1   
 12   7  12  ar  
 13   7  24  1   
 14   8  13  1   
 15   9  14  1   
 16   9  15  1   
 17  10  16  ar  
 18  10  25  1   
 19  11  26  1   
 20  11  27  1   
 21  11  28  1   
 22  12  16  ar  
 23  12  17  1   
 24  13  14  2   
 25  14  18  1   
 26  15  19  1   
 27  15  29  1   
 28  15  30  1   
 29  16  20  1   
 30  17  21  1   
 31  18  31  1   
 32  18  32  1   
 33  18  33  1   
 34  19  34  1   
 35  19  35  1   
 36  19  36  1   
 37  20  22  1   
 38  21  22  1   
 39  21  37  1   
 40  21  38  1   
 41  22  39  1   
 42  22  40  1   
@<TRIPOS>SUBSTRUCTURE
  1 ****   2 GROUP 4 **** **** 0

# MOE 2024.06 (io_trps.svl 2023.06)
