@<TRIPOS>MOLECULE
NONAME
50 53 1 0 0 
SMALL
USER_CHARGES


@<TRIPOS>ATOM
  1 F       -0.2640    -1.0190    -1.6070 F     1 <1>  -0.1900 
  2 C        0.1820    -2.0090    -0.8740 C.ar  1 <1>   0.1900 
  3 C        0.5590    -3.1750    -1.4910 C.ar  1 <1>  -0.1500 
  4 C        0.2480    -1.8190     0.5080 C.ar  1 <1>  -0.1500 
  5 C        1.0290    -4.2220    -0.6880 C.ar  1 <1>   0.0000 
  6 C        0.7150    -2.8430     1.3000 C.ar  1 <1>  -0.1500 
  7 C        1.1050    -4.0410     0.6910 C.ar  1 <1>  -0.1520 
  8 C        1.4780    -5.5390    -0.9450 C.2   1 <1>  -0.1810 
  9 N        1.5970    -5.1930     1.2470 N.pl3 1 <1>   0.0330 
 10 C        1.8270    -6.0930     0.2450 C.2   1 <1>  -0.3320 
 11 C        1.5030    -6.1610    -2.3400 C.3   1 <1>   0.0820 
 12 C        2.3920    -7.4700     0.5590 C.3   1 <1>  -0.0600 
 13 C        0.9000    -7.5590    -2.3700 C.2   1 <1>   0.5690 
 14 O        1.6150    -8.4720    -2.7140 O.2   1 <1>  -0.5700 
 15 N       -0.3980    -7.7850    -1.9910 N.am  1 <1>  -0.6600 
 16 C       -1.4140    -6.7820    -1.5750 C.3   1 <1>   0.1400 
 17 C       -0.8180    -9.1210    -1.4970 C.3   1 <1>   0.1400 
 18 C       -1.9760    -7.3520    -0.2760 C.3   1 <1>   0.2000 
 19 C       -1.9870    -8.8630    -0.5350 C.3   1 <1>  -0.0800 
 20 O       -1.0940    -7.0430     0.7510 O.3   1 <1>  -0.6800 
 21 C       -1.9550    -9.7480     0.7240 C.3   1 <1>   0.0210 
 22 C       -1.9860   -11.2170     0.3530 C.2   1 <1>   0.1080 
 23 N       -2.9840   -11.7680    -0.2650 N.2   1 <1>  -0.7070 
 24 C       -0.9650   -12.1240     0.6140 C.2   1 <1>  -0.1500 
 25 N       -2.6230   -13.0560    -0.4140 N.pl3 1 <1>   0.3000 
 26 C       -1.4030   -13.2970     0.1100 C.2   1 <1>  -0.3320 
 27 C       -0.7200   -14.6520     0.0950 C.3   1 <1>  -0.0600 
 28 H        0.4980    -3.2800    -2.5560 H     1 <1>   0.1500 
 29 H       -0.0640    -0.8800     0.9270 H     1 <1>   0.1500 
 30 H        0.7810    -2.7340     2.3690 H     1 <1>   0.1500 
 31 H        1.7490    -5.3450     2.2490 H     1 <1>   0.2700 
 32 H        2.5220    -6.2110    -2.6780 H     1 <1>   0.0800 
 33 H        0.9580    -5.5520    -3.0340 H     1 <1>   0.0800 
 34 H        2.6810    -7.9840    -0.3390 H     1 <1>   0.0800 
 35 H        1.6620    -8.0660     1.0760 H     1 <1>   0.0800 
 36 H        3.2660    -7.3770     1.1780 H     1 <1>   0.0800 
 37 H       -1.0220    -5.7920    -1.4380 H     1 <1>   0.0800 
 38 H       -2.1900    -6.7500    -2.3200 H     1 <1>   0.0800 
 39 H       -1.1240    -9.7470    -2.3180 H     1 <1>   0.0800 
 40 H        0.0060    -9.5900    -0.9870 H     1 <1>   0.0800 
 41 H       -2.9460    -6.9610    -0.0230 H     1 <1>   0.0800 
 42 H       -2.8900    -9.0920    -1.0730 H     1 <1>   0.0800 
 43 H       -0.1960    -6.9050     0.3690 H     1 <1>   0.4000 
 44 H       -2.8090    -9.5290     1.3390 H     1 <1>   0.0800 
 45 H       -1.0700    -9.5500     1.3010 H     1 <1>   0.0800 
 46 H       -0.0360   -11.9090     1.1120 H     1 <1>   0.1500 
 47 H       -3.2310   -13.7440    -0.8750 H     1 <1>   0.2700 
 48 H        0.2430   -14.5850     0.5700 H     1 <1>   0.0800 
 49 H       -0.5790   -14.9870    -0.9180 H     1 <1>   0.0800 
 50 H       -1.3140   -15.3740     0.6250 H     1 <1>   0.0800 
@<TRIPOS>BOND
  1   1   2  1   
  2   2   3  ar  
  3   2   4  ar  
  4   3   5  ar  
  5   3  28  1   
  6   4   6  ar  
  7   4  29  1   
  8   5   7  ar  
  9   5   8  1   
 10   6   7  ar  
 11   6  30  1   
 12   7   9  1   
 13   8  10  2   
 14   8  11  1   
 15   9  10  1   
 16   9  31  1   
 17  10  12  1   
 18  11  13  1   
 19  11  32  1   
 20  11  33  1   
 21  12  34  1   
 22  12  35  1   
 23  12  36  1   
 24  13  14  2   
 25  13  15  am  
 26  15  16  1   
 27  15  17  1   
 28  16  18  1   
 29  16  37  1   
 30  16  38  1   
 31  17  19  1   
 32  17  39  1   
 33  17  40  1   
 34  18  19  1   
 35  18  20  1   
 36  18  41  1   
 37  19  21  1   
 38  19  42  1   
 39  20  43  1   
 40  21  22  1   
 41  21  44  1   
 42  21  45  1   
 43  22  23  2   
 44  22  24  1   
 45  23  25  1   
 46  24  26  2   
 47  24  46  1   
 48  25  26  1   
 49  25  47  1   
 50  26  27  1   
 51  27  48  1   
 52  27  49  1   
 53  27  50  1   
@<TRIPOS>SUBSTRUCTURE
  1 ****  20 GROUP 4 **** **** 0

# MOE 2024.06 (io_trps.svl 2023.06)
