@<TRIPOS>MOLECULE
NONAME
41 43 1 0 0 
SMALL
USER_CHARGES


@<TRIPOS>ATOM
  1 O        2.9760    -1.0890     1.3140 O.2   1 <1>  -0.5700 
  2 C        2.3190    -1.2090     0.3060 C.2   1 <1>   0.5690 
  3 N        2.0240    -0.1510    -0.5120 N.am  1 <1>  -0.4940 
  4 C        1.7930    -2.5890    -0.0840 C.3   1 <1>   0.2370 
  5 C        2.2280     1.2360    -0.3280 C.2   1 <1>  -0.0880 
  6 N        0.3720    -2.4420    -0.4730 N.pl3 1 <1>   0.3140 
  7 C        1.9790    -3.6840     0.9910 C.3   1 <1>  -0.2400 
  8 N        3.3720     1.8820     0.0560 N.pl3 1 <1>   0.3140 
  9 C        1.2910     2.1920    -0.5300 C.2   1 <1>  -0.1810 
 10 N        0.0190    -2.0230    -1.6880 N.2   1 <1>  -0.7070 
 11 C       -0.7410    -2.6110     0.2510 C.2   1 <1>   0.0360 
 12 N        3.1640     3.2260     0.1050 N.2   1 <1>  -0.7070 
 13 C        4.7120     1.2740     0.3470 C.3   1 <1>   0.1760 
 14 C        1.9290     3.3920    -0.2440 C.2   1 <1>   0.1390 
 15 C       -0.1570     2.0420    -0.9610 C.3   1 <1>  -0.0590 
 16 C       -1.2720    -1.9980    -1.6120 C.2   1 <1>   0.3660 
 17 N       -1.7950    -2.3450    -0.4310 N.2   1 <1>  -0.5650 
 18 C        5.8300     2.2900     0.6110 C.3   1 <1>  -0.1600 
 19 C        5.2490     0.4110    -0.8080 C.3   1 <1>  -0.1600 
 20 C        7.1130     1.5120     0.3390 C.3   1 <1>  -0.1600 
 21 C        6.7700     0.6160    -0.8500 C.3   1 <1>  -0.1600 
 22 H        1.3570    -0.3790    -1.2640 H     1 <1>   0.3700 
 23 H        2.3280    -2.8960    -0.9630 H     1 <1>   0.0800 
 24 H        1.5160    -3.3930     1.9180 H     1 <1>   0.0800 
 25 H        3.0290    -3.8270     1.1790 H     1 <1>   0.0800 
 26 H        1.5670    -4.6190     0.6560 H     1 <1>   0.0800 
 27 H       -0.7360    -2.9280     1.2790 H     1 <1>   0.1500 
 28 H        4.6170     0.6660     1.2270 H     1 <1>   0.0800 
 29 H        1.4600     4.3590    -0.3010 H     1 <1>   0.1500 
 30 H       -0.4510     1.0080    -0.9610 H     1 <1>   0.0800 
 31 H       -0.2860     2.4410    -1.9510 H     1 <1>   0.0800 
 32 H       -0.7960     2.5770    -0.2830 H     1 <1>   0.0800 
 33 H       -1.9110    -1.7130    -2.4340 H     1 <1>   0.1500 
 34 H        5.7920     2.6720     1.6150 H     1 <1>   0.0800 
 35 H        5.7650     3.1050    -0.0900 H     1 <1>   0.0800 
 36 H        4.8190     0.7260    -1.7440 H     1 <1>   0.0800 
 37 H        5.0140    -0.6230    -0.6360 H     1 <1>   0.0800 
 38 H        7.3480     0.9010     1.1950 H     1 <1>   0.0800 
 39 H        7.9440     2.1640     0.1300 H     1 <1>   0.0800 
 40 H        7.0370     1.1180    -1.7650 H     1 <1>   0.0800 
 41 H        7.3010    -0.3190    -0.7990 H     1 <1>   0.0800 
@<TRIPOS>BOND
  1   1   2  2   
  2   2   3  am  
  3   2   4  1   
  4   3   5  1   
  5   3  22  1   
  6   4   6  1   
  7   4   7  1   
  8   4  23  1   
  9   5   8  1   
 10   5   9  2   
 11   6  10  1   
 12   6  11  1   
 13   7  24  1   
 14   7  25  1   
 15   7  26  1   
 16   8  12  1   
 17   8  13  1   
 18   9  14  1   
 19   9  15  1   
 20  10  16  2   
 21  11  17  2   
 22  11  27  1   
 23  12  14  2   
 24  13  18  1   
 25  13  19  1   
 26  13  28  1   
 27  14  29  1   
 28  15  30  1   
 29  15  31  1   
 30  15  32  1   
 31  16  17  1   
 32  16  33  1   
 33  18  20  1   
 34  18  34  1   
 35  18  35  1   
 36  19  21  1   
 37  19  36  1   
 38  19  37  1   
 39  20  21  1   
 40  20  38  1   
 41  20  39  1   
 42  21  40  1   
 43  21  41  1   
@<TRIPOS>SUBSTRUCTURE
  1 ****   3 GROUP 4 **** **** 0

# MOE 2024.06 (io_trps.svl 2023.06)
