@<TRIPOS>MOLECULE
NONAME
49 52 1 0 0 
SMALL
USER_CHARGES


@<TRIPOS>ATOM
  1 O       -0.7120    -0.2580    -0.2270 O.2   1 <1>  -0.5700 
  2 C       -1.7070     0.4370    -0.1270 C.2   1 <1>   0.5440 
  3 N       -1.5710     1.7230     0.3660 N.am  1 <1>  -0.6600 
  4 C       -2.9860    -0.1130    -0.5140 C.ar  1 <1>   0.0860 
  5 C       -0.2320     2.3630     0.4930 C.3   1 <1>   0.0600 
  6 C       -2.6810     2.4840     1.0030 C.3   1 <1>   0.0600 
  7 C       -3.3260    -1.4180    -0.1650 C.ar  1 <1>   0.1600 
  8 C       -3.9260     0.6000    -1.2520 C.ar  1 <1>  -0.1500 
  9 N       -4.4660    -2.0290    -0.4430 N.ar  1 <1>  -0.6200 
 10 C       -5.1130    -0.0200    -1.5580 C.ar  1 <1>  -0.1500 
 11 C       -5.3550    -1.3260    -1.1370 C.ar  1 <1>   0.4100 
 12 N       -6.5520    -1.9330    -1.4390 N.pl3 1 <1>  -0.8380 
 13 C       -7.8320    -1.3520    -0.9230 C.3   1 <1>   0.2090 
 14 C       -6.6270    -3.4200    -1.6060 C.3   1 <1>   0.2090 
 15 C       -8.3050    -2.0590     0.3640 C.3   1 <1>   0.2090 
 16 C       -7.0990    -4.1240    -0.3170 C.3   1 <1>   0.2090 
 17 N       -8.3840    -3.5450     0.1910 N.pl3 1 <1>  -0.8380 
 18 C       -9.5780    -4.1560    -0.1130 C.ar  1 <1>   0.4100 
 19 N      -10.3880    -3.5090    -0.9020 N.ar  1 <1>  -0.6200 
 20 C       -9.8930    -5.4440     0.3930 C.ar  1 <1>   0.0000 
 21 C      -11.5070    -4.1480    -1.2600 C.ar  1 <1>   0.4700 
 22 C      -11.0860    -6.0090    -0.0700 C.ar  1 <1>   0.3100 
 23 C       -9.1200    -6.1730     1.3200 C.ar  1 <1>  -0.1500 
 24 N      -11.8930    -5.3340    -0.9140 N.ar  1 <1>  -0.6200 
 25 C      -11.4520    -7.2920     0.3610 C.ar  1 <1>  -0.1500 
 26 C       -9.4980    -7.4240     1.7350 C.ar  1 <1>  -0.1500 
 27 C      -10.6750    -7.9940     1.2460 C.ar  1 <1>  -0.1500 
 28 H        0.4820     1.8730    -0.1470 H     1 <1>   0.0800 
 29 H        0.1090     2.2890     1.5110 H     1 <1>   0.0800 
 30 H       -0.2910     3.3980     0.2090 H     1 <1>   0.0800 
 31 H       -3.5310     1.8490     1.1790 H     1 <1>   0.0800 
 32 H       -2.9730     3.3000     0.3660 H     1 <1>   0.0800 
 33 H       -2.3540     2.8780     1.9500 H     1 <1>   0.0800 
 34 H       -2.5950    -1.9860     0.3860 H     1 <1>   0.1500 
 35 H       -3.7160     1.6030    -1.5780 H     1 <1>   0.1500 
 36 H       -5.8660     0.4820    -2.1340 H     1 <1>   0.1500 
 37 H       -8.5930    -1.4550    -1.6760 H     1 <1>   0.0800 
 38 H       -7.7070    -0.3040    -0.7190 H     1 <1>   0.0800 
 39 H       -5.6640    -3.8050    -1.8920 H     1 <1>   0.0800 
 40 H       -7.3180    -3.6470    -2.3980 H     1 <1>   0.0800 
 41 H       -9.2690    -1.6760     0.6480 H     1 <1>   0.0800 
 42 H       -7.6150    -1.8370     1.1580 H     1 <1>   0.0800 
 43 H       -6.3380    -4.0150     0.4360 H     1 <1>   0.0800 
 44 H       -7.2210    -5.1730    -0.5200 H     1 <1>   0.0800 
 45 H      -12.1530    -3.5960    -1.9210 H     1 <1>   0.1500 
 46 H       -8.2220    -5.7240     1.7060 H     1 <1>   0.1500 
 47 H      -12.3660    -7.7060    -0.0220 H     1 <1>   0.1500 
 48 H       -8.8990    -7.9750     2.4400 H     1 <1>   0.1500 
 49 H      -10.9630    -8.9780     1.5740 H     1 <1>   0.1500 
@<TRIPOS>BOND
  1   1   2  2   
  2   2   3  am  
  3   2   4  1   
  4   3   5  1   
  5   3   6  1   
  6   4   7  ar  
  7   4   8  ar  
  8   5  28  1   
  9   5  29  1   
 10   5  30  1   
 11   6  31  1   
 12   6  32  1   
 13   6  33  1   
 14   7   9  ar  
 15   7  34  1   
 16   8  10  ar  
 17   8  35  1   
 18   9  11  ar  
 19  10  11  ar  
 20  10  36  1   
 21  11  12  1   
 22  12  13  1   
 23  12  14  1   
 24  13  15  1   
 25  13  37  1   
 26  13  38  1   
 27  14  16  1   
 28  14  39  1   
 29  14  40  1   
 30  15  17  1   
 31  15  41  1   
 32  15  42  1   
 33  16  17  1   
 34  16  43  1   
 35  16  44  1   
 36  17  18  1   
 37  18  19  ar  
 38  18  20  ar  
 39  19  21  ar  
 40  20  22  ar  
 41  20  23  ar  
 42  21  24  ar  
 43  21  45  1   
 44  22  24  ar  
 45  22  25  ar  
 46  23  26  ar  
 47  23  46  1   
 48  25  27  ar  
 49  25  47  1   
 50  26  27  ar  
 51  26  48  1   
 52  27  49  1   
@<TRIPOS>SUBSTRUCTURE
  1 ****  12 GROUP 4 **** **** 0

# MOE 2024.06 (io_trps.svl 2023.06)
