@<TRIPOS>MOLECULE
NONAME
53 55 1 0 0 
SMALL
USER_CHARGES


@<TRIPOS>ATOM
  1 O       -1.8920     0.4170    -0.8580 O.2   1 <1>  -0.5700 
  2 C       -2.1740     1.1030     0.1060 C.2   1 <1>   0.5440 
  3 N       -2.8310     0.4930     1.1380 N.am  1 <1>  -0.7300 
  4 C       -1.8110     2.5110     0.1450 C.ar  1 <1>   0.0860 
  5 C       -3.0750    -0.9670     1.2660 C.3   1 <1>   0.1400 
  6 C       -2.4660     3.4720     0.9320 C.ar  1 <1>   0.0830 
  7 C       -0.7530     2.9660    -0.6450 C.ar  1 <1>  -0.1500 
  8 C       -4.1460    -1.4430     0.2760 C.3   1 <1>   0.1400 
  9 O       -3.5160     3.1410     1.7170 O.3   1 <1>  -0.3630 
 10 C       -2.0560     4.7980     0.9410 C.ar  1 <1>  -0.1500 
 11 C       -0.3450     4.2870    -0.6520 C.ar  1 <1>   0.0830 
 12 N       -4.3460    -2.9120     0.4040 N.am  1 <1>  -0.7300 
 13 C       -4.7970     3.5790     1.3150 C.3   1 <1>   0.1200 
 14 C       -1.0010     5.2120     0.1530 C.ar  1 <1>  -0.1500 
 15 O        0.6960     4.6000    -1.4650 O.3   1 <1>  -0.3620 
 16 C       -5.4890    -3.6370     0.3620 C.2   1 <1>   0.5690 
 17 C       -5.5650     2.3560     0.8210 C.3   1 <1>  -0.1600 
 18 C        1.2020     5.9150    -1.5350 C.3   1 <1>   0.0400 
 19 O       -5.4310    -4.8380     0.4280 O.2   1 <1>  -0.5700 
 20 C       -6.8460    -2.9750     0.2110 C.3   1 <1>  -0.0990 
 21 C       -6.9860     2.7050     0.3600 C.3   1 <1>   0.0960 
 22 C       -7.1360    -2.5930    -1.2550 C.3   1 <1>  -0.1600 
 23 N       -7.7210     1.4610     0.0720 N.pl3 1 <1>   0.3140 
 24 C       -8.4120    -1.7520    -1.4110 C.3   1 <1>   0.0210 
 25 N       -8.6170     0.9440     0.9160 N.2   1 <1>  -0.4180 
 26 C       -7.5040     0.6050    -0.9270 C.2   1 <1>  -0.3020 
 27 C       -8.2910    -0.4450    -0.6520 C.2   1 <1>   0.0460 
 28 N       -8.9730    -0.2110     0.4740 N.2   1 <1>  -0.2270 
 29 H       -3.1070     1.0850     1.9290 H     1 <1>   0.3700 
 30 H       -3.3890    -1.1850     2.2720 H     1 <1>   0.0800 
 31 H       -2.1530    -1.4860     1.0680 H     1 <1>   0.0800 
 32 H       -0.2280     2.2680    -1.2740 H     1 <1>   0.1500 
 33 H       -3.8260    -1.2270    -0.7290 H     1 <1>   0.0800 
 34 H       -5.0650    -0.9200     0.4660 H     1 <1>   0.0800 
 35 H       -2.5630     5.5060     1.5720 H     1 <1>   0.1500 
 36 H       -3.4910    -3.4730     0.4260 H     1 <1>   0.3700 
 37 H       -4.7010     4.3210     0.5400 H     1 <1>   0.0800 
 38 H       -5.2780     4.0150     2.1730 H     1 <1>   0.0800 
 39 H       -0.7040     6.2440     0.1780 H     1 <1>   0.1500 
 40 H       -5.6260     1.6430     1.6260 H     1 <1>   0.0800 
 41 H       -5.0320     1.9150    -0.0030 H     1 <1>   0.0800 
 42 H        2.0200     5.9200    -2.2320 H     1 <1>   0.0800 
 43 H        1.5520     6.2070    -0.5600 H     1 <1>   0.0800 
 44 H        0.4240     6.5710    -1.8810 H     1 <1>   0.0800 
 45 H       -6.8800    -2.1160     0.8550 H     1 <1>   0.0800 
 46 H       -7.6000    -3.6580     0.5570 H     1 <1>   0.0800 
 47 H       -6.9650     3.3100    -0.5280 H     1 <1>   0.0800 
 48 H       -7.5130     3.2340     1.1340 H     1 <1>   0.0800 
 49 H       -7.2300    -3.4940    -1.8360 H     1 <1>   0.0800 
 50 H       -6.3050    -2.0370    -1.6510 H     1 <1>   0.0800 
 51 H       -9.2650    -2.3010    -1.0500 H     1 <1>   0.0800 
 52 H       -8.5730    -1.5350    -2.4520 H     1 <1>   0.0800 
 53 H       -6.8130     0.7760    -1.7300 H     1 <1>   0.1500 
@<TRIPOS>BOND
  1   1   2  2   
  2   2   3  am  
  3   2   4  1   
  4   3   5  1   
  5   3  29  1   
  6   4   6  ar  
  7   4   7  ar  
  8   5   8  1   
  9   5  30  1   
 10   5  31  1   
 11   6   9  1   
 12   6  10  ar  
 13   7  11  ar  
 14   7  32  1   
 15   8  12  1   
 16   8  33  1   
 17   8  34  1   
 18   9  13  1   
 19  10  14  ar  
 20  10  35  1   
 21  11  14  ar  
 22  11  15  1   
 23  12  16  am  
 24  12  36  1   
 25  13  17  1   
 26  13  37  1   
 27  13  38  1   
 28  14  39  1   
 29  15  18  1   
 30  16  19  2   
 31  16  20  1   
 32  17  21  1   
 33  17  40  1   
 34  17  41  1   
 35  18  42  1   
 36  18  43  1   
 37  18  44  1   
 38  20  22  1   
 39  20  45  1   
 40  20  46  1   
 41  21  23  1   
 42  21  47  1   
 43  21  48  1   
 44  22  24  1   
 45  22  49  1   
 46  22  50  1   
 47  23  25  1   
 48  23  26  1   
 49  24  27  1   
 50  24  51  1   
 51  24  52  1   
 52  25  28  2   
 53  26  27  2   
 54  26  53  1   
 55  27  28  1   
@<TRIPOS>SUBSTRUCTURE
  1 ****   3 GROUP 4 **** **** 0

# MOE 2024.06 (io_trps.svl 2023.06)
