@<TRIPOS>MOLECULE
NONAME
47 49 1 0 0 
SMALL
USER_CHARGES


@<TRIPOS>ATOM
  1 O       -0.4190    -0.7820     0.2950 O.2   1 <1>  -0.5700 
  2 C        0.3700    -1.6780     0.1490 C.2   1 <1>   0.5690 
  3 N        0.0480    -2.8070    -0.5150 N.am  1 <1>  -0.7300 
  4 C        1.7680    -1.5810     0.7200 C.3   1 <1>  -0.0990 
  5 C        0.9750    -3.9400    -0.6940 C.3   1 <1>   0.1400 
  6 C        2.8050    -2.1030    -0.2960 C.3   1 <1>  -0.0800 
  7 C        2.3890    -3.4110    -1.0180 C.3   1 <1>  -0.0800 
  8 C        4.1840    -2.3650     0.3270 C.3   1 <1>  -0.1600 
  9 C        3.5000    -4.4260    -0.7170 C.3   1 <1>  -0.1600 
 10 C        4.7290    -3.5630    -0.4480 C.3   1 <1>   0.4230 
 11 N        5.8400    -4.3010     0.2360 N.4   1 <1>  -0.9590 
 12 C        7.0650    -3.4440     0.3730 C.3   1 <1>   0.3430 
 13 C        5.4900    -4.8540     1.5870 C.3   1 <1>   0.2630 
 14 C        7.7380    -3.1420    -0.9700 C.3   1 <1>  -0.0170 
 15 C        8.9020    -2.2080    -0.7210 C.ar  1 <1>   0.1670 
 16 N        8.6230    -1.1410     0.0100 N.ar  1 <1>  -0.6200 
 17 C       10.1560    -2.4910    -1.2420 C.ar  1 <1>  -0.1500 
 18 C        9.6300    -0.3120     0.2330 C.ar  1 <1>   0.1670 
 19 C       11.1980    -1.6240    -1.0010 C.ar  1 <1>  -0.1500 
 20 C       10.9170    -0.5090    -0.2420 C.ar  1 <1>  -0.1500 
 21 C        9.3100     0.9140     1.0630 C.3   1 <1>  -0.0970 
 22 H       -0.9120    -2.8880    -0.8640 H     1 <1>   0.3700 
 23 H        1.9780    -0.5570     0.9740 H     1 <1>   0.0800 
 24 H        1.7870    -2.1630     1.6220 H     1 <1>   0.0800 
 25 H        0.9830    -4.5130     0.2180 H     1 <1>   0.0800 
 26 H        0.6240    -4.5750    -1.4910 H     1 <1>   0.0800 
 27 H        2.9120    -1.3440    -1.0560 H     1 <1>   0.0800 
 28 H        2.4090    -3.2060    -2.0770 H     1 <1>   0.0800 
 29 H        4.0660    -2.6000     1.3680 H     1 <1>   0.0800 
 30 H        4.8190    -1.5020     0.2230 H     1 <1>   0.0800 
 31 H        3.6530    -5.0900    -1.5490 H     1 <1>   0.0800 
 32 H        3.2280    -4.9920     0.1550 H     1 <1>   0.0800 
 33 H        5.0760    -3.2010    -1.4020 H     1 <1>   0.0800 
 34 H        6.0850    -5.0980    -0.3670 H     1 <1>   0.4500 
 35 H        6.8050    -2.5140     0.8520 H     1 <1>   0.0800 
 36 H        7.7870    -3.9380     1.0030 H     1 <1>   0.0800 
 37 H        5.2410    -4.0580     2.2690 H     1 <1>   0.0800 
 38 H        6.3260    -5.4000     1.9930 H     1 <1>   0.0800 
 39 H        4.6510    -5.5270     1.5190 H     1 <1>   0.0800 
 40 H        7.0620    -2.6400    -1.6350 H     1 <1>   0.0800 
 41 H        8.0830    -4.0500    -1.4270 H     1 <1>   0.0800 
 42 H       10.3260    -3.3720    -1.8340 H     1 <1>   0.1500 
 43 H       12.1870    -1.8060    -1.3870 H     1 <1>   0.1500 
 44 H       11.6940     0.2020    -0.0260 H     1 <1>   0.1500 
 45 H       10.1780     1.5330     1.1920 H     1 <1>   0.0800 
 46 H        8.9540     0.6120     2.0310 H     1 <1>   0.0800 
 47 H        8.5450     1.4890     0.5750 H     1 <1>   0.0800 
@<TRIPOS>BOND
  1   1   2  2   
  2   2   3  am  
  3   2   4  1   
  4   3   5  1   
  5   3  22  1   
  6   4   6  1   
  7   4  23  1   
  8   4  24  1   
  9   5   7  1   
 10   5  25  1   
 11   5  26  1   
 12   6   7  1   
 13   6   8  1   
 14   6  27  1   
 15   7   9  1   
 16   7  28  1   
 17   8  10  1   
 18   8  29  1   
 19   8  30  1   
 20   9  10  1   
 21   9  31  1   
 22   9  32  1   
 23  10  11  1   
 24  10  33  1   
 25  11  12  1   
 26  11  13  1   
 27  11  34  1   
 28  12  14  1   
 29  12  35  1   
 30  12  36  1   
 31  13  37  1   
 32  13  38  1   
 33  13  39  1   
 34  14  15  1   
 35  14  40  1   
 36  14  41  1   
 37  15  16  ar  
 38  15  17  ar  
 39  16  18  ar  
 40  17  19  ar  
 41  17  42  1   
 42  18  20  ar  
 43  18  21  1   
 44  19  20  ar  
 45  19  43  1   
 46  20  44  1   
 47  21  45  1   
 48  21  46  1   
 49  21  47  1   
@<TRIPOS>SUBSTRUCTURE
  1 ****   8 GROUP 4 **** **** 0

# MOE 2024.06 (io_trps.svl 2023.06)
