@<TRIPOS>MOLECULE
NONAME
50 52 1 0 0 
SMALL
USER_CHARGES


@<TRIPOS>ATOM
  1 S       -0.5700     0.1540     1.3870 S.o2  1 <1>   1.4470 
  2 O       -0.2880    -1.2350     1.6910 O.2   1 <1>  -0.6500 
  3 O       -1.2660     0.9530     2.3680 O.2   1 <1>  -0.6500 
  4 N       -1.5190     0.1380    -0.0320 N.am  1 <1>  -0.8490 
  5 C        0.9470     0.9940     0.8570 C.ar  1 <1>  -0.0090 
  6 C       -1.5370    -1.1550    -0.7390 C.3   1 <1>   0.1960 
  7 C       -2.8570     0.7370     0.0890 C.3   1 <1>   0.1960 
  8 C        0.8920     2.1640     0.1100 C.ar  1 <1>  -0.1500 
  9 C        2.2040     0.4960     1.1920 C.ar  1 <1>  -0.1500 
 10 C       -2.4790    -2.1630    -0.0290 C.3   1 <1>   0.4230 
 11 C       -3.8560    -0.2410     0.7390 C.3   1 <1>  -0.1600 
 12 C        2.0610     2.7840    -0.2840 C.ar  1 <1>   0.1900 
 13 C        3.3720     1.1280     0.7910 C.ar  1 <1>  -0.1500 
 14 N       -2.3070    -3.6140    -0.4450 N.4   1 <1>  -0.9590 
 15 C       -3.9380    -1.6210     0.0310 C.3   1 <1>   0.0000 
 16 F        1.9650     3.8790    -0.9910 F     1 <1>  -0.1900 
 17 C        3.3150     2.2900     0.0400 C.ar  1 <1>  -0.1430 
 18 C       -3.4900    -4.4670    -0.1060 C.3   1 <1>   0.3430 
 19 C       -1.9400    -3.8250    -1.8810 C.3   1 <1>   0.2630 
 20 C       -4.8270    -2.5630     0.8970 C.3   1 <1>  -0.1600 
 21 C       -4.5960    -1.3780    -1.3590 C.3   1 <1>   0.1200 
 22 C        4.5870     2.9960    -0.4080 C.3   1 <1>  -0.0970 
 23 C       -4.2020    -3.9480     1.1430 C.3   1 <1>  -0.1600 
 24 O       -4.7400    -2.5480    -2.0870 O.3   1 <1>  -0.6800 
 25 H       -1.8640    -0.9940    -1.7510 H     1 <1>   0.0800 
 26 H       -0.5350    -1.5500    -0.7750 H     1 <1>   0.0800 
 27 H       -2.8090     1.6510     0.6600 H     1 <1>   0.0800 
 28 H       -3.2020     1.0130    -0.8930 H     1 <1>   0.0800 
 29 H       -0.0530     2.5950    -0.1660 H     1 <1>   0.1500 
 30 H        2.2750    -0.4050     1.7790 H     1 <1>   0.1500 
 31 H       -2.1680    -2.1500     1.0000 H     1 <1>   0.0800 
 32 H       -3.5640    -0.3710     1.7680 H     1 <1>   0.0800 
 33 H       -4.8270     0.2220     0.7550 H     1 <1>   0.0800 
 34 H        4.3240     0.7100     1.0700 H     1 <1>   0.1500 
 35 H       -1.5260    -3.9590     0.1320 H     1 <1>   0.4500 
 36 H       -4.1910    -4.4610    -0.9240 H     1 <1>   0.0800 
 37 H       -3.1730    -5.4860     0.0510 H     1 <1>   0.0800 
 38 H       -2.7050    -3.4340    -2.5290 H     1 <1>   0.0800 
 39 H       -1.8280    -4.8780    -2.0850 H     1 <1>   0.0800 
 40 H       -1.0080    -3.3350    -2.1100 H     1 <1>   0.0800 
 41 H       -5.0400    -2.1250     1.8580 H     1 <1>   0.0800 
 42 H       -5.7820    -2.7000     0.4160 H     1 <1>   0.0800 
 43 H       -4.0290    -0.6930    -1.9620 H     1 <1>   0.0800 
 44 H       -5.5820    -0.9630    -1.2220 H     1 <1>   0.0800 
 45 H        5.4610     2.4670    -0.0740 H     1 <1>   0.0800 
 46 H        4.6130     3.9920    -0.0050 H     1 <1>   0.0800 
 47 H        4.6130     3.0570    -1.4820 H     1 <1>   0.0800 
 48 H       -4.9810    -4.6390     1.4170 H     1 <1>   0.0800 
 49 H       -3.5070    -3.9100     1.9640 H     1 <1>   0.0800 
 50 H       -5.3580    -2.4080    -2.8380 H     1 <1>   0.4000 
@<TRIPOS>BOND
  1   1   2  2   
  2   1   3  2   
  3   1   4  am  
  4   1   5  1   
  5   4   6  1   
  6   4   7  1   
  7   5   8  ar  
  8   5   9  ar  
  9   6  10  1   
 10   6  25  1   
 11   6  26  1   
 12   7  11  1   
 13   7  27  1   
 14   7  28  1   
 15   8  12  ar  
 16   8  29  1   
 17   9  13  ar  
 18   9  30  1   
 19  10  14  1   
 20  10  15  1   
 21  10  31  1   
 22  11  15  1   
 23  11  32  1   
 24  11  33  1   
 25  12  16  1   
 26  12  17  ar  
 27  13  17  ar  
 28  13  34  1   
 29  14  18  1   
 30  14  19  1   
 31  14  35  1   
 32  15  20  1   
 33  15  21  1   
 34  17  22  1   
 35  18  23  1   
 36  18  36  1   
 37  18  37  1   
 38  19  38  1   
 39  19  39  1   
 40  19  40  1   
 41  20  23  1   
 42  20  41  1   
 43  20  42  1   
 44  21  24  1   
 45  21  43  1   
 46  21  44  1   
 47  22  45  1   
 48  22  46  1   
 49  22  47  1   
 50  23  48  1   
 51  23  49  1   
 52  24  50  1   
@<TRIPOS>SUBSTRUCTURE
  1 ****   4 GROUP 4 **** **** 0

# MOE 2024.06 (io_trps.svl 2023.06)
