@<TRIPOS>MOLECULE
NONAME
41 42 1 0 0 
SMALL
USER_CHARGES


@<TRIPOS>ATOM
  1 CL      -0.9370     0.0170    -1.7060 Cl    1 <1>  -0.1770 
  2 C       -2.0350    -0.8030    -0.6270 C.ar  1 <1>   0.1770 
  3 C       -2.9020    -0.0560     0.1450 C.ar  1 <1>  -0.1500 
  4 C       -2.0180    -2.1840    -0.5640 C.ar  1 <1>  -0.1500 
  5 C       -3.7490    -0.7450     0.9880 C.ar  1 <1>   0.1900 
  6 C       -2.8860    -2.8770     0.2830 C.ar  1 <1>   0.0860 
  7 F       -4.5790    -0.0680     1.7330 F     1 <1>  -0.1900 
  8 C       -3.7550    -2.1230     1.0740 C.ar  1 <1>  -0.1500 
  9 C       -2.8670    -4.3270     0.3380 C.2   1 <1>   0.5440 
 10 O       -1.8010    -4.9080     0.3900 O.2   1 <1>  -0.5700 
 11 N       -4.0240    -5.0700     0.3150 N.am  1 <1>  -0.6600 
 12 C       -5.3160    -4.6060    -0.2510 C.3   1 <1>   0.1400 
 13 C       -4.0070    -6.5510     0.4300 C.3   1 <1>   0.1400 
 14 C       -5.9940    -5.8790    -0.7490 C.3   1 <1>   0.2000 
 15 C       -5.4420    -6.9960     0.1300 C.3   1 <1>  -0.0800 
 16 O       -7.3720    -5.8130    -0.6290 O.3   1 <1>  -0.6800 
 17 C       -5.5480    -8.3770    -0.5380 C.3   1 <1>  -0.0550 
 18 S       -5.0480    -9.7170     0.5410 S.o2  1 <1>   1.3330 
 19 O       -3.6230    -9.6320     0.7680 O.2   1 <1>  -0.6500 
 20 O       -5.9530    -9.7290     1.6680 O.2   1 <1>  -0.6500 
 21 N       -5.3460   -11.0950    -0.4040 N.am  1 <1>  -0.8490 
 22 C       -5.6750   -12.2670     0.4130 C.3   1 <1>   0.1160 
 23 C       -4.2500   -11.4190    -1.3230 C.3   1 <1>   0.1160 
 24 H       -2.9140     1.0170     0.0940 H     1 <1>   0.1500 
 25 H       -1.3230    -2.7350    -1.1750 H     1 <1>   0.1500 
 26 H       -4.4250    -2.6120     1.7580 H     1 <1>   0.1500 
 27 H       -5.8990    -4.1460     0.5280 H     1 <1>   0.0800 
 28 H       -5.1570    -3.9150    -1.0600 H     1 <1>   0.0800 
 29 H       -3.3160    -6.9520    -0.2940 H     1 <1>   0.0800 
 30 H       -3.6940    -6.8520     1.4160 H     1 <1>   0.0800 
 31 H       -5.7500    -6.0380    -1.7870 H     1 <1>   0.0800 
 32 H       -5.9750    -7.0090     1.0660 H     1 <1>   0.0800 
 33 H       -7.6370    -5.7720     0.3100 H     1 <1>   0.4000 
 34 H       -4.9520    -8.3900    -1.4290 H     1 <1>   0.0800 
 35 H       -6.5700    -8.5380    -0.8260 H     1 <1>   0.0800 
 36 H       -5.8730   -13.1180    -0.2170 H     1 <1>   0.0800 
 37 H       -6.5560   -12.0720     1.0000 H     1 <1>   0.0800 
 38 H       -4.8600   -12.5000     1.0790 H     1 <1>   0.0800 
 39 H       -4.5310   -12.2430    -1.9570 H     1 <1>   0.0800 
 40 H       -3.3630   -11.6870    -0.7730 H     1 <1>   0.0800 
 41 H       -4.0260   -10.5720    -1.9480 H     1 <1>   0.0800 
@<TRIPOS>BOND
  1   1   2  1   
  2   2   3  ar  
  3   2   4  ar  
  4   3   5  ar  
  5   3  24  1   
  6   4   6  ar  
  7   4  25  1   
  8   5   7  1   
  9   5   8  ar  
 10   6   8  ar  
 11   6   9  1   
 12   8  26  1   
 13   9  10  2   
 14   9  11  am  
 15  11  12  1   
 16  11  13  1   
 17  12  14  1   
 18  12  27  1   
 19  12  28  1   
 20  13  15  1   
 21  13  29  1   
 22  13  30  1   
 23  14  15  1   
 24  14  16  1   
 25  14  31  1   
 26  15  17  1   
 27  15  32  1   
 28  16  33  1   
 29  17  18  1   
 30  17  34  1   
 31  17  35  1   
 32  18  19  2   
 33  18  20  2   
 34  18  21  am  
 35  21  22  1   
 36  21  23  1   
 37  22  36  1   
 38  22  37  1   
 39  22  38  1   
 40  23  39  1   
 41  23  40  1   
 42  23  41  1   
@<TRIPOS>SUBSTRUCTURE
  1 ****  11 GROUP 4 **** **** 0

# MOE 2024.06 (io_trps.svl 2023.06)
