@<TRIPOS>MOLECULE
NONAME
54 57 1 0 0 
SMALL
USER_CHARGES


@<TRIPOS>ATOM
  1 F        0.3850    -0.8820    -0.7610 F     1 <1>  -0.1900 
  2 C       -0.4030    -1.9010    -0.5230 C.ar  1 <1>   0.1900 
  3 C       -0.1190    -3.1860    -0.9980 C.ar  1 <1>   0.0830 
  4 C       -1.5320    -1.6410     0.2290 C.ar  1 <1>  -0.1500 
  5 O        0.9580    -3.5660    -1.7460 O.3   1 <1>  -0.3630 
  6 C       -1.0150    -4.1970    -0.6880 C.ar  1 <1>  -0.1500 
  7 C       -2.4020    -2.6750     0.5210 C.ar  1 <1>  -0.1500 
  8 C        1.9320    -2.6570    -2.2080 C.3   1 <1>   0.0400 
  9 C       -2.1690    -3.9750     0.0680 C.ar  1 <1>   0.0530 
 10 C       -3.0710    -5.0640     0.3640 C.2   1 <1>   0.0870 
 11 O       -2.6070    -6.2880     0.4390 O.3   1 <1>  -0.0190 
 12 C       -4.4080    -5.1410     0.5890 C.2   1 <1>  -0.2330 
 13 N       -3.5350    -7.1700     0.6950 N.2   1 <1>  -0.4100 
 14 C       -4.6370    -6.5050     0.7940 C.2   1 <1>   0.3720 
 15 C       -5.3880    -4.1020     0.5920 C.2   1 <1>   1.0330 
 16 N       -5.8800    -7.1100     1.0630 N.pl3 1 <1>  -0.8210 
 17 O       -5.4750    -3.3080     1.5460 O.co2 1 <1>  -0.9000 
 18 O       -6.1370    -3.9400    -0.3890 O.co2 1 <1>  -0.9000 
 19 C       -5.9310    -8.5800     1.2780 C.3   1 <1>   0.2090 
 20 C       -6.9710    -6.7440     0.1230 C.3   1 <1>   0.2090 
 21 C       -6.7260    -9.1420     0.0950 C.3   1 <1>   0.1900 
 22 C       -7.7370    -8.0320    -0.1630 C.3   1 <1>  -0.1600 
 23 N       -7.3750   -10.4580     0.3590 N.3   1 <1>  -0.8100 
 24 C       -6.3750   -11.4880     0.7260 C.3   1 <1>   0.1100 
 25 C       -8.1920   -10.9060    -0.7920 C.3   1 <1>   0.1100 
 26 C       -7.0330   -12.8550     1.0090 C.3   1 <1>   0.3430 
 27 C       -8.8680   -12.2650    -0.5230 C.3   1 <1>   0.3430 
 28 N       -7.8660   -13.3230    -0.1510 N.4   1 <1>  -0.9590 
 29 C       -8.5370   -14.6230     0.1520 C.3   1 <1>   0.2630 
 30 H       -1.7310    -0.6470     0.5830 H     1 <1>   0.1500 
 31 H       -0.8110    -5.1880    -1.0500 H     1 <1>   0.1500 
 32 H       -3.2750    -2.4660     1.1140 H     1 <1>   0.1500 
 33 H        2.6460    -3.2020    -2.7970 H     1 <1>   0.0800 
 34 H        2.4230    -2.2110    -1.3610 H     1 <1>   0.0800 
 35 H        1.4520    -1.9090    -2.8150 H     1 <1>   0.0800 
 36 H       -6.4610    -8.7630     2.1960 H     1 <1>   0.0800 
 37 H       -4.9540    -9.0220     1.3380 H     1 <1>   0.0800 
 38 H       -6.5520    -6.3600    -0.7930 H     1 <1>   0.0800 
 39 H       -7.6060    -5.9900     0.5580 H     1 <1>   0.0800 
 40 H       -6.0570    -9.2180    -0.7470 H     1 <1>   0.0800 
 41 H       -8.1050    -8.0260    -1.1720 H     1 <1>   0.0800 
 42 H       -8.5560    -8.1010     0.5300 H     1 <1>   0.0800 
 43 H       -5.8550   -11.1840     1.6180 H     1 <1>   0.0800 
 44 H       -5.6460   -11.5910    -0.0600 H     1 <1>   0.0800 
 45 H       -7.5790   -10.9720    -1.6750 H     1 <1>   0.0800 
 46 H       -8.9690   -10.1870    -0.9830 H     1 <1>   0.0800 
 47 H       -7.6530   -12.7550     1.8850 H     1 <1>   0.0800 
 48 H       -6.2640   -13.5780     1.2260 H     1 <1>   0.0800 
 49 H       -9.4140   -12.5680    -1.4010 H     1 <1>   0.0800 
 50 H       -9.5740   -12.1360     0.2810 H     1 <1>   0.0800 
 51 H       -7.2340   -13.4440    -0.9540 H     1 <1>   0.4500 
 52 H       -9.2030   -14.5130     0.9920 H     1 <1>   0.0800 
 53 H       -7.8030   -15.3760     0.3910 H     1 <1>   0.0800 
 54 H       -9.1070   -14.9580    -0.6990 H     1 <1>   0.0800 
@<TRIPOS>BOND
  1   1   2  1   
  2   2   3  ar  
  3   2   4  ar  
  4   3   5  1   
  5   3   6  ar  
  6   4   7  ar  
  7   4  30  1   
  8   5   8  1   
  9   6   9  ar  
 10   6  31  1   
 11   7   9  ar  
 12   7  32  1   
 13   8  33  1   
 14   8  34  1   
 15   8  35  1   
 16   9  10  1   
 17  10  11  1   
 18  10  12  2   
 19  11  13  1   
 20  12  14  1   
 21  12  15  1   
 22  13  14  2   
 23  14  16  1   
 24  15  17  ar  
 25  15  18  ar  
 26  16  19  1   
 27  16  20  1   
 28  19  21  1   
 29  19  36  1   
 30  19  37  1   
 31  20  22  1   
 32  20  38  1   
 33  20  39  1   
 34  21  22  1   
 35  21  23  1   
 36  21  40  1   
 37  22  41  1   
 38  22  42  1   
 39  23  24  1   
 40  23  25  1   
 41  24  26  1   
 42  24  43  1   
 43  24  44  1   
 44  25  27  1   
 45  25  45  1   
 46  25  46  1   
 47  26  28  1   
 48  26  47  1   
 49  26  48  1   
 50  27  28  1   
 51  27  49  1   
 52  27  50  1   
 53  28  29  1   
 54  28  51  1   
 55  29  52  1   
 56  29  53  1   
 57  29  54  1   
@<TRIPOS>SUBSTRUCTURE
  1 ****  14 GROUP 4 **** **** 0

# MOE 2024.06 (io_trps.svl 2023.06)
