@<TRIPOS>MOLECULE
NONAME
53 54 1 0 0 
SMALL
USER_CHARGES


@<TRIPOS>ATOM
  1 O        3.0200     2.4000     1.7880 O.co2 1 <1>  -0.9000 
  2 C        2.5910     1.2470     1.6230 C.2   1 <1>   0.9060 
  3 O        2.7220     0.3880     2.4920 O.co2 1 <1>  -0.9000 
  4 C        2.1830     0.7980     0.2060 C.3   1 <1>  -0.1060 
  5 C        3.2710    -0.2340    -0.1740 C.3   1 <1>   0.2000 
  6 C        2.2570     1.9750    -0.8230 C.3   1 <1>  -0.1600 
  7 C        0.7680     0.1560     0.2130 C.3   1 <1>  -0.1600 
  8 O        3.0740    -0.6660    -1.4880 O.3   1 <1>  -0.6800 
  9 C        4.6850     0.3990    -0.0650 C.3   1 <1>   0.3430 
 10 C        3.6830     2.2940    -1.3120 C.3   1 <1>   0.3430 
 11 C       -0.3420     1.1160     0.6710 C.3   1 <1>  -0.1600 
 12 N        4.6680     1.8930    -0.2760 N.4   1 <1>  -0.9590 
 13 C       -1.7020     0.4140     0.6800 C.3   1 <1>  -0.2400 
 14 C        6.0150     2.4990    -0.3940 C.3   1 <1>   0.3430 
 15 C        6.0010     3.9470     0.0970 C.3   1 <1>   0.1200 
 16 O        7.2720     4.4960    -0.1560 O.3   1 <1>  -0.3630 
 17 C        7.5860     5.7670     0.2090 C.ar  1 <1>   0.0830 
 18 C        8.8660     6.2300    -0.0920 C.ar  1 <1>  -0.1430 
 19 C        6.6860     6.6050     0.8650 C.ar  1 <1>  -0.1500 
 20 C        9.2260     7.5200     0.2670 C.ar  1 <1>  -0.1500 
 21 C        9.8880     5.3510    -0.8040 C.3   1 <1>  -0.0170 
 22 C        7.0580     7.8900     1.2150 C.ar  1 <1>  -0.1500 
 23 C        8.3280     8.3480     0.9160 C.ar  1 <1>  -0.1500 
 24 C       10.6100     4.4430     0.1950 C.3   1 <1>  -0.2400 
 25 H        3.2200    -1.1010     0.4640 H     1 <1>   0.0800 
 26 H        1.8300     2.8620    -0.3900 H     1 <1>   0.0800 
 27 H        1.6650     1.7420    -1.6900 H     1 <1>   0.0800 
 28 H        0.5240    -0.2090    -0.7690 H     1 <1>   0.0800 
 29 H        0.7810    -0.6890     0.8820 H     1 <1>   0.0800 
 30 H        2.2050    -1.1120    -1.5500 H     1 <1>   0.4000 
 31 H        5.3360    -0.0810    -0.7760 H     1 <1>   0.0800 
 32 H        5.0580     0.2030     0.9270 H     1 <1>   0.0800 
 33 H        3.7610     3.3470    -1.5250 H     1 <1>   0.0800 
 34 H        3.8810     1.7420    -2.2170 H     1 <1>   0.0800 
 35 H       -0.1270     1.4710     1.6660 H     1 <1>   0.0800 
 36 H       -0.3940     1.9690     0.0190 H     1 <1>   0.0800 
 37 H        4.2390     2.2590     0.6170 H     1 <1>   0.4500 
 38 H       -1.6850    -0.4250     1.3530 H     1 <1>   0.0800 
 39 H       -1.9560     0.0660    -0.3050 H     1 <1>   0.0800 
 40 H       -2.4640     1.0980     1.0100 H     1 <1>   0.0800 
 41 H        6.7120     1.9460     0.2140 H     1 <1>   0.0800 
 42 H        6.3420     2.4640    -1.4200 H     1 <1>   0.0800 
 43 H        5.8170     3.9800     1.1580 H     1 <1>   0.0800 
 44 H        5.2730     4.5320    -0.4350 H     1 <1>   0.0800 
 45 H        5.6940     6.2820     1.1170 H     1 <1>   0.1500 
 46 H       10.2120     7.8880     0.0430 H     1 <1>   0.1500 
 47 H        9.3990     4.7520    -1.5530 H     1 <1>   0.0800 
 48 H       10.6100     5.9680    -1.3110 H     1 <1>   0.0800 
 49 H        6.3610     8.5350     1.7220 H     1 <1>   0.1500 
 50 H        8.6180     9.3480     1.1890 H     1 <1>   0.1500 
 51 H        9.9030     3.8030     0.6910 H     1 <1>   0.0800 
 52 H       11.1140     5.0380     0.9360 H     1 <1>   0.0800 
 53 H       11.3350     3.8340    -0.3140 H     1 <1>   0.0800 
@<TRIPOS>BOND
  1   1   2  ar  
  2   2   3  ar  
  3   2   4  1   
  4   4   5  1   
  5   4   6  1   
  6   4   7  1   
  7   5   8  1   
  8   5   9  1   
  9   5  25  1   
 10   6  10  1   
 11   6  26  1   
 12   6  27  1   
 13   7  11  1   
 14   7  28  1   
 15   7  29  1   
 16   8  30  1   
 17   9  12  1   
 18   9  31  1   
 19   9  32  1   
 20  10  12  1   
 21  10  33  1   
 22  10  34  1   
 23  11  13  1   
 24  11  35  1   
 25  11  36  1   
 26  12  14  1   
 27  12  37  1   
 28  13  38  1   
 29  13  39  1   
 30  13  40  1   
 31  14  15  1   
 32  14  41  1   
 33  14  42  1   
 34  15  16  1   
 35  15  43  1   
 36  15  44  1   
 37  16  17  1   
 38  17  18  ar  
 39  17  19  ar  
 40  18  20  ar  
 41  18  21  1   
 42  19  22  ar  
 43  19  45  1   
 44  20  23  ar  
 45  20  46  1   
 46  21  24  1   
 47  21  47  1   
 48  21  48  1   
 49  22  23  ar  
 50  22  49  1   
 51  23  50  1   
 52  24  51  1   
 53  24  52  1   
 54  24  53  1   
@<TRIPOS>SUBSTRUCTURE
  1 ****  15 GROUP 4 **** **** 0

# MOE 2024.06 (io_trps.svl 2023.06)
