@<TRIPOS>MOLECULE
NONAME
49 51 1 0 0 
SMALL
USER_CHARGES


@<TRIPOS>ATOM
  1 CL      -0.6630    -1.6000    -1.6220 Cl    1 <1>  -0.1770 
  2 C       -2.1750    -1.9470    -0.8230 C.ar  1 <1>   0.1770 
  3 C       -2.9920    -2.9430    -1.3230 C.ar  1 <1>  -0.1500 
  4 C       -2.5320    -1.2220     0.2970 C.ar  1 <1>  -0.1500 
  5 C       -4.1920    -3.2160    -0.6880 C.ar  1 <1>  -0.1500 
  6 C       -3.7340    -1.5000     0.9280 C.ar  1 <1>  -0.1500 
  7 C       -4.5670    -2.4960     0.4380 C.ar  1 <1>  -0.1430 
  8 C       -5.8890    -2.7910     1.1290 C.3   1 <1>  -0.0160 
  9 C       -7.0000    -1.9000     0.5560 C.3   1 <1>  -0.0990 
 10 C       -8.3700    -2.1550     1.1700 C.2   1 <1>   0.5690 
 11 O       -8.4360    -2.8330     2.1690 O.2   1 <1>  -0.5700 
 12 N       -9.4900    -1.6180     0.5900 N.am  1 <1>  -0.6600 
 13 C      -10.8470    -1.9660     1.1280 C.3   1 <1>   0.1400 
 14 C       -9.4530    -0.7010    -0.5900 C.3   1 <1>   0.1400 
 15 C      -11.9280    -2.0190     0.0210 C.3   1 <1>   0.0000 
 16 C      -10.7050     0.1770    -0.6390 C.3   1 <1>  -0.1600 
 17 C      -13.2720    -2.4470     0.6480 C.3   1 <1>   0.2000 
 18 C      -12.0090    -0.6410    -0.6940 C.3   1 <1>  -0.1600 
 19 C      -11.6420    -3.1840    -0.9500 C.3   1 <1>  -0.1600 
 20 O      -14.3160    -2.1420    -0.2350 O.3   1 <1>  -0.5600 
 21 C      -13.1870    -3.9720     0.7850 C.3   1 <1>  -0.1600 
 22 C      -12.1720    -4.4470    -0.2640 C.3   1 <1>  -0.1600 
 23 C      -15.5650    -1.9850     0.3600 C.3   1 <1>   0.0400 
 24 H       -2.6910    -3.4940    -2.1960 H     1 <1>   0.1500 
 25 H       -1.8790    -0.4530     0.6680 H     1 <1>   0.1500 
 26 H       -4.8330    -3.9910    -1.0730 H     1 <1>   0.1500 
 27 H       -4.0170    -0.9380     1.8020 H     1 <1>   0.1500 
 28 H       -6.1490    -3.8270     0.9950 H     1 <1>   0.0800 
 29 H       -5.7920    -2.6180     2.1880 H     1 <1>   0.0800 
 30 H       -7.0590    -2.0710    -0.5020 H     1 <1>   0.0800 
 31 H       -6.7410    -0.8710     0.7220 H     1 <1>   0.0800 
 32 H      -10.7970    -2.9140     1.6350 H     1 <1>   0.0800 
 33 H      -11.1200    -1.2240     1.8580 H     1 <1>   0.0800 
 34 H       -8.5860    -0.0660    -0.5360 H     1 <1>   0.0800 
 35 H       -9.3900    -1.2870    -1.4910 H     1 <1>   0.0800 
 36 H      -10.7110     0.7990     0.2390 H     1 <1>   0.0800 
 37 H      -10.6560     0.8290    -1.4930 H     1 <1>   0.0800 
 38 H      -13.4470    -1.9510     1.5890 H     1 <1>   0.0800 
 39 H      -12.3000    -0.7870    -1.7190 H     1 <1>   0.0800 
 40 H      -12.7820    -0.0460    -0.2390 H     1 <1>   0.0800 
 41 H      -12.2030    -3.0380    -1.8570 H     1 <1>   0.0800 
 42 H      -10.6030    -3.2820    -1.2040 H     1 <1>   0.0800 
 43 H      -12.8190    -4.2200     1.7650 H     1 <1>   0.0800 
 44 H      -14.1430    -4.4440     0.6500 H     1 <1>   0.0800 
 45 H      -11.3660    -4.9730     0.2180 H     1 <1>   0.0800 
 46 H      -12.6350    -5.1000    -0.9840 H     1 <1>   0.0800 
 47 H      -16.2810    -1.7880    -0.4180 H     1 <1>   0.0800 
 48 H      -15.5310    -1.1520     1.0400 H     1 <1>   0.0800 
 49 H      -15.8350    -2.8880     0.8780 H     1 <1>   0.0800 
@<TRIPOS>BOND
  1   1   2  1   
  2   2   3  ar  
  3   2   4  ar  
  4   3   5  ar  
  5   3  24  1   
  6   4   6  ar  
  7   4  25  1   
  8   5   7  ar  
  9   5  26  1   
 10   6   7  ar  
 11   6  27  1   
 12   7   8  1   
 13   8   9  1   
 14   8  28  1   
 15   8  29  1   
 16   9  10  1   
 17   9  30  1   
 18   9  31  1   
 19  10  11  2   
 20  10  12  am  
 21  12  13  1   
 22  12  14  1   
 23  13  15  1   
 24  13  32  1   
 25  13  33  1   
 26  14  16  1   
 27  14  34  1   
 28  14  35  1   
 29  15  17  1   
 30  15  18  1   
 31  15  19  1   
 32  16  18  1   
 33  16  36  1   
 34  16  37  1   
 35  17  20  1   
 36  17  21  1   
 37  17  38  1   
 38  18  39  1   
 39  18  40  1   
 40  19  22  1   
 41  19  41  1   
 42  19  42  1   
 43  20  23  1   
 44  21  22  1   
 45  21  43  1   
 46  21  44  1   
 47  22  45  1   
 48  22  46  1   
 49  23  47  1   
 50  23  48  1   
 51  23  49  1   
@<TRIPOS>SUBSTRUCTURE
  1 ****  10 GROUP 4 **** **** 0

# MOE 2024.06 (io_trps.svl 2023.06)
