@<TRIPOS>MOLECULE
NONAME
58 62 1 0 0 
SMALL
USER_CHARGES


@<TRIPOS>ATOM
  1 O       -0.9410    -1.5490     1.7770 O.2   1 <1>  -0.5700 
  2 C       -1.0380    -1.3700     0.5780 C.2   1 <1>   0.5440 
  3 N       -0.1990    -2.0620    -0.2510 N.am  1 <1>  -0.7300 
  4 C       -2.0160    -0.4410     0.0400 C.ar  1 <1>   0.0860 
  5 C        0.8670    -2.9860     0.2020 C.3   1 <1>   0.1400 
  6 C       -2.5320    -0.5730    -1.2530 C.ar  1 <1>  -0.1500 
  7 C       -2.4830     0.6310     0.8040 C.ar  1 <1>  -0.1500 
  8 C        0.2640    -4.3520     0.5640 C.3   1 <1>  -0.0800 
  9 C       -3.4530     0.3260    -1.7560 C.ar  1 <1>  -0.1500 
 10 C       -3.4050     1.5340     0.3080 C.ar  1 <1>  -0.1500 
 11 C       -0.2670    -5.0890    -0.6750 C.3   1 <1>   0.2000 
 12 C        1.2600    -5.4020     1.1070 C.3   1 <1>  -0.0800 
 13 C       -3.8970     1.3860    -0.9850 C.ar  1 <1>   0.0830 
 14 O        0.8540    -5.7900    -1.0640 O.3   1 <1>  -0.5600 
 15 C       -1.2080    -6.2340    -0.2770 C.3   1 <1>  -0.1600 
 16 C        1.1020    -6.5220     0.0840 C.3   1 <1>   0.2800 
 17 C        2.7670    -5.1030     1.0860 C.3   1 <1>   0.1400 
 18 O       -4.7970     2.2210    -1.5510 O.3   1 <1>  -0.3630 
 19 C       -0.2170    -7.2770     0.2520 C.3   1 <1>  -0.1600 
 20 C        2.4260    -7.2830     0.0480 C.3   1 <1>   0.1400 
 21 N        3.4210    -6.3690     0.6690 N.am  1 <1>  -0.6600 
 22 C       -5.3260     3.3260    -0.8510 C.3   1 <1>   0.0400 
 23 C        4.7660    -6.6190     0.6220 C.2   1 <1>   0.5690 
 24 O        5.1940    -7.6650     0.1940 O.2   1 <1>  -0.5700 
 25 C        5.7740    -5.5900     1.1170 C.3   1 <1>   0.0440 
 26 C        5.6940    -4.2690     0.3580 C.ar  1 <1>  -0.1430 
 27 C        5.5260    -3.0670     1.0320 C.ar  1 <1>   0.1600 
 28 C        5.7660    -4.2510    -1.0210 C.ar  1 <1>  -0.1500 
 29 N        5.4090    -1.8830     0.4540 N.ar  1 <1>  -0.6200 
 30 C        5.6570    -3.0240    -1.6390 C.ar  1 <1>  -0.1500 
 31 C        5.4800    -1.8890    -0.8670 C.ar  1 <1>   0.1600 
 32 H       -0.1750    -1.8180    -1.2420 H     1 <1>   0.3700 
 33 H        1.5940    -3.0900    -0.5850 H     1 <1>   0.0800 
 34 H        1.3530    -2.5620     1.0660 H     1 <1>   0.0800 
 35 H       -2.2170    -1.3930    -1.8720 H     1 <1>   0.1500 
 36 H       -2.1090     0.7500     1.8070 H     1 <1>   0.1500 
 37 H       -0.5260    -4.1960     1.2780 H     1 <1>   0.0800 
 38 H       -3.8410     0.2120    -2.7530 H     1 <1>   0.1500 
 39 H       -3.7290     2.3400     0.9380 H     1 <1>   0.1500 
 40 H       -0.6350    -4.4600    -1.4670 H     1 <1>   0.0800 
 41 H        0.9810    -5.7430     2.0880 H     1 <1>   0.0800 
 42 H       -1.9260    -5.9250     0.4620 H     1 <1>   0.0800 
 43 H       -1.7250    -6.6020    -1.1460 H     1 <1>   0.0800 
 44 H        3.1130    -4.7860     2.0540 H     1 <1>   0.0800 
 45 H        3.0090    -4.3570     0.3530 H     1 <1>   0.0800 
 46 H       -0.2200    -8.1600    -0.3610 H     1 <1>   0.0800 
 47 H       -0.4000    -7.5450     1.2780 H     1 <1>   0.0800 
 48 H        2.7030    -7.5340    -0.9610 H     1 <1>   0.0800 
 49 H        2.3610    -8.1780     0.6410 H     1 <1>   0.0800 
 50 H       -6.0170     3.8320    -1.5000 H     1 <1>   0.0800 
 51 H       -4.5210     3.9880    -0.5850 H     1 <1>   0.0800 
 52 H       -5.8390     2.9700     0.0250 H     1 <1>   0.0800 
 53 H        5.6090    -5.4360     2.1660 H     1 <1>   0.0800 
 54 H        6.7630    -5.9940     1.0010 H     1 <1>   0.0800 
 55 H        5.4780    -3.0760     2.1070 H     1 <1>   0.1500 
 56 H        5.8970    -5.1550    -1.5930 H     1 <1>   0.1500 
 57 H        5.7060    -2.9480    -2.7100 H     1 <1>   0.1500 
 58 H        5.3940    -0.9370    -1.3630 H     1 <1>   0.1500 
@<TRIPOS>BOND
  1   1   2  2   
  2   2   3  am  
  3   2   4  1   
  4   3   5  1   
  5   3  32  1   
  6   4   6  ar  
  7   4   7  ar  
  8   5   8  1   
  9   5  33  1   
 10   5  34  1   
 11   6   9  ar  
 12   6  35  1   
 13   7  10  ar  
 14   7  36  1   
 15   8  11  1   
 16   8  12  1   
 17   8  37  1   
 18   9  13  ar  
 19   9  38  1   
 20  10  13  ar  
 21  10  39  1   
 22  11  14  1   
 23  11  15  1   
 24  11  40  1   
 25  12  16  1   
 26  12  17  1   
 27  12  41  1   
 28  13  18  1   
 29  14  16  1   
 30  15  19  1   
 31  15  42  1   
 32  15  43  1   
 33  16  19  1   
 34  16  20  1   
 35  17  21  1   
 36  17  44  1   
 37  17  45  1   
 38  18  22  1   
 39  19  46  1   
 40  19  47  1   
 41  20  21  1   
 42  20  48  1   
 43  20  49  1   
 44  21  23  am  
 45  22  50  1   
 46  22  51  1   
 47  22  52  1   
 48  23  24  2   
 49  23  25  1   
 50  25  26  1   
 51  25  53  1   
 52  25  54  1   
 53  26  27  ar  
 54  26  28  ar  
 55  27  29  ar  
 56  27  55  1   
 57  28  30  ar  
 58  28  56  1   
 59  29  31  ar  
 60  30  31  ar  
 61  30  57  1   
 62  31  58  1   
@<TRIPOS>SUBSTRUCTURE
  1 ****   5 GROUP 4 **** **** 0

# MOE 2024.06 (io_trps.svl 2023.06)
