@<TRIPOS>MOLECULE
NONAME
46 48 1 0 0 
SMALL
USER_CHARGES


@<TRIPOS>ATOM
  1 O       -2.4500     0.4180    -2.4650 O.2   1 <1>  -0.5700 
  2 C       -2.0820     0.5930    -1.3200 C.2   1 <1>   0.5440 
  3 N       -1.8640    -0.5030    -0.5370 N.am  1 <1>  -0.7300 
  4 C       -1.9330     1.9290    -0.7760 C.ar  1 <1>   0.0860 
  5 C       -1.9990    -1.9130    -0.9680 C.3   1 <1>   0.2200 
  6 C       -0.7770     2.3780    -0.1180 C.ar  1 <1>  -0.1440 
  7 C       -2.9970     2.8230    -0.9000 C.ar  1 <1>  -0.1500 
  8 C       -3.2770    -2.5350    -0.4230 C.3   1 <1>  -0.0800 
  9 C       -0.9530    -2.7470    -0.2410 C.3   1 <1>   0.1200 
 10 C       -0.7240     3.6570     0.4130 C.ar  1 <1>  -0.1500 
 11 C        0.4560     1.4900     0.0200 C.3   1 <1>  -0.0970 
 12 C       -2.9380     4.0980    -0.3730 C.ar  1 <1>  -0.1500 
 13 C       -2.8730    -2.9750     0.9890 C.3   1 <1>   0.1200 
 14 C       -4.5340    -1.6460    -0.4770 C.3   1 <1>  -0.0170 
 15 O       -1.4750    -2.9490     1.0370 O.3   1 <1>  -0.5600 
 16 C       -1.8050     4.5250     0.2940 C.ar  1 <1>   0.0820 
 17 C       -5.7560    -2.4020     0.0190 C.ar  1 <1>  -0.1430 
 18 O       -1.8230     5.7830     0.7890 O.3   1 <1>  -0.3630 
 19 C       -6.2450    -2.2470     1.3000 C.ar  1 <1>  -0.1500 
 20 C       -6.4400    -3.2860    -0.7910 C.ar  1 <1>  -0.1500 
 21 C       -0.7140     6.3360     1.4620 C.3   1 <1>   0.0400 
 22 C       -7.3590    -2.9670     1.7000 C.ar  1 <1>   0.1600 
 23 C       -7.5440    -3.9570    -0.2930 C.ar  1 <1>   0.1600 
 24 N       -8.0190    -3.8210     0.9340 N.ar  1 <1>  -0.6200 
 25 H       -1.6430    -0.3860     0.4540 H     1 <1>   0.3700 
 26 H       -1.9170    -1.9950    -2.0390 H     1 <1>   0.0800 
 27 H       -3.8830     2.5050    -1.4220 H     1 <1>   0.1500 
 28 H       -3.4750    -3.4270    -0.9920 H     1 <1>   0.0800 
 29 H        0.0010    -2.2550    -0.1730 H     1 <1>   0.0800 
 30 H       -0.8390    -3.7100    -0.7080 H     1 <1>   0.0800 
 31 H        0.1680     3.9750     0.9190 H     1 <1>   0.1500 
 32 H        1.3300     2.0780     0.2360 H     1 <1>   0.0800 
 33 H        0.6390     0.9560    -0.8960 H     1 <1>   0.0800 
 34 H        0.3180     0.7820     0.8170 H     1 <1>   0.0800 
 35 H       -3.7700     4.7720    -0.4760 H     1 <1>   0.1500 
 36 H       -3.2140    -3.9730     1.2080 H     1 <1>   0.0800 
 37 H       -3.2360    -2.2940     1.7380 H     1 <1>   0.0800 
 38 H       -4.6990    -1.3240    -1.4910 H     1 <1>   0.0800 
 39 H       -4.3970    -0.7630     0.1220 H     1 <1>   0.0800 
 40 H       -5.7730    -1.5730     1.9910 H     1 <1>   0.1500 
 41 H       -6.1240    -3.4580    -1.8040 H     1 <1>   0.1500 
 42 H       -0.9670     7.3400     1.7520 H     1 <1>   0.0800 
 43 H        0.1280     6.3490     0.7930 H     1 <1>   0.0800 
 44 H       -0.5060     5.7440     2.3360 H     1 <1>   0.0800 
 45 H       -7.7260    -2.8340     2.7030 H     1 <1>   0.1500 
 46 H       -8.0650    -4.6430    -0.9400 H     1 <1>   0.1500 
@<TRIPOS>BOND
  1   1   2  2   
  2   2   3  am  
  3   2   4  1   
  4   3   5  1   
  5   3  25  1   
  6   4   6  ar  
  7   4   7  ar  
  8   5   8  1   
  9   5   9  1   
 10   5  26  1   
 11   6  10  ar  
 12   6  11  1   
 13   7  12  ar  
 14   7  27  1   
 15   8  13  1   
 16   8  14  1   
 17   8  28  1   
 18   9  15  1   
 19   9  29  1   
 20   9  30  1   
 21  10  16  ar  
 22  10  31  1   
 23  11  32  1   
 24  11  33  1   
 25  11  34  1   
 26  12  16  ar  
 27  12  35  1   
 28  13  15  1   
 29  13  36  1   
 30  13  37  1   
 31  14  17  1   
 32  14  38  1   
 33  14  39  1   
 34  16  18  1   
 35  17  19  ar  
 36  17  20  ar  
 37  18  21  1   
 38  19  22  ar  
 39  19  40  1   
 40  20  23  ar  
 41  20  41  1   
 42  21  42  1   
 43  21  43  1   
 44  21  44  1   
 45  22  24  ar  
 46  22  45  1   
 47  23  24  ar  
 48  23  46  1   
@<TRIPOS>SUBSTRUCTURE
  1 ****   3 GROUP 4 **** **** 0

# MOE 2024.06 (io_trps.svl 2023.06)
