@<TRIPOS>MOLECULE
NONAME
47 50 1 0 0 
SMALL
USER_CHARGES


@<TRIPOS>ATOM
  1 O        0.6640     0.1340     0.6300 O.3   1 <1>  -0.6800 
  2 C        1.2270    -0.4950    -0.4780 C.3   1 <1>   0.2000 
  3 C        1.9630    -1.7430     0.0050 C.3   1 <1>  -0.0800 
  4 C        2.3590     0.3850    -1.0140 C.3   1 <1>   0.3430 
  5 C        3.2870    -1.1870     0.5570 C.3   1 <1>   0.3430 
  6 C        2.1870    -2.7450    -1.1480 C.3   1 <1>  -0.0160 
  7 N        3.5130     0.1300    -0.1050 N.4   1 <1>  -0.9590 
  8 C        2.9900    -3.9500    -0.6900 C.ar  1 <1>   0.1670 
  9 C        3.6580     1.2430     0.8680 C.3   1 <1>   0.5230 
 10 N        4.2820    -3.8370    -0.7130 N.ar  1 <1>  -0.6200 
 11 C        2.3150    -5.1050    -0.2640 C.ar  1 <1>  -0.1500 
 12 C        4.2770     2.4300     0.1420 C.2   1 <1>   0.0060 
 13 C        5.0180    -4.9070    -0.3090 C.ar  1 <1>   0.3100 
 14 C        3.0270    -6.1870     0.1570 C.ar  1 <1>  -0.1500 
 15 N        4.9530     2.3120    -0.9610 N.2   1 <1>  -0.5650 
 16 N        4.1770     3.7090     0.5850 N.pl3 1 <1>   0.0480 
 17 C        4.4290    -6.1070     0.1460 C.ar  1 <1>   0.0000 
 18 C        6.4190    -4.8180    -0.3370 C.ar  1 <1>  -0.1500 
 19 C        5.3150     3.5740    -1.2540 C.2   1 <1>   0.0770 
 20 C        4.8500     4.4350    -0.3240 C.2   1 <1>  -0.3020 
 21 C        3.5000     4.2440     1.7840 C.3   1 <1>   0.0160 
 22 C        5.2630    -7.1640     0.5620 C.ar  1 <1>  -0.1500 
 23 C        7.2120    -5.8580     0.0710 C.ar  1 <1>  -0.1500 
 24 C        6.6260    -7.0430     0.5270 C.ar  1 <1>  -0.1500 
 25 H       -0.1730    -0.3050     0.8950 H     1 <1>   0.4000 
 26 H        0.4570    -0.6800    -1.2090 H     1 <1>   0.0800 
 27 H        1.4160    -2.2450     0.7840 H     1 <1>   0.0800 
 28 H        2.0790     1.4250    -1.0410 H     1 <1>   0.0800 
 29 H        2.6170     0.0670    -2.0110 H     1 <1>   0.0800 
 30 H        4.1140    -1.8530     0.3770 H     1 <1>   0.0800 
 31 H        3.1890    -1.0470     1.6210 H     1 <1>   0.0800 
 32 H        2.7140    -2.2790    -1.9620 H     1 <1>   0.0800 
 33 H        1.2380    -3.0790    -1.5300 H     1 <1>   0.0800 
 34 H        4.3840     0.1670    -0.6640 H     1 <1>   0.4500 
 35 H        2.6960     1.5060     1.2760 H     1 <1>   0.0800 
 36 H        4.3130     0.9480     1.6710 H     1 <1>   0.0800 
 37 H        1.2410    -5.1300    -0.2740 H     1 <1>   0.1500 
 38 H        2.5490    -7.0910     0.4910 H     1 <1>   0.1500 
 39 H        6.8540    -3.9030    -0.6930 H     1 <1>   0.1500 
 40 H        5.9000     3.8050    -2.1300 H     1 <1>   0.1500 
 41 H        4.9650     5.5030    -0.2680 H     1 <1>   0.1500 
 42 H        3.5570     5.3180     1.7770 H     1 <1>   0.0800 
 43 H        3.9850     3.8730     2.6680 H     1 <1>   0.0800 
 44 H        2.4670     3.9480     1.7790 H     1 <1>   0.0800 
 45 H        4.8080    -8.0740     0.9100 H     1 <1>   0.1500 
 46 H        8.2860    -5.7790     0.0450 H     1 <1>   0.1500 
 47 H        7.2610    -7.8520     0.8460 H     1 <1>   0.1500 
@<TRIPOS>BOND
  1   1   2  1   
  2   1  25  1   
  3   2   3  1   
  4   2   4  1   
  5   2  26  1   
  6   3   5  1   
  7   3   6  1   
  8   3  27  1   
  9   4   7  1   
 10   4  28  1   
 11   4  29  1   
 12   5   7  1   
 13   5  30  1   
 14   5  31  1   
 15   6   8  1   
 16   6  32  1   
 17   6  33  1   
 18   7   9  1   
 19   7  34  1   
 20   8  10  ar  
 21   8  11  ar  
 22   9  12  1   
 23   9  35  1   
 24   9  36  1   
 25  10  13  ar  
 26  11  14  ar  
 27  11  37  1   
 28  12  15  2   
 29  12  16  1   
 30  13  17  ar  
 31  13  18  ar  
 32  14  17  ar  
 33  14  38  1   
 34  15  19  1   
 35  16  20  1   
 36  16  21  1   
 37  17  22  ar  
 38  18  23  ar  
 39  18  39  1   
 40  19  20  2   
 41  19  40  1   
 42  20  41  1   
 43  21  42  1   
 44  21  43  1   
 45  21  44  1   
 46  22  24  ar  
 47  22  45  1   
 48  23  24  ar  
 49  23  46  1   
 50  24  47  1   
@<TRIPOS>SUBSTRUCTURE
  1 ****   5 GROUP 4 **** **** 0

# MOE 2024.06 (io_trps.svl 2023.06)
