@<TRIPOS>MOLECULE
NONAME
59 61 1 0 0 
SMALL
USER_CHARGES


@<TRIPOS>ATOM
  1 CL       0.7400    -1.0120     2.0430 Cl    1 <1>  -0.1770 
  2 C       -0.8340    -1.6880     1.6650 C.ar  1 <1>   0.1770 
  3 C       -1.9630    -1.1550     2.2760 C.ar  1 <1>  -0.1440 
  4 C       -0.9180    -2.7440     0.7650 C.ar  1 <1>  -0.1440 
  5 C       -3.2020    -1.6930     1.9670 C.ar  1 <1>  -0.1500 
  6 C       -1.8570    -0.0070     3.2690 C.3   1 <1>  -0.0960 
  7 C       -2.1670    -3.2680     0.4700 C.ar  1 <1>  -0.1500 
  8 C        0.3270    -3.3260     0.1130 C.3   1 <1>  -0.0960 
  9 C       -3.3050    -2.7320     1.0550 C.ar  1 <1>   0.0830 
 10 O       -4.5220    -3.2560     0.7770 O.3   1 <1>  -0.3630 
 11 C       -5.3150    -2.8250    -0.3370 C.3   1 <1>   0.3410 
 12 C       -6.6350    -3.6690    -0.4040 C.2   1 <1>   0.5690 
 13 C       -5.6210    -1.3240    -0.1310 C.3   1 <1>  -0.2400 
 14 C       -4.5270    -2.9910    -1.6500 C.3   1 <1>  -0.2400 
 15 O       -7.6190    -3.0920    -0.8200 O.2   1 <1>  -0.5700 
 16 N       -6.7130    -5.0130    -0.0480 N.am  1 <1>  -0.6600 
 17 C       -8.0010    -5.7650     0.0850 C.3   1 <1>   0.2200 
 18 C       -5.5280    -5.8670     0.2590 C.3   1 <1>   0.0600 
 19 C       -9.0190    -5.1200     1.0250 C.3   1 <1>  -0.1600 
 20 C       -8.7330    -5.9600    -1.2390 C.3   1 <1>  -0.1600 
 21 C      -10.3740    -5.7010     0.5970 C.3   1 <1>  -0.0800 
 22 C      -10.1870    -6.2460    -0.8400 C.3   1 <1>  -0.0800 
 23 C      -11.5230    -4.6880     0.7540 C.3   1 <1>   0.1400 
 24 C      -11.2050    -5.6880    -1.8520 C.3   1 <1>  -0.0990 
 25 N      -12.7220    -5.1680     0.0210 N.am  1 <1>  -0.6600 
 26 C      -12.5960    -5.6580    -1.2490 C.2   1 <1>   0.5690 
 27 C      -14.0330    -5.0370     0.7090 C.3   1 <1>   0.0600 
 28 O      -13.5290    -6.0610    -1.9020 O.2   1 <1>  -0.5700 
 29 H       -4.0960    -1.3160     2.4280 H     1 <1>   0.1500 
 30 H       -2.8260     0.2740     3.6400 H     1 <1>   0.0800 
 31 H       -1.4120     0.8490     2.7950 H     1 <1>   0.0800 
 32 H       -1.2450    -0.3000     4.1030 H     1 <1>   0.0800 
 33 H       -2.2660    -4.0930    -0.2100 H     1 <1>   0.1500 
 34 H        0.0770    -4.1340    -0.5500 H     1 <1>   0.0800 
 35 H        0.9960    -3.6980     0.8680 H     1 <1>   0.0800 
 36 H        0.8340    -2.5650    -0.4540 H     1 <1>   0.0800 
 37 H       -6.2400    -0.9600    -0.9310 H     1 <1>   0.0800 
 38 H       -4.7210    -0.7370    -0.1270 H     1 <1>   0.0800 
 39 H       -6.1530    -1.1820     0.7920 H     1 <1>   0.0800 
 40 H       -5.1560    -2.7140    -2.4770 H     1 <1>   0.0800 
 41 H       -4.2270    -4.0120    -1.7930 H     1 <1>   0.0800 
 42 H       -3.6620    -2.3530    -1.6690 H     1 <1>   0.0800 
 43 H       -7.7990    -6.7460     0.4820 H     1 <1>   0.0800 
 44 H       -5.6860    -6.8690    -0.1020 H     1 <1>   0.0800 
 45 H       -5.3720    -5.8960     1.3240 H     1 <1>   0.0800 
 46 H       -4.6410    -5.4900    -0.2120 H     1 <1>   0.0800 
 47 H       -8.7970    -5.3510     2.0510 H     1 <1>   0.0800 
 48 H       -9.0300    -4.0540     0.9030 H     1 <1>   0.0800 
 49 H       -8.6850    -5.0630    -1.8280 H     1 <1>   0.0800 
 50 H       -8.3120    -6.7730    -1.8020 H     1 <1>   0.0800 
 51 H      -10.5930    -6.5400     1.2360 H     1 <1>   0.0800 
 52 H      -10.3220    -7.3140    -0.7950 H     1 <1>   0.0800 
 53 H      -11.2350    -3.7350     0.3440 H     1 <1>   0.0800 
 54 H      -11.7510    -4.5540     1.7980 H     1 <1>   0.0800 
 55 H      -11.2100    -6.2870    -2.7430 H     1 <1>   0.0800 
 56 H      -10.9510    -4.6800    -2.1250 H     1 <1>   0.0800 
 57 H      -14.0290    -5.6220     1.6120 H     1 <1>   0.0800 
 58 H      -14.8290    -5.3880     0.0740 H     1 <1>   0.0800 
 59 H      -14.2150    -4.0050     0.9520 H     1 <1>   0.0800 
@<TRIPOS>BOND
  1   1   2  1   
  2   2   3  ar  
  3   2   4  ar  
  4   3   5  ar  
  5   3   6  1   
  6   4   7  ar  
  7   4   8  1   
  8   5   9  ar  
  9   5  29  1   
 10   6  30  1   
 11   6  31  1   
 12   6  32  1   
 13   7   9  ar  
 14   7  33  1   
 15   8  34  1   
 16   8  35  1   
 17   8  36  1   
 18   9  10  1   
 19  10  11  1   
 20  11  12  1   
 21  11  13  1   
 22  11  14  1   
 23  12  15  2   
 24  12  16  am  
 25  13  37  1   
 26  13  38  1   
 27  13  39  1   
 28  14  40  1   
 29  14  41  1   
 30  14  42  1   
 31  16  17  1   
 32  16  18  1   
 33  17  19  1   
 34  17  20  1   
 35  17  43  1   
 36  18  44  1   
 37  18  45  1   
 38  18  46  1   
 39  19  21  1   
 40  19  47  1   
 41  19  48  1   
 42  20  22  1   
 43  20  49  1   
 44  20  50  1   
 45  21  22  1   
 46  21  23  1   
 47  21  51  1   
 48  22  24  1   
 49  22  52  1   
 50  23  25  1   
 51  23  53  1   
 52  23  54  1   
 53  24  26  1   
 54  24  55  1   
 55  24  56  1   
 56  25  26  am  
 57  25  27  1   
 58  26  28  2   
 59  27  57  1   
 60  27  58  1   
 61  27  59  1   
@<TRIPOS>SUBSTRUCTURE
  1 ****  12 GROUP 4 **** **** 0

# MOE 2024.06 (io_trps.svl 2023.06)
