@<TRIPOS>MOLECULE
NONAME
67 70 1 0 0 
SMALL
USER_CHARGES


@<TRIPOS>ATOM
  1 O       -1.2040     0.2990    -0.0170 O.3   1 <1>  -0.3630 
  2 C       -1.8600     1.1650     0.8040 C.ar  1 <1>   0.0820 
  3 C        0.0140     0.6360    -0.6620 C.3   1 <1>   0.1200 
  4 C       -2.8140     0.6390     1.6740 C.ar  1 <1>  -0.1440 
  5 C       -1.6170     2.5360     0.7990 C.ar  1 <1>  -0.1500 
  6 C        1.1420     0.7560     0.3740 C.3   1 <1>   0.1100 
  7 C       -3.4850     1.4830     2.5470 C.ar  1 <1>  -0.1500 
  8 C       -3.1330    -0.8460     1.6920 C.3   1 <1>   0.4870 
  9 C       -2.2990     3.3680     1.6680 C.ar  1 <1>  -0.1500 
 10 N        2.4550     0.9370    -0.2770 N.3   1 <1>  -0.8100 
 11 C       -3.2290     2.8410     2.5440 C.ar  1 <1>  -0.1500 
 12 N       -3.4730    -1.3250     0.3220 N.4   1 <1>  -0.9590 
 13 C        2.6340     2.3070    -0.8280 C.3   1 <1>   0.1100 
 14 C        3.5570     0.6260     0.6700 C.3   1 <1>   0.1100 
 15 C       -4.8980    -1.1130    -0.0700 C.3   1 <1>   0.4230 
 16 C       -3.0280    -2.7430     0.1620 C.3   1 <1>   0.2630 
 17 C        4.0330     2.5210    -1.4610 C.3   1 <1>   0.3430 
 18 C        4.9610     0.7970     0.0350 C.3   1 <1>   0.3430 
 19 C       -5.1840    -1.6390    -1.4760 C.3   1 <1>  -0.1600 
 20 C       -5.2880     0.3610    -0.1570 C.3   1 <1>  -0.1600 
 21 N        4.8630     1.2740    -1.3840 N.4   1 <1>  -0.9590 
 22 C       -6.4230    -0.8720    -1.9520 C.3   1 <1>  -0.0800 
 23 C       -6.4840     0.4130    -1.1140 C.3   1 <1>  -0.0800 
 24 C        6.1870     1.3990    -2.0580 C.3   1 <1>   0.2630 
 25 C       -7.7450    -1.6150    -1.7030 C.3   1 <1>  -0.1600 
 26 C       -7.8460     0.4060    -0.4050 C.3   1 <1>  -0.1600 
 27 C       -8.7050    -0.5320    -1.2380 C.3   1 <1>   0.2000 
 28 O       -9.7060    -1.0780    -0.4670 O.3   1 <1>  -0.6800 
 29 H        0.2430    -0.1650    -1.3430 H     1 <1>   0.0800 
 30 H       -0.1250     1.5390    -1.2260 H     1 <1>   0.0800 
 31 H       -0.9080     2.9840     0.1300 H     1 <1>   0.1500 
 32 H        1.1580    -0.1580     0.9440 H     1 <1>   0.0800 
 33 H        0.9510     1.5730     1.0500 H     1 <1>   0.0800 
 34 H       -4.2150     1.0980     3.2400 H     1 <1>   0.1500 
 35 H       -3.9460    -1.0470     2.3700 H     1 <1>   0.0800 
 36 H       -2.2590    -1.3640     2.0510 H     1 <1>   0.0800 
 37 H       -2.1070     4.4280     1.6650 H     1 <1>   0.1500 
 38 H       -3.7530     3.4940     3.2230 H     1 <1>   0.1500 
 39 H       -2.8880    -0.7290    -0.2900 H     1 <1>   0.4500 
 40 H        1.8910     2.4950    -1.5830 H     1 <1>   0.0800 
 41 H        2.4910     3.0370    -0.0490 H     1 <1>   0.0800 
 42 H        3.4860     1.2630     1.5360 H     1 <1>   0.0800 
 43 H        3.4590    -0.3910     1.0110 H     1 <1>   0.0800 
 44 H       -5.5570    -1.6090     0.6250 H     1 <1>   0.0800 
 45 H       -3.6120    -3.3940     0.7920 H     1 <1>   0.0800 
 46 H       -1.9880    -2.8400     0.4310 H     1 <1>   0.0800 
 47 H       -3.1410    -3.0600    -0.8620 H     1 <1>   0.0800 
 48 H        4.5330     3.3270    -0.9490 H     1 <1>   0.0800 
 49 H        3.9090     2.8150    -2.4900 H     1 <1>   0.0800 
 50 H        5.4750    -0.1490     0.0680 H     1 <1>   0.0800 
 51 H        5.5300     1.4980     0.6220 H     1 <1>   0.0800 
 52 H       -4.3660    -1.3910    -2.1310 H     1 <1>   0.0800 
 53 H       -5.3480    -2.7010    -1.4930 H     1 <1>   0.0800 
 54 H       -5.5360     0.7770     0.8020 H     1 <1>   0.0800 
 55 H       -4.4840     0.9280    -0.5950 H     1 <1>   0.0800 
 56 H        4.2820     0.5570    -1.8470 H     1 <1>   0.4500 
 57 H       -6.3430    -0.6270    -2.9990 H     1 <1>   0.0800 
 58 H       -6.4190     1.2770    -1.7560 H     1 <1>   0.0800 
 59 H        6.7890     2.1470    -1.5680 H     1 <1>   0.0800 
 60 H        6.0560     1.6810    -3.0900 H     1 <1>   0.0800 
 61 H        6.7130     0.4580    -2.0260 H     1 <1>   0.0800 
 62 H       -7.6270    -2.3520    -0.9290 H     1 <1>   0.0800 
 63 H       -8.1040    -2.0880    -2.6000 H     1 <1>   0.0800 
 64 H       -8.2750     1.3930    -0.3710 H     1 <1>   0.0800 
 65 H       -7.7520     0.0210     0.5950 H     1 <1>   0.0800 
 66 H       -9.1470    -0.0160    -2.0750 H     1 <1>   0.0800 
 67 H       -9.3370    -1.5340     0.3090 H     1 <1>   0.4000 
@<TRIPOS>BOND
  1   1   2  1   
  2   1   3  1   
  3   2   4  ar  
  4   2   5  ar  
  5   3   6  1   
  6   3  29  1   
  7   3  30  1   
  8   4   7  ar  
  9   4   8  1   
 10   5   9  ar  
 11   5  31  1   
 12   6  10  1   
 13   6  32  1   
 14   6  33  1   
 15   7  11  ar  
 16   7  34  1   
 17   8  12  1   
 18   8  35  1   
 19   8  36  1   
 20   9  11  ar  
 21   9  37  1   
 22  10  13  1   
 23  10  14  1   
 24  11  38  1   
 25  12  15  1   
 26  12  16  1   
 27  12  39  1   
 28  13  17  1   
 29  13  40  1   
 30  13  41  1   
 31  14  18  1   
 32  14  42  1   
 33  14  43  1   
 34  15  19  1   
 35  15  20  1   
 36  15  44  1   
 37  16  45  1   
 38  16  46  1   
 39  16  47  1   
 40  17  21  1   
 41  17  48  1   
 42  17  49  1   
 43  18  21  1   
 44  18  50  1   
 45  18  51  1   
 46  19  22  1   
 47  19  52  1   
 48  19  53  1   
 49  20  23  1   
 50  20  54  1   
 51  20  55  1   
 52  21  24  1   
 53  21  56  1   
 54  22  23  1   
 55  22  25  1   
 56  22  57  1   
 57  23  26  1   
 58  23  58  1   
 59  24  59  1   
 60  24  60  1   
 61  24  61  1   
 62  25  27  1   
 63  25  62  1   
 64  25  63  1   
 65  26  27  1   
 66  26  64  1   
 67  26  65  1   
 68  27  28  1   
 69  27  66  1   
 70  28  67  1   
@<TRIPOS>SUBSTRUCTURE
  1 ****   1 GROUP 4 **** **** 0

# MOE 2024.06 (io_trps.svl 2023.06)
