@<TRIPOS>MOLECULE
NONAME
47 50 1 0 0 
SMALL
USER_CHARGES


@<TRIPOS>ATOM
  1 O       -0.7020     0.2550     1.0710 O.2   1 <1>  -0.5700 
  2 C       -1.5670     0.8020     0.4320 C.2   1 <1>   0.5690 
  3 N       -2.5830     0.0930    -0.1410 N.am  1 <1>  -0.6600 
  4 C       -1.5140     2.3100     0.2690 C.3   1 <1>  -0.0990 
  5 C       -3.7380     0.6320    -0.9060 C.3   1 <1>   0.1400 
  6 C       -2.6940    -1.3830    -0.0170 C.3   1 <1>   0.1400 
  7 C       -0.2250     2.9090     0.8490 C.3   1 <1>   0.0960 
  8 C       -4.7820    -0.4810    -0.8440 C.3   1 <1>   0.2000 
  9 C       -3.9420    -1.7660    -0.8260 C.3   1 <1>  -0.0800 
 10 N       -0.2080     4.3700     0.6540 N.pl3 1 <1>   0.0480 
 11 O       -5.4720    -0.3550     0.3530 O.3   1 <1>  -0.6800 
 12 C       -4.6860    -3.0090    -0.2920 C.3   1 <1>  -0.0170 
 13 C       -0.6920     5.3230     1.4510 C.2   1 <1>   0.0370 
 14 C        0.2760     5.0680    -0.3740 C.2   1 <1>   0.0360 
 15 C       -3.9500    -4.3520    -0.3910 C.ar  1 <1>  -0.1440 
 16 N       -0.5230     6.4980     0.9510 N.2   1 <1>  -0.3380 
 17 N        0.0980     6.3340    -0.2200 N.2   1 <1>  -0.3380 
 18 C       -4.4890    -5.4950     0.2510 C.ar  1 <1>   0.0000 
 19 C       -2.7840    -4.5270    -1.0850 C.ar  1 <1>  -0.1500 
 20 C       -3.7760    -6.7150     0.1500 C.ar  1 <1>   0.3100 
 21 C       -5.7010    -5.5020     0.9820 C.ar  1 <1>  -0.1500 
 22 C       -2.1610    -5.7800    -1.1250 C.ar  1 <1>   0.1600 
 23 N       -2.6160    -6.8400    -0.5390 N.ar  1 <1>  -0.6200 
 24 C       -4.2860    -7.8590     0.7840 C.ar  1 <1>  -0.1500 
 25 C       -6.1720    -6.6360     1.5880 C.ar  1 <1>  -0.1500 
 26 C       -5.4570    -7.8310     1.4910 C.ar  1 <1>  -0.1500 
 27 H       -1.5740     2.5410    -0.7780 H     1 <1>   0.0800 
 28 H       -2.3630     2.7340     0.7730 H     1 <1>   0.0800 
 29 H       -4.1160     1.5500    -0.4880 H     1 <1>   0.0800 
 30 H       -3.4380     0.7940    -1.9260 H     1 <1>   0.0800 
 31 H       -1.8060    -1.8590    -0.3940 H     1 <1>   0.0800 
 32 H       -2.8140    -1.6400     1.0230 H     1 <1>   0.0800 
 33 H        0.6340     2.4810     0.3630 H     1 <1>   0.0800 
 34 H       -0.1580     2.6960     1.9020 H     1 <1>   0.0800 
 35 H       -5.4910    -0.4430    -1.6530 H     1 <1>   0.0800 
 36 H       -3.6410    -1.9520    -1.8410 H     1 <1>   0.0800 
 37 H       -4.8280    -0.2850     1.0860 H     1 <1>   0.4000 
 38 H       -5.6170    -3.1020    -0.8230 H     1 <1>   0.0800 
 39 H       -4.9220    -2.8360     0.7430 H     1 <1>   0.0800 
 40 H       -1.1660     5.1220     2.3950 H     1 <1>   0.1500 
 41 H        0.7530     4.6160    -1.2240 H     1 <1>   0.1500 
 42 H       -2.3000    -3.7360    -1.6220 H     1 <1>   0.1500 
 43 H       -6.2760    -4.6000     1.0690 H     1 <1>   0.1500 
 44 H       -1.2430    -5.8660    -1.6800 H     1 <1>   0.1500 
 45 H       -3.7190    -8.7670     0.6930 H     1 <1>   0.1500 
 46 H       -7.0950    -6.6230     2.1420 H     1 <1>   0.1500 
 47 H       -5.8360    -8.7160     1.9720 H     1 <1>   0.1500 
@<TRIPOS>BOND
  1   1   2  2   
  2   2   3  am  
  3   2   4  1   
  4   3   5  1   
  5   3   6  1   
  6   4   7  1   
  7   4  27  1   
  8   4  28  1   
  9   5   8  1   
 10   5  29  1   
 11   5  30  1   
 12   6   9  1   
 13   6  31  1   
 14   6  32  1   
 15   7  10  1   
 16   7  33  1   
 17   7  34  1   
 18   8   9  1   
 19   8  11  1   
 20   8  35  1   
 21   9  12  1   
 22   9  36  1   
 23  10  13  1   
 24  10  14  1   
 25  11  37  1   
 26  12  15  1   
 27  12  38  1   
 28  12  39  1   
 29  13  16  2   
 30  13  40  1   
 31  14  17  2   
 32  14  41  1   
 33  15  18  ar  
 34  15  19  ar  
 35  16  17  1   
 36  18  20  ar  
 37  18  21  ar  
 38  19  22  ar  
 39  19  42  1   
 40  20  23  ar  
 41  20  24  ar  
 42  21  25  ar  
 43  21  43  1   
 44  22  23  ar  
 45  22  44  1   
 46  24  26  ar  
 47  24  45  1   
 48  25  26  ar  
 49  25  46  1   
 50  26  47  1   
@<TRIPOS>SUBSTRUCTURE
  1 ****   6 GROUP 4 **** **** 0

# MOE 2024.06 (io_trps.svl 2023.06)
