@<TRIPOS>MOLECULE
NONAME
40 41 1 0 0 
SMALL
USER_CHARGES


@<TRIPOS>ATOM
  1 O       -0.3960     0.2940    -0.0390 O.2   1 <1>  -0.5700 
  2 C       -1.4750     0.8380    -0.0670 C.2   1 <1>   0.5690 
  3 N       -2.6330     0.1150    -0.1070 N.am  1 <1>  -0.6600 
  4 C       -1.5470     2.3540    -0.0640 C.3   1 <1>  -0.0990 
  5 C       -4.0130     0.6560    -0.1890 C.3   1 <1>   0.1400 
  6 C       -2.6500    -1.3670    -0.0730 C.3   1 <1>   0.1400 
  7 C       -0.1790     3.0030     0.1300 C.3   1 <1>   0.1200 
  8 C       -4.9010    -0.5700    -0.4020 C.3   1 <1>   0.2000 
  9 C       -4.1110    -1.7440     0.1720 C.3   1 <1>  -0.0800 
 10 O       -0.3580     4.3820     0.1390 O.3   1 <1>  -0.5600 
 11 O       -6.1150    -0.4420     0.2520 O.3   1 <1>  -0.6800 
 12 C       -4.5060    -3.0990    -0.4340 C.3   1 <1>   0.0210 
 13 C        0.8230     5.0980     0.3020 C.3   1 <1>   0.0400 
 14 C       -3.6050    -4.2070     0.0780 C.2   1 <1>   0.1080 
 15 N       -3.4650    -4.4730     1.3390 N.2   1 <1>  -0.7070 
 16 C       -2.8310    -5.0380    -0.7240 C.2   1 <1>  -0.1500 
 17 N       -2.5870    -5.4930     1.3760 N.pl3 1 <1>   0.3000 
 18 C       -2.1880    -5.8530     0.1380 C.2   1 <1>  -0.3320 
 19 C       -1.2000    -6.9680    -0.1480 C.3   1 <1>  -0.0600 
 20 H       -1.9560     2.6790    -1.0010 H     1 <1>   0.0800 
 21 H       -2.1920     2.6670     0.7350 H     1 <1>   0.0800 
 22 H       -4.2560     1.1470     0.7380 H     1 <1>   0.0800 
 23 H       -4.1050     1.3410    -1.0130 H     1 <1>   0.0800 
 24 H       -2.3040    -1.7420    -1.0210 H     1 <1>   0.0800 
 25 H       -2.0110    -1.7430     0.7110 H     1 <1>   0.0800 
 26 H        0.4830     2.7400    -0.6780 H     1 <1>   0.0800 
 27 H        0.2540     2.7000     1.0700 H     1 <1>   0.0800 
 28 H       -5.0920    -0.7000    -1.4540 H     1 <1>   0.0800 
 29 H       -4.2480    -1.7840     1.2390 H     1 <1>   0.0800 
 30 H       -5.9850    -0.4970     1.2190 H     1 <1>   0.4000 
 31 H       -4.4440    -3.0580    -1.5060 H     1 <1>   0.0800 
 32 H       -5.5220    -3.3300    -0.1650 H     1 <1>   0.0800 
 33 H        0.5820     6.1470     0.2960 H     1 <1>   0.0800 
 34 H        1.4900     4.8740    -0.5120 H     1 <1>   0.0800 
 35 H        1.2710     4.8340     1.2440 H     1 <1>   0.0800 
 36 H       -2.7750    -5.0150    -1.7980 H     1 <1>   0.1500 
 37 H       -2.2820    -5.9190     2.2590 H     1 <1>   0.2700 
 38 H       -1.0450    -7.0610    -1.2090 H     1 <1>   0.0800 
 39 H       -1.5760    -7.9040     0.2260 H     1 <1>   0.0800 
 40 H       -0.2540    -6.7570     0.3180 H     1 <1>   0.0800 
@<TRIPOS>BOND
  1   1   2  2   
  2   2   3  am  
  3   2   4  1   
  4   3   5  1   
  5   3   6  1   
  6   4   7  1   
  7   4  20  1   
  8   4  21  1   
  9   5   8  1   
 10   5  22  1   
 11   5  23  1   
 12   6   9  1   
 13   6  24  1   
 14   6  25  1   
 15   7  10  1   
 16   7  26  1   
 17   7  27  1   
 18   8   9  1   
 19   8  11  1   
 20   8  28  1   
 21   9  12  1   
 22   9  29  1   
 23  10  13  1   
 24  11  30  1   
 25  12  14  1   
 26  12  31  1   
 27  12  32  1   
 28  13  33  1   
 29  13  34  1   
 30  13  35  1   
 31  14  15  2   
 32  14  16  1   
 33  15  17  1   
 34  16  18  2   
 35  16  36  1   
 36  17  18  1   
 37  17  37  1   
 38  18  19  1   
 39  19  38  1   
 40  19  39  1   
 41  19  40  1   
@<TRIPOS>SUBSTRUCTURE
  1 ****   6 GROUP 4 **** **** 0

# MOE 2024.06 (io_trps.svl 2023.06)
