@<TRIPOS>MOLECULE
NONAME
49 52 1 0 0 
SMALL
USER_CHARGES


@<TRIPOS>ATOM
  1 CL      -0.1740    -0.3520     1.3550 Cl    1 <1>  -0.1400 
  2 C       -1.7700    -1.0250     1.1460 C.2   1 <1>   0.1400 
  3 C       -2.7530    -0.3070     0.5250 C.2   1 <1>   0.1910 
  4 C       -2.0220    -2.3120     1.6270 C.2   1 <1>  -0.1500 
  5 N       -4.0200    -0.8350     0.3560 N.pl3 1 <1>  -0.5760 
  6 C       -3.2820    -2.8260     1.4540 C.2   1 <1>  -0.1800 
  7 C       -5.0250    -0.1020    -0.2800 C.2   1 <1>   0.9370 
  8 C       -4.2910    -2.0850     0.8140 C.cat 1 <1>   0.7390 
  9 O       -4.7990     1.0160    -0.6730 O.2   1 <1>  -0.5700 
 10 C       -6.3080    -0.6810    -0.4480 C.2   1 <1>  -0.1360 
 11 N       -5.5400    -2.5970     0.6430 N.pl3 1 <1>  -0.6450 
 12 C       -6.5790    -1.9220     0.0120 C.2   1 <1>   0.2030 
 13 C       -7.9500    -2.6360    -0.1300 C.3   1 <1>   0.4810 
 14 N       -9.1080    -1.7540    -0.5210 N.4   1 <1>  -0.9590 
 15 C       -9.5030    -0.7890     0.5580 C.3   1 <1>   0.3430 
 16 C      -10.2880    -2.5940    -0.9090 C.3   1 <1>   0.3430 
 17 C      -10.5820     0.1520     0.0400 C.3   1 <1>  -0.1600 
 18 C      -11.3940    -1.7020    -1.4540 C.3   1 <1>  -0.1600 
 19 C      -11.8040    -0.6280    -0.4500 C.3   1 <1>   0.4180 
 20 O      -12.6140     0.2460    -1.1730 O.3   1 <1>  -0.5600 
 21 C      -12.5720    -1.2510     0.7150 C.2   1 <1>  -0.2880 
 22 C      -13.4770     1.0870    -0.4550 C.3   1 <1>   0.1200 
 23 C      -13.7970    -0.8670     1.0800 C.2   1 <1>  -0.2760 
 24 C      -14.4950     0.2640     0.3450 C.3   1 <1>  -0.0220 
 25 C      -14.6000    -1.4930     2.2070 C.3   1 <1>  -0.1020 
 26 H       -2.5380     0.6870     0.1590 H     1 <1>   0.1500 
 27 H       -1.2300    -2.8600     2.1140 H     1 <1>   0.1500 
 28 H       -3.5020    -3.8150     1.8140 H     1 <1>   0.1500 
 29 H       -7.0150    -0.0570    -0.9610 H     1 <1>   0.1500 
 30 H       -5.6690    -3.5500     1.0090 H     1 <1>   0.4500 
 31 H       -8.1860    -3.1130     0.8070 H     1 <1>   0.0800 
 32 H       -7.8410    -3.4160    -0.8670 H     1 <1>   0.0800 
 33 H       -8.8730    -1.2140    -1.3660 H     1 <1>   0.4500 
 34 H       -8.6540    -0.2040     0.8750 H     1 <1>   0.0800 
 35 H       -9.8810    -1.3240     1.4150 H     1 <1>   0.0800 
 36 H      -10.6570    -3.1400    -0.0540 H     1 <1>   0.0800 
 37 H      -10.0090    -3.3070    -1.6690 H     1 <1>   0.0800 
 38 H      -10.1890     0.7540    -0.7600 H     1 <1>   0.0800 
 39 H      -10.8770     0.8080     0.8390 H     1 <1>   0.0800 
 40 H      -12.2550    -2.3060    -1.6840 H     1 <1>   0.0800 
 41 H      -11.0650    -1.2410    -2.3680 H     1 <1>   0.0800 
 42 H      -12.0560    -2.0420     1.2250 H     1 <1>   0.1500 
 43 H      -13.9850     1.7210    -1.1610 H     1 <1>   0.0800 
 44 H      -12.8910     1.7050     0.2020 H     1 <1>   0.0800 
 45 H      -15.2400    -0.1370    -0.3190 H     1 <1>   0.0800 
 46 H      -14.9880     0.9160     1.0440 H     1 <1>   0.0800 
 47 H      -14.8250    -0.7570     2.9590 H     1 <1>   0.0800 
 48 H      -14.0510    -2.2940     2.6690 H     1 <1>   0.0800 
 49 H      -15.5240    -1.8900     1.8260 H     1 <1>   0.0800 
@<TRIPOS>BOND
  1   1   2  1   
  2   2   3  2   
  3   2   4  1   
  4   3   5  1   
  5   3  26  1   
  6   4   6  2   
  7   4  27  1   
  8   5   7  1   
  9   5   8  ar  
 10   6   8  1   
 11   6  28  1   
 12   7   9  2   
 13   7  10  1   
 14   8  11  ar  
 15  10  12  2   
 16  10  29  1   
 17  11  12  1   
 18  11  30  1   
 19  12  13  1   
 20  13  14  1   
 21  13  31  1   
 22  13  32  1   
 23  14  15  1   
 24  14  16  1   
 25  14  33  1   
 26  15  17  1   
 27  15  34  1   
 28  15  35  1   
 29  16  18  1   
 30  16  36  1   
 31  16  37  1   
 32  17  19  1   
 33  17  38  1   
 34  17  39  1   
 35  18  19  1   
 36  18  40  1   
 37  18  41  1   
 38  19  20  1   
 39  19  21  1   
 40  20  22  1   
 41  21  23  2   
 42  21  42  1   
 43  22  24  1   
 44  22  43  1   
 45  22  44  1   
 46  23  24  1   
 47  23  25  1   
 48  24  45  1   
 49  24  46  1   
 50  25  47  1   
 51  25  48  1   
 52  25  49  1   
@<TRIPOS>SUBSTRUCTURE
  1 ****  14 GROUP 4 **** **** 0

# MOE 2024.06 (io_trps.svl 2023.06)
