@<TRIPOS>MOLECULE
NONAME
48 50 1 0 0 
SMALL
USER_CHARGES


@<TRIPOS>ATOM
  1 O       -1.1720    -2.1600    -0.2290 O.2   1 <1>  -0.5700 
  2 C       -1.3530    -1.0100    -0.5550 C.2   1 <1>   0.5690 
  3 N       -1.4100    -0.6450    -1.8630 N.am  1 <1>  -0.7300 
  4 C       -1.6460     0.0330     0.5200 C.3   1 <1>  -0.0190 
  5 C       -1.4330    -1.5870    -3.0100 C.3   1 <1>   0.1400 
  6 C       -3.1070     0.5120     0.4170 C.3   1 <1>  -0.1600 
  7 C       -0.6550     1.2220     0.4960 C.3   1 <1>  -0.1600 
  8 C       -2.8600    -1.7480    -3.5610 C.3   1 <1>   0.0200 
  9 C       -3.5060     1.4460     1.5760 C.3   1 <1>   0.2000 
 10 C       -1.2300     2.5150     1.1110 C.3   1 <1>  -0.1600 
 11 C       -3.9090    -2.0220    -2.4910 C.2   1 <1>   0.0060 
 12 O       -4.4540     2.3670     1.0920 O.3   1 <1>  -0.5600 
 13 C       -2.2970     2.2170     2.1690 C.3   1 <1>   0.2000 
 14 N       -3.7040    -2.7640    -1.4080 N.pl3 1 <1>   0.0330 
 15 N       -5.1010    -1.5370    -2.4980 N.2   1 <1>  -0.3380 
 16 C       -5.7330     1.8460     0.8790 C.3   1 <1>   0.0400 
 17 O       -2.7340     3.4200     2.6820 O.3   1 <1>  -0.6800 
 18 C       -4.8470    -2.6810    -0.7210 C.2   1 <1>   0.1330 
 19 N       -5.7000    -1.9540    -1.3830 N.2   1 <1>  -0.3380 
 20 C       -5.0630    -3.2830     0.5740 C.ar  1 <1>   0.0530 
 21 C       -6.3530    -3.4310     1.0860 C.ar  1 <1>   0.1600 
 22 C       -4.0150    -3.7300     1.3720 C.ar  1 <1>  -0.1500 
 23 N       -6.6690    -3.9600     2.2590 N.ar  1 <1>  -0.6200 
 24 C       -4.3230    -4.2850     2.5950 C.ar  1 <1>  -0.1500 
 25 C       -5.6470    -4.3770     2.9860 C.ar  1 <1>   0.1600 
 26 H       -1.6540     0.3250    -2.0840 H     1 <1>   0.3700 
 27 H       -1.5390    -0.4620     1.4700 H     1 <1>   0.0800 
 28 H       -0.7810    -1.2210    -3.7850 H     1 <1>   0.0800 
 29 H       -1.0600    -2.5470    -2.6930 H     1 <1>   0.0800 
 30 H       -3.7640    -0.3380     0.4200 H     1 <1>   0.0800 
 31 H       -3.2360     1.0310    -0.5170 H     1 <1>   0.0800 
 32 H        0.2290     0.9330     1.0390 H     1 <1>   0.0800 
 33 H       -0.3470     1.4410    -0.5110 H     1 <1>   0.0800 
 34 H       -2.8730    -2.5540    -4.2720 H     1 <1>   0.0800 
 35 H       -3.1330    -0.8520    -4.0890 H     1 <1>   0.0800 
 36 H       -3.9570     0.8780     2.3720 H     1 <1>   0.0800 
 37 H       -1.6830     3.1020     0.3310 H     1 <1>   0.0800 
 38 H       -0.4330     3.0930     1.5480 H     1 <1>   0.0800 
 39 H       -1.8540     1.6560     2.9740 H     1 <1>   0.0800 
 40 H       -2.8230    -3.1890    -1.1030 H     1 <1>   0.2700 
 41 H       -6.3740     2.6510     0.5650 H     1 <1>   0.0800 
 42 H       -6.1060     1.4260     1.7980 H     1 <1>   0.0800 
 43 H       -5.6990     1.0960     0.1080 H     1 <1>   0.0800 
 44 H       -3.5320     3.6570     2.1550 H     1 <1>   0.4000 
 45 H       -7.1740    -3.0870     0.4790 H     1 <1>   0.1500 
 46 H       -2.9890    -3.6450     1.0610 H     1 <1>   0.1500 
 47 H       -3.5450    -4.6460     3.2440 H     1 <1>   0.1500 
 48 H       -5.8770    -4.8140     3.9440 H     1 <1>   0.1500 
@<TRIPOS>BOND
  1   1   2  2   
  2   2   3  am  
  3   2   4  1   
  4   3   5  1   
  5   3  26  1   
  6   4   6  1   
  7   4   7  1   
  8   4  27  1   
  9   5   8  1   
 10   5  28  1   
 11   5  29  1   
 12   6   9  1   
 13   6  30  1   
 14   6  31  1   
 15   7  10  1   
 16   7  32  1   
 17   7  33  1   
 18   8  11  1   
 19   8  34  1   
 20   8  35  1   
 21   9  12  1   
 22   9  13  1   
 23   9  36  1   
 24  10  13  1   
 25  10  37  1   
 26  10  38  1   
 27  11  14  1   
 28  11  15  2   
 29  12  16  1   
 30  13  17  1   
 31  13  39  1   
 32  14  18  1   
 33  14  40  1   
 34  15  19  1   
 35  16  41  1   
 36  16  42  1   
 37  16  43  1   
 38  17  44  1   
 39  18  19  2   
 40  18  20  1   
 41  20  21  ar  
 42  20  22  ar  
 43  21  23  ar  
 44  21  45  1   
 45  22  24  ar  
 46  22  46  1   
 47  23  25  ar  
 48  24  25  ar  
 49  24  47  1   
 50  25  48  1   
@<TRIPOS>SUBSTRUCTURE
  1 ****   6 GROUP 4 **** **** 0

# MOE 2024.06 (io_trps.svl 2023.06)
