@<TRIPOS>MOLECULE
NONAME
37 40 1 0 0 
SMALL
USER_CHARGES


@<TRIPOS>ATOM
  1 S        0.5670     0.0660     0.2230 S.3   1 <1>  -0.0800 
  2 C       -0.7410     1.2550     0.3940 C.ar  1 <1>   0.0400 
  3 C       -0.5190    -1.2630     0.6200 C.2   1 <1>  -0.1100 
  4 C       -0.7300     2.6370     0.2500 C.ar  1 <1>   0.4100 
  5 C       -1.9030     0.6160     0.7410 C.ar  1 <1>   0.2560 
  6 C       -1.7610    -0.8050     0.8600 C.2   1 <1>  -0.1500 
  7 N       -1.8440     3.3150     0.4640 N.ar  1 <1>  -0.6200 
  8 N        0.3860     3.3700    -0.1080 N.pl3 1 <1>  -0.8380 
  9 N       -3.0280     1.2920     0.9420 N.ar  1 <1>  -0.5660 
 10 C       -2.9160     2.5970     0.7910 C.ar  1 <1>   0.4700 
 11 C        0.6390     4.6820     0.5720 C.3   1 <1>   0.2090 
 12 C        1.1230     3.0490    -1.3640 C.3   1 <1>   0.2090 
 13 C        2.1160     5.0340     0.8710 C.3   1 <1>   0.2200 
 14 C        2.6560     3.1400    -1.2750 C.3   1 <1>  -0.0190 
 15 N        2.8480     5.4540    -0.3600 N.am  1 <1>  -0.6600 
 16 C        2.9080     3.9610     1.6570 C.3   1 <1>   0.1200 
 17 C        3.1080     4.5780    -1.3730 C.2   1 <1>   0.5690 
 18 C        3.3610     2.4090    -0.1150 C.3   1 <1>   0.1200 
 19 C        3.2560     6.8870    -0.4280 C.3   1 <1>   0.0600 
 20 O        2.8190     2.6620     1.1450 O.3   1 <1>  -0.5600 
 21 O        3.7020     4.9120    -2.3730 O.2   1 <1>  -0.5700 
 22 H       -0.1000    -2.2540     0.6310 H     1 <1>   0.1500 
 23 H       -2.6160    -1.4000     1.1240 H     1 <1>   0.1500 
 24 H       -3.8160     3.1660     0.9530 H     1 <1>   0.1500 
 25 H        0.2050     5.4670    -0.0210 H     1 <1>   0.0800 
 26 H        0.1180     4.6720     1.5140 H     1 <1>   0.0800 
 27 H        0.8610     2.0560    -1.6800 H     1 <1>   0.0800 
 28 H        0.7820     3.7190    -2.1350 H     1 <1>   0.0800 
 29 H        2.0830     5.8940     1.5140 H     1 <1>   0.0800 
 30 H        3.0210     2.6710    -2.1690 H     1 <1>   0.0800 
 31 H        2.5140     3.9120     2.6560 H     1 <1>   0.0800 
 32 H        3.9460     4.2330     1.7210 H     1 <1>   0.0800 
 33 H        4.4070     2.6620    -0.0900 H     1 <1>   0.0800 
 34 H        3.2780     1.3480    -0.2710 H     1 <1>   0.0800 
 35 H        3.9180     7.1160     0.3880 H     1 <1>   0.0800 
 36 H        2.3850     7.5160    -0.3710 H     1 <1>   0.0800 
 37 H        3.7680     7.0970    -1.3520 H     1 <1>   0.0800 
@<TRIPOS>BOND
  1   1   2  1   
  2   1   3  1   
  3   2   4  ar  
  4   2   5  ar  
  5   3   6  2   
  6   3  22  1   
  7   4   7  ar  
  8   4   8  1   
  9   5   6  1   
 10   5   9  ar  
 11   6  23  1   
 12   7  10  ar  
 13   8  11  1   
 14   8  12  1   
 15   9  10  ar  
 16  10  24  1   
 17  11  13  1   
 18  11  25  1   
 19  11  26  1   
 20  12  14  1   
 21  12  27  1   
 22  12  28  1   
 23  13  15  1   
 24  13  16  1   
 25  13  29  1   
 26  14  17  1   
 27  14  18  1   
 28  14  30  1   
 29  15  17  am  
 30  15  19  1   
 31  16  20  1   
 32  16  31  1   
 33  16  32  1   
 34  17  21  2   
 35  18  20  1   
 36  18  33  1   
 37  18  34  1   
 38  19  35  1   
 39  19  36  1   
 40  19  37  1   
@<TRIPOS>SUBSTRUCTURE
  1 ****   8 GROUP 4 **** **** 0

# MOE 2024.06 (io_trps.svl 2023.06)
