@<TRIPOS>MOLECULE
NONAME
44 47 1 0 0 
SMALL
USER_CHARGES


@<TRIPOS>ATOM
  1 O        0.3330    -0.4420     0.2090 O.3   1 <1>  -0.5600 
  2 C        0.0300    -1.7350    -0.2090 C.3   1 <1>   0.2000 
  3 C        0.8010     0.4200    -0.7960 C.3   1 <1>   0.2640 
  4 C       -0.9320    -2.3480     0.8160 C.3   1 <1>   0.2090 
  5 C        1.3140    -2.5730    -0.3130 C.3   1 <1>  -0.1600 
  6 C        0.7090     1.8760    -0.3540 C.ar  1 <1>   0.1660 
  7 N       -1.2560    -3.7590     0.4270 N.pl3 1 <1>  -0.8380 
  8 C        0.9730    -4.0460    -0.6100 C.3   1 <1>  -0.1600 
  9 N        0.4110     2.7540    -1.3040 N.ar  1 <1>  -0.6200 
 10 C        0.9380     2.2230     0.9710 C.ar  1 <1>  -0.1500 
 11 C       -2.5270    -4.2280     0.2360 C.2   1 <1>   0.2710 
 12 C       -0.0450    -4.6330     0.3790 C.3   1 <1>   0.2090 
 13 C        0.3360     4.0170    -0.9170 C.ar  1 <1>   0.1600 
 14 C        0.8580     3.5430     1.3580 C.ar  1 <1>  -0.1500 
 15 N       -2.7450    -5.5220     0.5160 N.2   1 <1>  -0.6210 
 16 C       -3.5430    -3.4230    -0.2230 C.2   1 <1>  -0.1410 
 17 C        0.5470     4.4590     0.3780 C.ar  1 <1>  -0.1500 
 18 C       -3.9350    -6.0040     0.3680 C.2   1 <1>   0.9190 
 19 C       -4.7850    -3.9890    -0.3650 C.cat 1 <1>   0.7910 
 20 N       -4.9820    -5.2710    -0.0690 N.pl3 1 <1>  -0.6690 
 21 N       -4.1290    -7.2860     0.6630 N.pl3 1 <1>  -0.8500 
 22 N       -5.9690    -3.5100    -0.7790 N.pl3 1 <1>  -0.3930 
 23 C       -6.3080    -5.5140    -0.3260 C.2   1 <1>   0.5030 
 24 N       -6.9250    -4.4770    -0.7520 N.2   1 <1>  -0.2600 
 25 H       -0.4740    -1.6880    -1.1600 H     1 <1>   0.0800 
 26 H        0.1990     0.2890    -1.6790 H     1 <1>   0.0800 
 27 H        1.8230     0.1720    -1.0200 H     1 <1>   0.0800 
 28 H       -1.8190    -1.7480     0.8860 H     1 <1>   0.0800 
 29 H       -0.4570    -2.3560     1.7820 H     1 <1>   0.0800 
 30 H        1.8480    -2.5160     0.6200 H     1 <1>   0.0800 
 31 H        1.9450    -2.1940    -1.0970 H     1 <1>   0.0800 
 32 H        1.8720    -4.6350    -0.5800 H     1 <1>   0.0800 
 33 H        0.5660    -4.1280    -1.6030 H     1 <1>   0.0800 
 34 H        1.1760     1.4630     1.6930 H     1 <1>   0.1500 
 35 H       -0.3020    -5.6310     0.0680 H     1 <1>   0.0800 
 36 H        0.3880    -4.6910     1.3630 H     1 <1>   0.0800 
 37 H        0.0930     4.7420    -1.6750 H     1 <1>   0.1500 
 38 H        1.0290     3.8420     2.3780 H     1 <1>   0.1500 
 39 H       -3.3800    -2.3960    -0.4750 H     1 <1>   0.1500 
 40 H        0.4680     5.5060     0.6110 H     1 <1>   0.1500 
 41 H       -3.3220    -7.8110     1.0060 H     1 <1>   0.4000 
 42 H       -5.0090    -7.7890     0.6420 H     1 <1>   0.4000 
 43 H       -6.1520    -2.5460    -1.0820 H     1 <1>   0.4500 
 44 H       -6.7600    -6.4820    -0.1780 H     1 <1>   0.1500 
@<TRIPOS>BOND
  1   1   2  1   
  2   1   3  1   
  3   2   4  1   
  4   2   5  1   
  5   2  25  1   
  6   3   6  1   
  7   3  26  1   
  8   3  27  1   
  9   4   7  1   
 10   4  28  1   
 11   4  29  1   
 12   5   8  1   
 13   5  30  1   
 14   5  31  1   
 15   6   9  ar  
 16   6  10  ar  
 17   7  11  1   
 18   7  12  1   
 19   8  12  1   
 20   8  32  1   
 21   8  33  1   
 22   9  13  ar  
 23  10  14  ar  
 24  10  34  1   
 25  11  15  1   
 26  11  16  2   
 27  12  35  1   
 28  12  36  1   
 29  13  17  ar  
 30  13  37  1   
 31  14  17  ar  
 32  14  38  1   
 33  15  18  2   
 34  16  19  1   
 35  16  39  1   
 36  17  40  1   
 37  18  20  1   
 38  18  21  1   
 39  19  20  ar  
 40  19  22  ar  
 41  20  23  1   
 42  21  41  1   
 43  21  42  1   
 44  22  24  1   
 45  22  43  1   
 46  23  24  2   
 47  23  44  1   
@<TRIPOS>SUBSTRUCTURE
  1 ****   4 GROUP 4 **** **** 0

# MOE 2024.06 (io_trps.svl 2023.06)
