@<TRIPOS>MOLECULE
NONAME
54 56 1 0 0 
SMALL
USER_CHARGES


@<TRIPOS>ATOM
  1 O        1.2810    -0.4900     1.9210 O.2   1 <1>  -0.5700 
  2 C        1.7780     0.0500     0.9660 C.2   1 <1>   0.5690 
  3 N        1.8270    -0.5130    -0.2690 N.am  1 <1>  -0.6600 
  4 C        2.4750     1.3800     1.1390 C.3   1 <1>  -0.0190 
  5 C        2.5960     0.1610    -1.3500 C.3   1 <1>   0.2200 
  6 C        1.3230    -1.9040    -0.5380 C.3   1 <1>   0.2010 
  7 C        3.9680     1.0540     1.2610 C.3   1 <1>   0.3430 
  8 C        2.1420     2.3440    -0.0280 C.3   1 <1>  -0.1600 
  9 C        4.1180     0.0160    -1.0830 C.3   1 <1>   0.3430 
 10 C        2.1530     1.6390    -1.4080 C.3   1 <1>  -0.1600 
 11 C        2.4540    -2.9430    -0.5680 C.2   1 <1>   0.5690 
 12 N        4.6740     0.9790    -0.0640 N.4   1 <1>  -0.9590 
 13 O        3.2500    -2.8510    -1.4790 O.2   1 <1>  -0.5700 
 14 N        2.5820    -3.9120     0.4000 N.am  1 <1>  -0.6600 
 15 C        6.1410     0.8140     0.1100 C.3   1 <1>   0.5240 
 16 C        3.5670    -5.0240     0.2660 C.3   1 <1>   0.0600 
 17 C        1.7510    -3.9840     1.6370 C.3   1 <1>   0.0600 
 18 C        6.6940     2.1590     0.5520 C.2   1 <1>   0.0460 
 19 N        6.1930     3.3080     0.0350 N.2   1 <1>  -0.5650 
 20 C        7.6550     2.4520     1.4400 C.2   1 <1>  -0.0100 
 21 C        6.8840     4.2180     0.6290 C.2   1 <1>   0.2980 
 22 O        7.7670     3.7490     1.4820 O.3   1 <1>  -0.2800 
 23 C        6.7640     5.7270     0.4280 C.3   1 <1>   0.1000 
 24 C        8.0650     6.3100    -0.1390 C.3   1 <1>  -0.2400 
 25 C        6.3900     6.4350     1.7370 C.3   1 <1>  -0.2400 
 26 H        2.1450     1.8110     2.0670 H     1 <1>   0.0800 
 27 H        2.3710    -0.3160    -2.2890 H     1 <1>   0.0800 
 28 H        0.5850    -2.1710     0.1950 H     1 <1>   0.0800 
 29 H        0.8310    -1.9180    -1.4930 H     1 <1>   0.0800 
 30 H        4.0810     0.1240     1.7960 H     1 <1>   0.0800 
 31 H        4.4280     1.8310     1.8510 H     1 <1>   0.0800 
 32 H        1.1530     2.7400     0.1360 H     1 <1>   0.0800 
 33 H        2.8180     3.1830    -0.0240 H     1 <1>   0.0800 
 34 H        4.6300     0.1730    -2.0170 H     1 <1>   0.0800 
 35 H        4.3180    -0.9960    -0.7750 H     1 <1>   0.0800 
 36 H        2.7780     2.1820    -2.0950 H     1 <1>   0.0800 
 37 H        1.1560     1.6660    -1.8150 H     1 <1>   0.0800 
 38 H        4.6090     1.9350    -0.4580 H     1 <1>   0.4500 
 39 H        6.3650     0.0450     0.8310 H     1 <1>   0.0800 
 40 H        6.5930     0.5540    -0.8330 H     1 <1>   0.0800 
 41 H        4.3110    -4.9450     1.0390 H     1 <1>   0.0800 
 42 H        4.0590    -4.9920    -0.6910 H     1 <1>   0.0800 
 43 H        3.0630    -5.9700     0.3570 H     1 <1>   0.0800 
 44 H        2.2930    -4.4870     2.4180 H     1 <1>   0.0800 
 45 H        0.8450    -4.5290     1.4360 H     1 <1>   0.0800 
 46 H        1.5030    -2.9990     1.9900 H     1 <1>   0.0800 
 47 H        8.2910     1.8490     2.0650 H     1 <1>   0.1500 
 48 H        5.9790     5.9020    -0.2870 H     1 <1>   0.0800 
 49 H        8.8770     6.1650     0.5520 H     1 <1>   0.0800 
 50 H        7.9550     7.3640    -0.3250 H     1 <1>   0.0800 
 51 H        8.3140     5.8240    -1.0660 H     1 <1>   0.0800 
 52 H        7.1600     6.2940     2.4750 H     1 <1>   0.0800 
 53 H        5.4690     6.0370     2.1230 H     1 <1>   0.0800 
 54 H        6.2630     7.4900     1.5700 H     1 <1>   0.0800 
@<TRIPOS>BOND
  1   1   2  2   
  2   2   3  am  
  3   2   4  1   
  4   3   5  1   
  5   3   6  1   
  6   4   7  1   
  7   4   8  1   
  8   4  26  1   
  9   5   9  1   
 10   5  10  1   
 11   5  27  1   
 12   6  11  1   
 13   6  28  1   
 14   6  29  1   
 15   7  12  1   
 16   7  30  1   
 17   7  31  1   
 18   8  10  1   
 19   8  32  1   
 20   8  33  1   
 21   9  12  1   
 22   9  34  1   
 23   9  35  1   
 24  10  36  1   
 25  10  37  1   
 26  11  13  2   
 27  11  14  am  
 28  12  15  1   
 29  12  38  1   
 30  14  16  1   
 31  14  17  1   
 32  15  18  1   
 33  15  39  1   
 34  15  40  1   
 35  16  41  1   
 36  16  42  1   
 37  16  43  1   
 38  17  44  1   
 39  17  45  1   
 40  17  46  1   
 41  18  19  1   
 42  18  20  2   
 43  19  21  2   
 44  20  22  1   
 45  20  47  1   
 46  21  22  1   
 47  21  23  1   
 48  23  24  1   
 49  23  25  1   
 50  23  48  1   
 51  24  49  1   
 52  24  50  1   
 53  24  51  1   
 54  25  52  1   
 55  25  53  1   
 56  25  54  1   
@<TRIPOS>SUBSTRUCTURE
  1 ****  12 GROUP 4 **** **** 0

# MOE 2024.06 (io_trps.svl 2023.06)
