@<TRIPOS>MOLECULE
NONAME
51 53 1 0 0 
SMALL
USER_CHARGES


@<TRIPOS>ATOM
  1 CL      -0.2120    -0.6060     0.0960 Cl    1 <1>  -0.1770 
  2 C       -0.4960    -2.3160     0.2930 C.ar  1 <1>   0.1770 
  3 C       -0.0420    -3.1950    -0.6720 C.ar  1 <1>  -0.1500 
  4 C       -1.1700    -2.7660     1.4120 C.ar  1 <1>  -0.1500 
  5 C       -0.2690    -4.5520    -0.5110 C.ar  1 <1>  -0.1500 
  6 C       -1.3940    -4.1240     1.5670 C.ar  1 <1>  -0.1500 
  7 C       -0.9450    -5.0210     0.6070 C.ar  1 <1>  -0.1430 
  8 C       -1.1910    -6.5130     0.7720 C.3   1 <1>  -0.0160 
  9 C       -2.4360    -6.9360    -0.0080 C.3   1 <1>   0.1400 
 10 N       -2.6720    -8.3860     0.1680 N.am  1 <1>  -0.7300 
 11 C       -2.3650    -9.3590    -0.7290 C.2   1 <1>   0.5690 
 12 O       -1.8250    -9.1140    -1.7820 O.2   1 <1>  -0.5700 
 13 C       -2.7110   -10.8120    -0.3810 C.3   1 <1>   0.1710 
 14 N       -3.8590   -10.9730     0.5590 N.3   1 <1>  -0.8100 
 15 C       -5.1400   -10.5580    -0.0360 C.3   1 <1>   0.1100 
 16 C       -4.0420   -12.3720     0.9920 C.3   1 <1>   0.1100 
 17 C       -6.1920   -11.2670     0.8070 C.3   1 <1>   0.2000 
 18 C       -5.5590   -12.6330     1.0610 C.3   1 <1>  -0.0800 
 19 O       -6.2730   -10.6010     2.0160 O.3   1 <1>  -0.6800 
 20 C       -6.0160   -13.6580     0.0050 C.3   1 <1>   0.0210 
 21 C       -5.3520   -15.0090     0.1960 C.2   1 <1>   0.1080 
 22 N       -5.4690   -15.7050     1.2830 N.2   1 <1>  -0.7070 
 23 C       -4.5580   -15.6470    -0.7520 C.2   1 <1>  -0.1500 
 24 N       -4.7490   -16.8190     1.0560 N.pl3 1 <1>   0.3000 
 25 C       -4.1850   -16.8060    -0.1710 C.2   1 <1>  -0.3320 
 26 C       -3.3150   -17.9220    -0.7200 C.3   1 <1>  -0.0600 
 27 H        0.4800    -2.8210    -1.5330 H     1 <1>   0.1500 
 28 H       -1.5120    -2.0620     2.1490 H     1 <1>   0.1500 
 29 H        0.0810    -5.2420    -1.2610 H     1 <1>   0.1500 
 30 H       -1.9190    -4.4780     2.4380 H     1 <1>   0.1500 
 31 H       -1.3190    -6.7480     1.8130 H     1 <1>   0.0800 
 32 H       -0.3400    -7.0580     0.4040 H     1 <1>   0.0800 
 33 H       -2.2960    -6.7160    -1.0530 H     1 <1>   0.0800 
 34 H       -3.2950    -6.3880     0.3400 H     1 <1>   0.0800 
 35 H       -3.1660    -8.6930     1.0120 H     1 <1>   0.3700 
 36 H       -1.8340   -11.2480     0.0630 H     1 <1>   0.0800 
 37 H       -2.9120   -11.3410    -1.2960 H     1 <1>   0.0800 
 38 H       -5.2660    -9.4890    -0.0140 H     1 <1>   0.0800 
 39 H       -5.2050   -10.9030    -1.0540 H     1 <1>   0.0800 
 40 H       -3.5670   -13.0530     0.3050 H     1 <1>   0.0800 
 41 H       -3.5980   -12.5070     1.9640 H     1 <1>   0.0800 
 42 H       -7.1710   -11.2990     0.3600 H     1 <1>   0.0800 
 43 H       -5.8340   -13.0110     2.0310 H     1 <1>   0.0800 
 44 H       -5.3530   -10.4980     2.3370 H     1 <1>   0.4000 
 45 H       -5.8000   -13.2970    -0.9840 H     1 <1>   0.0800 
 46 H       -7.0790   -13.7970     0.0840 H     1 <1>   0.0800 
 47 H       -4.3120   -15.2750    -1.7300 H     1 <1>   0.1500 
 48 H       -4.6660   -17.5680     1.7540 H     1 <1>   0.2700 
 49 H       -2.9840   -17.6790    -1.7140 H     1 <1>   0.0800 
 50 H       -3.8710   -18.8420    -0.7600 H     1 <1>   0.0800 
 51 H       -2.4500   -18.0620    -0.0960 H     1 <1>   0.0800 
@<TRIPOS>BOND
  1   1   2  1   
  2   2   3  ar  
  3   2   4  ar  
  4   3   5  ar  
  5   3  27  1   
  6   4   6  ar  
  7   4  28  1   
  8   5   7  ar  
  9   5  29  1   
 10   6   7  ar  
 11   6  30  1   
 12   7   8  1   
 13   8   9  1   
 14   8  31  1   
 15   8  32  1   
 16   9  10  1   
 17   9  33  1   
 18   9  34  1   
 19  10  11  am  
 20  10  35  1   
 21  11  12  2   
 22  11  13  1   
 23  13  14  1   
 24  13  36  1   
 25  13  37  1   
 26  14  15  1   
 27  14  16  1   
 28  15  17  1   
 29  15  38  1   
 30  15  39  1   
 31  16  18  1   
 32  16  40  1   
 33  16  41  1   
 34  17  18  1   
 35  17  19  1   
 36  17  42  1   
 37  18  20  1   
 38  18  43  1   
 39  19  44  1   
 40  20  21  1   
 41  20  45  1   
 42  20  46  1   
 43  21  22  2   
 44  21  23  1   
 45  22  24  1   
 46  23  25  2   
 47  23  47  1   
 48  24  25  1   
 49  24  48  1   
 50  25  26  1   
 51  26  49  1   
 52  26  50  1   
 53  26  51  1   
@<TRIPOS>SUBSTRUCTURE
  1 ****  13 GROUP 4 **** **** 0

# MOE 2024.06 (io_trps.svl 2023.06)
