@<TRIPOS>MOLECULE
NONAME
38 39 1 0 0 
SMALL
USER_CHARGES


@<TRIPOS>ATOM
  1 S        0.4360    -0.1750    -0.3870 S.o2  1 <1>   1.3330 
  2 O        0.6030    -0.7820     0.9150 O.2   1 <1>  -0.6500 
  3 O        0.3060    -1.0180    -1.5540 O.2   1 <1>  -0.6500 
  4 N       -0.9140     0.8510    -0.3140 N.am  1 <1>  -0.8490 
  5 C        1.7940     0.9550    -0.6790 C.3   1 <1>  -0.0550 
  6 C       -1.0850     1.5000     0.9900 C.3   1 <1>   0.1160 
  7 C       -2.1510     0.1660    -0.6970 C.3   1 <1>   0.1160 
  8 C        3.1360     0.2360    -0.9250 C.3   1 <1>  -0.0800 
  9 C        4.3050     1.1470    -1.2700 C.3   1 <1>   0.2200 
 10 C        3.6660    -0.5650     0.2730 C.3   1 <1>   0.1200 
 11 N        4.3140     2.3470    -0.4020 N.am  1 <1>  -0.7300 
 12 C        5.4710     0.2560    -0.8700 C.3   1 <1>   0.1200 
 13 O        5.0510    -0.3640     0.3060 O.3   1 <1>  -0.5600 
 14 C        3.9040     3.5940    -0.7600 C.2   1 <1>   0.7160 
 15 O        3.4090     3.7490    -1.8580 O.2   1 <1>  -0.5700 
 16 C        4.0330     4.6950     0.1600 C.2   1 <1>  -0.0860 
 17 C        3.6460     5.9860    -0.0220 C.2   1 <1>  -0.0100 
 18 C        4.5880     4.6870     1.4600 C.2   1 <1>  -0.1500 
 19 O        3.9140     6.7220     1.0290 O.3   1 <1>  -0.2800 
 20 C        4.4830     5.9480     1.9270 C.2   1 <1>  -0.0100 
 21 H        1.5650     1.5530    -1.5410 H     1 <1>   0.0800 
 22 H        1.8850     1.6150     0.1600 H     1 <1>   0.0800 
 23 H       -1.9030     2.2000     0.9490 H     1 <1>   0.0800 
 24 H       -0.1930     2.0390     1.2570 H     1 <1>   0.0800 
 25 H       -1.2880     0.7670     1.7530 H     1 <1>   0.0800 
 26 H       -2.9830     0.8480    -0.6600 H     1 <1>   0.0800 
 27 H       -2.3410    -0.6640    -0.0360 H     1 <1>   0.0800 
 28 H       -2.0690    -0.2080    -1.7050 H     1 <1>   0.0800 
 29 H        3.0010    -0.4540    -1.7410 H     1 <1>   0.0800 
 30 H        4.3320     1.4220    -2.3120 H     1 <1>   0.0800 
 31 H        3.4680    -1.6190     0.1680 H     1 <1>   0.0800 
 32 H        3.2620    -0.2130     1.2070 H     1 <1>   0.0800 
 33 H        4.6920     2.1810     0.5320 H     1 <1>   0.3700 
 34 H        6.3790     0.8050    -0.6900 H     1 <1>   0.0800 
 35 H        5.6430    -0.5100    -1.6070 H     1 <1>   0.0800 
 36 H        3.1750     6.4390    -0.8780 H     1 <1>   0.1500 
 37 H        5.0090     3.8340     1.9600 H     1 <1>   0.1500 
 38 H        4.7800     6.3790     2.8680 H     1 <1>   0.1500 
@<TRIPOS>BOND
  1   1   2  2   
  2   1   3  2   
  3   1   4  am  
  4   1   5  1   
  5   4   6  1   
  6   4   7  1   
  7   5   8  1   
  8   5  21  1   
  9   5  22  1   
 10   6  23  1   
 11   6  24  1   
 12   6  25  1   
 13   7  26  1   
 14   7  27  1   
 15   7  28  1   
 16   8   9  1   
 17   8  10  1   
 18   8  29  1   
 19   9  11  1   
 20   9  12  1   
 21   9  30  1   
 22  10  13  1   
 23  10  31  1   
 24  10  32  1   
 25  11  14  am  
 26  11  33  1   
 27  12  13  1   
 28  12  34  1   
 29  12  35  1   
 30  14  15  2   
 31  14  16  1   
 32  16  17  2   
 33  16  18  1   
 34  17  19  1   
 35  17  36  1   
 36  18  20  2   
 37  18  37  1   
 38  19  20  1   
 39  20  38  1   
@<TRIPOS>SUBSTRUCTURE
  1 ****   5 GROUP 4 **** **** 0

# MOE 2024.06 (io_trps.svl 2023.06)
