@<TRIPOS>MOLECULE
NONAME
52 54 1 0 0 
SMALL
USER_CHARGES


@<TRIPOS>ATOM
  1 CL      -1.3970     0.3420    -2.1870 Cl    1 <1>  -0.1770 
  2 C       -2.3600    -0.7500    -1.2160 C.ar  1 <1>   0.1770 
  3 C       -1.9340    -2.0470    -0.9710 C.ar  1 <1>   0.0820 
  4 C       -3.5560    -0.2950    -0.7030 C.ar  1 <1>  -0.1500 
  5 O       -0.7720    -2.5250    -1.4700 O.3   1 <1>  -0.3630 
  6 C       -2.7290    -2.8860    -0.2100 C.ar  1 <1>  -0.1500 
  7 C       -4.3450    -1.1440     0.0720 C.ar  1 <1>   0.0830 
  8 C        0.3930    -2.2100    -0.7420 C.3   1 <1>   0.0400 
  9 C       -3.9350    -2.4550     0.3350 C.ar  1 <1>  -0.0090 
 10 O       -5.5290    -0.7280     0.5870 O.3   1 <1>  -0.3630 
 11 S       -4.9160    -3.6220     1.3270 S.o2  1 <1>   1.4470 
 12 C       -5.9190     0.6290     0.5870 C.3   1 <1>   0.0400 
 13 O       -3.9900    -4.5840     1.8910 O.2   1 <1>  -0.6500 
 14 O       -5.8460    -2.9850     2.2360 O.2   1 <1>  -0.6500 
 15 N       -5.8200    -4.4710     0.1680 N.am  1 <1>  -0.8490 
 16 C       -6.9380    -3.7130    -0.3950 C.3   1 <1>   0.1960 
 17 C       -6.3780    -5.7280     0.6810 C.3   1 <1>   0.1960 
 18 C       -8.1820    -4.1290     0.3910 C.3   1 <1>  -0.0800 
 19 C       -7.9070    -5.6060     0.6940 C.3   1 <1>  -0.0800 
 20 C       -9.5570    -3.8240    -0.2730 C.3   1 <1>   0.2800 
 21 C       -8.5770    -6.5280    -0.3370 C.3   1 <1>  -0.1600 
 22 O       -9.4310    -3.8100    -1.6500 O.3   1 <1>  -0.6800 
 23 C      -10.5630    -4.9370     0.0690 C.3   1 <1>  -0.1600 
 24 C      -10.1320    -2.4510     0.1420 C.3   1 <1>  -0.1600 
 25 C      -10.1050    -6.3470    -0.3630 C.3   1 <1>  -0.1600 
 26 C       -9.2460    -1.2340    -0.1720 C.3   1 <1>  -0.2400 
 27 H       -3.8480     0.7130    -0.9260 H     1 <1>   0.1500 
 28 H       -2.3970    -3.8960    -0.0390 H     1 <1>   0.1500 
 29 H        1.2320    -2.6640    -1.2380 H     1 <1>   0.0800 
 30 H        0.2970    -2.6020     0.2560 H     1 <1>   0.0800 
 31 H        0.5160    -1.1420    -0.7170 H     1 <1>   0.0800 
 32 H       -6.8320     0.7120     1.1500 H     1 <1>   0.0800 
 33 H       -6.0860     0.9470    -0.4260 H     1 <1>   0.0800 
 34 H       -5.1490     1.2150     1.0570 H     1 <1>   0.0800 
 35 H       -6.7730    -2.6530    -0.3600 H     1 <1>   0.0800 
 36 H       -7.0380    -4.0030    -1.4270 H     1 <1>   0.0800 
 37 H       -6.0660    -6.5370     0.0420 H     1 <1>   0.0800 
 38 H       -6.0240    -5.9370     1.6770 H     1 <1>   0.0800 
 39 H       -8.1580    -3.6150     1.3360 H     1 <1>   0.0800 
 40 H       -8.2760    -5.8590     1.6740 H     1 <1>   0.0800 
 41 H       -8.1850    -6.2940    -1.3140 H     1 <1>   0.0800 
 42 H       -8.3400    -7.5570    -0.1310 H     1 <1>   0.0800 
 43 H      -10.3110    -3.6990    -2.0510 H     1 <1>   0.4000 
 44 H      -10.6920    -4.9430     1.1380 H     1 <1>   0.0800 
 45 H      -11.5270    -4.7220    -0.3580 H     1 <1>   0.0800 
 46 H      -11.0860    -2.3140    -0.3360 H     1 <1>   0.0800 
 47 H      -10.3160    -2.4640     1.2020 H     1 <1>   0.0800 
 48 H      -10.5650    -7.0720     0.2860 H     1 <1>   0.0800 
 49 H      -10.4520    -6.5440    -1.3630 H     1 <1>   0.0800 
 50 H       -8.9650    -1.2210    -1.2100 H     1 <1>   0.0800 
 51 H       -8.3560    -1.2500     0.4320 H     1 <1>   0.0800 
 52 H       -9.7800    -0.3270     0.0490 H     1 <1>   0.0800 
@<TRIPOS>BOND
  1   1   2  1   
  2   2   3  ar  
  3   2   4  ar  
  4   3   5  1   
  5   3   6  ar  
  6   4   7  ar  
  7   4  27  1   
  8   5   8  1   
  9   6   9  ar  
 10   6  28  1   
 11   7   9  ar  
 12   7  10  1   
 13   8  29  1   
 14   8  30  1   
 15   8  31  1   
 16   9  11  1   
 17  10  12  1   
 18  11  13  2   
 19  11  14  2   
 20  11  15  am  
 21  12  32  1   
 22  12  33  1   
 23  12  34  1   
 24  15  16  1   
 25  15  17  1   
 26  16  18  1   
 27  16  35  1   
 28  16  36  1   
 29  17  19  1   
 30  17  37  1   
 31  17  38  1   
 32  18  19  1   
 33  18  20  1   
 34  18  39  1   
 35  19  21  1   
 36  19  40  1   
 37  20  22  1   
 38  20  23  1   
 39  20  24  1   
 40  21  25  1   
 41  21  41  1   
 42  21  42  1   
 43  22  43  1   
 44  23  25  1   
 45  23  44  1   
 46  23  45  1   
 47  24  26  1   
 48  24  46  1   
 49  24  47  1   
 50  25  48  1   
 51  25  49  1   
 52  26  50  1   
 53  26  51  1   
 54  26  52  1   
@<TRIPOS>SUBSTRUCTURE
  1 ****  16 GROUP 4 **** **** 0

# MOE 2024.06 (io_trps.svl 2023.06)
