@<TRIPOS>MOLECULE
Untitled Document
32 34 1 0 0 
SMALL
USER_CHARGES


@<TRIPOS>ATOM
  1 O        1.0930     3.1930     1.3130 O.2   1 <1>  -0.5700 
  2 C        1.5910     4.1350     0.7500 C.2   1 <1>   0.5690 
  3 N        2.8540     4.0220     0.2570 N.am  1 <1>  -0.4900 
  4 C        0.8420     5.4800     0.5750 C.3   1 <1>   0.2810 
  5 C        3.5530     4.9730    -0.4100 C.2   1 <1>   0.5690 
  6 N       -0.6400     5.3830     0.4320 N.am  1 <1>  -0.6600 
  7 C        1.3770     6.2610    -0.6400 C.3   1 <1>  -0.1600 
  8 O        4.6580     4.7500    -0.8220 O.2   1 <1>  -0.5700 
  9 C        2.9150     6.3350    -0.6230 C.3   1 <1>  -0.0990 
 10 C       -1.5190     6.3470     0.8200 C.2   1 <1>   0.5440 
 11 C       -1.3630     4.2260    -0.1680 C.3   1 <1>   0.2840 
 12 O       -1.1720     7.3910     1.3350 O.2   1 <1>  -0.5700 
 13 C       -2.8560     5.9380     0.5030 C.ar  1 <1>   0.0860 
 14 C       -2.8060     4.6870    -0.0800 C.ar  1 <1>  -0.1440 
 15 C       -4.0790     6.5730     0.6760 C.ar  1 <1>  -0.1500 
 16 C       -3.9540     4.0330    -0.5000 C.ar  1 <1>   0.1000 
 17 C       -5.2360     5.9400     0.2530 C.ar  1 <1>  -0.1500 
 18 N       -3.9000     2.7740    -1.0690 N.pl3 1 <1>  -0.9000 
 19 C       -5.1720     4.6840    -0.3310 C.ar  1 <1>  -0.1500 
 20 H        3.3190     3.1280     0.3930 H     1 <1>   0.3700 
 21 H        1.0440     6.0600     1.4590 H     1 <1>   0.0800 
 22 H        0.9670     7.2560    -0.6380 H     1 <1>   0.0800 
 23 H        1.0630     5.7660    -1.5430 H     1 <1>   0.0800 
 24 H        3.2690     6.7460    -1.5520 H     1 <1>   0.0800 
 25 H        3.2390     6.9850     0.1690 H     1 <1>   0.0800 
 26 H       -1.2160     3.3330     0.4150 H     1 <1>   0.0800 
 27 H       -1.0640     4.0720    -1.1900 H     1 <1>   0.0800 
 28 H       -4.1090     7.5480     1.1330 H     1 <1>   0.1500 
 29 H       -6.1890     6.4260     0.3790 H     1 <1>   0.1500 
 30 H       -4.8020     2.3040    -1.1960 H     1 <1>   0.4000 
 31 H       -3.2050     2.1290    -0.6830 H     1 <1>   0.4000 
 32 H       -6.0750     4.2030    -0.6590 H     1 <1>   0.1500 
@<TRIPOS>BOND
  1   1   2  2   
  2   2   3  am  
  3   2   4  1   
  4   3   5  am  
  5   3  20  1   
  6   4   6  1   
  7   4   7  1   
  8   4  21  1   
  9   5   8  2   
 10   5   9  1   
 11   6  10  am  
 12   6  11  1   
 13   7   9  1   
 14   7  22  1   
 15   7  23  1   
 16   9  24  1   
 17   9  25  1   
 18  10  12  2   
 19  10  13  1   
 20  11  14  1   
 21  11  26  1   
 22  11  27  1   
 23  13  14  ar  
 24  13  15  ar  
 25  14  16  ar  
 26  15  17  ar  
 27  15  28  1   
 28  16  18  1   
 29  16  19  ar  
 30  17  19  ar  
 31  17  29  1   
 32  18  30  1   
 33  18  31  1   
 34  19  32  1   
@<TRIPOS>SUBSTRUCTURE
  1 ****   6 GROUP 4 **** **** 0

# MOE 2024.06 (io_trps.svl 2023.06)
