@<TRIPOS>MOLECULE
NONAME
43 45 1 0 0 
SMALL
USER_CHARGES


@<TRIPOS>ATOM
  1 F        0.2920     0.7280    -0.7070 F     1 <1>  -0.1900 
  2 C        0.3480     1.9610    -0.2750 C.ar  1 <1>   0.1900 
  3 C       -0.6330     2.8530    -0.6810 C.ar  1 <1>  -0.1440 
  4 C        1.3880     2.3240     0.5680 C.ar  1 <1>  -0.1440 
  5 C       -0.5590     4.1580    -0.2220 C.ar  1 <1>  -0.1500 
  6 C       -1.7640     2.4130    -1.6010 C.3   1 <1>  -0.0960 
  7 C        1.4400     3.6340     1.0150 C.ar  1 <1>  -0.1500 
  8 C        2.4430     1.3130     0.9970 C.3   1 <1>  -0.0960 
  9 C        0.4750     4.5540     0.6180 C.ar  1 <1>  -0.1430 
 10 C        0.5580     5.9940     1.0860 C.3   1 <1>   0.4860 
 11 N        1.7720     6.6120     0.4900 N.4   1 <1>  -0.9590 
 12 C        2.1440     7.9200     1.1400 C.3   1 <1>   0.3430 
 13 C        1.7570     6.5870    -1.0130 C.3   1 <1>   0.3430 
 14 C        3.5540     8.4630     0.7700 C.3   1 <1>   0.2200 
 15 C        3.1330     6.8170    -1.6540 C.3   1 <1>  -0.0190 
 16 N        3.5540     9.0100    -0.6060 N.am  1 <1>  -0.7300 
 17 C        4.6860     7.4170     0.9340 C.3   1 <1>   0.1200 
 18 C        3.3810     8.2990    -1.7330 C.2   1 <1>   0.5690 
 19 C        4.3300     6.0720    -1.0210 C.3   1 <1>   0.1200 
 20 O        4.3640     6.1650     0.3790 O.3   1 <1>  -0.5600 
 21 O        3.3900     8.8440    -2.8020 O.2   1 <1>  -0.5700 
 22 H       -1.3160     4.8630    -0.5250 H     1 <1>   0.1500 
 23 H       -2.4440     3.2210    -1.8010 H     1 <1>   0.0800 
 24 H       -2.3140     1.6090    -1.1450 H     1 <1>   0.0800 
 25 H       -1.3610     2.0650    -2.5360 H     1 <1>   0.0800 
 26 H        2.2390     3.9280     1.6740 H     1 <1>   0.1500 
 27 H        3.1740     1.7590     1.6460 H     1 <1>   0.0800 
 28 H        2.9470     0.9200     0.1320 H     1 <1>   0.0800 
 29 H        1.9760     0.4970     1.5200 H     1 <1>   0.0800 
 30 H        0.6200     6.0120     2.1620 H     1 <1>   0.0800 
 31 H       -0.3230     6.5350     0.7830 H     1 <1>   0.0800 
 32 H        2.5650     5.9790     0.7180 H     1 <1>   0.4500 
 33 H        1.4110     8.6710     0.8950 H     1 <1>   0.0800 
 34 H        2.1220     7.7850     2.2090 H     1 <1>   0.0800 
 35 H        1.4120     5.6190    -1.3410 H     1 <1>   0.0800 
 36 H        1.0620     7.3220    -1.3880 H     1 <1>   0.0800 
 37 H        3.7740     9.2840     1.4310 H     1 <1>   0.0800 
 38 H        3.0620     6.4780    -2.6730 H     1 <1>   0.0800 
 39 H        3.7720    10.0050    -0.7330 H     1 <1>   0.3700 
 40 H        4.8640     7.2500     1.9820 H     1 <1>   0.0800 
 41 H        5.6050     7.7700     0.4960 H     1 <1>   0.0800 
 42 H        5.2640     6.4380    -1.4160 H     1 <1>   0.0800 
 43 H        4.2610     5.0230    -1.2590 H     1 <1>   0.0800 
@<TRIPOS>BOND
  1   1   2  1   
  2   2   3  ar  
  3   2   4  ar  
  4   3   5  ar  
  5   3   6  1   
  6   4   7  ar  
  7   4   8  1   
  8   5   9  ar  
  9   5  22  1   
 10   6  23  1   
 11   6  24  1   
 12   6  25  1   
 13   7   9  ar  
 14   7  26  1   
 15   8  27  1   
 16   8  28  1   
 17   8  29  1   
 18   9  10  1   
 19  10  11  1   
 20  10  30  1   
 21  10  31  1   
 22  11  12  1   
 23  11  13  1   
 24  11  32  1   
 25  12  14  1   
 26  12  33  1   
 27  12  34  1   
 28  13  15  1   
 29  13  35  1   
 30  13  36  1   
 31  14  16  1   
 32  14  17  1   
 33  14  37  1   
 34  15  18  1   
 35  15  19  1   
 36  15  38  1   
 37  16  18  am  
 38  16  39  1   
 39  17  20  1   
 40  17  40  1   
 41  17  41  1   
 42  18  21  2   
 43  19  20  1   
 44  19  42  1   
 45  19  43  1   
@<TRIPOS>SUBSTRUCTURE
  1 ****  11 GROUP 4 **** **** 0

# MOE 2024.06 (io_trps.svl 2023.06)
