@<TRIPOS>MOLECULE
NONAME
45 48 1 0 0 
SMALL
USER_CHARGES


@<TRIPOS>ATOM
  1 O       -0.1850     0.6280     0.4790 O.2   1 <1>  -0.5700 
  2 C       -0.7930     1.4760    -0.1300 C.2   1 <1>   0.5690 
  3 N       -2.1670     1.4550    -0.1970 N.am  1 <1>  -0.6600 
  4 C       -0.0090     2.5910    -0.8220 C.3   1 <1>   0.0440 
  5 C       -3.0250     2.4780    -0.8820 C.3   1 <1>   0.1400 
  6 C       -2.9530     0.3510     0.4280 C.3   1 <1>   0.1400 
  7 C        1.5120     2.5460    -0.6720 C.ar  1 <1>  -0.1440 
  8 C       -4.0330     3.1030     0.1030 C.3   1 <1>   0.1440 
  9 C       -3.9720     0.9240     1.4210 C.3   1 <1>  -0.1600 
 10 C        2.1060     2.5720     0.5830 C.ar  1 <1>   0.1600 
 11 C        2.3280     2.5000    -1.7860 C.ar  1 <1>  -0.1500 
 12 C       -4.8910     4.0950    -0.6600 C.ar  1 <1>   0.1660 
 13 C       -4.8700     1.9880     0.7660 C.3   1 <1>  -0.1600 
 14 C       -3.3330     4.0050     1.1570 C.3   1 <1>  -0.1600 
 15 N        3.4110     2.5800     0.8090 N.ar  1 <1>  -0.6200 
 16 C        3.6890     2.4930    -1.5700 C.ar  1 <1>  -0.1500 
 17 N       -5.8110     3.7810    -1.5410 N.ar  1 <1>  -0.6200 
 18 C       -4.5810     5.3830    -0.3390 C.ar  1 <1>  -0.1440 
 19 C       -3.4690     5.4610     0.6760 C.3   1 <1>  -0.0170 
 20 C        4.1700     2.5360    -0.2730 C.ar  1 <1>   0.1600 
 21 C       -6.4170     4.8260    -2.0840 C.ar  1 <1>   0.7200 
 22 C       -5.2840     6.3860    -0.9620 C.ar  1 <1>   0.1600 
 23 N       -6.2200     6.1150    -1.8440 N.ar  1 <1>  -0.6200 
 24 N       -7.3680     4.5450    -2.9760 N.pl3 1 <1>  -0.9000 
 25 H       -0.3460     3.5310    -0.4280 H     1 <1>   0.0800 
 26 H       -0.2580     2.5630    -1.8660 H     1 <1>   0.0800 
 27 H       -3.5690     1.9930    -1.6750 H     1 <1>   0.0800 
 28 H       -2.4350     3.2570    -1.3270 H     1 <1>   0.0800 
 29 H       -2.3050    -0.3410     0.9400 H     1 <1>   0.0800 
 30 H       -3.4660    -0.1920    -0.3480 H     1 <1>   0.0800 
 31 H       -3.4410     1.3460     2.2560 H     1 <1>   0.0800 
 32 H       -4.5820     0.1230     1.7980 H     1 <1>   0.0800 
 33 H        1.4710     2.5870     1.4530 H     1 <1>   0.1500 
 34 H        1.9300     2.4710    -2.7860 H     1 <1>   0.1500 
 35 H       -5.4750     1.5130     0.0120 H     1 <1>   0.0800 
 36 H       -5.5410     2.4090     1.4940 H     1 <1>   0.0800 
 37 H       -2.3050     3.7330     1.3190 H     1 <1>   0.0800 
 38 H       -3.8480     3.9200     2.0980 H     1 <1>   0.0800 
 39 H        4.3740     2.4560    -2.3960 H     1 <1>   0.1500 
 40 H       -2.5630     5.7920     0.1990 H     1 <1>   0.0800 
 41 H       -3.7170     6.1230     1.4880 H     1 <1>   0.0800 
 42 H        5.2350     2.5320    -0.1160 H     1 <1>   0.1500 
 43 H       -5.0790     7.4190    -0.7370 H     1 <1>   0.1500 
 44 H       -8.0240     5.2990    -3.1560 H     1 <1>   0.4000 
 45 H       -7.7510     3.6060    -2.9190 H     1 <1>   0.4000 
@<TRIPOS>BOND
  1   1   2  2   
  2   2   3  am  
  3   2   4  1   
  4   3   5  1   
  5   3   6  1   
  6   4   7  1   
  7   4  25  1   
  8   4  26  1   
  9   5   8  1   
 10   5  27  1   
 11   5  28  1   
 12   6   9  1   
 13   6  29  1   
 14   6  30  1   
 15   7  10  ar  
 16   7  11  ar  
 17   8  12  1   
 18   8  13  1   
 19   8  14  1   
 20   9  13  1   
 21   9  31  1   
 22   9  32  1   
 23  10  15  ar  
 24  10  33  1   
 25  11  16  ar  
 26  11  34  1   
 27  12  17  ar  
 28  12  18  ar  
 29  13  35  1   
 30  13  36  1   
 31  14  19  1   
 32  14  37  1   
 33  14  38  1   
 34  15  20  ar  
 35  16  20  ar  
 36  16  39  1   
 37  17  21  ar  
 38  18  19  1   
 39  18  22  ar  
 40  19  40  1   
 41  19  41  1   
 42  20  42  1   
 43  21  23  ar  
 44  21  24  1   
 45  22  23  ar  
 46  22  43  1   
 47  24  44  1   
 48  24  45  1   
@<TRIPOS>SUBSTRUCTURE
  1 ****   5 GROUP 4 **** **** 0

# MOE 2024.06 (io_trps.svl 2023.06)
