@<TRIPOS>MOLECULE
NONAME
50 51 1 0 0 
SMALL
USER_CHARGES


@<TRIPOS>ATOM
  1 S       -0.6050    -2.6020    -0.4350 S.3   1 <1>  -0.4600 
  2 C       -1.7380    -1.5890     0.5770 C.3   1 <1>   0.2510 
  3 C        0.9460    -1.6650    -0.4030 C.3   1 <1>  -0.0100 
  4 C       -3.1130    -2.2390     0.6450 C.2   1 <1>   0.3350 
  5 N       -3.5730    -2.8600     1.6570 N.2   1 <1>  -0.4100 
  6 N       -3.9640    -2.1890    -0.3740 N.2   1 <1>  -0.5650 
  7 O       -4.7630    -3.2760     1.3450 O.3   1 <1>  -0.0190 
  8 C       -4.9360    -2.8470     0.1190 C.2   1 <1>   0.2980 
  9 C       -6.2410    -3.1730    -0.5890 C.3   1 <1>   0.3200 
 10 N       -6.2810    -4.5980    -1.0120 N.am  1 <1>  -0.7300 
 11 C       -7.3650    -5.3970    -0.8900 C.2   1 <1>   0.5690 
 12 O       -8.4050    -4.9880    -0.4370 O.2   1 <1>  -0.5700 
 13 C       -7.2660    -6.8400    -1.3320 C.3   1 <1>  -0.0990 
 14 C       -7.4850    -7.8100    -0.1560 C.3   1 <1>  -0.0990 
 15 C       -7.3970    -9.2800    -0.5510 C.2   1 <1>   0.5690 
 16 O       -6.8110    -9.5520    -1.5740 O.2   1 <1>  -0.5700 
 17 N       -7.9620   -10.2470     0.2460 N.am  1 <1>  -0.6600 
 18 C       -7.9890   -11.6700    -0.2170 C.3   1 <1>   0.2200 
 19 C       -8.5510    -9.9550     1.5890 C.3   1 <1>   0.0600 
 20 C       -9.3960   -12.2800    -0.1040 C.3   1 <1>  -0.1600 
 21 C       -6.9500   -12.5060     0.5430 C.3   1 <1>  -0.1600 
 22 C       -9.4000   -13.7360    -0.5930 C.3   1 <1>  -0.1600 
 23 C       -6.9600   -13.9650     0.0630 C.3   1 <1>  -0.1600 
 24 C       -8.3640   -14.5770     0.1660 C.3   1 <1>  -0.1600 
 25 H       -1.8010    -0.6190     0.1200 H     1 <1>   0.0800 
 26 H       -1.3070    -1.5130     1.5580 H     1 <1>   0.0800 
 27 H        1.6670    -2.2100    -0.9850 H     1 <1>   0.0800 
 28 H        1.2660    -1.5820     0.6210 H     1 <1>   0.0800 
 29 H        0.7610    -0.6970    -0.8330 H     1 <1>   0.0800 
 30 H       -6.3300    -2.5500    -1.4610 H     1 <1>   0.0800 
 31 H       -7.0650    -2.9550     0.0680 H     1 <1>   0.0800 
 32 H       -5.4060    -4.9620    -1.3950 H     1 <1>   0.3700 
 33 H       -6.3020    -7.0160    -1.7750 H     1 <1>   0.0800 
 34 H       -8.0130    -7.0170    -2.0850 H     1 <1>   0.0800 
 35 H       -8.4570    -7.6170     0.2580 H     1 <1>   0.0800 
 36 H       -6.7480    -7.6210     0.6020 H     1 <1>   0.0800 
 37 H       -7.7220   -11.7030    -1.2610 H     1 <1>   0.0800 
 38 H       -8.0580    -9.1180     2.0490 H     1 <1>   0.0800 
 39 H       -8.4410   -10.8010     2.2430 H     1 <1>   0.0800 
 40 H       -9.5990    -9.7340     1.4820 H     1 <1>   0.0800 
 41 H      -10.0810   -11.7020    -0.6980 H     1 <1>   0.0800 
 42 H       -9.7290   -12.2670     0.9180 H     1 <1>   0.0800 
 43 H       -7.1570   -12.4880     1.5970 H     1 <1>   0.0800 
 44 H       -5.9740   -12.0850     0.3790 H     1 <1>   0.0800 
 45 H       -9.1750   -13.7600    -1.6460 H     1 <1>   0.0800 
 46 H      -10.3800   -14.1610    -0.4560 H     1 <1>   0.0800 
 47 H       -6.2680   -14.5430     0.6510 H     1 <1>   0.0800 
 48 H       -6.6300   -14.0030    -0.9620 H     1 <1>   0.0800 
 49 H       -8.3500   -15.5770    -0.2340 H     1 <1>   0.0800 
 50 H       -8.6480   -14.6430     1.2030 H     1 <1>   0.0800 
@<TRIPOS>BOND
  1   1   2  1   
  2   1   3  1   
  3   2   4  1   
  4   2  25  1   
  5   2  26  1   
  6   3  27  1   
  7   3  28  1   
  8   3  29  1   
  9   4   5  2   
 10   4   6  1   
 11   5   7  1   
 12   6   8  2   
 13   7   8  1   
 14   8   9  1   
 15   9  10  1   
 16   9  30  1   
 17   9  31  1   
 18  10  11  am  
 19  10  32  1   
 20  11  12  2   
 21  11  13  1   
 22  13  14  1   
 23  13  33  1   
 24  13  34  1   
 25  14  15  1   
 26  14  35  1   
 27  14  36  1   
 28  15  16  2   
 29  15  17  am  
 30  17  18  1   
 31  17  19  1   
 32  18  20  1   
 33  18  21  1   
 34  18  37  1   
 35  19  38  1   
 36  19  39  1   
 37  19  40  1   
 38  20  22  1   
 39  20  41  1   
 40  20  42  1   
 41  21  23  1   
 42  21  43  1   
 43  21  44  1   
 44  22  24  1   
 45  22  45  1   
 46  22  46  1   
 47  23  24  1   
 48  23  47  1   
 49  23  48  1   
 50  24  49  1   
 51  24  50  1   
@<TRIPOS>SUBSTRUCTURE
  1 ****  14 GROUP 4 **** **** 0

# MOE 2024.06 (io_trps.svl 2023.06)
