@<TRIPOS>MOLECULE
NONAME
41 43 1 0 0 
SMALL
USER_CHARGES


@<TRIPOS>ATOM
  1 F       -0.3720    -2.4150    -2.7960 F     1 <1>  -0.3400 
  2 C        0.1110    -2.7650    -1.6130 C.3   1 <1>   1.2400 
  3 F        1.3020    -2.2010    -1.4770 F     1 <1>  -0.3400 
  4 O        0.2320    -4.1780    -1.5390 O.3   1 <1>  -0.3630 
  5 O       -0.7580    -2.3240    -0.5820 O.3   1 <1>  -0.3630 
  6 C       -0.5390    -4.5360    -0.5080 C.ar  1 <1>   0.0830 
  7 C       -1.1260    -3.4390     0.0600 C.ar  1 <1>   0.0830 
  8 C       -0.7660    -5.8090    -0.0270 C.ar  1 <1>  -0.1500 
  9 C       -1.9690    -3.5590     1.1440 C.ar  1 <1>  -0.1500 
 10 C       -1.6330    -5.9600     1.0530 C.ar  1 <1>  -0.1440 
 11 C       -2.2160    -4.8330     1.6390 C.ar  1 <1>  -0.1500 
 12 C       -1.9440    -7.3490     1.5930 C.3   1 <1>   0.4870 
 13 N       -3.1310    -7.9180     0.8980 N.4   1 <1>  -0.9590 
 14 C       -2.8710    -8.1700    -0.5470 C.3   1 <1>   0.5240 
 15 C       -4.3790    -7.1270     1.1420 C.3   1 <1>   0.3430 
 16 C       -3.4970    -9.5170    -0.8810 C.2   1 <1>   0.0460 
 17 C       -5.6670    -7.8600     0.7410 C.3   1 <1>   0.1200 
 18 N       -3.5830   -10.4720     0.0720 N.2   1 <1>  -0.5650 
 19 C       -4.0340    -9.9480    -2.0430 C.2   1 <1>  -0.3020 
 20 O       -6.7300    -7.0390     1.0730 O.3   1 <1>  -0.6800 
 21 C       -4.1550   -11.4630    -0.5310 C.2   1 <1>   0.0060 
 22 N       -4.4560   -11.2080    -1.8230 N.pl3 1 <1>   0.0330 
 23 C       -4.4630   -12.7910     0.1290 C.3   1 <1>  -0.0600 
 24 H       -0.2670    -6.6400    -0.4950 H     1 <1>   0.1500 
 25 H       -2.4150    -2.6830     1.5850 H     1 <1>   0.1500 
 26 H       -2.8700    -4.9310     2.4900 H     1 <1>   0.1500 
 27 H       -2.1370    -7.2870     2.6520 H     1 <1>   0.0800 
 28 H       -1.0910    -7.9930     1.4490 H     1 <1>   0.0800 
 29 H       -3.2880    -8.8850     1.2450 H     1 <1>   0.4500 
 30 H       -1.8120    -8.2420    -0.7250 H     1 <1>   0.0800 
 31 H       -3.2800    -7.3870    -1.1630 H     1 <1>   0.0800 
 32 H       -4.3280    -6.1970     0.6000 H     1 <1>   0.0800 
 33 H       -4.4500    -6.8990     2.1920 H     1 <1>   0.0800 
 34 H       -5.7720    -8.7850     1.2840 H     1 <1>   0.0800 
 35 H       -5.7090    -8.0410    -0.3180 H     1 <1>   0.0800 
 36 H       -4.1380    -9.4570    -2.9950 H     1 <1>   0.1500 
 37 H       -7.5900    -7.4590     0.8580 H     1 <1>   0.4000 
 38 H       -4.9030   -11.8480    -2.4890 H     1 <1>   0.2700 
 39 H       -4.1380   -12.7780     1.1540 H     1 <1>   0.0800 
 40 H       -3.9490   -13.5850    -0.3820 H     1 <1>   0.0800 
 41 H       -5.5210   -12.9820     0.1060 H     1 <1>   0.0800 
@<TRIPOS>BOND
  1   1   2  1   
  2   2   3  1   
  3   2   4  1   
  4   2   5  1   
  5   4   6  1   
  6   5   7  1   
  7   6   7  ar  
  8   6   8  ar  
  9   7   9  ar  
 10   8  10  ar  
 11   8  24  1   
 12   9  11  ar  
 13   9  25  1   
 14  10  11  ar  
 15  10  12  1   
 16  11  26  1   
 17  12  13  1   
 18  12  27  1   
 19  12  28  1   
 20  13  14  1   
 21  13  15  1   
 22  13  29  1   
 23  14  16  1   
 24  14  30  1   
 25  14  31  1   
 26  15  17  1   
 27  15  32  1   
 28  15  33  1   
 29  16  18  1   
 30  16  19  2   
 31  17  20  1   
 32  17  34  1   
 33  17  35  1   
 34  18  21  2   
 35  19  22  1   
 36  19  36  1   
 37  20  37  1   
 38  21  22  1   
 39  21  23  1   
 40  22  38  1   
 41  23  39  1   
 42  23  40  1   
 43  23  41  1   
@<TRIPOS>SUBSTRUCTURE
  1 ****  14 GROUP 4 **** **** 0

# MOE 2024.06 (io_trps.svl 2023.06)
