@<TRIPOS>MOLECULE
NONAME
51 53 1 0 0 
SMALL
USER_CHARGES


@<TRIPOS>ATOM
  1 O        1.4550     0.5750    -0.8400 O.3   1 <1>  -0.6800 
  2 C        1.7510     0.2830     0.4780 C.3   1 <1>   0.2800 
  3 C        3.2910     0.2310     0.6410 C.3   1 <1>  -0.0800 
  4 C        1.1470    -1.0960     0.7980 C.3   1 <1>  -0.1600 
  5 C        1.0760     1.3650     1.3500 C.3   1 <1>  -0.1600 
  6 C        3.9570    -1.1170     0.2860 C.3   1 <1>  -0.0800 
  7 C        4.0320     1.2490    -0.2160 C.3   1 <1>   0.3430 
  8 C        1.6970    -2.2540    -0.0610 C.3   1 <1>  -0.1600 
  9 C        1.5150     2.8190     1.1040 C.3   1 <1>  -0.2400 
 10 C        3.0940    -1.9870    -0.6430 C.3   1 <1>  -0.1600 
 11 C        5.2870    -0.7650    -0.3900 C.3   1 <1>   0.3430 
 12 N        5.4100     0.7120    -0.3260 N.4   1 <1>  -0.9590 
 13 C        6.1620     1.3170    -1.4530 C.3   1 <1>   0.4860 
 14 C        6.3730     2.7830    -1.1280 C.ar  1 <1>  -0.1430 
 15 C        7.3360     3.2230    -0.2180 C.ar  1 <1>  -0.1430 
 16 C        5.5480     3.7010    -1.7640 C.ar  1 <1>  -0.1500 
 17 C        7.4390     4.5860     0.0560 C.ar  1 <1>  -0.1430 
 18 C        8.2920     2.2580     0.4870 C.3   1 <1>  -0.0970 
 19 C        5.6600     5.0480    -1.4920 C.ar  1 <1>  -0.1500 
 20 C        6.6010     5.4860    -0.5820 C.ar  1 <1>  -0.1500 
 21 C        8.4570     5.1410     1.0460 C.3   1 <1>  -0.0970 
 22 H        0.4880     0.5300    -0.9690 H     1 <1>   0.4000 
 23 H        3.5220     0.4390     1.6710 H     1 <1>   0.0800 
 24 H        1.3670    -1.3170     1.8280 H     1 <1>   0.0800 
 25 H        0.0750    -1.0670     0.7150 H     1 <1>   0.0800 
 26 H        0.0110     1.3070     1.2050 H     1 <1>   0.0800 
 27 H        1.2520     1.1340     2.3870 H     1 <1>   0.0800 
 28 H        4.1500    -1.6730     1.1890 H     1 <1>   0.0800 
 29 H        4.0240     2.2340     0.2210 H     1 <1>   0.0800 
 30 H        3.5820     1.2930    -1.1950 H     1 <1>   0.0800 
 31 H        1.7210    -3.1470     0.5410 H     1 <1>   0.0800 
 32 H        1.0210    -2.4420    -0.8780 H     1 <1>   0.0800 
 33 H        1.4330     3.0770     0.0620 H     1 <1>   0.0800 
 34 H        2.5240     2.9840     1.4340 H     1 <1>   0.0800 
 35 H        0.8790     3.4850     1.6610 H     1 <1>   0.0800 
 36 H        2.9750    -1.4830    -1.5880 H     1 <1>   0.0800 
 37 H        3.5810    -2.9270    -0.8400 H     1 <1>   0.0800 
 38 H        5.2560    -1.0870    -1.4190 H     1 <1>   0.0800 
 39 H        6.1150    -1.2470     0.1050 H     1 <1>   0.0800 
 40 H        5.8990     0.9850     0.5350 H     1 <1>   0.4500 
 41 H        7.1150     0.8320    -1.5780 H     1 <1>   0.0800 
 42 H        5.6040     1.2160    -2.3700 H     1 <1>   0.0800 
 43 H        4.8070     3.3820    -2.4780 H     1 <1>   0.1500 
 44 H        9.3050     2.5980     0.3650 H     1 <1>   0.0800 
 45 H        8.2510     1.2590     0.1030 H     1 <1>   0.0800 
 46 H        8.0710     2.2290     1.5390 H     1 <1>   0.0800 
 47 H        5.0200     5.7590    -1.9860 H     1 <1>   0.1500 
 48 H        6.6780     6.5400    -0.3790 H     1 <1>   0.1500 
 49 H        8.3110     6.1950     1.2010 H     1 <1>   0.0800 
 50 H        9.4540     4.9950     0.6720 H     1 <1>   0.0800 
 51 H        8.3610     4.6520     1.9990 H     1 <1>   0.0800 
@<TRIPOS>BOND
  1   1   2  1   
  2   1  22  1   
  3   2   3  1   
  4   2   4  1   
  5   2   5  1   
  6   3   6  1   
  7   3   7  1   
  8   3  23  1   
  9   4   8  1   
 10   4  24  1   
 11   4  25  1   
 12   5   9  1   
 13   5  26  1   
 14   5  27  1   
 15   6  10  1   
 16   6  11  1   
 17   6  28  1   
 18   7  12  1   
 19   7  29  1   
 20   7  30  1   
 21   8  10  1   
 22   8  31  1   
 23   8  32  1   
 24   9  33  1   
 25   9  34  1   
 26   9  35  1   
 27  10  36  1   
 28  10  37  1   
 29  11  12  1   
 30  11  38  1   
 31  11  39  1   
 32  12  13  1   
 33  12  40  1   
 34  13  14  1   
 35  13  41  1   
 36  13  42  1   
 37  14  15  ar  
 38  14  16  ar  
 39  15  17  ar  
 40  15  18  1   
 41  16  19  ar  
 42  16  43  1   
 43  17  20  ar  
 44  17  21  1   
 45  18  44  1   
 46  18  45  1   
 47  18  46  1   
 48  19  20  ar  
 49  19  47  1   
 50  20  48  1   
 51  21  49  1   
 52  21  50  1   
 53  21  51  1   
@<TRIPOS>SUBSTRUCTURE
  1 ****   7 GROUP 4 **** **** 0

# MOE 2024.06 (io_trps.svl 2023.06)
