@<TRIPOS>MOLECULE
NONAME
42 44 1 0 0 
SMALL
USER_CHARGES


@<TRIPOS>ATOM
  1 O       -0.0880     0.9110    -0.6540 O.3   1 <1>  -0.6800 
  2 C       -1.1080     1.1170     0.2480 C.3   1 <1>   0.3440 
  3 C       -2.3580     0.4210    -0.2710 C.ar  1 <1>  -0.1440 
  4 C       -1.3120     2.6240     0.4050 C.3   1 <1>  -0.1600 
  5 C       -3.0840    -0.4080     0.5730 C.ar  1 <1>  -0.1500 
  6 C       -2.7930     0.6010    -1.5780 C.ar  1 <1>  -0.1500 
  7 C        0.0180     3.3250     0.6760 C.3   1 <1>   0.3430 
  8 C       -4.2270    -1.0430     0.1190 C.ar  1 <1>  -0.1500 
  9 C       -3.9360    -0.0340    -2.0320 C.ar  1 <1>  -0.1500 
 10 N       -0.1730     4.7990     0.7310 N.4   1 <1>  -0.9590 
 11 C       -4.6540    -0.8560    -1.1830 C.ar  1 <1>  -0.1500 
 12 C        1.1290     5.5300     0.5490 C.3   1 <1>   0.5240 
 13 C       -0.8930     5.2760     1.9530 C.3   1 <1>   0.2630 
 14 C        0.8790     6.9900     0.1530 C.2   1 <1>   0.3350 
 15 N        1.6240     7.9730     0.5520 N.2   1 <1>  -0.7070 
 16 N       -0.1650     7.2890    -0.6230 N.2   1 <1>  -0.5650 
 17 N        1.0350     9.0180    -0.0250 N.pl3 1 <1>   0.6010 
 18 C       -0.0500     8.5770    -0.7250 C.2   1 <1>   0.3120 
 19 C        1.3420    10.3610     0.0020 C.2   1 <1>  -0.1810 
 20 N       -0.8890     9.4090    -1.4210 N.2   1 <1>  -0.5760 
 21 C        0.5230    11.2000    -0.6870 C.2   1 <1>  -0.1360 
 22 C       -0.5950    10.6690    -1.3930 C.2   1 <1>   0.3760 
 23 H       -0.1920     0.0110    -1.0300 H     1 <1>   0.4000 
 24 H       -0.8020     0.6770     1.1830 H     1 <1>   0.0800 
 25 H       -2.0020     2.7850     1.2120 H     1 <1>   0.0800 
 26 H       -1.7480     3.0100    -0.4990 H     1 <1>   0.0800 
 27 H       -2.7700    -0.5690     1.5900 H     1 <1>   0.1500 
 28 H       -2.2460     1.2370    -2.2530 H     1 <1>   0.1500 
 29 H        0.6990     3.0800    -0.1250 H     1 <1>   0.0800 
 30 H        0.4440     2.9660     1.5990 H     1 <1>   0.0800 
 31 H       -4.7860    -1.6850     0.7790 H     1 <1>   0.1500 
 32 H       -4.2670     0.1100    -3.0460 H     1 <1>   0.1500 
 33 H       -0.7290     5.1000    -0.0900 H     1 <1>   0.4500 
 34 H       -5.5430    -1.3510    -1.5350 H     1 <1>   0.1500 
 35 H        1.7000     5.0670    -0.2380 H     1 <1>   0.0800 
 36 H        1.7100     5.5010     1.4550 H     1 <1>   0.0800 
 37 H       -0.3350     5.0290     2.8410 H     1 <1>   0.0800 
 38 H       -1.8670     4.8190     2.0160 H     1 <1>   0.0800 
 39 H       -1.0250     6.3460     1.9120 H     1 <1>   0.0800 
 40 H        2.2080    10.6540     0.5660 H     1 <1>   0.1500 
 41 H        0.6850    12.2630    -0.7230 H     1 <1>   0.1500 
 42 H       -1.2220    11.3630    -1.9260 H     1 <1>   0.0600 
@<TRIPOS>BOND
  1   1   2  1   
  2   1  23  1   
  3   2   3  1   
  4   2   4  1   
  5   2  24  1   
  6   3   5  ar  
  7   3   6  ar  
  8   4   7  1   
  9   4  25  1   
 10   4  26  1   
 11   5   8  ar  
 12   5  27  1   
 13   6   9  ar  
 14   6  28  1   
 15   7  10  1   
 16   7  29  1   
 17   7  30  1   
 18   8  11  ar  
 19   8  31  1   
 20   9  11  ar  
 21   9  32  1   
 22  10  12  1   
 23  10  13  1   
 24  10  33  1   
 25  11  34  1   
 26  12  14  1   
 27  12  35  1   
 28  12  36  1   
 29  13  37  1   
 30  13  38  1   
 31  13  39  1   
 32  14  15  2   
 33  14  16  1   
 34  15  17  1   
 35  16  18  2   
 36  17  18  1   
 37  17  19  1   
 38  18  20  1   
 39  19  21  2   
 40  19  40  1   
 41  20  22  2   
 42  21  22  1   
 43  21  41  1   
 44  22  42  1   
@<TRIPOS>SUBSTRUCTURE
  1 ****  10 GROUP 4 **** **** 0

# MOE 2024.06 (io_trps.svl 2023.06)
