@<TRIPOS>MOLECULE
NONAME
47 48 1 0 0 
SMALL
USER_CHARGES


@<TRIPOS>ATOM
  1 S        0.3220     0.0630     0.3850 S.o2  1 <1>   1.3330 
  2 O       -0.1050     1.0810     1.3170 O.2   1 <1>  -0.6500 
  3 O        0.4930    -1.2980     0.8420 O.2   1 <1>  -0.6500 
  4 N       -0.7670     0.0380    -0.9180 N.am  1 <1>  -0.8490 
  5 C        1.8470     0.6150    -0.3750 C.3   1 <1>  -0.0550 
  6 C       -2.1480     0.2910    -0.4950 C.3   1 <1>   0.1160 
  7 C       -0.7030    -1.1920    -1.7120 C.3   1 <1>   0.1160 
  8 C        2.9820     0.8400     0.6380 C.3   1 <1>  -0.0800 
  9 C        4.2620     1.3330    -0.0300 C.3   1 <1>   0.2200 
 10 C        3.4290    -0.4170     1.3820 C.3   1 <1>   0.1200 
 11 N        4.4790     2.7540     0.3140 N.am  1 <1>  -0.7300 
 12 C        5.3540     0.4310     0.5470 C.3   1 <1>   0.1200 
 13 O        4.7800    -0.2160     1.6360 O.3   1 <1>  -0.5600 
 14 C        4.1230     3.7860    -0.4880 C.2   1 <1>   0.5690 
 15 O        3.6440     3.6050    -1.5800 O.2   1 <1>  -0.5700 
 16 C        4.3200     5.2040     0.0090 C.3   1 <1>  -0.0990 
 17 C        5.7000     5.7600    -0.3770 C.3   1 <1>  -0.1600 
 18 C        5.8830     7.2060     0.1050 C.3   1 <1>   0.0210 
 19 C        7.2450     7.7720    -0.2620 C.2   1 <1>  -0.1810 
 20 C        7.7330     9.0110     0.1450 C.2   1 <1>   0.1390 
 21 C        8.2360     7.2520    -1.0180 C.2   1 <1>  -0.3020 
 22 N        8.9240     9.2500    -0.3120 N.2   1 <1>  -0.7070 
 23 N        9.2340     8.1580    -1.0340 N.pl3 1 <1>   0.3000 
 24 H        2.1590    -0.1010    -1.1100 H     1 <1>   0.0800 
 25 H        1.6610     1.5440    -0.8820 H     1 <1>   0.0800 
 26 H       -2.8070     0.2850    -1.3460 H     1 <1>   0.0800 
 27 H       -2.2180     1.2570    -0.0230 H     1 <1>   0.0800 
 28 H       -2.4670    -0.4610     0.2080 H     1 <1>   0.0800 
 29 H       -1.3460    -1.1110    -2.5720 H     1 <1>   0.0800 
 30 H       -1.0130    -2.0390    -1.1210 H     1 <1>   0.0800 
 31 H        0.3030    -1.3600    -2.0560 H     1 <1>   0.0800 
 32 H        2.6510     1.5510     1.3770 H     1 <1>   0.0800 
 33 H        4.2320     1.2170    -1.1010 H     1 <1>   0.0800 
 34 H        3.3320    -1.3020     0.7740 H     1 <1>   0.0800 
 35 H        2.9090    -0.5550     2.3150 H     1 <1>   0.0800 
 36 H        4.8170     2.9250     1.2630 H     1 <1>   0.3700 
 37 H        6.2220     0.9770     0.8730 H     1 <1>   0.0800 
 38 H        5.6390    -0.3220    -0.1670 H     1 <1>   0.0800 
 39 H        3.5490     5.8180    -0.4220 H     1 <1>   0.0800 
 40 H        4.1980     5.2230     1.0770 H     1 <1>   0.0800 
 41 H        6.4700     5.1420     0.0510 H     1 <1>   0.0800 
 42 H        5.8020     5.7280    -1.4490 H     1 <1>   0.0800 
 43 H        5.7720     7.2450     1.1740 H     1 <1>   0.0800 
 44 H        5.1230     7.8300    -0.3330 H     1 <1>   0.0800 
 45 H        7.1930     9.7040     0.7690 H     1 <1>   0.1500 
 46 H        8.2910     6.3130    -1.5370 H     1 <1>   0.1500 
 47 H       10.1320     8.0640    -1.5240 H     1 <1>   0.2700 
@<TRIPOS>BOND
  1   1   2  2   
  2   1   3  2   
  3   1   4  am  
  4   1   5  1   
  5   4   6  1   
  6   4   7  1   
  7   5   8  1   
  8   5  24  1   
  9   5  25  1   
 10   6  26  1   
 11   6  27  1   
 12   6  28  1   
 13   7  29  1   
 14   7  30  1   
 15   7  31  1   
 16   8   9  1   
 17   8  10  1   
 18   8  32  1   
 19   9  11  1   
 20   9  12  1   
 21   9  33  1   
 22  10  13  1   
 23  10  34  1   
 24  10  35  1   
 25  11  14  am  
 26  11  36  1   
 27  12  13  1   
 28  12  37  1   
 29  12  38  1   
 30  14  15  2   
 31  14  16  1   
 32  16  17  1   
 33  16  39  1   
 34  16  40  1   
 35  17  18  1   
 36  17  41  1   
 37  17  42  1   
 38  18  19  1   
 39  18  43  1   
 40  18  44  1   
 41  19  20  1   
 42  19  21  2   
 43  20  22  2   
 44  20  45  1   
 45  21  23  1   
 46  21  46  1   
 47  22  23  1   
 48  23  47  1   
@<TRIPOS>SUBSTRUCTURE
  1 ****  11 GROUP 4 **** **** 0

# MOE 2024.06 (io_trps.svl 2023.06)
