@<TRIPOS>MOLECULE
NONAME
53 54 1 0 0 
SMALL
USER_CHARGES


@<TRIPOS>ATOM
  1 O       -1.3050    -0.4240     0.5350 O.3   1 <1>  -0.3630 
  2 C       -1.6850    -1.1620    -0.5350 C.ar  1 <1>   0.0830 
  3 C       -1.1290     0.9720     0.4350 C.3   1 <1>   0.2580 
  4 C       -1.6390    -2.5370    -0.3800 C.ar  1 <1>  -0.1500 
  5 C       -2.1060    -0.6220    -1.7460 C.ar  1 <1>  -0.1500 
  6 C       -0.6000     1.4760     1.7640 C.2   1 <1>  -0.2880 
  7 C       -2.0190    -3.3840    -1.4110 C.ar  1 <1>  -0.1430 
  8 C       -2.4670    -1.4600    -2.7840 C.ar  1 <1>  -0.1500 
  9 C        0.5440     2.1470     1.9400 C.2   1 <1>  -0.3000 
 10 C       -2.4210    -2.8340    -2.6210 C.ar  1 <1>  -0.1500 
 11 C       -1.9860    -4.8930    -1.2160 C.3   1 <1>   0.4860 
 12 N       -3.2770    -5.3750    -0.6410 N.4   1 <1>  -0.9590 
 13 C       -4.4380    -5.0750    -1.5300 C.3   1 <1>   0.3430 
 14 C       -3.5290    -4.8450     0.7280 C.3   1 <1>   0.3430 
 15 C       -5.6860    -5.8240    -1.0250 C.3   1 <1>   0.2000 
 16 C       -4.7780    -5.4960     1.3290 C.3   1 <1>  -0.1600 
 17 O       -5.3560    -7.1810    -1.1040 O.3   1 <1>  -0.6800 
 18 C       -6.0560    -5.4490     0.4430 C.3   1 <1>   0.0000 
 19 C       -7.0660    -6.5010     0.9900 C.3   1 <1>   0.1200 
 20 C       -6.7710    -4.0600     0.5330 C.3   1 <1>  -0.1600 
 21 O       -7.4660    -6.2050     2.2860 O.3   1 <1>  -0.6800 
 22 C       -6.1790    -2.8300    -0.1800 C.3   1 <1>  -0.1600 
 23 C       -6.9720    -1.5710     0.1770 C.3   1 <1>  -0.2400 
 24 H       -0.4290     1.1740    -0.3570 H     1 <1>   0.0800 
 25 H       -2.0810     1.4230     0.2150 H     1 <1>   0.0800 
 26 H       -1.2950    -2.9220     0.5640 H     1 <1>   0.1500 
 27 H       -2.1550     0.4400    -1.8990 H     1 <1>   0.1500 
 28 H       -1.2570     1.2290     2.5800 H     1 <1>   0.1500 
 29 H       -2.7820    -1.0390    -3.7250 H     1 <1>   0.1500 
 30 H        0.8950     2.4910     2.8980 H     1 <1>   0.1500 
 31 H        1.2260     2.4080     1.1490 H     1 <1>   0.1500 
 32 H       -2.6990    -3.4620    -3.4510 H     1 <1>   0.1500 
 33 H       -1.1720    -5.1500    -0.5580 H     1 <1>   0.0800 
 34 H       -1.8090    -5.3700    -2.1660 H     1 <1>   0.0800 
 35 H       -3.2660    -6.4060    -0.5810 H     1 <1>   0.4500 
 36 H       -4.6070    -4.0150    -1.5600 H     1 <1>   0.0800 
 37 H       -4.2290    -5.4020    -2.5340 H     1 <1>   0.0800 
 38 H       -2.6820    -5.0530     1.3630 H     1 <1>   0.0800 
 39 H       -3.6550    -3.7760     0.6890 H     1 <1>   0.0800 
 40 H       -6.5180    -5.6450    -1.6860 H     1 <1>   0.0800 
 41 H       -4.5290    -6.5230     1.5350 H     1 <1>   0.0800 
 42 H       -4.9760    -5.0320     2.2790 H     1 <1>   0.0800 
 43 H       -6.1620    -7.7410    -1.0990 H     1 <1>   0.4000 
 44 H       -6.6470    -7.4920     1.0070 H     1 <1>   0.0800 
 45 H       -7.9550    -6.5180     0.3820 H     1 <1>   0.0800 
 46 H       -7.7740    -4.1780     0.1570 H     1 <1>   0.0800 
 47 H       -6.8810    -3.8060     1.5750 H     1 <1>   0.0800 
 48 H       -6.7560    -6.3830     2.9330 H     1 <1>   0.4000 
 49 H       -5.1570    -2.6650     0.1040 H     1 <1>   0.0800 
 50 H       -6.2360    -2.9540    -1.2470 H     1 <1>   0.0800 
 51 H       -6.9270    -1.3790     1.2350 H     1 <1>   0.0800 
 52 H       -8.0050    -1.6780    -0.1090 H     1 <1>   0.0800 
 53 H       -6.5650    -0.7180    -0.3380 H     1 <1>   0.0800 
@<TRIPOS>BOND
  1   1   2  1   
  2   1   3  1   
  3   2   4  ar  
  4   2   5  ar  
  5   3   6  1   
  6   3  24  1   
  7   3  25  1   
  8   4   7  ar  
  9   4  26  1   
 10   5   8  ar  
 11   5  27  1   
 12   6   9  2   
 13   6  28  1   
 14   7  10  ar  
 15   7  11  1   
 16   8  10  ar  
 17   8  29  1   
 18   9  30  1   
 19   9  31  1   
 20  10  32  1   
 21  11  12  1   
 22  11  33  1   
 23  11  34  1   
 24  12  13  1   
 25  12  14  1   
 26  12  35  1   
 27  13  15  1   
 28  13  36  1   
 29  13  37  1   
 30  14  16  1   
 31  14  38  1   
 32  14  39  1   
 33  15  17  1   
 34  15  18  1   
 35  15  40  1   
 36  16  18  1   
 37  16  41  1   
 38  16  42  1   
 39  17  43  1   
 40  18  19  1   
 41  18  20  1   
 42  19  21  1   
 43  19  44  1   
 44  19  45  1   
 45  20  22  1   
 46  20  46  1   
 47  20  47  1   
 48  21  48  1   
 49  22  23  1   
 50  22  49  1   
 51  22  50  1   
 52  23  51  1   
 53  23  52  1   
 54  23  53  1   
@<TRIPOS>SUBSTRUCTURE
  1 ****  14 GROUP 4 **** **** 0

# MOE 2024.06 (io_trps.svl 2023.06)
