@<TRIPOS>MOLECULE
NONAME
47 50 1 0 0 
SMALL
USER_CHARGES


@<TRIPOS>ATOM
  1 O       -0.2370     0.5980     0.2520 O.2   1 <1>  -0.5700 
  2 C       -1.3780     1.0020     0.1970 C.2   1 <1>   0.5440 
  3 N       -1.5490     2.3340     0.0080 N.am  1 <1>  -0.7300 
  4 C       -2.5380     0.1410     0.3410 C.ar  1 <1>   0.0860 
  5 C       -2.9010     2.9690    -0.0930 C.3   1 <1>   0.2810 
  6 C       -3.7850     0.7050     0.6330 C.ar  1 <1>  -0.1440 
  7 C       -2.4610    -1.2430     0.1930 C.ar  1 <1>  -0.1500 
  8 C       -2.8570     4.4870     0.1520 C.2   1 <1>   0.5690 
  9 C       -3.8820     2.2180     0.8280 C.3   1 <1>  -0.0160 
 10 C       -4.9090    -0.0940     0.7600 C.ar  1 <1>  -0.1500 
 11 C       -3.5840    -2.0400     0.3190 C.ar  1 <1>  -0.1500 
 12 O       -3.6270     4.9920     0.9360 O.2   1 <1>  -0.5700 
 13 N       -1.9210     5.2050    -0.5480 N.am  1 <1>  -0.4940 
 14 C       -4.8100    -1.4650     0.6010 C.ar  1 <1>  -0.1500 
 15 C       -1.6570     6.5970    -0.5170 C.2   1 <1>  -0.0880 
 16 N       -0.4130     7.1490    -0.4370 N.pl3 1 <1>   0.3140 
 17 C       -2.5310     7.6320    -0.5680 C.2   1 <1>  -0.1810 
 18 N       -0.4760     8.5040    -0.4490 N.2   1 <1>  -0.7070 
 19 C        0.8770     6.4110    -0.3030 C.3   1 <1>   0.1760 
 20 C       -1.7410     8.7750    -0.5200 C.2   1 <1>   0.1390 
 21 C       -4.0450     7.6190    -0.6630 C.3   1 <1>  -0.0590 
 22 C        1.6690     6.7940     0.9470 C.3   1 <1>  -0.1600 
 23 C        1.8510     6.6810    -1.4510 C.3   1 <1>  -0.1600 
 24 C        3.1050     6.3600     0.6420 C.3   1 <1>  -0.1600 
 25 C        3.2360     6.3470    -0.8880 C.3   1 <1>  -0.1600 
 26 H       -0.7340     2.9180     0.1970 H     1 <1>   0.3700 
 27 H       -3.2440     2.8300    -1.1030 H     1 <1>   0.0800 
 28 H       -1.5070    -1.6910    -0.0250 H     1 <1>   0.1500 
 29 H       -4.8830     2.5570     0.6260 H     1 <1>   0.0800 
 30 H       -3.6600     2.4550     1.8540 H     1 <1>   0.0800 
 31 H       -5.8670     0.3420     0.9880 H     1 <1>   0.1500 
 32 H       -3.5040    -3.1070     0.1990 H     1 <1>   0.1500 
 33 H       -1.3360     4.6590    -1.1820 H     1 <1>   0.3700 
 34 H       -5.6850    -2.0840     0.7010 H     1 <1>   0.1500 
 35 H        0.6760     5.3570    -0.2630 H     1 <1>   0.0800 
 36 H       -2.1270     9.7800    -0.5410 H     1 <1>   0.1500 
 37 H       -4.3840     6.7010    -1.1050 H     1 <1>   0.0800 
 38 H       -4.3890     8.4390    -1.2650 H     1 <1>   0.0800 
 39 H       -4.4680     7.7030     0.3220 H     1 <1>   0.0800 
 40 H        1.2830     6.3160     1.8300 H     1 <1>   0.0800 
 41 H        1.6470     7.8630     1.0780 H     1 <1>   0.0800 
 42 H        1.8230     7.7270    -1.7080 H     1 <1>   0.0800 
 43 H        1.6200     6.0920    -2.3200 H     1 <1>   0.0800 
 44 H        3.2760     5.3690     1.0260 H     1 <1>   0.0800 
 45 H        3.8140     7.0330     1.0930 H     1 <1>   0.0800 
 46 H        3.9610     7.0710    -1.2200 H     1 <1>   0.0800 
 47 H        3.5490     5.3710    -1.2170 H     1 <1>   0.0800 
@<TRIPOS>BOND
  1   1   2  2   
  2   2   3  am  
  3   2   4  1   
  4   3   5  1   
  5   3  26  1   
  6   4   6  ar  
  7   4   7  ar  
  8   5   8  1   
  9   5   9  1   
 10   5  27  1   
 11   6   9  1   
 12   6  10  ar  
 13   7  11  ar  
 14   7  28  1   
 15   8  12  2   
 16   8  13  am  
 17   9  29  1   
 18   9  30  1   
 19  10  14  ar  
 20  10  31  1   
 21  11  14  ar  
 22  11  32  1   
 23  13  15  1   
 24  13  33  1   
 25  14  34  1   
 26  15  16  1   
 27  15  17  2   
 28  16  18  1   
 29  16  19  1   
 30  17  20  1   
 31  17  21  1   
 32  18  20  2   
 33  19  22  1   
 34  19  23  1   
 35  19  35  1   
 36  20  36  1   
 37  21  37  1   
 38  21  38  1   
 39  21  39  1   
 40  22  24  1   
 41  22  40  1   
 42  22  41  1   
 43  23  25  1   
 44  23  42  1   
 45  23  43  1   
 46  24  25  1   
 47  24  44  1   
 48  24  45  1   
 49  25  46  1   
 50  25  47  1   
@<TRIPOS>SUBSTRUCTURE
  1 ****   8 GROUP 4 **** **** 0

# MOE 2024.06 (io_trps.svl 2023.06)
