@<TRIPOS>MOLECULE
NONAME
56 58 1 0 0 
SMALL
USER_CHARGES


@<TRIPOS>ATOM
  1 CL      -2.8060    -0.0830    -2.5170 Cl    1 <1>  -0.1770 
  2 C       -2.7950     0.9830    -1.1320 C.ar  1 <1>   0.1770 
  3 C       -2.9360     0.4500     0.1400 C.ar  1 <1>  -0.1440 
  4 C       -2.6620     2.3420    -1.3370 C.ar  1 <1>  -0.1500 
  5 C       -2.9530     1.3120     1.2270 C.ar  1 <1>  -0.1500 
  6 C       -3.0790    -1.0450     0.3320 C.3   1 <1>   0.4870 
  7 C       -2.6720     3.1970    -0.2490 C.ar  1 <1>   0.0820 
  8 C       -2.8440     2.6820     1.0430 C.ar  1 <1>   0.0820 
  9 N       -4.4210    -1.5150    -0.1290 N.4   1 <1>  -0.9590 
 10 O       -2.5050     4.5150    -0.4970 O.3   1 <1>  -0.3620 
 11 O       -2.9190     3.4410     2.1660 O.3   1 <1>  -0.3620 
 12 C       -5.5290    -1.0120     0.7560 C.3   1 <1>   0.4230 
 13 C       -4.3570    -2.9970    -0.3380 C.3   1 <1>   0.2630 
 14 C       -1.2360     5.0420    -0.1790 C.3   1 <1>   0.1200 
 15 C       -3.7670     4.5710     2.1710 C.3   1 <1>   0.0400 
 16 C       -6.7460    -1.9440     0.8340 C.3   1 <1>  -0.1600 
 17 C       -6.1520     0.2320     0.1160 C.3   1 <1>  -0.1600 
 18 C       -1.2400     6.5350    -0.5060 C.3   1 <1>  -0.1600 
 19 C       -7.5350    -1.7030    -0.4620 C.3   1 <1>  -0.0800 
 20 C       -7.1460    -0.2960    -0.9280 C.3   1 <1>  -0.0800 
 21 C        0.1100     7.1810    -0.1780 C.3   1 <1>  -0.2400 
 22 C       -9.0630    -1.7130    -0.3160 C.3   1 <1>  -0.1600 
 23 C       -8.4470     0.5060    -1.0600 C.3   1 <1>  -0.1600 
 24 C       -9.5320    -0.5550    -1.1870 C.3   1 <1>   0.2000 
 25 O      -10.7320    -0.0660    -0.7250 O.3   1 <1>  -0.6800 
 26 H       -2.5480     2.7380    -2.3310 H     1 <1>   0.1500 
 27 H       -3.0570     0.9450     2.2340 H     1 <1>   0.1500 
 28 H       -2.9360    -1.2960     1.3710 H     1 <1>   0.0800 
 29 H       -2.3060    -1.5340    -0.2390 H     1 <1>   0.0800 
 30 H       -4.5750    -1.0790    -1.0490 H     1 <1>   0.4500 
 31 H       -5.1520    -0.7990     1.7440 H     1 <1>   0.0800 
 32 H       -4.2190    -3.5050     0.6030 H     1 <1>   0.0800 
 33 H       -3.5370    -3.2480    -0.9920 H     1 <1>   0.0800 
 34 H       -5.2680    -3.3520    -0.7920 H     1 <1>   0.0800 
 35 H       -1.0460     4.8800     0.8690 H     1 <1>   0.0800 
 36 H       -0.4970     4.5230    -0.7650 H     1 <1>   0.0800 
 37 H       -4.0030     4.8090     3.1930 H     1 <1>   0.0800 
 38 H       -4.6680     4.3430     1.6290 H     1 <1>   0.0800 
 39 H       -3.2570     5.4020     1.7200 H     1 <1>   0.0800 
 40 H       -6.5230    -2.9790     1.0110 H     1 <1>   0.0800 
 41 H       -7.3370    -1.6110     1.6700 H     1 <1>   0.0800 
 42 H       -6.6850     0.7580     0.8900 H     1 <1>   0.0800 
 43 H       -5.4520     0.9210    -0.3150 H     1 <1>   0.0800 
 44 H       -1.4510     6.6680    -1.5530 H     1 <1>   0.0800 
 45 H       -2.0120     7.0220     0.0650 H     1 <1>   0.0800 
 46 H       -7.2440    -2.4110    -1.2210 H     1 <1>   0.0800 
 47 H       -6.6710    -0.3690    -1.8930 H     1 <1>   0.0800 
 48 H        0.8970     6.7220    -0.7510 H     1 <1>   0.0800 
 49 H        0.3350     7.0740     0.8690 H     1 <1>   0.0800 
 50 H        0.0830     8.2300    -0.4150 H     1 <1>   0.0800 
 51 H       -9.3520    -1.5380     0.7050 H     1 <1>   0.0800 
 52 H       -9.4860    -2.6440    -0.6520 H     1 <1>   0.0800 
 53 H       -8.4300     1.1460    -1.9250 H     1 <1>   0.0800 
 54 H       -8.6210     1.1000    -0.1800 H     1 <1>   0.0800 
 55 H       -9.6530    -0.8640    -2.2130 H     1 <1>   0.0800 
 56 H      -10.6490     0.2270     0.2010 H     1 <1>   0.4000 
@<TRIPOS>BOND
  1   1   2  1   
  2   2   3  ar  
  3   2   4  ar  
  4   3   5  ar  
  5   3   6  1   
  6   4   7  ar  
  7   4  26  1   
  8   5   8  ar  
  9   5  27  1   
 10   6   9  1   
 11   6  28  1   
 12   6  29  1   
 13   7   8  ar  
 14   7  10  1   
 15   8  11  1   
 16   9  12  1   
 17   9  13  1   
 18   9  30  1   
 19  10  14  1   
 20  11  15  1   
 21  12  16  1   
 22  12  17  1   
 23  12  31  1   
 24  13  32  1   
 25  13  33  1   
 26  13  34  1   
 27  14  18  1   
 28  14  35  1   
 29  14  36  1   
 30  15  37  1   
 31  15  38  1   
 32  15  39  1   
 33  16  19  1   
 34  16  40  1   
 35  16  41  1   
 36  17  20  1   
 37  17  42  1   
 38  17  43  1   
 39  18  21  1   
 40  18  44  1   
 41  18  45  1   
 42  19  20  1   
 43  19  22  1   
 44  19  46  1   
 45  20  23  1   
 46  20  47  1   
 47  21  48  1   
 48  21  49  1   
 49  21  50  1   
 50  22  24  1   
 51  22  51  1   
 52  22  52  1   
 53  23  24  1   
 54  23  53  1   
 55  23  54  1   
 56  24  25  1   
 57  24  55  1   
 58  25  56  1   
@<TRIPOS>SUBSTRUCTURE
  1 ****   3 GROUP 4 **** **** 0

# MOE 2024.06 (io_trps.svl 2023.06)
