@<TRIPOS>MOLECULE
NONAME
42 44 1 0 0 
SMALL
USER_CHARGES


@<TRIPOS>ATOM
  1 N        1.6630    -1.6510    -3.0880 N.1   1 <1>  -0.5570 
  2 C        2.3490    -1.6460    -2.1790 C.1   1 <1>   0.3570 
  3 C        3.2610    -1.6110    -0.9860 C.3   1 <1>   0.3440 
  4 C        2.7990    -2.7260    -0.0090 C.ar  1 <1>  -0.1440 
  5 C        3.1470    -0.2180    -0.3240 C.3   1 <1>  -0.1600 
  6 C        4.7140    -1.7720    -1.4970 C.3   1 <1>  -0.1600 
  7 C        3.5610    -3.8560     0.2850 C.ar  1 <1>  -0.1500 
  8 C        1.5470    -2.6240     0.5950 C.ar  1 <1>  -0.1500 
  9 C        4.1610    -0.0530     0.8020 C.3   1 <1>   0.2090 
 10 C        5.7720    -1.5260    -0.4150 C.3   1 <1>   0.2090 
 11 C        3.1060    -4.8200     1.1690 C.ar  1 <1>  -0.1500 
 12 C        1.0890    -3.5850     1.4780 C.ar  1 <1>  -0.1500 
 13 N        5.5150    -0.2110     0.2180 N.pl3 1 <1>  -0.8380 
 14 C        1.8710    -4.6850     1.7710 C.ar  1 <1>  -0.1500 
 15 C        6.4900     0.7610     0.3330 C.ar  1 <1>   0.7200 
 16 N        6.0770     2.0110     0.5350 N.ar  1 <1>  -0.6200 
 17 N        7.7570     0.3650     0.2290 N.ar  1 <1>  -0.6200 
 18 C        7.0070     2.9250     0.6430 C.ar  1 <1>   0.1670 
 19 C        8.6720     1.2940     0.3420 C.ar  1 <1>   0.1670 
 20 C        8.3420     2.6110     0.5530 C.ar  1 <1>  -0.1500 
 21 C        6.5470     4.3480     0.8730 C.3   1 <1>  -0.0970 
 22 C       10.1150     0.8530     0.2290 C.3   1 <1>  -0.0970 
 23 H        2.1610    -0.0440     0.0620 H     1 <1>   0.0800 
 24 H        3.3360     0.5510    -1.0540 H     1 <1>   0.0800 
 25 H        4.8920    -1.0530    -2.2780 H     1 <1>   0.0800 
 26 H        4.8550    -2.7420    -1.9360 H     1 <1>   0.0800 
 27 H        4.5210    -4.0280    -0.1610 H     1 <1>   0.1500 
 28 H        0.8950    -1.7950     0.3820 H     1 <1>   0.1500 
 29 H        4.0110    -0.8020     1.5610 H     1 <1>   0.0800 
 30 H        4.0400     0.9120     1.2640 H     1 <1>   0.0800 
 31 H        6.7470    -1.5530    -0.8720 H     1 <1>   0.0800 
 32 H        5.7460    -2.2830     0.3470 H     1 <1>   0.0800 
 33 H        3.7150    -5.6800     1.3860 H     1 <1>   0.1500 
 34 H        0.1200    -3.4790     1.9350 H     1 <1>   0.1500 
 35 H        1.5180    -5.4340     2.4580 H     1 <1>   0.1500 
 36 H        9.0980     3.3660     0.6430 H     1 <1>   0.1500 
 37 H        5.9210     4.6590     0.0560 H     1 <1>   0.0800 
 38 H        7.3830     5.0190     0.9460 H     1 <1>   0.0800 
 39 H        5.9790     4.3990     1.7830 H     1 <1>   0.0800 
 40 H       10.3310     0.1340     0.9980 H     1 <1>   0.0800 
 41 H       10.7840     1.6870     0.3340 H     1 <1>   0.0800 
 42 H       10.2770     0.3940    -0.7290 H     1 <1>   0.0800 
@<TRIPOS>BOND
  1   1   2  3   
  2   2   3  1   
  3   3   4  1   
  4   3   5  1   
  5   3   6  1   
  6   4   7  ar  
  7   4   8  ar  
  8   5   9  1   
  9   5  23  1   
 10   5  24  1   
 11   6  10  1   
 12   6  25  1   
 13   6  26  1   
 14   7  11  ar  
 15   7  27  1   
 16   8  12  ar  
 17   8  28  1   
 18   9  13  1   
 19   9  29  1   
 20   9  30  1   
 21  10  13  1   
 22  10  31  1   
 23  10  32  1   
 24  11  14  ar  
 25  11  33  1   
 26  12  14  ar  
 27  12  34  1   
 28  13  15  1   
 29  14  35  1   
 30  15  16  ar  
 31  15  17  ar  
 32  16  18  ar  
 33  17  19  ar  
 34  18  20  ar  
 35  18  21  1   
 36  19  20  ar  
 37  19  22  1   
 38  20  36  1   
 39  21  37  1   
 40  21  38  1   
 41  21  39  1   
 42  22  40  1   
 43  22  41  1   
 44  22  42  1   
@<TRIPOS>SUBSTRUCTURE
  1 ****  13 GROUP 4 **** **** 0

# MOE 2024.06 (io_trps.svl 2023.06)
