@<TRIPOS>MOLECULE
NONAME
45 47 1 0 0 
SMALL
USER_CHARGES


@<TRIPOS>ATOM
  1 S        0.3360     0.3450    -1.5370 S.o2  1 <1>   1.3330 
  2 O        0.6190    -1.0510    -1.7850 O.2   1 <1>  -0.6500 
  3 O       -0.4380     1.1020    -2.4940 O.2   1 <1>  -0.6500 
  4 N       -0.4680     0.4540    -0.0430 N.am  1 <1>  -0.8490 
  5 C        1.8960     1.1810    -1.2380 C.3   1 <1>  -0.0550 
  6 C       -1.4290    -0.6380     0.1450 C.3   1 <1>   0.1160 
  7 C       -1.1400     1.7430     0.1600 C.3   1 <1>   0.1160 
  8 C        2.8620     0.4090    -0.3110 C.3   1 <1>  -0.0800 
  9 C        4.2480     1.0220    -0.1630 C.3   1 <1>   0.2200 
 10 C        2.3990     0.2630     1.1450 C.3   1 <1>   0.1200 
 11 N        4.1610     2.4880     0.0310 N.am  1 <1>  -0.7300 
 12 C        4.6840     0.3910     1.1500 C.3   1 <1>   0.1200 
 13 O        3.5380     0.4090     1.9450 O.3   1 <1>  -0.5600 
 14 C        4.3120     3.4220    -0.9450 C.2   1 <1>   0.7150 
 15 O        4.4970     3.0500    -2.0850 O.2   1 <1>  -0.5700 
 16 C        4.2060     4.8180    -0.6220 C.2   1 <1>  -0.2370 
 17 N        4.4450     5.3300     0.6330 N.pl3 1 <1>   0.0330 
 18 C        3.8780     5.8630    -1.4360 C.2   1 <1>  -0.1500 
 19 C        4.2530     6.6840     0.6100 C.ar  1 <1>  -0.1520 
 20 C        3.8950     7.0490    -0.6820 C.ar  1 <1>   0.0000 
 21 C        4.3660     7.6420     1.6220 C.ar  1 <1>  -0.1500 
 22 C        3.6420     8.3940    -0.9760 C.ar  1 <1>  -0.1500 
 23 C        4.1140     8.9600     1.3200 C.ar  1 <1>  -0.1500 
 24 C        3.7520     9.3360     0.0200 C.ar  1 <1>  -0.1500 
 25 H        2.3860     1.3180    -2.1830 H     1 <1>   0.0800 
 26 H        1.7030     2.1560    -0.8380 H     1 <1>   0.0800 
 27 H       -1.9150    -0.5480     1.1020 H     1 <1>   0.0800 
 28 H       -0.9210    -1.5870     0.1150 H     1 <1>   0.0800 
 29 H       -2.1730    -0.6200    -0.6350 H     1 <1>   0.0800 
 30 H       -1.5550     1.7910     1.1530 H     1 <1>   0.0800 
 31 H       -1.9350     1.8710    -0.5570 H     1 <1>   0.0800 
 32 H       -0.4390     2.5510     0.0460 H     1 <1>   0.0800 
 33 H        2.9860    -0.5830    -0.7100 H     1 <1>   0.0800 
 34 H        4.9070     0.7790    -0.9810 H     1 <1>   0.0800 
 35 H        1.9610    -0.7040     1.3290 H     1 <1>   0.0800 
 36 H        1.7050     1.0350     1.4270 H     1 <1>   0.0800 
 37 H        3.7880     2.7560     0.9420 H     1 <1>   0.3700 
 38 H        5.4760     0.9330     1.6360 H     1 <1>   0.0800 
 39 H        4.9740    -0.6360     1.0070 H     1 <1>   0.0800 
 40 H        4.7820     4.8040     1.4440 H     1 <1>   0.2700 
 41 H        3.6430     5.8160    -2.4860 H     1 <1>   0.1500 
 42 H        4.6460     7.3470     2.6180 H     1 <1>   0.1500 
 43 H        3.3670     8.6670    -1.9780 H     1 <1>   0.1500 
 44 H        4.1930     9.7180     2.0800 H     1 <1>   0.1500 
 45 H        3.5610    10.3740    -0.1900 H     1 <1>   0.1500 
@<TRIPOS>BOND
  1   1   2  2   
  2   1   3  2   
  3   1   4  am  
  4   1   5  1   
  5   4   6  1   
  6   4   7  1   
  7   5   8  1   
  8   5  25  1   
  9   5  26  1   
 10   6  27  1   
 11   6  28  1   
 12   6  29  1   
 13   7  30  1   
 14   7  31  1   
 15   7  32  1   
 16   8   9  1   
 17   8  10  1   
 18   8  33  1   
 19   9  11  1   
 20   9  12  1   
 21   9  34  1   
 22  10  13  1   
 23  10  35  1   
 24  10  36  1   
 25  11  14  am  
 26  11  37  1   
 27  12  13  1   
 28  12  38  1   
 29  12  39  1   
 30  14  15  2   
 31  14  16  1   
 32  16  17  1   
 33  16  18  2   
 34  17  19  1   
 35  17  40  1   
 36  18  20  1   
 37  18  41  1   
 38  19  20  ar  
 39  19  21  ar  
 40  20  22  ar  
 41  21  23  ar  
 42  21  42  1   
 43  22  24  ar  
 44  22  43  1   
 45  23  24  ar  
 46  23  44  1   
 47  24  45  1   
@<TRIPOS>SUBSTRUCTURE
  1 ****  11 GROUP 4 **** **** 0

# MOE 2024.06 (io_trps.svl 2023.06)
