@<TRIPOS>MOLECULE
NONAME
55 57 1 0 0 
SMALL
USER_CHARGES


@<TRIPOS>ATOM
  1 O       -1.4620    -1.7350     2.6350 O.2   1 <1>  -0.5700 
  2 C       -2.2640    -2.0740     1.7980 C.2   1 <1>   0.6900 
  3 N       -3.3350    -1.3410     1.4310 N.am  1 <1>  -0.4900 
  4 N       -2.2350    -3.2450     1.1320 N.am  1 <1>  -0.7300 
  5 C       -4.0960    -2.0110     0.5370 C.2   1 <1>   0.5690 
  6 C       -3.4360    -3.3710     0.2720 C.3   1 <1>   0.2810 
  7 O       -5.1090    -1.5960     0.0330 O.2   1 <1>  -0.5700 
  8 C       -4.2580    -4.5930     0.7090 C.3   1 <1>  -0.1600 
  9 C       -5.5390    -4.7890    -0.1330 C.3   1 <1>  -0.0990 
 10 C       -6.3090    -6.0680     0.1840 C.2   1 <1>   0.5690 
 11 O       -5.8710    -6.8060     1.0350 O.2   1 <1>  -0.5700 
 12 N       -7.4650    -6.3630    -0.4920 N.am  1 <1>  -0.6600 
 13 C       -8.1770    -7.6630    -0.2660 C.3   1 <1>   0.1400 
 14 C       -8.1270    -5.4770    -1.4930 C.3   1 <1>   0.1400 
 15 C       -9.4480    -7.4990     0.5800 C.3   1 <1>   0.1400 
 16 C       -9.1110    -4.4980    -0.8360 C.3   1 <1>  -0.1600 
 17 N      -10.3780    -6.4700     0.0140 N.am  1 <1>  -0.6600 
 18 C       -9.9630    -5.0730     0.3040 C.3   1 <1>   0.1400 
 19 C      -11.5140    -6.7380    -0.7120 C.2   1 <1>   0.5690 
 20 O      -12.2400    -5.8480    -1.0940 O.2   1 <1>  -0.5700 
 21 C      -11.8910    -8.1590    -1.1100 C.3   1 <1>   0.0440 
 22 C      -12.4490    -8.9860     0.0510 C.ar  1 <1>  -0.1430 
 23 C      -11.9050   -10.2170     0.4140 C.ar  1 <1>   0.0820 
 24 C      -13.5370    -8.4870     0.7520 C.ar  1 <1>  -0.1500 
 25 O      -10.8360   -10.6780    -0.2900 O.3   1 <1>  -0.3630 
 26 C      -12.4610   -10.9270     1.4770 C.ar  1 <1>  -0.1500 
 27 C      -14.0830    -9.1960     1.8070 C.ar  1 <1>  -0.1500 
 28 C      -10.2770   -11.9500    -0.0450 C.3   1 <1>   0.0400 
 29 C      -13.5440   -10.4170     2.1690 C.ar  1 <1>  -0.1500 
 30 H       -3.5350    -0.4230     1.8100 H     1 <1>   0.3700 
 31 H       -1.6620    -4.0320     1.4380 H     1 <1>   0.3700 
 32 H       -3.1430    -3.4440    -0.7610 H     1 <1>   0.0800 
 33 H       -3.6440    -5.4710     0.6060 H     1 <1>   0.0800 
 34 H       -4.5330    -4.4950     1.7450 H     1 <1>   0.0800 
 35 H       -5.2720    -4.8140    -1.1740 H     1 <1>   0.0800 
 36 H       -6.2000    -3.9580     0.0270 H     1 <1>   0.0800 
 37 H       -8.4370    -8.0990    -1.2140 H     1 <1>   0.0800 
 38 H       -7.5240    -8.3600     0.2300 H     1 <1>   0.0800 
 39 H       -7.3940    -4.9300    -2.0580 H     1 <1>   0.0800 
 40 H       -8.6700    -6.0890    -2.1940 H     1 <1>   0.0800 
 41 H       -9.1660    -7.2150     1.5780 H     1 <1>   0.0800 
 42 H       -9.9380    -8.4490     0.6590 H     1 <1>   0.0800 
 43 H       -9.7750    -4.1300    -1.5980 H     1 <1>   0.0800 
 44 H       -8.5730    -3.6470    -0.4610 H     1 <1>   0.0800 
 45 H      -10.8340    -4.4570     0.4520 H     1 <1>   0.0800 
 46 H       -9.3950    -5.0530     1.2180 H     1 <1>   0.0800 
 47 H      -12.6430    -8.1070    -1.8750 H     1 <1>   0.0800 
 48 H      -11.0320    -8.6200    -1.5550 H     1 <1>   0.0800 
 49 H      -13.9660    -7.5370     0.4780 H     1 <1>   0.1500 
 50 H      -12.0670   -11.8760     1.7840 H     1 <1>   0.1500 
 51 H      -14.9260    -8.7960     2.3430 H     1 <1>   0.1500 
 52 H       -9.4760   -12.1040    -0.7450 H     1 <1>   0.0800 
 53 H      -11.0360   -12.6990    -0.1890 H     1 <1>   0.0800 
 54 H       -9.8940   -11.9760     0.9590 H     1 <1>   0.0800 
 55 H      -13.9700   -10.9670     2.9900 H     1 <1>   0.1500 
@<TRIPOS>BOND
  1   1   2  2   
  2   2   3  am  
  3   2   4  am  
  4   3   5  am  
  5   3  30  1   
  6   4   6  1   
  7   4  31  1   
  8   5   6  1   
  9   5   7  2   
 10   6   8  1   
 11   6  32  1   
 12   8   9  1   
 13   8  33  1   
 14   8  34  1   
 15   9  10  1   
 16   9  35  1   
 17   9  36  1   
 18  10  11  2   
 19  10  12  am  
 20  12  13  1   
 21  12  14  1   
 22  13  15  1   
 23  13  37  1   
 24  13  38  1   
 25  14  16  1   
 26  14  39  1   
 27  14  40  1   
 28  15  17  1   
 29  15  41  1   
 30  15  42  1   
 31  16  18  1   
 32  16  43  1   
 33  16  44  1   
 34  17  18  1   
 35  17  19  am  
 36  18  45  1   
 37  18  46  1   
 38  19  20  2   
 39  19  21  1   
 40  21  22  1   
 41  21  47  1   
 42  21  48  1   
 43  22  23  ar  
 44  22  24  ar  
 45  23  25  1   
 46  23  26  ar  
 47  24  27  ar  
 48  24  49  1   
 49  25  28  1   
 50  26  29  ar  
 51  26  50  1   
 52  27  29  ar  
 53  27  51  1   
 54  28  52  1   
 55  28  53  1   
 56  28  54  1   
 57  29  55  1   
@<TRIPOS>SUBSTRUCTURE
  1 ****  12 GROUP 4 **** **** 0

# MOE 2024.06 (io_trps.svl 2023.06)
