@<TRIPOS>MOLECULE
NONAME
59 61 1 0 0 
SMALL
USER_CHARGES


@<TRIPOS>ATOM
  1 O       -0.0770    -2.1740    -2.5870 O.2   1 <1>  -0.5700 
  2 C       -0.4470    -1.9360    -1.4610 C.2   1 <1>   0.5690 
  3 N        0.3670    -1.3810    -0.5290 N.am  1 <1>  -0.7300 
  4 C       -1.8830    -2.2760    -1.0480 C.3   1 <1>   0.1710 
  5 C        1.7940    -1.0340    -0.6920 C.3   1 <1>   0.1400 
  6 N       -2.3650    -1.5570     0.1720 N.3   1 <1>  -0.8100 
  7 C        2.6370    -1.6750     0.4220 C.3   1 <1>  -0.0800 
  8 C       -2.5890    -0.1150    -0.0860 C.3   1 <1>   0.1100 
  9 C       -3.5260    -2.2620     0.7540 C.3   1 <1>   0.1100 
 10 C        4.0980    -1.2030     0.3100 C.3   1 <1>  -0.1600 
 11 C        2.5680    -3.2150     0.3800 C.3   1 <1>  -0.1600 
 12 C       -4.0540     0.1670    -0.4190 C.3   1 <1>  -0.1600 
 13 C       -4.3690    -1.3230     1.6190 C.3   1 <1>  -0.1600 
 14 C        4.9810    -1.8360     1.3950 C.3   1 <1>  -0.1600 
 15 C        3.4540    -3.8510     1.4600 C.3   1 <1>  -0.1600 
 16 C       -4.9680    -0.1690     0.7810 C.3   1 <1>   0.2800 
 17 C        4.9040    -3.3670     1.3460 C.3   1 <1>  -0.1600 
 18 O       -4.9210     0.9680     1.6190 O.3   1 <1>  -0.5600 
 19 C       -6.4320    -0.4980     0.3460 C.3   1 <1>   0.2000 
 20 C       -6.1010     1.6550     1.9240 C.3   1 <1>   0.1200 
 21 O       -6.5060    -1.5610    -0.5640 O.3   1 <1>  -0.6800 
 22 C       -7.2230     0.7450    -0.1590 C.3   1 <1>   0.2800 
 23 C       -6.8240     2.0100     0.6230 C.3   1 <1>  -0.1600 
 24 O       -8.5560     0.4950     0.1050 O.3   1 <1>  -0.6800 
 25 C       -7.1600     1.0050    -1.6720 C.3   1 <1>  -0.2400 
 26 H       -0.0700    -1.1990     0.3820 H     1 <1>   0.3700 
 27 H       -1.9080    -3.3350    -0.8670 H     1 <1>   0.0800 
 28 H       -2.5380    -2.0690    -1.8750 H     1 <1>   0.0800 
 29 H        2.1400    -1.3720    -1.6540 H     1 <1>   0.0800 
 30 H        1.8940     0.0370    -0.6570 H     1 <1>   0.0800 
 31 H        2.2520    -1.3370     1.3690 H     1 <1>   0.0800 
 32 H       -2.3240     0.4390     0.7990 H     1 <1>   0.0800 
 33 H       -1.9550     0.2320    -0.8860 H     1 <1>   0.0800 
 34 H       -4.1490    -2.6580    -0.0320 H     1 <1>   0.0800 
 35 H       -3.1730    -3.0880     1.3480 H     1 <1>   0.0800 
 36 H        4.4880    -1.4690    -0.6580 H     1 <1>   0.0800 
 37 H        4.1430    -0.1320     0.4010 H     1 <1>   0.0800 
 38 H        1.5530    -3.5410     0.5250 H     1 <1>   0.0800 
 39 H        2.8860    -3.5600    -0.5890 H     1 <1>   0.0800 
 40 H       -4.3180    -0.4210    -1.2780 H     1 <1>   0.0800 
 41 H       -4.1660     1.2010    -0.6850 H     1 <1>   0.0800 
 42 H       -3.7370    -0.9330     2.3970 H     1 <1>   0.0800 
 43 H       -5.1500    -1.8910     2.0890 H     1 <1>   0.0800 
 44 H        6.0010    -1.5220     1.2590 H     1 <1>   0.0800 
 45 H        4.6570    -1.4940     2.3630 H     1 <1>   0.0800 
 46 H        3.0680    -3.5950     2.4320 H     1 <1>   0.0800 
 47 H        3.4230    -4.9220     1.3640 H     1 <1>   0.0800 
 48 H        5.4870    -3.7830     2.1490 H     1 <1>   0.0800 
 49 H        5.3240    -3.7150     0.4180 H     1 <1>   0.0800 
 50 H       -6.9340    -0.8470     1.2310 H     1 <1>   0.0800 
 51 H       -6.7090     1.0380     2.5640 H     1 <1>   0.0800 
 52 H       -5.8280     2.5470     2.4610 H     1 <1>   0.0800 
 53 H       -7.4490    -1.7040    -0.7810 H     1 <1>   0.4000 
 54 H       -6.1460     2.6070     0.0400 H     1 <1>   0.0800 
 55 H       -7.6850     2.6190     0.8370 H     1 <1>   0.0800 
 56 H       -9.1020     1.2170    -0.2580 H     1 <1>   0.4000 
 57 H       -6.1450     1.1630    -1.9830 H     1 <1>   0.0800 
 58 H       -7.7240     1.8820    -1.9310 H     1 <1>   0.0800 
 59 H       -7.5450     0.1660    -2.2230 H     1 <1>   0.0800 
@<TRIPOS>BOND
  1   1   2  2   
  2   2   3  am  
  3   2   4  1   
  4   3   5  1   
  5   3  26  1   
  6   4   6  1   
  7   4  27  1   
  8   4  28  1   
  9   5   7  1   
 10   5  29  1   
 11   5  30  1   
 12   6   8  1   
 13   6   9  1   
 14   7  10  1   
 15   7  11  1   
 16   7  31  1   
 17   8  12  1   
 18   8  32  1   
 19   8  33  1   
 20   9  13  1   
 21   9  34  1   
 22   9  35  1   
 23  10  14  1   
 24  10  36  1   
 25  10  37  1   
 26  11  15  1   
 27  11  38  1   
 28  11  39  1   
 29  12  16  1   
 30  12  40  1   
 31  12  41  1   
 32  13  16  1   
 33  13  42  1   
 34  13  43  1   
 35  14  17  1   
 36  14  44  1   
 37  14  45  1   
 38  15  17  1   
 39  15  46  1   
 40  15  47  1   
 41  16  18  1   
 42  16  19  1   
 43  17  48  1   
 44  17  49  1   
 45  18  20  1   
 46  19  21  1   
 47  19  22  1   
 48  19  50  1   
 49  20  23  1   
 50  20  51  1   
 51  20  52  1   
 52  21  53  1   
 53  22  23  1   
 54  22  24  1   
 55  22  25  1   
 56  23  54  1   
 57  23  55  1   
 58  24  56  1   
 59  25  57  1   
 60  25  58  1   
 61  25  59  1   
@<TRIPOS>SUBSTRUCTURE
  1 ****   6 GROUP 4 **** **** 0

# MOE 2024.06 (io_trps.svl 2023.06)
