@<TRIPOS>MOLECULE
NONAME
39 41 1 0 0 
SMALL
USER_CHARGES


@<TRIPOS>ATOM
  1 O        0.0770    -0.6360    -0.1690 O.2   1 <1>  -0.5700 
  2 C        0.1410    -1.6750     0.4600 C.2   1 <1>   0.7160 
  3 N        0.7540    -1.5830     1.6710 N.am  1 <1>  -0.8000 
  4 C       -0.3950    -2.9500    -0.0300 C.2   1 <1>   0.4300 
  5 N       -1.0280    -3.1490    -1.1380 N.2   1 <1>  -0.4100 
  6 N       -0.2720    -4.0960     0.6680 N.2   1 <1>  -0.5650 
  7 O       -1.3460    -4.4000    -1.2020 O.3   1 <1>  -0.0190 
  8 C       -0.8760    -4.9140    -0.0960 C.2   1 <1>   0.2980 
  9 C       -1.0710    -6.4090     0.1470 C.3   1 <1>   0.2900 
 10 N       -2.4390    -6.7690     0.5910 N.3   1 <1>  -0.8100 
 11 C       -3.5020    -6.4420    -0.3690 C.3   1 <1>   0.1100 
 12 C       -2.5900    -8.1980     0.9130 C.3   1 <1>   0.1100 
 13 C       -4.6840    -7.2890     0.0880 C.3   1 <1>   0.2000 
 14 C       -4.0250    -8.5980     0.5200 C.3   1 <1>  -0.0800 
 15 O       -5.2130    -6.6890     1.2140 O.3   1 <1>  -0.6800 
 16 C       -4.0520    -9.6310    -0.6220 C.3   1 <1>   0.0200 
 17 C       -3.3100   -10.9030    -0.2540 C.2   1 <1>  -0.0400 
 18 O       -3.6500   -11.5770     0.8110 O.3   1 <1>  -0.0190 
 19 C       -2.2840   -11.5420    -0.8370 C.2   1 <1>  -0.1500 
 20 N       -2.9030   -12.6300     0.9760 N.2   1 <1>  -0.4100 
 21 C       -2.0720   -12.6360    -0.0030 C.2   1 <1>   0.1080 
 22 C       -1.0130   -13.6960    -0.2120 C.3   1 <1>  -0.0590 
 23 H        1.1020    -0.6830     1.9960 H     1 <1>   0.3700 
 24 H        0.8420    -2.3920     2.2870 H     1 <1>   0.3700 
 25 H       -0.3750    -6.7120     0.9110 H     1 <1>   0.0800 
 26 H       -0.8280    -6.9430    -0.7540 H     1 <1>   0.0800 
 27 H       -3.7410    -5.3920    -0.3600 H     1 <1>   0.0800 
 28 H       -3.2100    -6.7350    -1.3630 H     1 <1>   0.0800 
 29 H       -1.8650    -8.7880     0.3760 H     1 <1>   0.0800 
 30 H       -2.4350    -8.3450     1.9690 H     1 <1>   0.0800 
 31 H       -5.4620    -7.3960    -0.6470 H     1 <1>   0.0800 
 32 H       -4.5390    -9.0210     1.3660 H     1 <1>   0.0800 
 33 H       -4.4530    -6.4230     1.7740 H     1 <1>   0.4000 
 34 H       -3.6130    -9.2160    -1.5110 H     1 <1>   0.0800 
 35 H       -5.0740    -9.8870    -0.8440 H     1 <1>   0.0800 
 36 H       -1.7340   -11.3020    -1.7270 H     1 <1>   0.1500 
 37 H       -1.1580   -14.1740    -1.1640 H     1 <1>   0.0800 
 38 H       -1.0800   -14.4390     0.5630 H     1 <1>   0.0800 
 39 H       -0.0370   -13.2490    -0.1820 H     1 <1>   0.0800 
@<TRIPOS>BOND
  1   1   2  2   
  2   2   3  am  
  3   2   4  1   
  4   3  23  1   
  5   3  24  1   
  6   4   5  2   
  7   4   6  1   
  8   5   7  1   
  9   6   8  2   
 10   7   8  1   
 11   8   9  1   
 12   9  10  1   
 13   9  25  1   
 14   9  26  1   
 15  10  11  1   
 16  10  12  1   
 17  11  13  1   
 18  11  27  1   
 19  11  28  1   
 20  12  14  1   
 21  12  29  1   
 22  12  30  1   
 23  13  14  1   
 24  13  15  1   
 25  13  31  1   
 26  14  16  1   
 27  14  32  1   
 28  15  33  1   
 29  16  17  1   
 30  16  34  1   
 31  16  35  1   
 32  17  18  1   
 33  17  19  2   
 34  18  20  1   
 35  19  21  1   
 36  19  36  1   
 37  20  21  2   
 38  21  22  1   
 39  22  37  1   
 40  22  38  1   
 41  22  39  1   
@<TRIPOS>SUBSTRUCTURE
  1 ****  10 GROUP 4 **** **** 0

# MOE 2024.06 (io_trps.svl 2023.06)
