@<TRIPOS>MOLECULE
NONAME
50 53 1 0 0 
SMALL
USER_CHARGES


@<TRIPOS>ATOM
  1 O        2.8510    -1.9630    -2.7310 O.2   1 <1>  -0.5700 
  2 C        2.1380    -1.4110    -1.9280 C.2   1 <1>   0.5690 
  3 N        2.6600    -0.4680    -1.0670 N.am  1 <1>  -0.6600 
  4 C        0.6730    -1.8370    -1.9010 C.3   1 <1>   0.0820 
  5 C        1.8400     0.2240    -0.0010 C.3   1 <1>   0.2200 
  6 C        4.1300    -0.1720    -1.1380 C.3   1 <1>   0.1400 
  7 C        0.2270    -2.3910    -0.5490 C.2   1 <1>  -0.1810 
  8 C        2.1240     1.7330     0.0950 C.3   1 <1>   0.1200 
  9 C        2.0300    -0.4610     1.3740 C.3   1 <1>   0.3430 
 10 C        4.7670     0.3450     0.1650 C.3   1 <1>  -0.0800 
 11 C        0.9140    -3.4240     0.1320 C.ar  1 <1>   0.0000 
 12 C       -0.8490    -2.0450     0.2050 C.2   1 <1>  -0.3320 
 13 O        3.1880     1.9850     0.9630 O.3   1 <1>  -0.5600 
 14 N        3.2690    -1.3100     1.4300 N.4   1 <1>  -0.9590 
 15 C        4.4540     1.8260     0.4200 C.3   1 <1>   0.1200 
 16 C        4.5450    -0.5290     1.4170 C.3   1 <1>   0.3430 
 17 C        0.2080    -3.6560     1.3070 C.ar  1 <1>  -0.1520 
 18 C        2.0550    -4.1870    -0.1440 C.ar  1 <1>  -0.1500 
 19 N       -0.8740    -2.8170     1.3340 N.pl3 1 <1>   0.0330 
 20 C       -1.9480    -1.0260    -0.0540 C.3   1 <1>  -0.0600 
 21 C        3.2140    -2.2620     2.5740 C.3   1 <1>   0.2630 
 22 C        0.6220    -4.6300     2.2190 C.ar  1 <1>  -0.1500 
 23 C        2.4680    -5.1420     0.7570 C.ar  1 <1>  -0.1500 
 24 C        1.7530    -5.3630     1.9390 C.ar  1 <1>  -0.1500 
 25 H        0.0690    -1.0020    -2.1940 H     1 <1>   0.0800 
 26 H        0.5290    -2.6060    -2.6390 H     1 <1>   0.0800 
 27 H        0.8020     0.1550    -0.2620 H     1 <1>   0.0800 
 28 H        4.6530    -1.0710    -1.4250 H     1 <1>   0.0800 
 29 H        4.2940     0.5430    -1.9270 H     1 <1>   0.0800 
 30 H        1.2660     2.2250     0.5180 H     1 <1>   0.0800 
 31 H        2.3170     2.1680    -0.8720 H     1 <1>   0.0800 
 32 H        1.1720    -1.0870     1.5490 H     1 <1>   0.0800 
 33 H        2.0510     0.2830     2.1530 H     1 <1>   0.0800 
 34 H        5.8280     0.3300    -0.0140 H     1 <1>   0.0800 
 35 H        3.2320    -1.8520     0.5490 H     1 <1>   0.4500 
 36 H        4.5280     2.4130    -0.4810 H     1 <1>   0.0800 
 37 H        5.1500     2.2290     1.1360 H     1 <1>   0.0800 
 38 H        4.5890     0.1000     2.2920 H     1 <1>   0.0800 
 39 H        5.3640    -1.2260     1.4800 H     1 <1>   0.0800 
 40 H        2.5890    -4.0360    -1.0670 H     1 <1>   0.1500 
 41 H       -1.6180    -2.8370     2.0410 H     1 <1>   0.2700 
 42 H       -1.8020    -0.5220    -0.9910 H     1 <1>   0.0800 
 43 H       -1.9710    -0.2910     0.7310 H     1 <1>   0.0800 
 44 H       -2.9030    -1.5210    -0.0890 H     1 <1>   0.0800 
 45 H        3.2530    -1.7280     3.5090 H     1 <1>   0.0800 
 46 H        4.0410    -2.9510     2.5280 H     1 <1>   0.0800 
 47 H        2.3000    -2.8290     2.5370 H     1 <1>   0.0800 
 48 H        0.0550    -4.8080     3.1170 H     1 <1>   0.1500 
 49 H        3.3380    -5.7420     0.5510 H     1 <1>   0.1500 
 50 H        2.0890    -6.1270     2.6210 H     1 <1>   0.1500 
@<TRIPOS>BOND
  1   1   2  2   
  2   2   3  am  
  3   2   4  1   
  4   3   5  1   
  5   3   6  1   
  6   4   7  1   
  7   4  25  1   
  8   4  26  1   
  9   5   8  1   
 10   5   9  1   
 11   5  27  1   
 12   6  10  1   
 13   6  28  1   
 14   6  29  1   
 15   7  11  1   
 16   7  12  2   
 17   8  13  1   
 18   8  30  1   
 19   8  31  1   
 20   9  14  1   
 21   9  32  1   
 22   9  33  1   
 23  10  15  1   
 24  10  16  1   
 25  10  34  1   
 26  11  17  ar  
 27  11  18  ar  
 28  12  19  1   
 29  12  20  1   
 30  13  15  1   
 31  14  16  1   
 32  14  21  1   
 33  14  35  1   
 34  15  36  1   
 35  15  37  1   
 36  16  38  1   
 37  16  39  1   
 38  17  19  1   
 39  17  22  ar  
 40  18  23  ar  
 41  18  40  1   
 42  19  41  1   
 43  20  42  1   
 44  20  43  1   
 45  20  44  1   
 46  21  45  1   
 47  21  46  1   
 48  21  47  1   
 49  22  24  ar  
 50  22  48  1   
 51  23  24  ar  
 52  23  49  1   
 53  24  50  1   
@<TRIPOS>SUBSTRUCTURE
  1 ****   9 GROUP 4 **** **** 0

# MOE 2024.06 (io_trps.svl 2023.06)
