@<TRIPOS>MOLECULE
NONAME
48 50 1 0 0 
SMALL
USER_CHARGES


@<TRIPOS>ATOM
  1 O       -1.0790     0.5300    -1.8180 O.2   1 <1>  -0.5700 
  2 C       -1.5330     1.1810    -0.9050 C.2   1 <1>   0.5690 
  3 N       -2.1910     0.5710     0.1180 N.am  1 <1>  -0.7300 
  4 C       -1.3960     2.7250    -0.9060 C.3   1 <1>   0.2040 
  5 C       -2.3860    -0.8860     0.2770 C.3   1 <1>   0.2200 
  6 C       -1.5130     3.2720     0.5400 C.ar  1 <1>  -0.1440 
  7 C       -0.0300     3.1670    -1.4750 C.3   1 <1>  -0.2400 
  8 C       -2.4810     3.2930    -1.8440 C.3   1 <1>  -0.2400 
  9 C       -3.8730    -1.1930     0.2760 C.3   1 <1>  -0.0800 
 10 C       -1.9680    -1.3120     1.6830 C.3   1 <1>   0.1200 
 11 C       -0.6060     2.8310     1.4990 C.ar  1 <1>  -0.1500 
 12 C       -2.4930     4.1770     0.9410 C.ar  1 <1>  -0.1500 
 13 C       -4.2420    -0.9240     1.7360 C.3   1 <1>   0.1200 
 14 C       -4.1460    -2.6520    -0.1360 C.3   1 <1>  -0.0170 
 15 O       -3.1050    -1.2150     2.4930 O.3   1 <1>  -0.5600 
 16 C       -0.6740     3.2700     2.8100 C.ar  1 <1>  -0.1500 
 17 C       -2.5630     4.6180     2.2510 C.ar  1 <1>  -0.1500 
 18 C       -5.6360    -2.9590    -0.1500 C.ar  1 <1>  -0.1440 
 19 C       -1.6550     4.1650     3.1880 C.ar  1 <1>  -0.1500 
 20 C       -6.2450    -3.6820     0.8550 C.ar  1 <1>  -0.1500 
 21 C       -6.4560    -2.5290    -1.1740 C.ar  1 <1>  -0.1500 
 22 C       -7.6060    -3.9290     0.7930 C.ar  1 <1>   0.1600 
 23 C       -7.8080    -2.8300    -1.1410 C.ar  1 <1>   0.1600 
 24 N       -8.4030    -3.5190    -0.1810 N.ar  1 <1>  -0.6200 
 25 H       -2.4890     1.1450     0.9140 H     1 <1>   0.3700 
 26 H       -1.8420    -1.4210    -0.4840 H     1 <1>   0.0800 
 27 H        0.0730     4.2350    -1.4130 H     1 <1>   0.0800 
 28 H        0.0630     2.8700    -2.5040 H     1 <1>   0.0800 
 29 H        0.7760     2.7130    -0.9280 H     1 <1>   0.0800 
 30 H       -2.4090     4.3640    -1.9100 H     1 <1>   0.0800 
 31 H       -3.4600     3.0220    -1.4920 H     1 <1>   0.0800 
 32 H       -2.3610     2.8860    -2.8330 H     1 <1>   0.0800 
 33 H       -4.4080    -0.5370    -0.3880 H     1 <1>   0.0800 
 34 H       -1.1850    -0.6930     2.0860 H     1 <1>   0.0800 
 35 H       -1.6560    -2.3410     1.6890 H     1 <1>   0.0800 
 36 H        0.1670     2.1310     1.2340 H     1 <1>   0.1500 
 37 H       -3.2220     4.5620     0.2530 H     1 <1>   0.1500 
 38 H       -5.0640    -1.5210     2.0880 H     1 <1>   0.0800 
 39 H       -4.4700     0.1180     1.8820 H     1 <1>   0.0800 
 40 H       -3.6470    -3.3290     0.5360 H     1 <1>   0.0800 
 41 H       -3.7500    -2.8240    -1.1220 H     1 <1>   0.0800 
 42 H        0.0380     2.9140     3.5350 H     1 <1>   0.1500 
 43 H       -3.3270     5.3180     2.5420 H     1 <1>   0.1500 
 44 H       -1.7110     4.5080     4.2070 H     1 <1>   0.1500 
 45 H       -5.6750    -4.0550     1.6870 H     1 <1>   0.1500 
 46 H       -6.0570    -1.9630    -1.9960 H     1 <1>   0.1500 
 47 H       -8.0640    -4.4950     1.5870 H     1 <1>   0.1500 
 48 H       -8.4320    -2.4870    -1.9480 H     1 <1>   0.1500 
@<TRIPOS>BOND
  1   1   2  2   
  2   2   3  am  
  3   2   4  1   
  4   3   5  1   
  5   3  25  1   
  6   4   6  1   
  7   4   7  1   
  8   4   8  1   
  9   5   9  1   
 10   5  10  1   
 11   5  26  1   
 12   6  11  ar  
 13   6  12  ar  
 14   7  27  1   
 15   7  28  1   
 16   7  29  1   
 17   8  30  1   
 18   8  31  1   
 19   8  32  1   
 20   9  13  1   
 21   9  14  1   
 22   9  33  1   
 23  10  15  1   
 24  10  34  1   
 25  10  35  1   
 26  11  16  ar  
 27  11  36  1   
 28  12  17  ar  
 29  12  37  1   
 30  13  15  1   
 31  13  38  1   
 32  13  39  1   
 33  14  18  1   
 34  14  40  1   
 35  14  41  1   
 36  16  19  ar  
 37  16  42  1   
 38  17  19  ar  
 39  17  43  1   
 40  18  20  ar  
 41  18  21  ar  
 42  19  44  1   
 43  20  22  ar  
 44  20  45  1   
 45  21  23  ar  
 46  21  46  1   
 47  22  24  ar  
 48  22  47  1   
 49  23  24  ar  
 50  23  48  1   
@<TRIPOS>SUBSTRUCTURE
  1 ****   3 GROUP 4 **** **** 0

# MOE 2024.06 (io_trps.svl 2023.06)
