@<TRIPOS>MOLECULE
NONAME
43 45 1 0 0 
SMALL
USER_CHARGES


@<TRIPOS>ATOM
  1 F       -0.0560    -0.2690     0.2990 F     1 <1>  -0.1900 
  2 C       -0.0730    -1.5640     0.4740 C.ar  1 <1>   0.1900 
  3 C        0.9570    -2.3890     0.0080 C.ar  1 <1>   0.0830 
  4 C       -1.1680    -2.0800     1.1420 C.ar  1 <1>  -0.1500 
  5 O        2.0830    -2.0010    -0.6560 O.3   1 <1>  -0.3630 
  6 C        0.8420    -3.7510     0.2330 C.ar  1 <1>  -0.1500 
  7 C       -1.2510    -3.4450     1.3500 C.ar  1 <1>  -0.1500 
  8 C        2.4410    -0.6480    -0.8360 C.3   1 <1>   0.0400 
  9 C       -0.2540    -4.3080     0.8920 C.ar  1 <1>   0.0860 
 10 C       -0.3430    -5.7410     1.0940 C.2   1 <1>   0.5440 
 11 O        0.5500    -6.3260     1.6740 O.2   1 <1>  -0.5700 
 12 N       -1.4150    -6.4680     0.6310 N.am  1 <1>  -0.6600 
 13 C       -2.3750    -6.0010    -0.4030 C.3   1 <1>   0.1400 
 14 C       -1.4920    -7.9460     0.7690 C.3   1 <1>   0.1400 
 15 C       -3.3240    -7.1810    -0.6070 C.3   1 <1>   0.2000 
 16 C       -2.4410    -8.4050    -0.3440 C.3   1 <1>  -0.0800 
 17 O       -4.3150    -7.1070     0.3600 O.3   1 <1>  -0.6800 
 18 C       -3.2070    -9.7020    -0.0180 C.3   1 <1>   0.0200 
 19 C       -2.3020   -10.9170     0.0970 C.2   1 <1>  -0.0400 
 20 O       -2.8210   -12.0480     0.4950 O.3   1 <1>  -0.0190 
 21 C       -0.9950   -11.1270    -0.1310 C.2   1 <1>  -0.1500 
 22 N       -1.9350   -13.0000     0.5480 N.2   1 <1>  -0.4100 
 23 C       -0.8240   -12.4740     0.1770 C.2   1 <1>   0.1080 
 24 C        0.4860   -13.2240     0.0900 C.3   1 <1>  -0.0590 
 25 H       -1.9390    -1.4180     1.4950 H     1 <1>   0.1500 
 26 H        1.6280    -4.4020    -0.1090 H     1 <1>   0.1500 
 27 H       -2.0960    -3.8550     1.8770 H     1 <1>   0.1500 
 28 H        3.4040    -0.6190    -1.3120 H     1 <1>   0.0800 
 29 H        2.4940    -0.1680     0.1250 H     1 <1>   0.0800 
 30 H        1.7100    -0.1730    -1.4660 H     1 <1>   0.0800 
 31 H       -2.9070    -5.1170    -0.0950 H     1 <1>   0.0800 
 32 H       -1.8380    -5.8000    -1.3140 H     1 <1>   0.0800 
 33 H       -0.5170    -8.3920     0.6680 H     1 <1>   0.0800 
 34 H       -1.8890    -8.1850     1.7410 H     1 <1>   0.0800 
 35 H       -3.7910    -7.1870    -1.5770 H     1 <1>   0.0800 
 36 H       -1.8520    -8.5720    -1.2280 H     1 <1>   0.0800 
 37 H       -3.8940    -6.9690     1.2330 H     1 <1>   0.4000 
 38 H       -3.9320    -9.8910    -0.7900 H     1 <1>   0.0800 
 39 H       -3.7430    -9.5910     0.9090 H     1 <1>   0.0800 
 40 H       -0.2270   -10.4580    -0.4700 H     1 <1>   0.1500 
 41 H        0.8520   -13.2030    -0.9200 H     1 <1>   0.0800 
 42 H        0.3430   -14.2470     0.3870 H     1 <1>   0.0800 
 43 H        1.2100   -12.7710     0.7410 H     1 <1>   0.0800 
@<TRIPOS>BOND
  1   1   2  1   
  2   2   3  ar  
  3   2   4  ar  
  4   3   5  1   
  5   3   6  ar  
  6   4   7  ar  
  7   4  25  1   
  8   5   8  1   
  9   6   9  ar  
 10   6  26  1   
 11   7   9  ar  
 12   7  27  1   
 13   8  28  1   
 14   8  29  1   
 15   8  30  1   
 16   9  10  1   
 17  10  11  2   
 18  10  12  am  
 19  12  13  1   
 20  12  14  1   
 21  13  15  1   
 22  13  31  1   
 23  13  32  1   
 24  14  16  1   
 25  14  33  1   
 26  14  34  1   
 27  15  16  1   
 28  15  17  1   
 29  15  35  1   
 30  16  18  1   
 31  16  36  1   
 32  17  37  1   
 33  18  19  1   
 34  18  38  1   
 35  18  39  1   
 36  19  20  1   
 37  19  21  2   
 38  20  22  1   
 39  21  23  1   
 40  21  40  1   
 41  22  23  2   
 42  23  24  1   
 43  24  41  1   
 44  24  42  1   
 45  24  43  1   
@<TRIPOS>SUBSTRUCTURE
  1 ****  12 GROUP 4 **** **** 0

# MOE 2024.06 (io_trps.svl 2023.06)
