@<TRIPOS>MOLECULE
NONAME
46 48 1 0 0 
SMALL
USER_CHARGES


@<TRIPOS>ATOM
  1 S       -4.4440    -1.5220     2.1560 S.3   1 <1>  -0.0800 
  2 C       -3.0370    -1.0650     1.2030 C.2   1 <1>  -0.1400 
  3 C       -5.3100    -0.0830     1.6520 C.2   1 <1>  -0.1100 
  4 C       -3.2580     0.1050     0.5740 C.2   1 <1>  -0.1500 
  5 C       -1.8360    -2.0060     1.2200 C.3   1 <1>   0.0810 
  6 C       -4.5520     0.6610     0.8260 C.2   1 <1>  -0.1500 
  7 C       -2.2220    -3.4340     0.8530 C.2   1 <1>   0.5690 
  8 O       -2.0660    -4.2850     1.6940 O.2   1 <1>  -0.5700 
  9 N       -2.7940    -3.7480    -0.3600 N.am  1 <1>  -0.6600 
 10 C       -3.1840    -2.7590    -1.4150 C.3   1 <1>   0.1400 
 11 C       -3.4970    -5.0580    -0.5460 C.3   1 <1>   0.1400 
 12 C       -4.7100    -2.4710    -1.3630 C.3   1 <1>   0.4230 
 13 C       -5.0290    -4.8570    -0.6400 C.3   1 <1>   0.3430 
 14 N       -5.4360    -3.4150    -0.4240 N.4   1 <1>  -0.9590 
 15 C       -5.3370    -2.5050    -2.7740 C.3   1 <1>   0.1200 
 16 C       -6.9080    -3.1370    -0.4540 C.3   1 <1>   0.4230 
 17 O       -6.7140    -2.2660    -2.7090 O.3   1 <1>  -0.5600 
 18 C       -7.4440    -3.1540    -1.9060 C.3   1 <1>   0.1200 
 19 C       -7.6590    -4.0980     0.4810 C.3   1 <1>  -0.1600 
 20 C       -9.0940    -3.6310     0.7700 C.3   1 <1>  -0.1600 
 21 C       -9.7790    -4.5650     1.7710 C.3   1 <1>  -0.2400 
 22 H       -6.3020     0.0660     2.0420 H     1 <1>   0.1500 
 23 H       -2.5580     0.6220    -0.0620 H     1 <1>   0.1500 
 24 H       -1.0790    -1.6590     0.5430 H     1 <1>   0.0800 
 25 H       -1.4130    -2.0060     2.2090 H     1 <1>   0.0800 
 26 H       -4.8470     1.5990     0.3850 H     1 <1>   0.1500 
 27 H       -2.6350    -1.8410    -1.3140 H     1 <1>   0.0800 
 28 H       -2.9200    -3.1670    -2.3760 H     1 <1>   0.0800 
 29 H       -3.1380    -5.5330    -1.4430 H     1 <1>   0.0800 
 30 H       -3.2810    -5.7300     0.2690 H     1 <1>   0.0800 
 31 H       -4.8310    -1.4660    -0.9920 H     1 <1>   0.0800 
 32 H       -5.4980    -5.4850     0.0990 H     1 <1>   0.0800 
 33 H       -5.3660    -5.1900    -1.6080 H     1 <1>   0.0800 
 34 H       -5.0880    -3.1700     0.5160 H     1 <1>   0.4500 
 35 H       -5.1770    -3.4550    -3.2530 H     1 <1>   0.0800 
 36 H       -4.9060    -1.7350    -3.3910 H     1 <1>   0.0800 
 37 H       -7.0650    -2.1400    -0.0770 H     1 <1>   0.0800 
 38 H       -8.4700    -2.8320    -1.9290 H     1 <1>   0.0800 
 39 H       -7.3870    -4.1380    -2.3350 H     1 <1>   0.0800 
 40 H       -7.6990    -5.0840     0.0510 H     1 <1>   0.0800 
 41 H       -7.1340    -4.1530     1.4190 H     1 <1>   0.0800 
 42 H       -9.0830    -2.6340     1.1780 H     1 <1>   0.0800 
 43 H       -9.6780    -3.6140    -0.1350 H     1 <1>   0.0800 
 44 H       -9.2450    -4.5820     2.7060 H     1 <1>   0.0800 
 45 H       -9.8320    -5.5680     1.3840 H     1 <1>   0.0800 
 46 H      -10.7820    -4.2250     1.9640 H     1 <1>   0.0800 
@<TRIPOS>BOND
  1   1   2  1   
  2   1   3  1   
  3   2   4  2   
  4   2   5  1   
  5   3   6  2   
  6   3  22  1   
  7   4   6  1   
  8   4  23  1   
  9   5   7  1   
 10   5  24  1   
 11   5  25  1   
 12   6  26  1   
 13   7   8  2   
 14   7   9  am  
 15   9  10  1   
 16   9  11  1   
 17  10  12  1   
 18  10  27  1   
 19  10  28  1   
 20  11  13  1   
 21  11  29  1   
 22  11  30  1   
 23  12  14  1   
 24  12  15  1   
 25  12  31  1   
 26  13  14  1   
 27  13  32  1   
 28  13  33  1   
 29  14  16  1   
 30  14  34  1   
 31  15  17  1   
 32  15  35  1   
 33  15  36  1   
 34  16  18  1   
 35  16  19  1   
 36  16  37  1   
 37  17  18  1   
 38  18  38  1   
 39  18  39  1   
 40  19  20  1   
 41  19  40  1   
 42  19  41  1   
 43  20  21  1   
 44  20  42  1   
 45  20  43  1   
 46  21  44  1   
 47  21  45  1   
 48  21  46  1   
@<TRIPOS>SUBSTRUCTURE
  1 ****  14 GROUP 4 **** **** 0

# MOE 2024.06 (io_trps.svl 2023.06)
