@<TRIPOS>MOLECULE
NONAME
45 47 1 0 0 
SMALL
USER_CHARGES


@<TRIPOS>ATOM
  1 O        0.7370     0.8720     1.4200 O.co2 1 <1>  -0.9000 
  2 C        1.9360     1.1720     1.4990 C.2   1 <1>   0.9790 
  3 O        2.2640     2.2710     1.9730 O.co2 1 <1>  -0.9000 
  4 C        2.9700     0.2940     0.9910 C.ar  1 <1>  -0.1790 
  5 C        2.9260    -1.1360     1.1240 C.ar  1 <1>   0.0000 
  6 C        4.0530     0.8490     0.3590 C.ar  1 <1>  -0.1500 
  7 C        3.9750    -1.8860     0.5630 C.ar  1 <1>   0.3610 
  8 C        1.9140    -1.8480     1.7910 C.ar  1 <1>  -0.1500 
  9 C        5.1150     0.0960    -0.1850 C.ar  1 <1>   0.4610 
 10 N        5.0120    -1.2270    -0.0680 N.ar  1 <1>  -0.1790 
 11 C        3.9780    -3.2830     0.6540 C.ar  1 <1>  -0.1500 
 12 C        1.9300    -3.2190     1.8770 C.ar  1 <1>  -0.1500 
 13 N        6.1980     0.6360    -0.7990 N.pl3 1 <1>  -0.8380 
 14 C        2.9660    -3.9460     1.3030 C.ar  1 <1>  -0.1500 
 15 C        6.3000     2.1060    -1.0720 C.3   1 <1>   0.2090 
 16 C        7.4210    -0.0920    -1.2700 C.3   1 <1>   0.1290 
 17 C        6.8670     2.8240     0.1550 C.3   1 <1>  -0.1600 
 18 C        6.8070     4.3420    -0.0190 C.3   1 <1>   0.2000 
 19 O        7.4880     4.6650    -1.1930 O.3   1 <1>  -0.5600 
 20 C        7.4540     5.0800     1.1630 C.3   1 <1>  -0.1600 
 21 C        7.4280     6.0130    -1.5510 C.3   1 <1>   0.1200 
 22 C        7.4920     6.5910     0.9060 C.3   1 <1>  -0.1600 
 23 C        8.1080     6.8620    -0.4710 C.3   1 <1>  -0.1600 
 24 H        4.0850     1.9200     0.2870 H     1 <1>   0.1500 
 25 H        1.0970    -1.3120     2.2470 H     1 <1>   0.1500 
 26 H        5.7530    -1.7710    -0.4820 H     1 <1>   0.4570 
 27 H        4.7770    -3.8520     0.2150 H     1 <1>   0.1500 
 28 H        1.1350    -3.7340     2.3910 H     1 <1>   0.1500 
 29 H        2.9600    -5.0220     1.3780 H     1 <1>   0.1500 
 30 H        5.3330     2.5080    -1.3240 H     1 <1>   0.0800 
 31 H        6.9390     2.2820    -1.9220 H     1 <1>   0.0800 
 32 H        7.4950    -1.0750    -0.8420 H     1 <1>   0.0800 
 33 H        8.3040     0.4560    -0.9830 H     1 <1>   0.0800 
 34 H        7.4060    -0.1720    -2.3440 H     1 <1>   0.0800 
 35 H        7.8870     2.5250     0.3120 H     1 <1>   0.0800 
 36 H        6.2970     2.5620     1.0280 H     1 <1>   0.0800 
 37 H        5.7800     4.6520    -0.1300 H     1 <1>   0.0800 
 38 H        8.4560     4.7130     1.3040 H     1 <1>   0.0800 
 39 H        6.8980     4.8800     2.0620 H     1 <1>   0.0800 
 40 H        6.3940     6.2910    -1.6730 H     1 <1>   0.0800 
 41 H        7.9350     6.1260    -2.4940 H     1 <1>   0.0800 
 42 H        8.0640     7.0840     1.6730 H     1 <1>   0.0800 
 43 H        6.4880     6.9800     0.9310 H     1 <1>   0.0800 
 44 H        8.0100     7.9040    -0.7170 H     1 <1>   0.0800 
 45 H        9.1570     6.6230    -0.4550 H     1 <1>   0.0800 
@<TRIPOS>BOND
  1   1   2  ar  
  2   2   3  ar  
  3   2   4  1   
  4   4   5  ar  
  5   4   6  ar  
  6   5   7  ar  
  7   5   8  ar  
  8   6   9  ar  
  9   6  24  1   
 10   7  10  ar  
 11   7  11  ar  
 12   8  12  ar  
 13   8  25  1   
 14   9  10  ar  
 15   9  13  1   
 16  10  26  1   
 17  11  14  ar  
 18  11  27  1   
 19  12  14  ar  
 20  12  28  1   
 21  13  15  1   
 22  13  16  1   
 23  14  29  1   
 24  15  17  1   
 25  15  30  1   
 26  15  31  1   
 27  16  32  1   
 28  16  33  1   
 29  16  34  1   
 30  17  18  1   
 31  17  35  1   
 32  17  36  1   
 33  18  19  1   
 34  18  20  1   
 35  18  37  1   
 36  19  21  1   
 37  20  22  1   
 38  20  38  1   
 39  20  39  1   
 40  21  23  1   
 41  21  40  1   
 42  21  41  1   
 43  22  23  1   
 44  22  42  1   
 45  22  43  1   
 46  23  44  1   
 47  23  45  1   
@<TRIPOS>SUBSTRUCTURE
  1 ****   6 GROUP 4 **** **** 0

# MOE 2024.06 (io_trps.svl 2023.06)
