@<TRIPOS>MOLECULE
NONAME
42 43 1 0 0 
SMALL
USER_CHARGES


@<TRIPOS>ATOM
  1 S        0.4670    -0.1060     0.7020 S.o2  1 <1>   1.3330 
  2 O       -0.5200    -0.0090     1.7540 O.2   1 <1>  -0.6500 
  3 O        1.8720     0.0100     1.0220 O.2   1 <1>  -0.6500 
  4 N        0.2400    -1.5790    -0.1110 N.am  1 <1>  -0.8490 
  5 C        0.0510     1.1070    -0.5470 C.3   1 <1>  -0.0550 
  6 C       -0.1440    -2.6620     0.8000 C.3   1 <1>   0.1160 
  7 C        1.3990    -1.9890    -0.9110 C.3   1 <1>   0.1160 
  8 C        0.0580     2.5510    -0.0180 C.3   1 <1>  -0.0800 
  9 C       -0.3950     3.5560    -1.0730 C.3   1 <1>   0.2000 
 10 C        1.4360     3.0620     0.4110 C.3   1 <1>   0.1400 
 11 O       -1.7780     3.6170    -1.1060 O.3   1 <1>  -0.6800 
 12 C        0.2240     4.8920    -0.6650 C.3   1 <1>   0.1400 
 13 N        1.3830     4.5270     0.1880 N.am  1 <1>  -0.6600 
 14 C        2.2130     5.4140     0.8340 C.2   1 <1>   0.5440 
 15 O        3.0210     4.9820     1.6320 O.2   1 <1>  -0.5700 
 16 C        2.1150     6.8420     0.6350 C.ar  1 <1>   0.0860 
 17 C        2.3780     7.4580    -0.5880 C.ar  1 <1>   0.1900 
 18 C        1.7540     7.6770     1.6920 C.ar  1 <1>  -0.1500 
 19 F        2.7480     6.7290    -1.6080 F     1 <1>  -0.1900 
 20 C        2.2720     8.8230    -0.7870 C.ar  1 <1>  -0.1500 
 21 C        1.6440     9.0460     1.5090 C.ar  1 <1>   0.0820 
 22 C        1.8970     9.6250     0.2750 C.ar  1 <1>  -0.1500 
 23 O        1.2940     9.8360     2.5340 O.3   1 <1>  -0.5330 
 24 H        0.7330     1.0240    -1.3700 H     1 <1>   0.0800 
 25 H       -0.9330     0.8890    -0.9170 H     1 <1>   0.0800 
 26 H       -0.2960    -3.5760     0.2510 H     1 <1>   0.0800 
 27 H       -1.0660    -2.4140     1.2990 H     1 <1>   0.0800 
 28 H        0.6210    -2.8150     1.5430 H     1 <1>   0.0800 
 29 H        1.1660    -2.8780    -1.4710 H     1 <1>   0.0800 
 30 H        2.2460    -2.1880    -0.2740 H     1 <1>   0.0800 
 31 H        1.6660    -1.2100    -1.6050 H     1 <1>   0.0800 
 32 H       -0.5880     2.6200     0.8410 H     1 <1>   0.0800 
 33 H       -0.0440     3.2820    -2.0540 H     1 <1>   0.0800 
 34 H        2.2170     2.6450    -0.2020 H     1 <1>   0.0800 
 35 H        1.6390     2.8340     1.4460 H     1 <1>   0.0800 
 36 H       -2.1360     3.7900    -0.2130 H     1 <1>   0.4000 
 37 H       -0.4700     5.4820    -0.0930 H     1 <1>   0.0800 
 38 H        0.5480     5.4340    -1.5360 H     1 <1>   0.0800 
 39 H        1.5640     7.2370     2.6540 H     1 <1>   0.1500 
 40 H        2.4830     9.2470    -1.7530 H     1 <1>   0.1500 
 41 H        1.8040    10.6900     0.1590 H     1 <1>   0.1500 
 42 H        1.1880     9.3590     3.3760 H     1 <1>   0.4500 
@<TRIPOS>BOND
  1   1   2  2   
  2   1   3  2   
  3   1   4  am  
  4   1   5  1   
  5   4   6  1   
  6   4   7  1   
  7   5   8  1   
  8   5  24  1   
  9   5  25  1   
 10   6  26  1   
 11   6  27  1   
 12   6  28  1   
 13   7  29  1   
 14   7  30  1   
 15   7  31  1   
 16   8   9  1   
 17   8  10  1   
 18   8  32  1   
 19   9  11  1   
 20   9  12  1   
 21   9  33  1   
 22  10  13  1   
 23  10  34  1   
 24  10  35  1   
 25  11  36  1   
 26  12  13  1   
 27  12  37  1   
 28  12  38  1   
 29  13  14  am  
 30  14  15  2   
 31  14  16  1   
 32  16  17  ar  
 33  16  18  ar  
 34  17  19  1   
 35  17  20  ar  
 36  18  21  ar  
 37  18  39  1   
 38  20  22  ar  
 39  20  40  1   
 40  21  22  ar  
 41  21  23  1   
 42  22  41  1   
 43  23  42  1   
@<TRIPOS>SUBSTRUCTURE
  1 ****  13 GROUP 4 **** **** 0

# MOE 2024.06 (io_trps.svl 2023.06)
