@<TRIPOS>MOLECULE
NONAME
50 53 1 0 0 
SMALL
USER_CHARGES


@<TRIPOS>ATOM
  1 O       -1.2290     0.8800    -2.0310 O.2   1 <1>  -0.5700 
  2 C       -1.3740     1.5050    -0.9960 C.2   1 <1>   0.5440 
  3 N       -2.2020     0.9830    -0.0210 N.am  1 <1>  -0.6600 
  4 C       -0.6900     2.7750    -0.8330 C.ar  1 <1>   0.0860 
  5 C       -2.6740    -0.4290    -0.1290 C.3   1 <1>   0.1400 
  6 C       -2.7650     1.8070     1.0900 C.3   1 <1>   0.1400 
  7 C       -0.7950     3.7720    -1.8020 C.ar  1 <1>  -0.1500 
  8 C        0.0960     3.0450     0.2880 C.ar  1 <1>  -0.1500 
  9 C       -3.9140    -0.5340    -1.0290 C.3   1 <1>   0.1400 
 10 C       -4.2770     1.6310     1.2900 C.3   1 <1>  -0.1600 
 11 C       -0.1620     4.9930    -1.6510 C.ar  1 <1>  -0.1500 
 12 C        0.7320     4.2630     0.4460 C.ar  1 <1>  -0.1500 
 13 N       -5.1410     0.0010    -0.3560 N.am  1 <1>  -0.6600 
 14 C       -5.0740     1.4490    -0.0060 C.3   1 <1>   0.1400 
 15 C        0.6010     5.2410    -0.5240 C.ar  1 <1>  -0.1500 
 16 C       -6.2500    -0.7420    -0.0040 C.2   1 <1>   0.5690 
 17 O       -7.1200    -0.2550     0.6820 O.2   1 <1>  -0.5700 
 18 C       -6.3990    -2.2080    -0.4450 C.3   1 <1>   0.1240 
 19 C       -7.8060    -2.7790    -0.4590 C.ar  1 <1>  -0.1430 
 20 C       -5.6510    -3.1890     0.4860 C.3   1 <1>  -0.1600 
 21 C       -7.8280    -4.0570     0.0440 C.ar  1 <1>  -0.1430 
 22 C       -8.9710    -2.1850    -0.9130 C.ar  1 <1>  -0.1500 
 23 C       -6.4560    -4.4990     0.4840 C.3   1 <1>  -0.0170 
 24 C       -9.0070    -4.7770     0.1050 C.ar  1 <1>  -0.1500 
 25 C      -10.1590    -2.8970    -0.8560 C.ar  1 <1>  -0.1500 
 26 C      -10.1770    -4.1890    -0.3500 C.ar  1 <1>  -0.1500 
 27 H       -2.8860    -0.8310     0.8460 H     1 <1>   0.0800 
 28 H       -1.8860    -1.0220    -0.5620 H     1 <1>   0.0800 
 29 H       -2.5840     2.8480     0.8840 H     1 <1>   0.0800 
 30 H       -2.2530     1.5620     2.0050 H     1 <1>   0.0800 
 31 H       -1.3810     3.5770    -2.6830 H     1 <1>   0.1500 
 32 H        0.2090     2.2840     1.0400 H     1 <1>   0.1500 
 33 H       -4.0410    -1.5650    -1.2930 H     1 <1>   0.0800 
 34 H       -3.7390     0.0080    -1.9430 H     1 <1>   0.0800 
 35 H       -4.6400     2.5120     1.7880 H     1 <1>   0.0800 
 36 H       -4.4720     0.8060     1.9530 H     1 <1>   0.0800 
 37 H       -0.2590     5.7480    -2.4120 H     1 <1>   0.1500 
 38 H        1.3320     4.4510     1.3200 H     1 <1>   0.1500 
 39 H       -4.6290     2.0060    -0.8120 H     1 <1>   0.0800 
 40 H       -6.0720     1.8300     0.1370 H     1 <1>   0.0800 
 41 H        1.0950     6.1900    -0.4050 H     1 <1>   0.1500 
 42 H       -6.0350    -2.3110    -1.4490 H     1 <1>   0.0800 
 43 H       -5.6610    -2.7870     1.4850 H     1 <1>   0.0800 
 44 H       -4.6320    -3.3440     0.1820 H     1 <1>   0.0800 
 45 H       -8.9550    -1.1800    -1.2980 H     1 <1>   0.1500 
 46 H       -6.4800    -4.9500     1.4610 H     1 <1>   0.0800 
 47 H       -6.0560    -5.1940    -0.2330 H     1 <1>   0.0800 
 48 H       -9.0170    -5.7760     0.5010 H     1 <1>   0.1500 
 49 H      -11.0700    -2.4430    -1.2020 H     1 <1>   0.1500 
 50 H      -11.1020    -4.7350    -0.3080 H     1 <1>   0.1500 
@<TRIPOS>BOND
  1   1   2  2   
  2   2   3  am  
  3   2   4  1   
  4   3   5  1   
  5   3   6  1   
  6   4   7  ar  
  7   4   8  ar  
  8   5   9  1   
  9   5  27  1   
 10   5  28  1   
 11   6  10  1   
 12   6  29  1   
 13   6  30  1   
 14   7  11  ar  
 15   7  31  1   
 16   8  12  ar  
 17   8  32  1   
 18   9  13  1   
 19   9  33  1   
 20   9  34  1   
 21  10  14  1   
 22  10  35  1   
 23  10  36  1   
 24  11  15  ar  
 25  11  37  1   
 26  12  15  ar  
 27  12  38  1   
 28  13  14  1   
 29  13  16  am  
 30  14  39  1   
 31  14  40  1   
 32  15  41  1   
 33  16  17  2   
 34  16  18  1   
 35  18  19  1   
 36  18  20  1   
 37  18  42  1   
 38  19  21  ar  
 39  19  22  ar  
 40  20  23  1   
 41  20  43  1   
 42  20  44  1   
 43  21  23  1   
 44  21  24  ar  
 45  22  25  ar  
 46  22  45  1   
 47  23  46  1   
 48  23  47  1   
 49  24  26  ar  
 50  24  48  1   
 51  25  26  ar  
 52  25  49  1   
 53  26  50  1   
@<TRIPOS>SUBSTRUCTURE
  1 ****  13 GROUP 4 **** **** 0

# MOE 2024.06 (io_trps.svl 2023.06)
