@<TRIPOS>MOLECULE
NONAME
50 52 1 0 0 
SMALL
USER_CHARGES


@<TRIPOS>ATOM
  1 O       -0.5090     0.0510     1.3130 O.2   1 <1>  -0.5700 
  2 C       -1.3580     0.7600     0.8260 C.2   1 <1>   0.5690 
  3 N       -2.4800     0.2020     0.2620 N.am  1 <1>  -0.6600 
  4 C       -1.0870     2.2700     0.8780 C.3   1 <1>  -0.0190 
  5 C       -3.6170     0.8660    -0.4280 C.3   1 <1>   0.1400 
  6 C       -2.6460    -1.2750     0.2060 C.3   1 <1>   0.1400 
  7 C       -2.1960     3.1040     1.5520 C.3   1 <1>  -0.1600 
  8 C       -0.6900     2.8560    -0.4920 C.3   1 <1>  -0.1600 
  9 C       -4.3110    -0.2530    -1.2000 C.3   1 <1>   0.2000 
 10 C       -4.0310    -1.5170    -0.3950 C.3   1 <1>  -0.0800 
 11 C       -1.8060     4.5820     1.6240 C.3   1 <1>   0.1400 
 12 C       -0.3540     4.3460    -0.3890 C.3   1 <1>   0.1400 
 13 O       -5.6760    -0.0360    -1.2990 O.3   1 <1>  -0.6800 
 14 C       -4.1250    -2.8020    -1.2300 C.3   1 <1>   0.0210 
 15 N       -1.4900     5.0640     0.2520 N.am  1 <1>  -0.6600 
 16 C       -3.7480    -4.0140    -0.4010 C.2   1 <1>   0.1080 
 17 C       -2.1690     6.0510    -0.4180 C.2   1 <1>   0.5690 
 18 N       -4.4140    -4.3800     0.6500 N.2   1 <1>  -0.7070 
 19 C       -2.6650    -4.8480    -0.6540 C.2   1 <1>  -0.1500 
 20 O       -1.8830     6.3800    -1.5440 O.2   1 <1>  -0.5700 
 21 C       -3.3250     6.7720     0.2350 C.3   1 <1>  -0.1790 
 22 N       -3.7660    -5.4710     1.1000 N.pl3 1 <1>   0.3000 
 23 C       -2.7020    -5.7740     0.3270 C.2   1 <1>  -0.3320 
 24 C       -1.7710    -6.9450     0.5790 C.3   1 <1>  -0.0600 
 25 H       -0.2190     2.3790     1.5060 H     1 <1>   0.0800 
 26 H       -4.2860     1.2710     0.3090 H     1 <1>   0.0800 
 27 H       -3.2840     1.6330    -1.1000 H     1 <1>   0.0800 
 28 H       -1.8740    -1.6880    -0.4210 H     1 <1>   0.0800 
 29 H       -2.5670    -1.7070     1.1900 H     1 <1>   0.0800 
 30 H       -2.3700     2.7320     2.5460 H     1 <1>   0.0800 
 31 H       -3.1160     3.0350     1.0070 H     1 <1>   0.0800 
 32 H       -1.4810     2.7390    -1.2060 H     1 <1>   0.0800 
 33 H        0.1680     2.3280    -0.8700 H     1 <1>   0.0800 
 34 H       -3.9020    -0.3170    -2.1940 H     1 <1>   0.0800 
 35 H       -4.7230    -1.5820     0.4280 H     1 <1>   0.0800 
 36 H       -0.9350     4.7030     2.2460 H     1 <1>   0.0800 
 37 H       -2.6070     5.1460     2.0660 H     1 <1>   0.0800 
 38 H       -0.1540     4.7400    -1.3710 H     1 <1>   0.0800 
 39 H        0.5310     4.4850     0.2090 H     1 <1>   0.0800 
 40 H       -6.1060    -0.1830    -0.4340 H     1 <1>   0.4000 
 41 H       -3.4750    -2.7380    -2.0840 H     1 <1>   0.0800 
 42 H       -5.1320    -2.9280    -1.5850 H     1 <1>   0.0800 
 43 H       -1.9630    -4.7530    -1.4640 H     1 <1>   0.1500 
 44 H       -4.0990     6.0710     0.4830 H     1 <1>   0.0800 
 45 H       -3.7260     7.5010    -0.4440 H     1 <1>   0.0800 
 46 H       -2.9870     7.2760     1.1200 H     1 <1>   0.0800 
 47 H       -4.0740    -5.9830     1.9350 H     1 <1>   0.2700 
 48 H       -1.0020    -6.9740    -0.1720 H     1 <1>   0.0800 
 49 H       -2.3180    -7.8700     0.5450 H     1 <1>   0.0800 
 50 H       -1.3030    -6.8480     1.5430 H     1 <1>   0.0800 
@<TRIPOS>BOND
  1   1   2  2   
  2   2   3  am  
  3   2   4  1   
  4   3   5  1   
  5   3   6  1   
  6   4   7  1   
  7   4   8  1   
  8   4  25  1   
  9   5   9  1   
 10   5  26  1   
 11   5  27  1   
 12   6  10  1   
 13   6  28  1   
 14   6  29  1   
 15   7  11  1   
 16   7  30  1   
 17   7  31  1   
 18   8  12  1   
 19   8  32  1   
 20   8  33  1   
 21   9  10  1   
 22   9  13  1   
 23   9  34  1   
 24  10  14  1   
 25  10  35  1   
 26  11  15  1   
 27  11  36  1   
 28  11  37  1   
 29  12  15  1   
 30  12  38  1   
 31  12  39  1   
 32  13  40  1   
 33  14  16  1   
 34  14  41  1   
 35  14  42  1   
 36  15  17  am  
 37  16  18  2   
 38  16  19  1   
 39  17  20  2   
 40  17  21  1   
 41  18  22  1   
 42  19  23  2   
 43  19  43  1   
 44  21  44  1   
 45  21  45  1   
 46  21  46  1   
 47  22  23  1   
 48  22  47  1   
 49  23  24  1   
 50  24  48  1   
 51  24  49  1   
 52  24  50  1   
@<TRIPOS>SUBSTRUCTURE
  1 ****   3 GROUP 4 **** **** 0

# MOE 2024.06 (io_trps.svl 2023.06)
