@<TRIPOS>MOLECULE
NONAME
49 50 1 0 0 
SMALL
USER_CHARGES


@<TRIPOS>ATOM
  1 O       -0.8830     0.3080     2.0380 O.2   1 <1>  -0.5700 
  2 C       -1.3770     0.6740     1.0000 C.2   1 <1>   0.5690 
  3 N       -1.9370    -0.1970     0.1200 N.am  1 <1>  -0.7300 
  4 C       -1.3810     2.1650     0.6710 C.3   1 <1>  -0.0190 
  5 C       -2.0490    -1.6560     0.3210 C.3   1 <1>   0.1400 
  6 C       -2.8100     2.7060     0.4640 C.3   1 <1>  -0.1600 
  7 C       -0.4710     2.4950    -0.5370 C.3   1 <1>  -0.1600 
  8 C       -3.5070    -2.0700     0.1300 C.3   1 <1>  -0.1600 
  9 C       -2.8310     4.2390     0.2920 C.3   1 <1>   0.2000 
 10 C       -0.8290     3.8210    -1.2380 C.3   1 <1>  -0.1600 
 11 C       -3.6950    -3.5730     0.3630 C.3   1 <1>  -0.0170 
 12 O       -3.8830     4.5610    -0.5840 O.3   1 <1>  -0.5600 
 13 C       -1.5020     4.8040    -0.2770 C.3   1 <1>   0.2000 
 14 C       -5.1490    -3.9610     0.1530 C.ar  1 <1>  -0.1440 
 15 C       -5.1470     4.6130     0.0020 C.3   1 <1>   0.0400 
 16 O       -1.7630     5.9680    -0.9690 O.3   1 <1>  -0.6800 
 17 C       -5.5850    -4.4150    -1.0810 C.ar  1 <1>  -0.1500 
 18 C       -6.0560    -3.8620     1.1960 C.ar  1 <1>  -0.1500 
 19 C       -6.9110    -4.7650    -1.2700 C.ar  1 <1>  -0.1500 
 20 C       -7.3820    -4.2120     1.0070 C.ar  1 <1>  -0.1500 
 21 C       -7.8180    -4.6640    -0.2270 C.ar  1 <1>  -0.1440 
 22 C       -9.2710    -5.0500    -0.4340 C.3   1 <1>  -0.0970 
 23 H       -2.3400     0.1620    -0.7450 H     1 <1>   0.3700 
 24 H       -0.9740     2.6680     1.5320 H     1 <1>   0.0800 
 25 H       -1.4190    -2.1610    -0.3910 H     1 <1>   0.0800 
 26 H       -1.7190    -1.9160     1.3130 H     1 <1>   0.0800 
 27 H       -3.4180     2.4370     1.3100 H     1 <1>   0.0800 
 28 H       -3.2280     2.2460    -0.4140 H     1 <1>   0.0800 
 29 H        0.5460     2.5400    -0.1870 H     1 <1>   0.0800 
 30 H       -0.5170     1.7070    -1.2680 H     1 <1>   0.0800 
 31 H       -4.1240    -1.5300     0.8280 H     1 <1>   0.0800 
 32 H       -3.8250    -1.8290    -0.8690 H     1 <1>   0.0800 
 33 H       -3.0090     4.7180     1.2410 H     1 <1>   0.0800 
 34 H       -1.5100     3.6170    -2.0470 H     1 <1>   0.0800 
 35 H        0.0620     4.2630    -1.6500 H     1 <1>   0.0800 
 36 H       -3.3980    -3.8280     1.3660 H     1 <1>   0.0800 
 37 H       -3.0720    -4.1310    -0.3140 H     1 <1>   0.0800 
 38 H       -0.8220     5.0410     0.5240 H     1 <1>   0.0800 
 39 H       -5.8590     4.8720    -0.7610 H     1 <1>   0.0800 
 40 H       -5.1520     5.3670     0.7710 H     1 <1>   0.0800 
 41 H       -5.3940     3.6500     0.4130 H     1 <1>   0.0800 
 42 H       -2.6740     5.8670    -1.3280 H     1 <1>   0.4000 
 43 H       -4.8960    -4.4980    -1.9020 H     1 <1>   0.1500 
 44 H       -5.7340    -3.5110     2.1600 H     1 <1>   0.1500 
 45 H       -7.2350    -5.1180    -2.2330 H     1 <1>   0.1500 
 46 H       -8.0730    -4.1310     1.8270 H     1 <1>   0.1500 
 47 H       -9.5660    -4.8720    -1.4520 H     1 <1>   0.0800 
 48 H       -9.9080    -4.4720     0.2100 H     1 <1>   0.0800 
 49 H       -9.4040    -6.0930    -0.2110 H     1 <1>   0.0800 
@<TRIPOS>BOND
  1   1   2  2   
  2   2   3  am  
  3   2   4  1   
  4   3   5  1   
  5   3  23  1   
  6   4   6  1   
  7   4   7  1   
  8   4  24  1   
  9   5   8  1   
 10   5  25  1   
 11   5  26  1   
 12   6   9  1   
 13   6  27  1   
 14   6  28  1   
 15   7  10  1   
 16   7  29  1   
 17   7  30  1   
 18   8  11  1   
 19   8  31  1   
 20   8  32  1   
 21   9  12  1   
 22   9  13  1   
 23   9  33  1   
 24  10  13  1   
 25  10  34  1   
 26  10  35  1   
 27  11  14  1   
 28  11  36  1   
 29  11  37  1   
 30  12  15  1   
 31  13  16  1   
 32  13  38  1   
 33  14  17  ar  
 34  14  18  ar  
 35  15  39  1   
 36  15  40  1   
 37  15  41  1   
 38  16  42  1   
 39  17  19  ar  
 40  17  43  1   
 41  18  20  ar  
 42  18  44  1   
 43  19  21  ar  
 44  19  45  1   
 45  20  21  ar  
 46  20  46  1   
 47  21  22  1   
 48  22  47  1   
 49  22  48  1   
 50  22  49  1   
@<TRIPOS>SUBSTRUCTURE
  1 ****   3 GROUP 4 **** **** 0

# MOE 2024.06 (io_trps.svl 2023.06)
