@<TRIPOS>MOLECULE
NONAME
54 57 1 0 0 
SMALL
USER_CHARGES


@<TRIPOS>ATOM
  1 O        0.7750    -2.0870    -2.5160 O.2   1 <1>  -0.5700 
  2 C        0.1640    -2.1490    -1.4770 C.2   1 <1>   0.5690 
  3 N        0.3660    -1.3300    -0.4020 N.am  1 <1>  -0.5470 
  4 C       -0.9230    -3.2140    -1.3080 C.3   1 <1>   0.1710 
  5 C        1.2090    -0.2380    -0.1540 C.ar  1 <1>   0.1170 
  6 N       -1.8780    -2.9170    -0.1950 N.3   1 <1>  -0.8100 
  7 C        2.1220     0.2510    -1.0830 C.ar  1 <1>  -0.1500 
  8 C        1.1270     0.3910     1.0840 C.ar  1 <1>  -0.1500 
  9 C       -2.8480    -1.8680    -0.6020 C.3   1 <1>   0.1100 
 10 C       -2.5900    -4.1320     0.2300 C.3   1 <1>   0.1100 
 11 C        2.9270     1.3360    -0.7840 C.ar  1 <1>  -0.1500 
 12 C        1.9280     1.4770     1.3860 C.ar  1 <1>  -0.1500 
 13 C       -3.7550    -1.4510     0.5720 C.3   1 <1>   0.1430 
 14 C       -3.4830    -3.8230     1.4380 C.3   1 <1>  -0.1600 
 15 C        2.8310     1.9520     0.4510 C.ar  1 <1>  -0.1500 
 16 C       -4.7130    -0.3790     0.0860 C.ar  1 <1>   0.1670 
 17 C       -4.4810    -2.6940     1.1270 C.3   1 <1>  -0.1600 
 18 C       -2.9520    -0.7010     1.6680 C.3   1 <1>  -0.1600 
 19 N       -5.7630    -0.5800    -0.6710 N.ar  1 <1>  -0.6200 
 20 C       -4.3400     0.8560     0.5240 C.ar  1 <1>  -0.1430 
 21 C       -3.0890     0.8010     1.3650 C.3   1 <1>  -0.0170 
 22 C       -6.4610     0.5150    -0.9840 C.ar  1 <1>   0.7200 
 23 C       -5.1150     1.9250     0.1520 C.ar  1 <1>   0.1600 
 24 N       -6.1780     1.7650    -0.6000 N.ar  1 <1>  -0.6200 
 25 N       -7.5830     0.3380    -1.7740 N.pl3 1 <1>  -0.8380 
 26 C       -8.4930     1.4720    -2.0980 C.3   1 <1>   0.1290 
 27 C       -8.1190    -1.0220    -2.0630 C.3   1 <1>   0.1290 
 28 H       -0.2920    -1.5720     0.3450 H     1 <1>   0.3700 
 29 H       -0.4190    -4.1420    -1.1080 H     1 <1>   0.0800 
 30 H       -1.4570    -3.3210    -2.2360 H     1 <1>   0.0800 
 31 H        2.2120    -0.2130    -2.0470 H     1 <1>   0.1500 
 32 H        0.4330     0.0290     1.8180 H     1 <1>   0.1500 
 33 H       -3.4650    -2.2350    -1.4060 H     1 <1>   0.0800 
 34 H       -2.3250    -0.9990    -0.9640 H     1 <1>   0.0800 
 35 H       -1.8770    -4.8910     0.5060 H     1 <1>   0.0800 
 36 H       -3.1900    -4.5080    -0.5830 H     1 <1>   0.0800 
 37 H        3.6290     1.7000    -1.5150 H     1 <1>   0.1500 
 38 H        1.8540     1.9530     2.3490 H     1 <1>   0.1500 
 39 H       -2.8600    -3.5470     2.2700 H     1 <1>   0.0800 
 40 H       -4.0230    -4.7110     1.7150 H     1 <1>   0.0800 
 41 H        3.4590     2.7950     0.6830 H     1 <1>   0.1500 
 42 H       -5.1770    -3.0470     0.3860 H     1 <1>   0.0800 
 43 H       -5.0470    -2.4380     2.0050 H     1 <1>   0.0800 
 44 H       -1.9250    -1.0110     1.7140 H     1 <1>   0.0800 
 45 H       -3.4020    -0.8870     2.6270 H     1 <1>   0.0800 
 46 H       -2.2500     1.1510     0.7880 H     1 <1>   0.0800 
 47 H       -3.1850     1.3820     2.2660 H     1 <1>   0.0800 
 48 H       -4.8610     2.9200     0.4720 H     1 <1>   0.1500 
 49 H       -7.9220     2.3550    -2.3280 H     1 <1>   0.0800 
 50 H       -9.1280     1.6770    -1.2540 H     1 <1>   0.0800 
 51 H       -9.1010     1.2340    -2.9530 H     1 <1>   0.0800 
 52 H       -7.3200    -1.6800    -2.3570 H     1 <1>   0.0800 
 53 H       -8.8360    -0.9840    -2.8630 H     1 <1>   0.0800 
 54 H       -8.5910    -1.4170    -1.1800 H     1 <1>   0.0800 
@<TRIPOS>BOND
  1   1   2  2   
  2   2   3  am  
  3   2   4  1   
  4   3   5  1   
  5   3  28  1   
  6   4   6  1   
  7   4  29  1   
  8   4  30  1   
  9   5   7  ar  
 10   5   8  ar  
 11   6   9  1   
 12   6  10  1   
 13   7  11  ar  
 14   7  31  1   
 15   8  12  ar  
 16   8  32  1   
 17   9  13  1   
 18   9  33  1   
 19   9  34  1   
 20  10  14  1   
 21  10  35  1   
 22  10  36  1   
 23  11  15  ar  
 24  11  37  1   
 25  12  15  ar  
 26  12  38  1   
 27  13  16  1   
 28  13  17  1   
 29  13  18  1   
 30  14  17  1   
 31  14  39  1   
 32  14  40  1   
 33  15  41  1   
 34  16  19  ar  
 35  16  20  ar  
 36  17  42  1   
 37  17  43  1   
 38  18  21  1   
 39  18  44  1   
 40  18  45  1   
 41  19  22  ar  
 42  20  21  1   
 43  20  23  ar  
 44  21  46  1   
 45  21  47  1   
 46  22  24  ar  
 47  22  25  1   
 48  23  24  ar  
 49  23  48  1   
 50  25  26  1   
 51  25  27  1   
 52  26  49  1   
 53  26  50  1   
 54  26  51  1   
 55  27  52  1   
 56  27  53  1   
 57  27  54  1   
@<TRIPOS>SUBSTRUCTURE
  1 ****   9 GROUP 4 **** **** 0

# MOE 2024.06 (io_trps.svl 2023.06)
