@<TRIPOS>MOLECULE
NONAME
34 36 1 0 0 
SMALL
USER_CHARGES


@<TRIPOS>ATOM
  1 O       -0.3330     0.0240    -0.1850 O.co2 1 <1>  -0.9000 
  2 C       -1.4800    -0.0780     0.3130 C.2   1 <1>   1.0330 
  3 O       -1.7800    -1.1900     0.7960 O.co2 1 <1>  -0.9000 
  4 C       -2.3960     1.0840     0.3110 C.2   1 <1>   0.0560 
  5 N       -3.6610     1.1560     0.7240 N.2   1 <1>  -0.7070 
  6 C       -2.0100     2.3500    -0.1630 C.2   1 <1>  -0.1810 
  7 N       -4.0560     2.4170     0.5190 N.pl3 1 <1>   0.3140 
  8 C       -3.0760     3.1540    -0.0280 C.2   1 <1>  -0.3320 
  9 C       -0.6600     2.7750    -0.7190 C.3   1 <1>   0.3900 
 10 C       -5.4040     2.8620     0.8780 C.3   1 <1>   0.0160 
 11 C       -3.0630     4.6130    -0.4420 C.3   1 <1>   0.0200 
 12 N       -0.6370     4.2600    -0.9900 N.pl3 1 <1>  -0.8380 
 13 C       -1.9390     4.8300    -1.4700 C.3   1 <1>   0.2090 
 14 C        0.3630     5.0610    -0.4750 C.ar  1 <1>   0.4100 
 15 N        0.0590     6.3010    -0.1380 N.ar  1 <1>  -0.6200 
 16 C        1.6580     4.5970    -0.3180 C.ar  1 <1>  -0.1500 
 17 C        1.0380     7.0310     0.3580 C.ar  1 <1>   0.4770 
 18 C        2.5900     5.4460     0.2080 C.ar  1 <1>   0.1600 
 19 N        2.2960     6.6820     0.5580 N.ar  1 <1>  -0.6200 
 20 C        0.6770     8.4420     0.7530 C.3   1 <1>  -0.0970 
 21 H       -0.4630     2.2360    -1.6290 H     1 <1>   0.0800 
 22 H        0.0940     2.5100     0.0010 H     1 <1>   0.0800 
 23 H       -5.9090     2.0620     1.3880 H     1 <1>   0.0800 
 24 H       -5.9380     3.1150    -0.0170 H     1 <1>   0.0800 
 25 H       -5.3300     3.7150     1.5240 H     1 <1>   0.0800 
 26 H       -2.8840     5.2340     0.4170 H     1 <1>   0.0800 
 27 H       -4.0030     4.8890    -0.8830 H     1 <1>   0.0800 
 28 H       -1.8380     5.8790    -1.6880 H     1 <1>   0.0800 
 29 H       -2.2040     4.3320    -2.3860 H     1 <1>   0.0800 
 30 H        1.9210     3.5990    -0.6060 H     1 <1>   0.1500 
 31 H        3.6040     5.1130     0.3470 H     1 <1>   0.1500 
 32 H       -0.1760     8.7780     0.1930 H     1 <1>   0.0800 
 33 H        1.5030     9.1000     0.5590 H     1 <1>   0.0800 
 34 H        0.4430     8.4660     1.8000 H     1 <1>   0.0800 
@<TRIPOS>BOND
  1   1   2  ar  
  2   2   3  ar  
  3   2   4  1   
  4   4   5  2   
  5   4   6  1   
  6   5   7  1   
  7   6   8  2   
  8   6   9  1   
  9   7   8  1   
 10   7  10  1   
 11   8  11  1   
 12   9  12  1   
 13   9  21  1   
 14   9  22  1   
 15  10  23  1   
 16  10  24  1   
 17  10  25  1   
 18  11  13  1   
 19  11  26  1   
 20  11  27  1   
 21  12  13  1   
 22  12  14  1   
 23  13  28  1   
 24  13  29  1   
 25  14  15  ar  
 26  14  16  ar  
 27  15  17  ar  
 28  16  18  ar  
 29  16  30  1   
 30  17  19  ar  
 31  17  20  1   
 32  18  19  ar  
 33  18  31  1   
 34  20  32  1   
 35  20  33  1   
 36  20  34  1   
@<TRIPOS>SUBSTRUCTURE
  1 ****   9 GROUP 4 **** **** 0

# MOE 2024.06 (io_trps.svl 2023.06)
