@<TRIPOS>MOLECULE
NONAME
50 53 1 0 0 
SMALL
USER_CHARGES


@<TRIPOS>ATOM
  1 O        0.5880     0.5380     1.5220 O.3   1 <1>  -0.6800 
  2 C        1.0410    -0.1560     0.4080 C.3   1 <1>   0.2000 
  3 C        1.5650    -1.5090     0.8820 C.3   1 <1>  -0.0800 
  4 C        2.2990     0.5560    -0.1230 C.3   1 <1>   0.3430 
  5 C        2.9200    -1.1080     1.4690 C.3   1 <1>   0.3430 
  6 C        1.6800    -2.5000    -0.3030 C.3   1 <1>  -0.0170 
  7 N        3.4760    -0.1580     0.4780 N.4   1 <1>  -0.9590 
  8 C        2.8300    -3.4790    -0.1410 C.ar  1 <1>   0.1670 
  9 C        4.4940     0.7600     1.0410 C.3   1 <1>   0.5240 
 10 N        3.9990    -3.0950    -0.5640 N.ar  1 <1>  -0.6200 
 11 C        2.5820    -4.7200     0.4650 C.ar  1 <1>  -0.1500 
 12 C        4.8870     1.7580    -0.0260 C.2   1 <1>  -0.1810 
 13 C        5.0270    -3.9810    -0.4420 C.ar  1 <1>   0.3100 
 14 C        3.6020    -5.6050     0.6340 C.ar  1 <1>  -0.1500 
 15 C        5.6360     1.5130    -1.1720 C.2   1 <1>   0.1080 
 16 C        4.5830     3.0740    -0.0930 C.2   1 <1>  -0.3020 
 17 C        4.8780    -5.2430     0.1760 C.ar  1 <1>   0.0000 
 18 C        6.2920    -3.6360    -0.9470 C.ar  1 <1>  -0.1500 
 19 N        5.7710     2.5760    -1.8950 N.2   1 <1>  -0.7070 
 20 C        6.2480     0.1950    -1.5900 C.3   1 <1>  -0.0590 
 21 N        5.1310     3.5470    -1.2290 N.pl3 1 <1>   0.3140 
 22 C        6.0000    -6.0860     0.2980 C.ar  1 <1>  -0.1500 
 23 C        7.3690    -4.4730    -0.8230 C.ar  1 <1>  -0.1500 
 24 C        5.0890     4.9240    -1.7360 C.3   1 <1>   0.0160 
 25 C        7.2220    -5.7090    -0.1880 C.ar  1 <1>  -0.1500 
 26 H       -0.3170     0.2580     1.7770 H     1 <1>   0.4000 
 27 H        0.2480    -0.2050    -0.3200 H     1 <1>   0.0800 
 28 H        0.9420    -1.9430     1.6460 H     1 <1>   0.0800 
 29 H        2.2770     1.5950     0.1590 H     1 <1>   0.0800 
 30 H        2.3470     0.4830    -1.1970 H     1 <1>   0.0800 
 31 H        3.5710    -1.9530     1.6260 H     1 <1>   0.0800 
 32 H        2.7590    -0.6020     2.4080 H     1 <1>   0.0800 
 33 H        1.8370    -1.9750    -1.2290 H     1 <1>   0.0800 
 34 H        0.7550    -3.0400    -0.4120 H     1 <1>   0.0800 
 35 H        3.9210    -0.7330    -0.2570 H     1 <1>   0.4500 
 36 H        4.0840     1.2880     1.8860 H     1 <1>   0.0800 
 37 H        5.3610     0.2080     1.3640 H     1 <1>   0.0800 
 38 H        1.5870    -4.9650     0.7930 H     1 <1>   0.1500 
 39 H        3.4540    -6.5650     1.0980 H     1 <1>   0.1500 
 40 H        4.0240     3.6970     0.5820 H     1 <1>   0.1500 
 41 H        6.3940    -2.6940    -1.4460 H     1 <1>   0.1500 
 42 H        6.5770    -0.3590    -0.7310 H     1 <1>   0.0800 
 43 H        7.0990     0.3820    -2.2210 H     1 <1>   0.0800 
 44 H        5.5320    -0.3810    -2.1460 H     1 <1>   0.0800 
 45 H        5.8790    -7.0410     0.7810 H     1 <1>   0.1500 
 46 H        8.3350    -4.1960    -1.2130 H     1 <1>   0.1500 
 47 H        4.3450     5.4850    -1.2030 H     1 <1>   0.0800 
 48 H        4.8500     4.9020    -2.7830 H     1 <1>   0.0800 
 49 H        6.0550     5.3730    -1.6000 H     1 <1>   0.0800 
 50 H        8.0770    -6.3570    -0.0950 H     1 <1>   0.1500 
@<TRIPOS>BOND
  1   1   2  1   
  2   1  26  1   
  3   2   3  1   
  4   2   4  1   
  5   2  27  1   
  6   3   5  1   
  7   3   6  1   
  8   3  28  1   
  9   4   7  1   
 10   4  29  1   
 11   4  30  1   
 12   5   7  1   
 13   5  31  1   
 14   5  32  1   
 15   6   8  1   
 16   6  33  1   
 17   6  34  1   
 18   7   9  1   
 19   7  35  1   
 20   8  10  ar  
 21   8  11  ar  
 22   9  12  1   
 23   9  36  1   
 24   9  37  1   
 25  10  13  ar  
 26  11  14  ar  
 27  11  38  1   
 28  12  15  1   
 29  12  16  2   
 30  13  17  ar  
 31  13  18  ar  
 32  14  17  ar  
 33  14  39  1   
 34  15  19  2   
 35  15  20  1   
 36  16  21  1   
 37  16  40  1   
 38  17  22  ar  
 39  18  23  ar  
 40  18  41  1   
 41  19  21  1   
 42  20  42  1   
 43  20  43  1   
 44  20  44  1   
 45  21  24  1   
 46  22  25  ar  
 47  22  45  1   
 48  23  25  ar  
 49  23  46  1   
 50  24  47  1   
 51  24  48  1   
 52  24  49  1   
 53  25  50  1   
@<TRIPOS>SUBSTRUCTURE
  1 ****   7 GROUP 4 **** **** 0

# MOE 2024.06 (io_trps.svl 2023.06)
