@<TRIPOS>MOLECULE
NONAME
53 56 1 0 0 
SMALL
USER_CHARGES


@<TRIPOS>ATOM
  1 O       -1.1970    -0.6580     0.5840 O.2   1 <1>  -0.5700 
  2 C       -1.7480     0.1640    -0.1280 C.2   1 <1>   0.7160 
  3 N       -2.3480    -0.2860    -1.2840 N.am  1 <1>  -0.6600 
  4 C       -1.7170     1.5390     0.2610 C.2   1 <1>  -0.0860 
  5 C       -2.5670    -1.7430    -1.5110 C.3   1 <1>   0.3200 
  6 C       -3.0240     0.6070    -2.2700 C.3   1 <1>   0.0600 
  7 C       -2.8030     2.4040     0.4650 C.2   1 <1>   0.3720 
  8 C       -0.6350     2.3110     0.5520 C.2   1 <1>   0.0870 
  9 C       -3.8530    -2.2020    -0.8390 C.2   1 <1>   0.0060 
 10 N       -2.3920     3.5710     0.8240 N.2   1 <1>  -0.4100 
 11 N       -4.1630     2.0940     0.2890 N.pl3 1 <1>  -0.8210 
 12 O       -1.0910     3.4930     0.8780 O.3   1 <1>  -0.0190 
 13 C        0.7860     2.0630     0.5500 C.ar  1 <1>   0.0530 
 14 N       -5.0160    -2.1250    -1.3940 N.2   1 <1>  -0.3380 
 15 N       -3.9340    -2.7240     0.3930 N.pl3 1 <1>   0.0480 
 16 C       -5.1640     3.1740     0.5040 C.3   1 <1>   0.2090 
 17 C       -4.6880     0.8260     0.8640 C.3   1 <1>   0.2090 
 18 C        1.3760     1.1200    -0.2930 C.ar  1 <1>  -0.1500 
 19 C        1.6340     2.7760     1.4000 C.ar  1 <1>  -0.1500 
 20 N       -5.9040    -2.5950    -0.5180 N.2   1 <1>  -0.3380 
 21 C       -5.2420    -2.9450     0.5290 C.2   1 <1>   0.0370 
 22 C       -2.8890    -3.0070     1.3960 C.3   1 <1>   0.0160 
 23 C       -6.4540     2.4550     0.8670 C.3   1 <1>  -0.1600 
 24 C       -5.9840     1.1920     1.5730 C.3   1 <1>  -0.1600 
 25 C        2.7400     0.8910    -0.2870 C.ar  1 <1>  -0.1500 
 26 C        2.9980     2.5550     1.4110 C.ar  1 <1>  -0.1500 
 27 C        3.5650     1.6120     0.5710 C.ar  1 <1>   0.0830 
 28 O        4.9070     1.4510     0.6420 O.3   1 <1>  -0.3630 
 29 C        5.5820     0.5030    -0.1530 C.3   1 <1>   0.0400 
 30 H       -1.7290    -2.3080    -1.1450 H     1 <1>   0.0800 
 31 H       -2.6430    -1.9300    -2.5680 H     1 <1>   0.0800 
 32 H       -2.7140     1.6300    -2.1460 H     1 <1>   0.0800 
 33 H       -4.0910     0.5520    -2.1380 H     1 <1>   0.0800 
 34 H       -2.7810     0.3000    -3.2730 H     1 <1>   0.0800 
 35 H       -5.2770     3.7690    -0.3860 H     1 <1>   0.0800 
 36 H       -4.8600     3.8050     1.3230 H     1 <1>   0.0800 
 37 H       -3.9870     0.3740     1.5440 H     1 <1>   0.0800 
 38 H       -4.9020     0.1460     0.0590 H     1 <1>   0.0800 
 39 H        0.7620     0.5550    -0.9700 H     1 <1>   0.1500 
 40 H        1.2180     3.5140     2.0630 H     1 <1>   0.1500 
 41 H       -5.6800    -3.3670     1.4150 H     1 <1>   0.1500 
 42 H       -1.9590    -3.2290     0.9060 H     1 <1>   0.0800 
 43 H       -3.1820    -3.8500     1.9950 H     1 <1>   0.0800 
 44 H       -2.7600    -2.1470     2.0280 H     1 <1>   0.0800 
 45 H       -6.9760     2.1960    -0.0380 H     1 <1>   0.0800 
 46 H       -7.0920     3.0620     1.4840 H     1 <1>   0.0800 
 47 H       -5.7700     1.4050     2.6060 H     1 <1>   0.0800 
 48 H       -6.7040     0.3950     1.5150 H     1 <1>   0.0800 
 49 H        3.1430     0.1530    -0.9530 H     1 <1>   0.1500 
 50 H        3.6360     3.1130     2.0730 H     1 <1>   0.1500 
 51 H        6.6290     0.5530     0.0850 H     1 <1>   0.0800 
 52 H        5.4300     0.7450    -1.1900 H     1 <1>   0.0800 
 53 H        5.2020    -0.4770     0.0750 H     1 <1>   0.0800 
@<TRIPOS>BOND
  1   1   2  2   
  2   2   3  am  
  3   2   4  1   
  4   3   5  1   
  5   3   6  1   
  6   4   7  1   
  7   4   8  2   
  8   5   9  1   
  9   5  30  1   
 10   5  31  1   
 11   6  32  1   
 12   6  33  1   
 13   6  34  1   
 14   7  10  2   
 15   7  11  1   
 16   8  12  1   
 17   8  13  1   
 18   9  14  2   
 19   9  15  1   
 20  10  12  1   
 21  11  16  1   
 22  11  17  1   
 23  13  18  ar  
 24  13  19  ar  
 25  14  20  1   
 26  15  21  1   
 27  15  22  1   
 28  16  23  1   
 29  16  35  1   
 30  16  36  1   
 31  17  24  1   
 32  17  37  1   
 33  17  38  1   
 34  18  25  ar  
 35  18  39  1   
 36  19  26  ar  
 37  19  40  1   
 38  20  21  2   
 39  21  41  1   
 40  22  42  1   
 41  22  43  1   
 42  22  44  1   
 43  23  24  1   
 44  23  45  1   
 45  23  46  1   
 46  24  47  1   
 47  24  48  1   
 48  25  27  ar  
 49  25  49  1   
 50  26  27  ar  
 51  26  50  1   
 52  27  28  1   
 53  28  29  1   
 54  29  51  1   
 55  29  52  1   
 56  29  53  1   
@<TRIPOS>SUBSTRUCTURE
  1 ****   2 GROUP 4 **** **** 0

# MOE 2024.06 (io_trps.svl 2023.06)
