@<TRIPOS>MOLECULE
NONAME
43 46 1 0 0 
SMALL
USER_CHARGES


@<TRIPOS>ATOM
  1 S        0.3600    -0.1940     2.1620 S.3   1 <1>  -0.0800 
  2 C        1.4400    -0.9940     0.9920 C.2   1 <1>  -0.0450 
  3 C        1.0840     1.3840     1.8820 C.2   1 <1>  -0.1100 
  4 C        2.2610    -0.0490     0.4630 C.2   1 <1>   0.0620 
  5 C        1.3430    -2.4120     0.7880 C.2   1 <1>   0.7150 
  6 C        2.0640     1.2780     0.9700 C.2   1 <1>   0.0620 
  7 O        3.2000    -0.2880    -0.4780 O.3   1 <1>  -0.3420 
  8 O        2.3530    -3.0880     0.6910 O.2   1 <1>  -0.5700 
  9 N        0.1260    -3.0560     0.6890 N.am  1 <1>  -0.6600 
 10 O        2.8320     2.3140     0.5390 O.3   1 <1>  -0.3420 
 11 C        3.8050     0.8260    -1.1090 C.3   1 <1>   0.1200 
 12 C       -1.1360    -2.4010     0.2620 C.3   1 <1>   0.1400 
 13 C        0.0270    -4.5290     0.5230 C.3   1 <1>   0.1400 
 14 C        4.0460     1.9550    -0.0940 C.3   1 <1>   0.1200 
 15 C       -1.9240    -3.5000    -0.4480 C.3   1 <1>   0.2000 
 16 C       -1.4380    -4.8030     0.1800 C.3   1 <1>  -0.0800 
 17 O       -3.2890    -3.3540    -0.2620 O.3   1 <1>  -0.6800 
 18 C       -1.6390    -6.0260    -0.7270 C.3   1 <1>   0.0210 
 19 C       -1.0620    -7.2740    -0.0900 C.2   1 <1>   0.1080 
 20 N       -1.5060    -7.7630     1.0260 N.2   1 <1>  -0.7070 
 21 C       -0.0070    -8.0190    -0.6080 C.2   1 <1>  -0.1500 
 22 N       -0.7390    -8.8470     1.2510 N.pl3 1 <1>   0.3000 
 23 C        0.1770    -9.0210     0.2760 C.2   1 <1>  -0.3320 
 24 C        1.1880   -10.1520     0.2490 C.3   1 <1>  -0.0600 
 25 H        0.7050     2.2260     2.4310 H     1 <1>   0.1500 
 26 H        4.7320     0.4950    -1.5390 H     1 <1>   0.0800 
 27 H        3.1510     1.1620    -1.8930 H     1 <1>   0.0800 
 28 H       -1.6670    -2.0590     1.1330 H     1 <1>   0.0800 
 29 H       -0.9380    -1.5790    -0.4040 H     1 <1>   0.0800 
 30 H        0.6750    -4.8390    -0.2800 H     1 <1>   0.0800 
 31 H        0.3180    -5.0360     1.4280 H     1 <1>   0.0800 
 32 H        4.4350     2.8300    -0.5820 H     1 <1>   0.0800 
 33 H        4.7390     1.6350     0.6640 H     1 <1>   0.0800 
 34 H       -1.7180    -3.4690    -1.5040 H     1 <1>   0.0800 
 35 H       -1.9530    -4.9690     1.1110 H     1 <1>   0.0800 
 36 H       -3.5230    -3.5300     0.6710 H     1 <1>   0.4000 
 37 H       -1.1700    -5.8610    -1.6800 H     1 <1>   0.0800 
 38 H       -2.6900    -6.1800    -0.8940 H     1 <1>   0.0800 
 39 H        0.5290    -7.8150    -1.5170 H     1 <1>   0.1500 
 40 H       -0.8670    -9.4440     2.0770 H     1 <1>   0.2700 
 41 H        1.8070   -10.0740    -0.6280 H     1 <1>   0.0800 
 42 H        0.6840   -11.1020     0.2280 H     1 <1>   0.0800 
 43 H        1.8200   -10.1080     1.1180 H     1 <1>   0.0800 
@<TRIPOS>BOND
  1   1   2  1   
  2   1   3  1   
  3   2   4  2   
  4   2   5  1   
  5   3   6  2   
  6   3  25  1   
  7   4   6  1   
  8   4   7  1   
  9   5   8  2   
 10   5   9  am  
 11   6  10  1   
 12   7  11  1   
 13   9  12  1   
 14   9  13  1   
 15  10  14  1   
 16  11  14  1   
 17  11  26  1   
 18  11  27  1   
 19  12  15  1   
 20  12  28  1   
 21  12  29  1   
 22  13  16  1   
 23  13  30  1   
 24  13  31  1   
 25  14  32  1   
 26  14  33  1   
 27  15  16  1   
 28  15  17  1   
 29  15  34  1   
 30  16  18  1   
 31  16  35  1   
 32  17  36  1   
 33  18  19  1   
 34  18  37  1   
 35  18  38  1   
 36  19  20  2   
 37  19  21  1   
 38  20  22  1   
 39  21  23  2   
 40  21  39  1   
 41  22  23  1   
 42  22  40  1   
 43  23  24  1   
 44  24  41  1   
 45  24  42  1   
 46  24  43  1   
@<TRIPOS>SUBSTRUCTURE
  1 ****   9 GROUP 4 **** **** 0

# MOE 2024.06 (io_trps.svl 2023.06)
