@<TRIPOS>MOLECULE
NONAME
42 44 1 0 0 
SMALL
USER_CHARGES


@<TRIPOS>ATOM
  1 O       -1.6010     0.3500    -1.7020 O.2   1 <1>  -0.5700 
  2 C       -1.6910     0.5980    -0.5140 C.2   1 <1>   0.7160 
  3 N       -1.8310    -0.4430     0.3500 N.am  1 <1>  -0.7300 
  4 C       -1.6730     1.9450     0.0050 C.2   1 <1>  -0.0860 
  5 C       -1.8380    -1.8800    -0.0070 C.3   1 <1>   0.2200 
  6 C       -1.5950     3.1480    -0.7120 C.2   1 <1>   0.1080 
  7 C       -1.7300     2.3710     1.3010 C.2   1 <1>  -0.3020 
  8 C       -3.2490    -2.4530     0.0330 C.3   1 <1>  -0.0800 
  9 C       -1.1890    -2.6640     1.1240 C.3   1 <1>   0.1200 
 10 N       -1.6040     4.1910     0.0540 N.2   1 <1>  -0.7070 
 11 C       -1.5070     3.2810    -2.2170 C.3   1 <1>  -0.0590 
 12 N       -1.6860     3.7090     1.2990 N.pl3 1 <1>   0.3140 
 13 C       -3.4420    -2.7940     1.5150 C.3   1 <1>   0.1200 
 14 C       -4.3570    -1.5640    -0.5630 C.3   1 <1>  -0.0170 
 15 O       -2.1740    -2.7580     2.1070 O.3   1 <1>  -0.5600 
 16 C       -1.7170     4.6070     2.4580 C.3   1 <1>   0.0160 
 17 C       -5.6970    -2.2840    -0.5430 C.ar  1 <1>  -0.1430 
 18 C       -6.0330    -3.2170    -1.5030 C.ar  1 <1>  -0.1500 
 19 C       -6.6440    -2.0450     0.4320 C.ar  1 <1>  -0.1500 
 20 C       -7.2610    -3.8530    -1.4400 C.ar  1 <1>   0.1600 
 21 C       -7.8440    -2.7360     0.4050 C.ar  1 <1>   0.1600 
 22 N       -8.1740    -3.6370    -0.5070 N.ar  1 <1>  -0.6200 
 23 H       -1.9460    -0.2520     1.3450 H     1 <1>   0.3700 
 24 H       -1.3480    -2.0420    -0.9530 H     1 <1>   0.0800 
 25 H       -1.7970     1.7930     2.2030 H     1 <1>   0.1500 
 26 H       -3.2390    -3.3820    -0.5100 H     1 <1>   0.0800 
 27 H       -0.3170    -2.1790     1.5250 H     1 <1>   0.0800 
 28 H       -0.9420    -3.6620     0.8060 H     1 <1>   0.0800 
 29 H       -2.3700     2.8330    -2.6740 H     1 <1>   0.0800 
 30 H       -0.6220     2.7890    -2.5760 H     1 <1>   0.0800 
 31 H       -1.4650     4.3190    -2.4940 H     1 <1>   0.0800 
 32 H       -3.8620    -3.7760     1.6460 H     1 <1>   0.0800 
 33 H       -4.0550    -2.0660     2.0170 H     1 <1>   0.0800 
 34 H       -4.1040    -1.3100    -1.5780 H     1 <1>   0.0800 
 35 H       -4.4400    -0.6440    -0.0130 H     1 <1>   0.0800 
 36 H       -1.7700     4.0310     3.3630 H     1 <1>   0.0800 
 37 H       -2.5760     5.2460     2.3790 H     1 <1>   0.0800 
 38 H       -0.8250     5.2050     2.4570 H     1 <1>   0.0800 
 39 H       -5.3510    -3.4550    -2.2990 H     1 <1>   0.1500 
 40 H       -6.4630    -1.3290     1.2120 H     1 <1>   0.1500 
 41 H       -7.5060    -4.5780    -2.1970 H     1 <1>   0.1500 
 42 H       -8.5710    -2.5380     1.1740 H     1 <1>   0.1500 
@<TRIPOS>BOND
  1   1   2  2   
  2   2   3  am  
  3   2   4  1   
  4   3   5  1   
  5   3  23  1   
  6   4   6  1   
  7   4   7  2   
  8   5   8  1   
  9   5   9  1   
 10   5  24  1   
 11   6  10  2   
 12   6  11  1   
 13   7  12  1   
 14   7  25  1   
 15   8  13  1   
 16   8  14  1   
 17   8  26  1   
 18   9  15  1   
 19   9  27  1   
 20   9  28  1   
 21  10  12  1   
 22  11  29  1   
 23  11  30  1   
 24  11  31  1   
 25  12  16  1   
 26  13  15  1   
 27  13  32  1   
 28  13  33  1   
 29  14  17  1   
 30  14  34  1   
 31  14  35  1   
 32  16  36  1   
 33  16  37  1   
 34  16  38  1   
 35  17  18  ar  
 36  17  19  ar  
 37  18  20  ar  
 38  18  39  1   
 39  19  21  ar  
 40  19  40  1   
 41  20  22  ar  
 42  20  41  1   
 43  21  22  ar  
 44  21  42  1   
@<TRIPOS>SUBSTRUCTURE
  1 ****   3 GROUP 4 **** **** 0

# MOE 2024.06 (io_trps.svl 2023.06)
