@<TRIPOS>MOLECULE
NONAME
63 67 1 0 0 
SMALL
USER_CHARGES


@<TRIPOS>ATOM
  1 O        1.7150    -0.2790     0.4350 O.3   1 <1>  -0.5600 
  2 C        2.3170    -1.1230    -0.5340 C.3   1 <1>   0.4600 
  3 C        0.3300    -0.4300     0.6770 C.3   1 <1>   0.1200 
  4 C        1.6980    -2.5110    -0.4780 C.2   1 <1>  -0.3320 
  5 C        3.8060    -1.1810    -0.1730 C.3   1 <1>  -0.1600 
  6 C        2.1550    -0.4630    -1.9080 C.3   1 <1>  -0.1600 
  7 C        0.0060    -1.8280     1.2250 C.3   1 <1>   0.0210 
  8 N        2.0740    -3.6170    -1.1950 N.pl3 1 <1>   0.0330 
  9 C        0.6630    -2.8380     0.3210 C.2   1 <1>  -0.1810 
 10 C        4.5720     0.1010    -0.5170 C.3   1 <1>   0.3430 
 11 C        2.7800     0.9390    -1.9720 C.3   1 <1>   0.3430 
 12 C        1.2600    -4.6590    -0.8280 C.ar  1 <1>  -0.1520 
 13 C        0.3600    -4.2010     0.1300 C.ar  1 <1>   0.0000 
 14 N        3.6080     1.2170    -0.7540 N.4   1 <1>  -0.9590 
 15 C        1.2320    -5.9880    -1.2580 C.ar  1 <1>  -0.1500 
 16 C       -0.5830    -5.0810     0.6720 C.ar  1 <1>  -0.1500 
 17 C        4.2050     2.6060    -0.7310 C.3   1 <1>   0.3430 
 18 C        0.2990    -6.8430    -0.7180 C.ar  1 <1>  -0.1500 
 19 C       -0.6080    -6.3890     0.2470 C.ar  1 <1>  -0.1500 
 20 C        4.2100     3.3310     0.6680 C.3   1 <1>   0.5030 
 21 N        4.7500     4.7300     0.6010 N.4   1 <1>  -0.9590 
 22 C        2.7800     3.4120     1.2230 C.3   1 <1>  -0.2400 
 23 C        5.0600     2.5640     1.6910 C.3   1 <1>  -0.2400 
 24 C        3.9400     5.7530    -0.1660 C.3   1 <1>   0.3430 
 25 C        6.2170     4.8910     0.2640 C.3   1 <1>   0.3430 
 26 C        4.5100     7.1790     0.0210 C.3   1 <1>   0.1200 
 27 C        6.6750     6.3590     0.4240 C.3   1 <1>   0.1200 
 28 O        5.6200     7.1610     0.8750 O.3   1 <1>  -0.5600 
 29 H       -0.2000    -0.2680    -0.2460 H     1 <1>   0.0800 
 30 H        0.0280     0.3200     1.3870 H     1 <1>   0.0800 
 31 H        4.2760    -1.9930    -0.6960 H     1 <1>   0.0800 
 32 H        3.9000    -1.4000     0.8770 H     1 <1>   0.0800 
 33 H        1.1140    -0.4160    -2.1740 H     1 <1>   0.0800 
 34 H        2.6270    -1.0820    -2.6490 H     1 <1>   0.0800 
 35 H       -1.0580    -1.9780     1.2340 H     1 <1>   0.0800 
 36 H        0.3780    -1.9350     2.2280 H     1 <1>   0.0800 
 37 H        2.8250    -3.7000    -1.8860 H     1 <1>   0.2700 
 38 H        5.1610    -0.0600    -1.4050 H     1 <1>   0.0800 
 39 H        5.2430     0.3360     0.2930 H     1 <1>   0.0800 
 40 H        1.9850     1.6650    -2.0360 H     1 <1>   0.0800 
 41 H        3.3820     1.0220    -2.8630 H     1 <1>   0.0800 
 42 H        2.9160     1.1110     0.0190 H     1 <1>   0.4500 
 43 H        1.9320    -6.3310    -1.9990 H     1 <1>   0.1500 
 44 H       -1.2730    -4.7210     1.4120 H     1 <1>   0.1500 
 45 H        3.6370     3.2250    -1.4040 H     1 <1>   0.0800 
 46 H        5.2140     2.5580    -1.1040 H     1 <1>   0.0800 
 47 H        0.2570    -7.8710    -1.0330 H     1 <1>   0.1500 
 48 H       -1.3270    -7.0780     0.6540 H     1 <1>   0.1500 
 49 H        4.7060     5.0980     1.5670 H     1 <1>   0.4500 
 50 H        2.0980     3.8350     0.5080 H     1 <1>   0.0800 
 51 H        2.7510     3.9980     2.1260 H     1 <1>   0.0800 
 52 H        2.4100     2.4330     1.4710 H     1 <1>   0.0800 
 53 H        6.0440     2.3490     1.3130 H     1 <1>   0.0800 
 54 H        4.5990     1.6240     1.9390 H     1 <1>   0.0800 
 55 H        5.1500     3.1190     2.6090 H     1 <1>   0.0800 
 56 H        2.9180     5.7570     0.1770 H     1 <1>   0.0800 
 57 H        3.9310     5.5180    -1.2170 H     1 <1>   0.0800 
 58 H        6.4090     4.5750    -0.7480 H     1 <1>   0.0800 
 59 H        6.8210     4.2820     0.9160 H     1 <1>   0.0800 
 60 H        3.7680     7.8230     0.4620 H     1 <1>   0.0800 
 61 H        4.8050     7.6050    -0.9230 H     1 <1>   0.0800 
 62 H        7.0380     6.7560    -0.5100 H     1 <1>   0.0800 
 63 H        7.4700     6.4250     1.1470 H     1 <1>   0.0800 
@<TRIPOS>BOND
  1   1   2  1   
  2   1   3  1   
  3   2   4  1   
  4   2   5  1   
  5   2   6  1   
  6   3   7  1   
  7   3  29  1   
  8   3  30  1   
  9   4   8  1   
 10   4   9  2   
 11   5  10  1   
 12   5  31  1   
 13   5  32  1   
 14   6  11  1   
 15   6  33  1   
 16   6  34  1   
 17   7   9  1   
 18   7  35  1   
 19   7  36  1   
 20   8  12  1   
 21   8  37  1   
 22   9  13  1   
 23  10  14  1   
 24  10  38  1   
 25  10  39  1   
 26  11  14  1   
 27  11  40  1   
 28  11  41  1   
 29  12  13  ar  
 30  12  15  ar  
 31  13  16  ar  
 32  14  17  1   
 33  14  42  1   
 34  15  18  ar  
 35  15  43  1   
 36  16  19  ar  
 37  16  44  1   
 38  17  20  1   
 39  17  45  1   
 40  17  46  1   
 41  18  19  ar  
 42  18  47  1   
 43  19  48  1   
 44  20  21  1   
 45  20  22  1   
 46  20  23  1   
 47  21  24  1   
 48  21  25  1   
 49  21  49  1   
 50  22  50  1   
 51  22  51  1   
 52  22  52  1   
 53  23  53  1   
 54  23  54  1   
 55  23  55  1   
 56  24  26  1   
 57  24  56  1   
 58  24  57  1   
 59  25  27  1   
 60  25  58  1   
 61  25  59  1   
 62  26  28  1   
 63  26  60  1   
 64  26  61  1   
 65  27  28  1   
 66  27  62  1   
 67  27  63  1   
@<TRIPOS>SUBSTRUCTURE
  1 ****   1 GROUP 4 **** **** 0

# MOE 2024.06 (io_trps.svl 2023.06)
