@<TRIPOS>MOLECULE
NONAME
54 56 1 0 0 
SMALL
USER_CHARGES


@<TRIPOS>ATOM
  1 O       -1.0060     4.4180    -0.7050 O.3   1 <1>  -0.3630 
  2 C       -0.1440     3.7500     0.0590 C.ar  1 <1>   0.3920 
  3 C       -2.3940     4.1420    -0.7320 C.3   1 <1>   0.0400 
  4 N       -0.5950     2.7810     0.8510 N.ar  1 <1>  -0.6200 
  5 C        1.1840     4.1110    -0.0150 C.ar  1 <1>  -0.1500 
  6 C        0.3080     2.1690     1.5720 C.ar  1 <1>   0.7710 
  7 C        2.1150     3.4540     0.7640 C.ar  1 <1>   0.4610 
  8 N        1.6190     2.4760     1.5430 N.ar  1 <1>  -0.1790 
  9 N       -0.1280     1.1920     2.3670 N.pl3 1 <1>  -0.9000 
 10 N        3.4620     3.7270     0.7890 N.pl3 1 <1>  -0.8380 
 11 C        4.1070     4.6230    -0.2300 C.3   1 <1>   0.2090 
 12 C        4.4620     2.9980     1.6430 C.3   1 <1>   0.1290 
 13 C        4.0460     6.1090     0.1870 C.3   1 <1>  -0.0800 
 14 C        4.6070     6.9990    -0.9380 C.3   1 <1>  -0.1600 
 15 C        4.8060     6.4020     1.4950 C.3   1 <1>  -0.1600 
 16 C        4.6100     8.4810    -0.5580 C.3   1 <1>   0.3430 
 17 C        4.8060     7.8940     1.8410 C.3   1 <1>   0.3430 
 18 N        5.3730     8.6750     0.7090 N.4   1 <1>  -0.9590 
 19 C        5.4940    10.1200     1.0540 C.3   1 <1>   0.4860 
 20 C        6.2960    10.8080    -0.0320 C.ar  1 <1>  -0.1430 
 21 C        7.6700    10.6250    -0.1120 C.ar  1 <1>  -0.1500 
 22 C        5.6610    11.6230    -0.9600 C.ar  1 <1>  -0.1500 
 23 C        8.3960    11.2370    -1.1180 C.ar  1 <1>  -0.1500 
 24 C        6.3890    12.2340    -1.9650 C.ar  1 <1>  -0.1500 
 25 C        7.7560    12.0390    -2.0450 C.ar  1 <1>  -0.1500 
 26 H       -2.8600     4.8170    -1.4280 H     1 <1>   0.0800 
 27 H       -2.8000     4.2920     0.2530 H     1 <1>   0.0800 
 28 H       -2.5430     3.1250    -1.0490 H     1 <1>   0.0800 
 29 H        1.4570     4.9010    -0.6840 H     1 <1>   0.1500 
 30 H        2.2470     1.9360     2.1130 H     1 <1>   0.4570 
 31 H        0.4020     0.5910     3.0010 H     1 <1>   0.4000 
 32 H       -1.1340     0.9920     2.3570 H     1 <1>   0.4000 
 33 H        3.6150     4.4940    -1.1810 H     1 <1>   0.0800 
 34 H        5.1340     4.3300    -0.3770 H     1 <1>   0.0800 
 35 H        4.0590     2.7870     2.6180 H     1 <1>   0.0800 
 36 H        5.3470     3.5960     1.7810 H     1 <1>   0.0800 
 37 H        4.7520     2.0770     1.1650 H     1 <1>   0.0800 
 38 H        3.0120     6.3750     0.3290 H     1 <1>   0.0800 
 39 H        4.0090     6.8790    -1.8260 H     1 <1>   0.0800 
 40 H        5.6110     6.7010    -1.1860 H     1 <1>   0.0800 
 41 H        5.8230     6.0570     1.4220 H     1 <1>   0.0800 
 42 H        4.3410     5.8720     2.3080 H     1 <1>   0.0800 
 43 H        3.5960     8.8250    -0.4310 H     1 <1>   0.0800 
 44 H        5.0620     9.0520    -1.3550 H     1 <1>   0.0800 
 45 H        5.3910     8.0550     2.7330 H     1 <1>   0.0800 
 46 H        3.7960     8.2170     2.0370 H     1 <1>   0.0800 
 47 H        6.3320     8.3520     0.5280 H     1 <1>   0.4500 
 48 H        6.0040    10.2380     1.9960 H     1 <1>   0.0800 
 49 H        4.5180    10.5710     1.1340 H     1 <1>   0.0800 
 50 H        8.1940    10.0140     0.6030 H     1 <1>   0.1500 
 51 H        4.5980    11.7950    -0.9140 H     1 <1>   0.1500 
 52 H        9.4630    11.0960    -1.1810 H     1 <1>   0.1500 
 53 H        5.8980    12.8660    -2.6850 H     1 <1>   0.1500 
 54 H        8.3230    12.5160    -2.8270 H     1 <1>   0.1500 
@<TRIPOS>BOND
  1   1   2  1   
  2   1   3  1   
  3   2   4  ar  
  4   2   5  ar  
  5   3  26  1   
  6   3  27  1   
  7   3  28  1   
  8   4   6  ar  
  9   5   7  ar  
 10   5  29  1   
 11   6   8  ar  
 12   6   9  1   
 13   7   8  ar  
 14   7  10  1   
 15   8  30  1   
 16   9  31  1   
 17   9  32  1   
 18  10  11  1   
 19  10  12  1   
 20  11  13  1   
 21  11  33  1   
 22  11  34  1   
 23  12  35  1   
 24  12  36  1   
 25  12  37  1   
 26  13  14  1   
 27  13  15  1   
 28  13  38  1   
 29  14  16  1   
 30  14  39  1   
 31  14  40  1   
 32  15  17  1   
 33  15  41  1   
 34  15  42  1   
 35  16  18  1   
 36  16  43  1   
 37  16  44  1   
 38  17  18  1   
 39  17  45  1   
 40  17  46  1   
 41  18  19  1   
 42  18  47  1   
 43  19  20  1   
 44  19  48  1   
 45  19  49  1   
 46  20  21  ar  
 47  20  22  ar  
 48  21  23  ar  
 49  21  50  1   
 50  22  24  ar  
 51  22  51  1   
 52  23  25  ar  
 53  23  52  1   
 54  24  25  ar  
 55  24  53  1   
 56  25  54  1   
@<TRIPOS>SUBSTRUCTURE
  1 ****  13 GROUP 4 **** **** 0

# MOE 2024.06 (io_trps.svl 2023.06)
