@<TRIPOS>MOLECULE
NONAME
42 43 1 0 0 
SMALL
USER_CHARGES


@<TRIPOS>ATOM
  1 O       -1.0950     1.0220     0.0180 O.2   1 <1>  -0.5700 
  2 C       -0.1430     0.3210    -0.2290 C.2   1 <1>   0.5690 
  3 N        1.1060     0.6410     0.1870 N.am  1 <1>  -0.7300 
  4 C       -0.3450    -0.9660    -1.0370 C.3   1 <1>   0.1710 
  5 C        1.4690     1.8460     0.9450 C.3   1 <1>   0.2840 
  6 N        0.5980    -2.0710    -0.6950 N.3   1 <1>  -0.8100 
  7 C        2.9300     2.1660     0.6800 C.ar  1 <1>  -0.1430 
  8 C        0.4410    -3.2280    -1.5880 C.3   1 <1>   0.1100 
  9 C        0.4060    -2.5820     0.6750 C.3   1 <1>   0.1100 
 10 C        3.9160     1.7400     1.5580 C.ar  1 <1>  -0.1500 
 11 C        3.2930     2.8880    -0.4460 C.ar  1 <1>  -0.1500 
 12 C        1.0600    -4.3840    -0.8130 C.3   1 <1>   0.2000 
 13 C        0.6120    -4.0990     0.6110 C.3   1 <1>  -0.1600 
 14 C        5.2440     2.0420     1.3160 C.ar  1 <1>  -0.1500 
 15 C        4.6220     3.1880    -0.6860 C.ar  1 <1>  -0.1500 
 16 O        2.4300    -4.2290    -0.8570 O.3   1 <1>  -0.6800 
 17 C        5.6130     2.7770     0.1970 C.ar  1 <1>   0.1170 
 18 N        6.9620     3.0700    -0.0260 N.am  1 <1>  -0.5470 
 19 C        7.5840     4.2540    -0.2610 C.2   1 <1>   0.5690 
 20 O        8.7710     4.2820    -0.4530 O.2   1 <1>  -0.5700 
 21 C        6.8120     5.5530    -0.2660 C.3   1 <1>  -0.1790 
 22 H        1.8630    -0.0130    -0.0260 H     1 <1>   0.3700 
 23 H       -0.2220    -0.7140    -2.0750 H     1 <1>   0.0800 
 24 H       -1.3590    -1.2980    -0.8970 H     1 <1>   0.0800 
 25 H        1.3070     1.6680     1.9940 H     1 <1>   0.0800 
 26 H        0.8430     2.6690     0.6410 H     1 <1>   0.0800 
 27 H        0.9310    -3.0710    -2.5340 H     1 <1>   0.0800 
 28 H       -0.6040    -3.4320    -1.7520 H     1 <1>   0.0800 
 29 H       -0.5850    -2.3630     1.0370 H     1 <1>   0.0800 
 30 H        1.1270    -2.1260     1.3330 H     1 <1>   0.0800 
 31 H        3.6520     1.1720     2.4330 H     1 <1>   0.1500 
 32 H        2.5380     3.2140    -1.1410 H     1 <1>   0.1500 
 33 H        0.7990    -5.3620    -1.1790 H     1 <1>   0.0800 
 34 H       -0.3310    -4.5830     0.7910 H     1 <1>   0.0800 
 35 H        1.3200    -4.4490     1.3410 H     1 <1>   0.0800 
 36 H        6.0010     1.7100     2.0040 H     1 <1>   0.1500 
 37 H        4.8920     3.7380    -1.5690 H     1 <1>   0.1500 
 38 H        2.6010    -3.2770    -0.6970 H     1 <1>   0.4000 
 39 H        7.6160     2.2900     0.0430 H     1 <1>   0.3700 
 40 H        6.0580     5.5430     0.4990 H     1 <1>   0.0800 
 41 H        6.3520     5.6950    -1.2250 H     1 <1>   0.0800 
 42 H        7.4830     6.3700    -0.0790 H     1 <1>   0.0800 
@<TRIPOS>BOND
  1   1   2  2   
  2   2   3  am  
  3   2   4  1   
  4   3   5  1   
  5   3  22  1   
  6   4   6  1   
  7   4  23  1   
  8   4  24  1   
  9   5   7  1   
 10   5  25  1   
 11   5  26  1   
 12   6   8  1   
 13   6   9  1   
 14   7  10  ar  
 15   7  11  ar  
 16   8  12  1   
 17   8  27  1   
 18   8  28  1   
 19   9  13  1   
 20   9  29  1   
 21   9  30  1   
 22  10  14  ar  
 23  10  31  1   
 24  11  15  ar  
 25  11  32  1   
 26  12  13  1   
 27  12  16  1   
 28  12  33  1   
 29  13  34  1   
 30  13  35  1   
 31  14  17  ar  
 32  14  36  1   
 33  15  17  ar  
 34  15  37  1   
 35  16  38  1   
 36  17  18  1   
 37  18  19  am  
 38  18  39  1   
 39  19  20  2   
 40  19  21  1   
 41  21  40  1   
 42  21  41  1   
 43  21  42  1   
@<TRIPOS>SUBSTRUCTURE
  1 ****   7 GROUP 4 **** **** 0

# MOE 2024.06 (io_trps.svl 2023.06)
