@<TRIPOS>MOLECULE
NONAME
53 55 1 0 0 
SMALL
USER_CHARGES


@<TRIPOS>ATOM
  1 O        0.9200    -0.3470    -1.2160 O.2   1 <1>  -0.5700 
  2 C        1.7970    -0.5460    -0.4120 C.2   1 <1>   0.5690 
  3 N        2.7120     0.4310    -0.1100 N.am  1 <1>  -0.6600 
  4 C        1.8700    -1.9160     0.2410 C.3   1 <1>  -0.0990 
  5 C        3.9920     0.2370     0.6460 C.3   1 <1>   0.1400 
  6 C        2.4410     1.8430    -0.5040 C.3   1 <1>   0.1400 
  7 C        0.5970    -2.7430     0.0000 C.3   1 <1>   0.0960 
  8 C        5.2400     0.2950    -0.2640 C.3   1 <1>   0.3430 
  9 C        2.9740     2.1310    -1.9110 C.3   1 <1>  -0.1600 
 10 N        0.7030    -4.0490     0.6760 N.pl3 1 <1>   0.0480 
 11 N        5.2560     1.4690    -1.1980 N.4   1 <1>  -0.9590 
 12 C        4.2510     1.3800    -2.2890 C.3   1 <1>   0.3430 
 13 C        1.1130    -5.2160     0.1780 C.2   1 <1>   0.0360 
 14 C        0.4410    -4.3510     1.9490 C.2   1 <1>   0.0360 
 15 C        6.6300     1.7670    -1.6780 C.3   1 <1>   0.5240 
 16 N        1.1100    -6.1450     1.0700 N.2   1 <1>  -0.3380 
 17 N        0.6790    -5.5900     2.2060 N.2   1 <1>  -0.3380 
 18 C        7.3700     2.4010    -0.5060 C.2   1 <1>   0.0460 
 19 N        6.6910     3.1910     0.3570 N.2   1 <1>  -0.5650 
 20 C        8.6690     2.2960    -0.1450 C.2   1 <1>  -0.3320 
 21 C        7.5880     3.5630     1.2110 C.2   1 <1>   0.0060 
 22 N        8.8120     3.0510     0.9610 N.pl3 1 <1>   0.0330 
 23 C        9.8330     1.5390    -0.7670 C.3   1 <1>  -0.0600 
 24 C        7.3150     4.4870     2.3850 C.3   1 <1>   0.0200 
 25 C        7.9710     5.8560     2.1800 C.3   1 <1>  -0.2400 
 26 H        1.9980    -1.7840     1.2990 H     1 <1>   0.0800 
 27 H        2.7180    -2.4410    -0.1590 H     1 <1>   0.0800 
 28 H        3.9900    -0.7070     1.1600 H     1 <1>   0.0800 
 29 H        4.0760     1.0000     1.4010 H     1 <1>   0.0800 
 30 H        2.9000     2.5100     0.2070 H     1 <1>   0.0800 
 31 H        1.3790     2.0330    -0.4770 H     1 <1>   0.0800 
 32 H        0.4510    -2.9070    -1.0540 H     1 <1>   0.0800 
 33 H       -0.2630    -2.2220     0.3820 H     1 <1>   0.0800 
 34 H        5.2980    -0.6170    -0.8330 H     1 <1>   0.0800 
 35 H        6.1090     0.3360     0.3740 H     1 <1>   0.0800 
 36 H        3.1280     3.1890    -2.0190 H     1 <1>   0.0800 
 37 H        2.2110     1.8580    -2.6180 H     1 <1>   0.0800 
 38 H        5.0720     2.3080    -0.6170 H     1 <1>   0.4500 
 39 H        4.6450     1.8030    -3.1990 H     1 <1>   0.0800 
 40 H        4.0110     0.3460    -2.4750 H     1 <1>   0.0800 
 41 H        1.4090    -5.3540    -0.8460 H     1 <1>   0.1500 
 42 H        0.0780    -3.6370     2.6650 H     1 <1>   0.1500 
 43 H        6.5910     2.4830    -2.4820 H     1 <1>   0.0800 
 44 H        7.1330     0.8770    -2.0160 H     1 <1>   0.0800 
 45 H        9.6660     3.2220     1.5010 H     1 <1>   0.2700 
 46 H        9.5200     1.0000    -1.6420 H     1 <1>   0.0800 
 47 H       10.2400     0.8370    -0.0600 H     1 <1>   0.0800 
 48 H       10.6100     2.2270    -1.0530 H     1 <1>   0.0800 
 49 H        7.6810     4.0380     3.2920 H     1 <1>   0.0800 
 50 H        6.2520     4.6190     2.4890 H     1 <1>   0.0800 
 51 H        9.0400     5.7600     2.1120 H     1 <1>   0.0800 
 52 H        7.7350     6.5050     3.0040 H     1 <1>   0.0800 
 53 H        7.6060     6.3060     1.2730 H     1 <1>   0.0800 
@<TRIPOS>BOND
  1   1   2  2   
  2   2   3  am  
  3   2   4  1   
  4   3   5  1   
  5   3   6  1   
  6   4   7  1   
  7   4  26  1   
  8   4  27  1   
  9   5   8  1   
 10   5  28  1   
 11   5  29  1   
 12   6   9  1   
 13   6  30  1   
 14   6  31  1   
 15   7  10  1   
 16   7  32  1   
 17   7  33  1   
 18   8  11  1   
 19   8  34  1   
 20   8  35  1   
 21   9  12  1   
 22   9  36  1   
 23   9  37  1   
 24  10  13  1   
 25  10  14  1   
 26  11  12  1   
 27  11  15  1   
 28  11  38  1   
 29  12  39  1   
 30  12  40  1   
 31  13  16  2   
 32  13  41  1   
 33  14  17  2   
 34  14  42  1   
 35  15  18  1   
 36  15  43  1   
 37  15  44  1   
 38  16  17  1   
 39  18  19  1   
 40  18  20  2   
 41  19  21  2   
 42  20  22  1   
 43  20  23  1   
 44  21  22  1   
 45  21  24  1   
 46  22  45  1   
 47  23  46  1   
 48  23  47  1   
 49  23  48  1   
 50  24  25  1   
 51  24  49  1   
 52  24  50  1   
 53  25  51  1   
 54  25  52  1   
 55  25  53  1   
@<TRIPOS>SUBSTRUCTURE
  1 ****   5 GROUP 4 **** **** 0

# MOE 2024.06 (io_trps.svl 2023.06)
