@<TRIPOS>MOLECULE
NONAME
40 42 1 0 0 
SMALL
USER_CHARGES


@<TRIPOS>ATOM
  1 CL      -1.0840    -0.4190    -1.4330 Cl    1 <1>  -0.1770 
  2 C       -2.0890     0.5010    -0.3400 C.ar  1 <1>   0.1770 
  3 C       -2.9870    -0.1600     0.4730 C.ar  1 <1>  -0.1440 
  4 C       -1.9860     1.8840    -0.3050 C.ar  1 <1>   0.1600 
  5 C       -3.7460     0.6540     1.2900 C.ar  1 <1>   0.1770 
  6 C       -3.1240    -1.6680     0.4830 C.3   1 <1>   0.4860 
  7 N       -2.7200     2.6620     0.4810 N.ar  1 <1>  -0.6200 
  8 CL      -4.9340    -0.0650     2.3510 Cl    1 <1>  -0.1770 
  9 C       -3.5850     2.0320     1.2660 C.ar  1 <1>   0.1600 
 10 N       -3.7810    -2.1360    -0.7720 N.4   1 <1>  -0.9590 
 11 C       -5.1590    -1.5780    -0.9790 C.3   1 <1>   0.3430 
 12 C       -3.9540    -3.6150    -0.7540 C.3   1 <1>   0.3430 
 13 C       -6.1510    -2.6540    -0.5140 C.3   1 <1>   0.2000 
 14 C       -5.3120    -3.8630    -0.0970 C.3   1 <1>  -0.0800 
 15 O       -6.9050    -2.2100     0.5610 O.3   1 <1>  -0.6800 
 16 C       -5.9520    -5.2040    -0.5030 C.3   1 <1>  -0.0170 
 17 C       -5.1000    -6.3910    -0.0780 C.ar  1 <1>   0.1670 
 18 N       -3.9180    -6.5060    -0.6680 N.ar  1 <1>  -0.6200 
 19 C       -5.5810    -7.2760     0.8760 C.ar  1 <1>  -0.1500 
 20 C       -3.1960    -7.5560    -0.3020 C.ar  1 <1>   0.1600 
 21 C       -4.8130    -8.3560     1.2530 C.ar  1 <1>  -0.1500 
 22 C       -3.5880    -8.4920     0.6380 C.ar  1 <1>  -0.1500 
 23 H       -1.2720     2.3680    -0.9520 H     1 <1>   0.1500 
 24 H       -3.7000    -1.9800     1.3380 H     1 <1>   0.0800 
 25 H       -2.1440    -2.1100     0.5650 H     1 <1>   0.0800 
 26 H       -4.1930     2.6370     1.9180 H     1 <1>   0.1500 
 27 H       -3.1680    -1.8710    -1.5590 H     1 <1>   0.4500 
 28 H       -5.3110    -0.6580    -0.4400 H     1 <1>   0.0800 
 29 H       -5.3160    -1.3970    -2.0300 H     1 <1>   0.0800 
 30 H       -3.9780    -3.9930    -1.7650 H     1 <1>   0.0800 
 31 H       -3.1600    -4.1160    -0.2220 H     1 <1>   0.0800 
 32 H       -6.8320    -2.8870    -1.3160 H     1 <1>   0.0800 
 33 H       -5.1640    -3.8650     0.9690 H     1 <1>   0.0800 
 34 H       -6.3920    -2.1140     1.3880 H     1 <1>   0.4000 
 35 H       -6.0840    -5.2470    -1.5700 H     1 <1>   0.0800 
 36 H       -6.9270    -5.2800    -0.0550 H     1 <1>   0.0800 
 37 H       -6.5480    -7.1320     1.3230 H     1 <1>   0.1500 
 38 H       -2.2370    -7.6810    -0.7780 H     1 <1>   0.1500 
 39 H       -5.1550    -9.0640     1.9890 H     1 <1>   0.1500 
 40 H       -2.9430    -9.3170     0.8820 H     1 <1>   0.1500 
@<TRIPOS>BOND
  1   1   2  1   
  2   2   3  ar  
  3   2   4  ar  
  4   3   5  ar  
  5   3   6  1   
  6   4   7  ar  
  7   4  23  1   
  8   5   8  1   
  9   5   9  ar  
 10   6  10  1   
 11   6  24  1   
 12   6  25  1   
 13   7   9  ar  
 14   9  26  1   
 15  10  11  1   
 16  10  12  1   
 17  10  27  1   
 18  11  13  1   
 19  11  28  1   
 20  11  29  1   
 21  12  14  1   
 22  12  30  1   
 23  12  31  1   
 24  13  14  1   
 25  13  15  1   
 26  13  32  1   
 27  14  16  1   
 28  14  33  1   
 29  15  34  1   
 30  16  17  1   
 31  16  35  1   
 32  16  36  1   
 33  17  18  ar  
 34  17  19  ar  
 35  18  20  ar  
 36  19  21  ar  
 37  19  37  1   
 38  20  22  ar  
 39  20  38  1   
 40  21  22  ar  
 41  21  39  1   
 42  22  40  1   
@<TRIPOS>SUBSTRUCTURE
  1 ****  10 GROUP 4 **** **** 0

# MOE 2024.06 (io_trps.svl 2023.06)
