@<TRIPOS>MOLECULE
NONAME
47 49 1 0 0 
SMALL
USER_CHARGES


@<TRIPOS>ATOM
  1 S       -0.1600    -0.0660    -1.5320 S.o2  1 <1>   1.4470 
  2 O       -1.0360    -1.1320    -1.9760 O.2   1 <1>  -0.6500 
  3 O        0.3810     0.8640    -2.5010 O.2   1 <1>  -0.6500 
  4 N       -0.9460     0.8290    -0.3200 N.am  1 <1>  -0.8490 
  5 C        1.2300    -0.7940    -0.6160 C.ar  1 <1>  -0.0090 
  6 C       -2.0990     0.1760     0.3260 C.3   1 <1>   0.1960 
  7 C       -1.2270     2.2310    -0.6220 C.3   1 <1>   0.1960 
  8 C        2.0810     0.0040     0.1400 C.ar  1 <1>  -0.1500 
  9 C        1.4840    -2.1600    -0.6520 C.ar  1 <1>  -0.1500 
 10 C       -3.4780     0.4640    -0.3550 C.3   1 <1>   0.0000 
 11 C       -2.3720     2.3940    -1.6350 C.3   1 <1>  -0.1600 
 12 C        3.1560    -0.5240     0.8500 C.ar  1 <1>  -0.1430 
 13 C        2.5470    -2.7080     0.0420 C.ar  1 <1>  -0.1500 
 14 C       -4.4410     1.2140     0.5920 C.3   1 <1>   0.2000 
 15 C       -3.3280     1.1920    -1.7100 C.3   1 <1>  -0.1600 
 16 C       -4.2350    -0.8600    -0.5500 C.3   1 <1>  -0.1600 
 17 C        3.3790    -1.8950     0.7880 C.ar  1 <1>  -0.1500 
 18 C        4.0820     0.3870     1.6740 C.3   1 <1>   1.1640 
 19 O       -3.8020     2.2310     1.3080 O.3   1 <1>  -0.5600 
 20 C       -5.0110     0.1510     1.5370 C.3   1 <1>  -0.1600 
 21 C       -4.8430    -1.1920     0.8150 C.3   1 <1>  -0.1600 
 22 F        4.5870    -0.2240     2.7400 F     1 <1>  -0.3400 
 23 F        3.4690     1.4740     2.1280 F     1 <1>  -0.3400 
 24 F        5.1180     0.8120     0.9640 F     1 <1>  -0.3400 
 25 C       -4.6550     3.1530     1.9070 C.3   1 <1>   0.0400 
 26 H       -1.9180    -0.8840     0.3690 H     1 <1>   0.0800 
 27 H       -2.1300     0.5060     1.3490 H     1 <1>   0.0800 
 28 H       -1.5070     2.7210     0.2960 H     1 <1>   0.0800 
 29 H       -0.3390     2.7220    -0.9840 H     1 <1>   0.0800 
 30 H        1.8860     1.0640     0.1650 H     1 <1>   0.1500 
 31 H        0.8410    -2.8020    -1.2320 H     1 <1>   0.1500 
 32 H       -2.9260     3.2750    -1.3640 H     1 <1>   0.0800 
 33 H       -1.9540     2.5710    -2.6110 H     1 <1>   0.0800 
 34 H        2.7260    -3.7690    -0.0010 H     1 <1>   0.1500 
 35 H       -5.2380     1.6460     0.0110 H     1 <1>   0.0800 
 36 H       -2.9380     0.4970    -2.4330 H     1 <1>   0.0800 
 37 H       -4.2850     1.5140    -2.0810 H     1 <1>   0.0800 
 38 H       -5.0350    -0.7170    -1.2570 H     1 <1>   0.0800 
 39 H       -3.6020    -1.6490    -0.9190 H     1 <1>   0.0800 
 40 H        4.2040    -2.3400     1.3200 H     1 <1>   0.1500 
 41 H       -4.4600     0.1360     2.4620 H     1 <1>   0.0800 
 42 H       -6.0490     0.3480     1.7380 H     1 <1>   0.0800 
 43 H       -4.1690    -1.8210     1.3730 H     1 <1>   0.0800 
 44 H       -5.7830    -1.7050     0.7050 H     1 <1>   0.0800 
 45 H       -4.0520     3.8870     2.4120 H     1 <1>   0.0800 
 46 H       -5.2840     2.6500     2.6220 H     1 <1>   0.0800 
 47 H       -5.2490     3.6330     1.1490 H     1 <1>   0.0800 
@<TRIPOS>BOND
  1   1   2  2   
  2   1   3  2   
  3   1   4  am  
  4   1   5  1   
  5   4   6  1   
  6   4   7  1   
  7   5   8  ar  
  8   5   9  ar  
  9   6  10  1   
 10   6  26  1   
 11   6  27  1   
 12   7  11  1   
 13   7  28  1   
 14   7  29  1   
 15   8  12  ar  
 16   8  30  1   
 17   9  13  ar  
 18   9  31  1   
 19  10  14  1   
 20  10  15  1   
 21  10  16  1   
 22  11  15  1   
 23  11  32  1   
 24  11  33  1   
 25  12  17  ar  
 26  12  18  1   
 27  13  17  ar  
 28  13  34  1   
 29  14  19  1   
 30  14  20  1   
 31  14  35  1   
 32  15  36  1   
 33  15  37  1   
 34  16  21  1   
 35  16  38  1   
 36  16  39  1   
 37  17  40  1   
 38  18  22  1   
 39  18  23  1   
 40  18  24  1   
 41  19  25  1   
 42  20  21  1   
 43  20  41  1   
 44  20  42  1   
 45  21  43  1   
 46  21  44  1   
 47  25  45  1   
 48  25  46  1   
 49  25  47  1   
@<TRIPOS>SUBSTRUCTURE
  1 ****   4 GROUP 4 **** **** 0

# MOE 2024.06 (io_trps.svl 2023.06)
