@<TRIPOS>MOLECULE
NONAME
47 49 1 0 0 
SMALL
USER_CHARGES


@<TRIPOS>ATOM
  1 O       -5.0790     1.2530    -0.1760 O.2   1 <1>  -0.5700 
  2 C       -3.9020     1.4180    -0.3770 C.2   1 <1>   0.5690 
  3 N       -3.1710     0.4650    -1.0080 N.am  1 <1>  -0.7300 
  4 C       -3.2280     2.7000     0.1050 C.3   1 <1>  -0.0190 
  5 C       -3.7670    -0.7190    -1.6760 C.3   1 <1>   0.3080 
  6 C       -2.5770     3.4820    -1.0530 C.3   1 <1>  -0.1600 
  7 C       -2.2170     2.4240     1.2440 C.3   1 <1>  -0.1600 
  8 C       -4.3490    -1.7330    -0.6870 C.2   1 <1>   0.1820 
  9 C       -2.0290     4.8500    -0.5930 C.3   1 <1>   0.2000 
 10 C       -1.1500     3.5240     1.4050 C.3   1 <1>  -0.1600 
 11 N       -4.7760    -2.9860    -1.0570 N.pl3 1 <1>  -0.7000 
 12 C       -4.5560    -1.6190     0.6420 C.2   1 <1>   0.2000 
 13 O       -0.8800     5.1260    -1.3550 O.3   1 <1>  -0.5600 
 14 C       -1.6620     4.8800     0.9140 C.3   1 <1>   0.2000 
 15 C       -5.2400    -3.6190     0.0360 C.cat 1 <1>   0.7910 
 16 N       -5.1090    -2.7960     1.1020 N.pl3 1 <1>  -0.6290 
 17 C       -1.1220     5.7180    -2.5940 C.3   1 <1>   0.0400 
 18 O       -0.6660     5.8110     1.1210 O.3   1 <1>  -0.6800 
 19 C       -5.7940    -4.9110     0.1810 C.2   1 <1>  -0.1290 
 20 C       -5.5220    -3.1940     2.3520 C.2   1 <1>   0.2290 
 21 C       -6.2020    -5.3140     1.4270 C.2   1 <1>  -0.1500 
 22 C       -5.9360    -5.8350    -1.0230 C.3   1 <1>  -0.1020 
 23 C       -6.0610    -4.4360     2.5210 C.2   1 <1>  -0.1500 
 24 H       -2.1830     0.6490    -1.2010 H     1 <1>   0.3700 
 25 H       -4.0090     3.3240     0.5060 H     1 <1>   0.0800 
 26 H       -4.5510    -0.3880    -2.3370 H     1 <1>   0.0800 
 27 H       -3.0090    -1.1990    -2.2700 H     1 <1>   0.0800 
 28 H       -3.3010     3.6400    -1.8320 H     1 <1>   0.0800 
 29 H       -1.7680     2.8970    -1.4550 H     1 <1>   0.0800 
 30 H       -2.7670     2.3300     2.1660 H     1 <1>   0.0800 
 31 H       -1.7080     1.4900     1.0820 H     1 <1>   0.0800 
 32 H       -2.7600     5.6220    -0.7660 H     1 <1>   0.0800 
 33 H       -0.2810     3.2610     0.8250 H     1 <1>   0.0800 
 34 H       -0.8560     3.5970     2.4380 H     1 <1>   0.0800 
 35 H       -4.7840    -3.3970    -1.9910 H     1 <1>   0.4500 
 36 H       -4.3570    -0.7800     1.2890 H     1 <1>   0.1500 
 37 H       -2.5140     5.1740     1.5020 H     1 <1>   0.0800 
 38 H       -0.1750     5.8700    -3.0820 H     1 <1>   0.0800 
 39 H       -1.6070     6.6670    -2.4460 H     1 <1>   0.0800 
 40 H       -1.7350     5.0670    -3.1920 H     1 <1>   0.0800 
 41 H       -0.1360     5.8310     0.2910 H     1 <1>   0.4000 
 42 H       -5.4080    -2.5020     3.1720 H     1 <1>   0.1500 
 43 H       -6.6320    -6.2890     1.5980 H     1 <1>   0.1500 
 44 H       -6.5720    -5.3870    -1.7670 H     1 <1>   0.0800 
 45 H       -6.3720    -6.7750    -0.7340 H     1 <1>   0.0800 
 46 H       -4.9720    -6.0350    -1.4580 H     1 <1>   0.0800 
 47 H       -6.3900    -4.7650     3.4930 H     1 <1>   0.1500 
@<TRIPOS>BOND
  1   1   2  2   
  2   2   3  am  
  3   2   4  1   
  4   3   5  1   
  5   3  24  1   
  6   4   6  1   
  7   4   7  1   
  8   4  25  1   
  9   5   8  1   
 10   5  26  1   
 11   5  27  1   
 12   6   9  1   
 13   6  28  1   
 14   6  29  1   
 15   7  10  1   
 16   7  30  1   
 17   7  31  1   
 18   8  11  1   
 19   8  12  2   
 20   9  13  1   
 21   9  14  1   
 22   9  32  1   
 23  10  14  1   
 24  10  33  1   
 25  10  34  1   
 26  11  15  ar  
 27  11  35  1   
 28  12  16  1   
 29  12  36  1   
 30  13  17  1   
 31  14  18  1   
 32  14  37  1   
 33  15  16  ar  
 34  15  19  1   
 35  16  20  1   
 36  17  38  1   
 37  17  39  1   
 38  17  40  1   
 39  18  41  1   
 40  19  21  2   
 41  19  22  1   
 42  20  23  2   
 43  20  42  1   
 44  21  23  1   
 45  21  43  1   
 46  22  44  1   
 47  22  45  1   
 48  22  46  1   
 49  23  47  1   
@<TRIPOS>SUBSTRUCTURE
  1 ****   3 GROUP 4 **** **** 0

# MOE 2024.06 (io_trps.svl 2023.06)
