@<TRIPOS>MOLECULE
NONAME
56 58 1 0 0 
SMALL
USER_CHARGES


@<TRIPOS>ATOM
  1 O       -1.2110    -0.5670    -1.3560 O.2   1 <1>  -0.5700 
  2 C       -2.0850    -0.9460    -0.6210 C.2   1 <1>   0.5690 
  3 N       -2.4430    -0.3480     0.5220 N.am  1 <1>  -0.7300 
  4 C       -2.9260    -2.1670    -0.8620 C.3   1 <1>  -0.0990 
  5 C       -3.5090    -1.0550     1.2430 C.3   1 <1>   0.1400 
  6 C       -4.0620    -2.0180     0.1730 C.3   1 <1>  -0.0190 
  7 C       -4.5590    -3.3540     0.7210 C.2   1 <1>   0.5690 
  8 O       -4.1850    -3.7000     1.8170 O.2   1 <1>  -0.5700 
  9 N       -5.4170    -4.1440    -0.0040 N.am  1 <1>  -0.6600 
 10 C       -5.8010    -5.4990     0.5000 C.3   1 <1>   0.1400 
 11 C       -6.1030    -3.7510    -1.2660 C.3   1 <1>   0.1400 
 12 C       -7.1470    -5.4770     1.2450 C.3   1 <1>   0.1400 
 13 C       -7.4050    -2.9860    -0.9860 C.3   1 <1>  -0.1600 
 14 N       -8.2530    -4.8790     0.4220 N.am  1 <1>  -0.6600 
 15 C       -8.1600    -3.3950     0.2870 C.3   1 <1>   0.1400 
 16 C       -9.2960    -5.5600    -0.1520 C.2   1 <1>   0.5690 
 17 O      -10.1060    -5.0050    -0.8620 O.2   1 <1>  -0.5700 
 18 C       -9.5190    -7.0670     0.0760 C.3   1 <1>   0.4040 
 19 N      -10.9540    -7.4880    -0.1480 N.4   1 <1>  -0.9590 
 20 C      -11.8330    -6.9760     0.9430 C.3   1 <1>   0.3430 
 21 C      -11.0700    -8.9440    -0.4290 C.3   1 <1>   0.3430 
 22 C      -13.2300    -6.6980     0.3900 C.3   1 <1>  -0.1600 
 23 C      -12.4640    -9.3290    -0.9280 C.3   1 <1>  -0.1600 
 24 C      -14.1800    -7.9060     0.3700 C.3   1 <1>  -0.1600 
 25 C      -13.5340    -9.2850     0.1710 C.3   1 <1>  -0.1600 
 26 H       -1.9240     0.4430     0.9100 H     1 <1>   0.3700 
 27 H       -2.3290    -3.0390    -0.6660 H     1 <1>   0.0800 
 28 H       -3.2900    -2.1860    -1.8720 H     1 <1>   0.0800 
 29 H       -4.2650    -0.3710     1.5900 H     1 <1>   0.0800 
 30 H       -3.0760    -1.5780     2.0790 H     1 <1>   0.0800 
 31 H       -4.8830    -1.5070    -0.2920 H     1 <1>   0.0800 
 32 H       -5.0410    -5.8650     1.1690 H     1 <1>   0.0800 
 33 H       -5.8510    -6.1890    -0.3230 H     1 <1>   0.0800 
 34 H       -6.3370    -4.6390    -1.8280 H     1 <1>   0.0800 
 35 H       -5.4520    -3.1560    -1.8820 H     1 <1>   0.0800 
 36 H       -7.0250    -4.9020     2.1480 H     1 <1>   0.0800 
 37 H       -7.3900    -6.4800     1.5440 H     1 <1>   0.0800 
 38 H       -8.0600    -3.1070    -1.8300 H     1 <1>   0.0800 
 39 H       -7.1860    -1.9360    -0.9200 H     1 <1>   0.0800 
 40 H       -9.1480    -2.9660     0.2660 H     1 <1>   0.0800 
 41 H       -7.6540    -2.9880     1.1470 H     1 <1>   0.0800 
 42 H       -9.2190    -7.3220     1.0760 H     1 <1>   0.0800 
 43 H       -8.8810    -7.5920    -0.6130 H     1 <1>   0.0800 
 44 H      -11.2430    -6.9630    -0.9920 H     1 <1>   0.4500 
 45 H      -11.4340    -6.0430     1.3100 H     1 <1>   0.0800 
 46 H      -11.8790    -7.6720     1.7640 H     1 <1>   0.0800 
 47 H      -10.8390    -9.5100     0.4590 H     1 <1>   0.0800 
 48 H      -10.3540    -9.2140    -1.1890 H     1 <1>   0.0800 
 49 H      -13.1490    -6.2750    -0.5960 H     1 <1>   0.0800 
 50 H      -13.6840    -5.9400     1.0060 H     1 <1>   0.0800 
 51 H      -12.4000   -10.3470    -1.2740 H     1 <1>   0.0800 
 52 H      -12.7500    -8.7310    -1.7760 H     1 <1>   0.0800 
 53 H      -14.9080    -7.7470    -0.4080 H     1 <1>   0.0800 
 54 H      -14.7280    -7.9330     1.2980 H     1 <1>   0.0800 
 55 H      -13.1180    -9.6330     1.1020 H     1 <1>   0.0800 
 56 H      -14.3210    -9.9750    -0.0890 H     1 <1>   0.0800 
@<TRIPOS>BOND
  1   1   2  2   
  2   2   3  am  
  3   2   4  1   
  4   3   5  1   
  5   3  26  1   
  6   4   6  1   
  7   4  27  1   
  8   4  28  1   
  9   5   6  1   
 10   5  29  1   
 11   5  30  1   
 12   6   7  1   
 13   6  31  1   
 14   7   8  2   
 15   7   9  am  
 16   9  10  1   
 17   9  11  1   
 18  10  12  1   
 19  10  32  1   
 20  10  33  1   
 21  11  13  1   
 22  11  34  1   
 23  11  35  1   
 24  12  14  1   
 25  12  36  1   
 26  12  37  1   
 27  13  15  1   
 28  13  38  1   
 29  13  39  1   
 30  14  15  1   
 31  14  16  am  
 32  15  40  1   
 33  15  41  1   
 34  16  17  2   
 35  16  18  1   
 36  18  19  1   
 37  18  42  1   
 38  18  43  1   
 39  19  20  1   
 40  19  21  1   
 41  19  44  1   
 42  20  22  1   
 43  20  45  1   
 44  20  46  1   
 45  21  23  1   
 46  21  47  1   
 47  21  48  1   
 48  22  24  1   
 49  22  49  1   
 50  22  50  1   
 51  23  25  1   
 52  23  51  1   
 53  23  52  1   
 54  24  25  1   
 55  24  53  1   
 56  24  54  1   
 57  25  55  1   
 58  25  56  1   
@<TRIPOS>SUBSTRUCTURE
  1 ****  14 GROUP 4 **** **** 0

# MOE 2024.06 (io_trps.svl 2023.06)
