@<TRIPOS>MOLECULE
NONAME
49 51 1 0 0 
SMALL
USER_CHARGES


@<TRIPOS>ATOM
  1 O       -3.5170     0.0410    -1.2150 O.co2 1 <1>  -0.9000 
  2 C       -2.6120    -0.6060    -0.6880 C.2   1 <1>   0.9060 
  3 O       -2.3830    -0.5690     0.5200 O.co2 1 <1>  -0.9000 
  4 C       -1.9520    -1.6940    -1.4920 C.3   1 <1>  -0.2660 
  5 C       -2.9530    -2.8330    -1.7570 C.3   1 <1>  -0.1600 
  6 C       -3.6630    -3.2590    -0.4600 C.3   1 <1>   0.3430 
  7 N       -5.1150    -3.4510    -0.7190 N.4   1 <1>  -0.9590 
  8 C       -5.8310    -2.1090    -0.7520 C.3   1 <1>   0.3430 
  9 C       -5.6830    -4.4850     0.1960 C.3   1 <1>   0.3430 
 10 C       -6.5710    -1.6580     0.5320 C.3   1 <1>   0.1430 
 11 C       -7.1030    -4.1470     0.6420 C.3   1 <1>  -0.1600 
 12 C       -7.7170    -0.8080     0.0210 C.ar  1 <1>   0.1670 
 13 C       -7.0800    -2.8250     1.4130 C.3   1 <1>  -0.1600 
 14 C       -5.7640    -0.6300     1.3640 C.3   1 <1>  -0.1600 
 15 N       -8.8050    -1.2760    -0.5400 N.ar  1 <1>  -0.6200 
 16 C       -7.4700     0.5210     0.1800 C.ar  1 <1>  -0.1430 
 17 C       -6.1330     0.7660     0.8330 C.3   1 <1>  -0.0170 
 18 C       -9.6790    -0.3460    -0.9370 C.ar  1 <1>   0.7200 
 19 C       -8.4210     1.4020    -0.2670 C.ar  1 <1>   0.1600 
 20 N       -9.5310     0.9780    -0.8250 N.ar  1 <1>  -0.6200 
 21 N      -10.8430    -0.7990    -1.5250 N.pl3 1 <1>  -0.8380 
 22 C      -11.3740    -2.1690    -1.2900 C.3   1 <1>   0.1290 
 23 C      -11.7270     0.1070    -2.3100 C.3   1 <1>   0.1290 
 24 H       -1.1040    -2.0540    -0.9390 H     1 <1>   0.0800 
 25 H       -1.6050    -1.2710    -2.4150 H     1 <1>   0.0800 
 26 H       -2.4360    -3.6730    -2.1860 H     1 <1>   0.0800 
 27 H       -3.6630    -2.4680    -2.4790 H     1 <1>   0.0800 
 28 H       -3.5360    -2.5200     0.3150 H     1 <1>   0.0800 
 29 H       -3.2170    -4.1740    -0.1090 H     1 <1>   0.0800 
 30 H       -5.1820    -3.8110    -1.6770 H     1 <1>   0.4500 
 31 H       -6.5830    -2.1700    -1.5210 H     1 <1>   0.0800 
 32 H       -5.1570    -1.3290    -1.0570 H     1 <1>   0.0800 
 33 H       -5.0660    -4.5540     1.0770 H     1 <1>   0.0800 
 34 H       -5.6730    -5.4460    -0.2910 H     1 <1>   0.0800 
 35 H       -7.4650    -4.9270     1.2880 H     1 <1>   0.0800 
 36 H       -7.7660    -4.0870    -0.2060 H     1 <1>   0.0800 
 37 H       -8.0630    -2.6000     1.7910 H     1 <1>   0.0800 
 38 H       -6.4310    -2.9440     2.2630 H     1 <1>   0.0800 
 39 H       -4.7060    -0.8020     1.3210 H     1 <1>   0.0800 
 40 H       -6.0690    -0.6730     2.3950 H     1 <1>   0.0800 
 41 H       -5.4190     1.0950     0.0970 H     1 <1>   0.0800 
 42 H       -6.1920     1.4890     1.6260 H     1 <1>   0.0800 
 43 H       -8.2670     2.4630    -0.1690 H     1 <1>   0.1500 
 44 H      -10.9350    -2.6040    -0.4100 H     1 <1>   0.0800 
 45 H      -11.1500    -2.7920    -2.1390 H     1 <1>   0.0800 
 46 H      -12.4400    -2.1310    -1.1500 H     1 <1>   0.0800 
 47 H      -11.1460     0.8770    -2.7880 H     1 <1>   0.0800 
 48 H      -12.4440     0.5680    -1.6540 H     1 <1>   0.0800 
 49 H      -12.2440    -0.4490    -3.0720 H     1 <1>   0.0800 
@<TRIPOS>BOND
  1   1   2  ar  
  2   2   3  ar  
  3   2   4  1   
  4   4   5  1   
  5   4  24  1   
  6   4  25  1   
  7   5   6  1   
  8   5  26  1   
  9   5  27  1   
 10   6   7  1   
 11   6  28  1   
 12   6  29  1   
 13   7   8  1   
 14   7   9  1   
 15   7  30  1   
 16   8  10  1   
 17   8  31  1   
 18   8  32  1   
 19   9  11  1   
 20   9  33  1   
 21   9  34  1   
 22  10  12  1   
 23  10  13  1   
 24  10  14  1   
 25  11  13  1   
 26  11  35  1   
 27  11  36  1   
 28  12  15  ar  
 29  12  16  ar  
 30  13  37  1   
 31  13  38  1   
 32  14  17  1   
 33  14  39  1   
 34  14  40  1   
 35  15  18  ar  
 36  16  17  1   
 37  16  19  ar  
 38  17  41  1   
 39  17  42  1   
 40  18  20  ar  
 41  18  21  1   
 42  19  20  ar  
 43  19  43  1   
 44  21  22  1   
 45  21  23  1   
 46  22  44  1   
 47  22  45  1   
 48  22  46  1   
 49  23  47  1   
 50  23  48  1   
 51  23  49  1   
@<TRIPOS>SUBSTRUCTURE
  1 ****  10 GROUP 4 **** **** 0

# MOE 2024.06 (io_trps.svl 2023.06)
