@<TRIPOS>MOLECULE
NONAME
53 55 1 0 0 
SMALL
USER_CHARGES


@<TRIPOS>ATOM
  1 S        0.1980    -0.8150     0.6970 S.o2  1 <1>   1.4470 
  2 O       -0.6210    -0.3810     1.8080 O.2   1 <1>  -0.6500 
  3 O        0.8980    -2.0710     0.8590 O.2   1 <1>  -0.6500 
  4 N       -0.8730    -1.0550    -0.6060 N.am  1 <1>  -0.8490 
  5 C        1.3090     0.4930     0.1190 C.ar  1 <1>  -0.0090 
  6 C       -1.5310    -2.3620    -0.5840 C.3   1 <1>   0.1960 
  7 C       -1.8620     0.0220    -0.8060 C.3   1 <1>   0.1960 
  8 C        1.3780     1.7200     0.7680 C.ar  1 <1>  -0.1500 
  9 C        2.1110     0.3060    -0.9980 C.ar  1 <1>  -0.1500 
 10 C       -2.6830    -2.2810     0.4360 C.3   1 <1>   0.4230 
 11 C       -3.1830    -0.1610     0.0030 C.3   1 <1>  -0.1600 
 12 C        2.2110     2.7350     0.3250 C.ar  1 <1>  -0.1440 
 13 C        2.9470     1.3090    -1.4510 C.ar  1 <1>  -0.1500 
 14 N       -2.8870    -3.4710     1.3380 N.4   1 <1>  -0.9590 
 15 C       -3.9390    -1.5760    -0.2470 C.3   1 <1>   0.0000 
 16 C        3.0040     2.5280    -0.7970 C.ar  1 <1>  -0.1430 
 17 C        2.2380     4.0550     1.0840 C.3   1 <1>  -0.0970 
 18 C       -3.1800    -4.7180     0.6170 C.3   1 <1>   0.3430 
 19 C       -1.7350    -3.6250     2.2860 C.3   1 <1>   0.2630 
 20 C       -4.6730    -2.9800    -0.5720 C.3   1 <1>  -0.1600 
 21 C       -5.2020    -0.8000    -0.8580 C.3   1 <1>   0.1200 
 22 C        3.9380     3.6080    -1.3250 C.3   1 <1>  -0.0970 
 23 C       -3.9650    -4.3600    -0.6290 C.3   1 <1>  -0.1600 
 24 O       -5.9190    -0.2550     0.2050 O.3   1 <1>  -0.6800 
 25 H       -1.9200    -2.5650    -1.5660 H     1 <1>   0.0800 
 26 H       -0.8320    -3.1410    -0.3390 H     1 <1>   0.0800 
 27 H       -1.4170     0.9750    -0.5670 H     1 <1>   0.0800 
 28 H       -2.1120     0.0510    -1.8550 H     1 <1>   0.0800 
 29 H        0.7660     1.8810     1.6390 H     1 <1>   0.1500 
 30 H        2.0810    -0.6350    -1.5200 H     1 <1>   0.1500 
 31 H       -2.2960    -1.6030     1.1670 H     1 <1>   0.0800 
 32 H       -3.0140     0.0170     1.0540 H     1 <1>   0.0800 
 33 H       -3.7120     0.7510    -0.2260 H     1 <1>   0.0800 
 34 H        3.5570     1.1310    -2.3210 H     1 <1>   0.1500 
 35 H       -3.7250    -3.2350     1.8900 H     1 <1>   0.4500 
 36 H        1.5530     4.0410     1.9120 H     1 <1>   0.0800 
 37 H        1.9610     4.8630     0.4310 H     1 <1>   0.0800 
 38 H        3.2260     4.2390     1.4670 H     1 <1>   0.0800 
 39 H       -2.2680    -5.2220     0.3390 H     1 <1>   0.0800 
 40 H       -3.7580    -5.3750     1.2470 H     1 <1>   0.0800 
 41 H       -0.8280    -3.8550     1.7480 H     1 <1>   0.0800 
 42 H       -1.9290    -4.4170     2.9910 H     1 <1>   0.0800 
 43 H       -1.5770    -2.7090     2.8330 H     1 <1>   0.0800 
 44 H       -5.5100    -3.0830     0.1020 H     1 <1>   0.0800 
 45 H       -5.0650    -2.9880    -1.5770 H     1 <1>   0.0800 
 46 H       -5.9520    -1.3350    -1.4140 H     1 <1>   0.0800 
 47 H       -4.9320    -0.0150    -1.5460 H     1 <1>   0.0800 
 48 H        4.4740     3.2660    -2.1910 H     1 <1>   0.0800 
 49 H        4.6540     3.8760    -0.5700 H     1 <1>   0.0800 
 50 H        3.3740     4.4810    -1.6000 H     1 <1>   0.0800 
 51 H       -3.3000    -4.3930    -1.4740 H     1 <1>   0.0800 
 52 H       -4.6960    -5.1320    -0.8000 H     1 <1>   0.0800 
 53 H       -6.6970     0.2490    -0.1120 H     1 <1>   0.4000 
@<TRIPOS>BOND
  1   1   2  2   
  2   1   3  2   
  3   1   4  am  
  4   1   5  1   
  5   4   6  1   
  6   4   7  1   
  7   5   8  ar  
  8   5   9  ar  
  9   6  10  1   
 10   6  25  1   
 11   6  26  1   
 12   7  11  1   
 13   7  27  1   
 14   7  28  1   
 15   8  12  ar  
 16   8  29  1   
 17   9  13  ar  
 18   9  30  1   
 19  10  14  1   
 20  10  15  1   
 21  10  31  1   
 22  11  15  1   
 23  11  32  1   
 24  11  33  1   
 25  12  16  ar  
 26  12  17  1   
 27  13  16  ar  
 28  13  34  1   
 29  14  18  1   
 30  14  19  1   
 31  14  35  1   
 32  15  20  1   
 33  15  21  1   
 34  16  22  1   
 35  17  36  1   
 36  17  37  1   
 37  17  38  1   
 38  18  23  1   
 39  18  39  1   
 40  18  40  1   
 41  19  41  1   
 42  19  42  1   
 43  19  43  1   
 44  20  23  1   
 45  20  44  1   
 46  20  45  1   
 47  21  24  1   
 48  21  46  1   
 49  21  47  1   
 50  22  48  1   
 51  22  49  1   
 52  22  50  1   
 53  23  51  1   
 54  23  52  1   
 55  24  53  1   
@<TRIPOS>SUBSTRUCTURE
  1 ****   4 GROUP 4 **** **** 0

# MOE 2024.06 (io_trps.svl 2023.06)
