@<TRIPOS>MOLECULE
NONAME
42 45 1 0 0 
SMALL
USER_CHARGES


@<TRIPOS>ATOM
  1 S       -0.4140     0.7500    -0.7030 S.o2  1 <1>   1.3330 
  2 O        0.5690     0.5120    -1.7340 O.2   1 <1>  -0.6500 
  3 O       -1.4070     1.7850    -0.8700 O.2   1 <1>  -0.6500 
  4 N       -1.2170    -0.7070    -0.3780 N.am  1 <1>  -0.8490 
  5 C        0.4720     1.0430     0.8130 C.3   1 <1>  -0.1350 
  6 C       -1.4840    -1.4590    -1.6120 C.3   1 <1>   0.1960 
  7 C       -2.4690    -0.4970     0.3600 C.3   1 <1>   0.1960 
  8 C       -2.0420    -2.8410    -1.2720 C.3   1 <1>  -0.1600 
  9 C       -3.0500    -1.8430     0.7890 C.3   1 <1>  -0.1600 
 10 C       -3.3110    -2.7330    -0.4290 C.3   1 <1>   0.4600 
 11 O       -4.2790    -2.1180    -1.2520 O.3   1 <1>  -0.5600 
 12 C       -3.8040    -4.1150    -0.0170 C.2   1 <1>  -0.3320 
 13 C       -5.6370    -2.2780    -0.9160 C.3   1 <1>   0.1200 
 14 N       -3.0910    -5.0670     0.6570 N.pl3 1 <1>   0.0330 
 15 C       -5.0400    -4.5870    -0.2760 C.2   1 <1>  -0.1810 
 16 C       -6.0620    -3.7530    -1.0070 C.3   1 <1>   0.0210 
 17 C       -3.8990    -6.1660     0.8210 C.ar  1 <1>  -0.1520 
 18 C       -5.1350    -5.8960     0.2410 C.ar  1 <1>   0.0000 
 19 C       -3.6520    -7.3960     1.4370 C.ar  1 <1>  -0.1500 
 20 C       -6.1420    -6.8650     0.2710 C.ar  1 <1>  -0.1500 
 21 C       -4.6520    -8.3410     1.4610 C.ar  1 <1>  -0.1500 
 22 C       -5.8970    -8.0760     0.8770 C.ar  1 <1>  -0.1500 
 23 H        1.0540     1.9390     0.7270 H     1 <1>   0.0800 
 24 H        1.1310     0.2220     1.0170 H     1 <1>   0.0800 
 25 H       -0.2110     1.1540     1.6310 H     1 <1>   0.0800 
 26 H       -0.5710    -1.5900    -2.1690 H     1 <1>   0.0800 
 27 H       -2.1790    -0.9150    -2.2320 H     1 <1>   0.0800 
 28 H       -3.1790     0.0310    -0.2580 H     1 <1>   0.0800 
 29 H       -2.2820     0.1000     1.2360 H     1 <1>   0.0800 
 30 H       -1.2910    -3.3890    -0.7370 H     1 <1>   0.0800 
 31 H       -2.2640    -3.3810    -2.1740 H     1 <1>   0.0800 
 32 H       -3.9570    -1.6980     1.3430 H     1 <1>   0.0800 
 33 H       -2.3490    -2.3270     1.4420 H     1 <1>   0.0800 
 34 H       -6.2170    -1.6820    -1.5990 H     1 <1>   0.0800 
 35 H       -5.7900    -1.9070     0.0810 H     1 <1>   0.0800 
 36 H       -2.1210    -4.9970     0.9780 H     1 <1>   0.2700 
 37 H       -6.1110    -4.0590    -2.0370 H     1 <1>   0.0800 
 38 H       -7.0320    -3.8800    -0.5620 H     1 <1>   0.0800 
 39 H       -2.6930    -7.5930     1.8820 H     1 <1>   0.1500 
 40 H       -7.0910    -6.6480    -0.1820 H     1 <1>   0.1500 
 41 H       -4.4870    -9.2960     1.9280 H     1 <1>   0.1500 
 42 H       -6.6620    -8.8320     0.9090 H     1 <1>   0.1500 
@<TRIPOS>BOND
  1   1   2  2   
  2   1   3  2   
  3   1   4  am  
  4   1   5  1   
  5   4   6  1   
  6   4   7  1   
  7   5  23  1   
  8   5  24  1   
  9   5  25  1   
 10   6   8  1   
 11   6  26  1   
 12   6  27  1   
 13   7   9  1   
 14   7  28  1   
 15   7  29  1   
 16   8  10  1   
 17   8  30  1   
 18   8  31  1   
 19   9  10  1   
 20   9  32  1   
 21   9  33  1   
 22  10  11  1   
 23  10  12  1   
 24  11  13  1   
 25  12  14  1   
 26  12  15  2   
 27  13  16  1   
 28  13  34  1   
 29  13  35  1   
 30  14  17  1   
 31  14  36  1   
 32  15  16  1   
 33  15  18  1   
 34  16  37  1   
 35  16  38  1   
 36  17  18  ar  
 37  17  19  ar  
 38  18  20  ar  
 39  19  21  ar  
 40  19  39  1   
 41  20  22  ar  
 42  20  40  1   
 43  21  22  ar  
 44  21  41  1   
 45  22  42  1   
@<TRIPOS>SUBSTRUCTURE
  1 ****  10 GROUP 4 **** **** 0

# MOE 2024.06 (io_trps.svl 2023.06)
