@<TRIPOS>MOLECULE
NONAME
57 61 1 0 0 
SMALL
USER_CHARGES


@<TRIPOS>ATOM
  1 O       -1.7550     0.4760     1.5140 O.2   1 <1>  -0.5700 
  2 C       -1.7340     1.0560     0.4570 C.2   1 <1>   0.5690 
  3 N       -1.9800     0.4280    -0.7240 N.am  1 <1>  -0.7300 
  4 C       -1.4490     2.5450     0.4410 C.3   1 <1>  -0.0990 
  5 C       -2.2100    -1.0270    -0.9370 C.3   1 <1>   0.2200 
  6 C        0.0370     2.9290     0.2470 C.3   1 <1>   0.0000 
  7 C       -3.3900    -1.5700    -0.1250 C.3   1 <1>  -0.0800 
  8 C       -1.0230    -1.8890    -0.4920 C.3   1 <1>   0.1200 
  9 C        0.9190     2.3520     1.3800 C.3   1 <1>  -0.1600 
 10 C        0.1590     4.4720     0.2740 C.3   1 <1>  -0.1600 
 11 C        0.5900     2.4240    -1.1100 C.3   1 <1>  -0.1600 
 12 C       -2.7190    -2.5860     0.8010 C.3   1 <1>   0.1200 
 13 C       -4.4430    -2.2250    -1.0370 C.3   1 <1>  -0.0170 
 14 O       -1.5900    -3.0060     0.1110 O.3   1 <1>  -0.5600 
 15 C        2.3760     2.7940     1.1840 C.3   1 <1>   0.2800 
 16 C        1.6230     4.9180     0.0910 C.3   1 <1>  -0.0800 
 17 C        2.0570     2.8560    -1.3010 C.3   1 <1>  -0.0800 
 18 C       -5.6150    -2.7830    -0.2440 C.ar  1 <1>  -0.1440 
 19 O        3.1390     2.2700     2.1990 O.3   1 <1>  -0.6800 
 20 C        2.4750     4.3240     1.2290 C.3   1 <1>  -0.1600 
 21 C        2.9080     2.2700    -0.1580 C.3   1 <1>  -0.1600 
 22 C        2.1420     4.3940    -1.2610 C.3   1 <1>  -0.1600 
 23 C       -5.8000    -4.1390    -0.0700 C.ar  1 <1>  -0.1500 
 24 C       -6.5550    -1.9600     0.3430 C.ar  1 <1>  -0.1500 
 25 C       -6.8850    -4.5940     0.6620 C.ar  1 <1>   0.1600 
 26 C       -7.6040    -2.5170     1.0550 C.ar  1 <1>   0.1600 
 27 N       -7.7920    -3.8160     1.2290 N.ar  1 <1>  -0.6200 
 28 H       -1.9290     0.9820    -1.5790 H     1 <1>   0.3700 
 29 H       -2.0420     2.9970    -0.3320 H     1 <1>   0.0800 
 30 H       -1.7930     2.9480     1.3770 H     1 <1>   0.0800 
 31 H       -2.3730    -1.1950    -1.9880 H     1 <1>   0.0800 
 32 H       -3.8590    -0.8030     0.4650 H     1 <1>   0.0800 
 33 H       -0.4190    -1.3880     0.2450 H     1 <1>   0.0800 
 34 H       -0.4170    -2.2120    -1.3190 H     1 <1>   0.0800 
 35 H        0.8740     1.2770     1.3770 H     1 <1>   0.0800 
 36 H        0.5640     2.6980     2.3340 H     1 <1>   0.0800 
 37 H       -0.4420     4.9030    -0.5080 H     1 <1>   0.0800 
 38 H       -0.2100     4.8520     1.2110 H     1 <1>   0.0800 
 39 H        0.5440     1.3500    -1.1520 H     1 <1>   0.0800 
 40 H       -0.0050     2.8140    -1.9170 H     1 <1>   0.0800 
 41 H       -3.3330    -3.4370     1.0340 H     1 <1>   0.0800 
 42 H       -2.3940    -2.1130     1.7140 H     1 <1>   0.0800 
 43 H       -3.9850    -3.0150    -1.6080 H     1 <1>   0.0800 
 44 H       -4.8160    -1.4940    -1.7330 H     1 <1>   0.0800 
 45 H        1.6830     5.9930     0.1140 H     1 <1>   0.0800 
 46 H        2.4230     2.4960    -2.2480 H     1 <1>   0.0800 
 47 H        4.0650     2.5420     2.0790 H     1 <1>   0.4000 
 48 H        2.1140     4.6840     2.1770 H     1 <1>   0.0800 
 49 H        3.4970     4.6350     1.1120 H     1 <1>   0.0800 
 50 H        3.9340     2.5610    -0.2890 H     1 <1>   0.0800 
 51 H        2.8500     1.1960    -0.1770 H     1 <1>   0.0800 
 52 H        3.1620     4.7070    -1.4060 H     1 <1>   0.0800 
 53 H        1.5580     4.8130    -2.0620 H     1 <1>   0.0800 
 54 H       -5.1110    -4.8470    -0.4930 H     1 <1>   0.1500 
 55 H       -6.4820    -0.8920     0.2540 H     1 <1>   0.1500 
 56 H       -7.0120    -5.6560     0.7880 H     1 <1>   0.1500 
 57 H       -8.3270    -1.8590     1.5070 H     1 <1>   0.1500 
@<TRIPOS>BOND
  1   1   2  2   
  2   2   3  am  
  3   2   4  1   
  4   3   5  1   
  5   3  28  1   
  6   4   6  1   
  7   4  29  1   
  8   4  30  1   
  9   5   7  1   
 10   5   8  1   
 11   5  31  1   
 12   6   9  1   
 13   6  10  1   
 14   6  11  1   
 15   7  12  1   
 16   7  13  1   
 17   7  32  1   
 18   8  14  1   
 19   8  33  1   
 20   8  34  1   
 21   9  15  1   
 22   9  35  1   
 23   9  36  1   
 24  10  16  1   
 25  10  37  1   
 26  10  38  1   
 27  11  17  1   
 28  11  39  1   
 29  11  40  1   
 30  12  14  1   
 31  12  41  1   
 32  12  42  1   
 33  13  18  1   
 34  13  43  1   
 35  13  44  1   
 36  15  19  1   
 37  15  20  1   
 38  15  21  1   
 39  16  20  1   
 40  16  22  1   
 41  16  45  1   
 42  17  21  1   
 43  17  22  1   
 44  17  46  1   
 45  18  23  ar  
 46  18  24  ar  
 47  19  47  1   
 48  20  48  1   
 49  20  49  1   
 50  21  50  1   
 51  21  51  1   
 52  22  52  1   
 53  22  53  1   
 54  23  25  ar  
 55  23  54  1   
 56  24  26  ar  
 57  24  55  1   
 58  25  27  ar  
 59  25  56  1   
 60  26  27  ar  
 61  26  57  1   
@<TRIPOS>SUBSTRUCTURE
  1 ****   2 GROUP 4 **** **** 0

# MOE 2024.06 (io_trps.svl 2023.06)
