@<TRIPOS>MOLECULE
NONAME
50 52 1 0 0 
SMALL
USER_CHARGES


@<TRIPOS>ATOM
  1 O        1.3750     0.3760    -0.6290 O.2   1 <1>  -0.5700 
  2 C        2.2080    -0.4680    -0.3350 C.2   1 <1>   0.5440 
  3 N        3.5450    -0.1720    -0.5720 N.am  1 <1>  -0.6600 
  4 C        1.7600    -1.7540     0.2120 C.ar  1 <1>   0.3960 
  5 C        4.6380    -1.1590    -0.3020 C.3   1 <1>   0.1400 
  6 C        3.9450     1.1360    -1.1780 C.3   1 <1>   0.1400 
  7 N        2.1770    -2.1080     1.4430 N.ar  1 <1>  -0.6200 
  8 C        0.9260    -2.5930    -0.5470 C.ar  1 <1>  -0.1430 
  9 C        5.2440    -0.9610     1.0960 C.3   1 <1>   0.1400 
 10 C        5.2430     1.7250    -0.6100 C.3   1 <1>  -0.1600 
 11 C        1.7570    -3.2640     1.9160 C.ar  1 <1>   0.1600 
 12 C        0.5050    -3.8010    -0.0300 C.ar  1 <1>  -0.1500 
 13 C        0.4630    -2.2060    -1.9490 C.3   1 <1>  -0.0960 
 14 N        6.1170     0.2520     1.1690 N.am  1 <1>  -0.6600 
 15 C        5.4120     1.5370     0.9010 C.3   1 <1>   0.1400 
 16 C        0.9330    -4.1370     1.2330 C.ar  1 <1>  -0.1500 
 17 C        7.4680     0.1340     1.4060 C.2   1 <1>   0.5690 
 18 O        7.9950    -0.9490     1.5260 O.2   1 <1>  -0.5700 
 19 C        8.3790     1.3510     1.5270 C.3   1 <1>   0.0820 
 20 C        8.5210     2.1300     0.2250 C.2   1 <1>  -0.1810 
 21 C        8.3170     3.4330    -0.0330 C.2   1 <1>  -0.0400 
 22 C        8.8980     1.6150    -1.0180 C.2   1 <1>   0.1080 
 23 O        8.5450     3.6320    -1.3020 O.3   1 <1>  -0.0190 
 24 C        7.9000     4.6080     0.8290 C.3   1 <1>  -0.0600 
 25 N        8.8960     2.5380    -1.9110 N.2   1 <1>  -0.4100 
 26 C        9.2590     0.1740    -1.3130 C.3   1 <1>  -0.0590 
 27 H        5.4090    -1.0750    -1.0470 H     1 <1>   0.0800 
 28 H        4.2440    -2.1570    -0.3660 H     1 <1>   0.0800 
 29 H        3.1620     1.8560    -1.0120 H     1 <1>   0.0800 
 30 H        4.0440     1.0120    -2.2420 H     1 <1>   0.0800 
 31 H        5.8120    -1.8400     1.3430 H     1 <1>   0.0800 
 32 H        4.4570    -0.8770     1.8250 H     1 <1>   0.0800 
 33 H        5.2370     2.7780    -0.8250 H     1 <1>   0.0800 
 34 H        6.0860     1.3130    -1.1340 H     1 <1>   0.0800 
 35 H        2.0860    -3.5360     2.9050 H     1 <1>   0.1500 
 36 H       -0.1380    -4.4630    -0.5850 H     1 <1>   0.1500 
 37 H        1.3000    -1.8980    -2.5510 H     1 <1>   0.0800 
 38 H       -0.2360    -1.3890    -1.8910 H     1 <1>   0.0800 
 39 H       -0.0200    -3.0300    -2.4420 H     1 <1>   0.0800 
 40 H        4.4510     1.5380     1.3890 H     1 <1>   0.0800 
 41 H        5.9750     2.3580     1.3020 H     1 <1>   0.0800 
 42 H        0.6320    -5.0640     1.6860 H     1 <1>   0.1500 
 43 H        9.3550     1.0180     1.8300 H     1 <1>   0.0800 
 44 H        8.0040     1.9840     2.3070 H     1 <1>   0.0800 
 45 H        7.7600     4.3040     1.8490 H     1 <1>   0.0800 
 46 H        6.9810     5.0220     0.4560 H     1 <1>   0.0800 
 47 H        8.6610     5.3660     0.7940 H     1 <1>   0.0800 
 48 H        9.9210    -0.2050    -0.5570 H     1 <1>   0.0800 
 49 H        9.7480     0.1070    -2.2680 H     1 <1>   0.0800 
 50 H        8.3690    -0.4270    -1.3360 H     1 <1>   0.0800 
@<TRIPOS>BOND
  1   1   2  2   
  2   2   3  am  
  3   2   4  1   
  4   3   5  1   
  5   3   6  1   
  6   4   7  ar  
  7   4   8  ar  
  8   5   9  1   
  9   5  27  1   
 10   5  28  1   
 11   6  10  1   
 12   6  29  1   
 13   6  30  1   
 14   7  11  ar  
 15   8  12  ar  
 16   8  13  1   
 17   9  14  1   
 18   9  31  1   
 19   9  32  1   
 20  10  15  1   
 21  10  33  1   
 22  10  34  1   
 23  11  16  ar  
 24  11  35  1   
 25  12  16  ar  
 26  12  36  1   
 27  13  37  1   
 28  13  38  1   
 29  13  39  1   
 30  14  15  1   
 31  14  17  am  
 32  15  40  1   
 33  15  41  1   
 34  16  42  1   
 35  17  18  2   
 36  17  19  1   
 37  19  20  1   
 38  19  43  1   
 39  19  44  1   
 40  20  21  2   
 41  20  22  1   
 42  21  23  1   
 43  21  24  1   
 44  22  25  2   
 45  22  26  1   
 46  23  25  1   
 47  24  45  1   
 48  24  46  1   
 49  24  47  1   
 50  26  48  1   
 51  26  49  1   
 52  26  50  1   
@<TRIPOS>SUBSTRUCTURE
  1 ****   5 GROUP 4 **** **** 0

# MOE 2024.06 (io_trps.svl 2023.06)
