@<TRIPOS>MOLECULE
NONAME
42 44 1 0 0 
SMALL
USER_CHARGES


@<TRIPOS>ATOM
  1 O       -1.3420     2.9880    -0.4480 O.2   1 <1>  -0.5700 
  2 C       -0.7090     2.5550     0.4890 C.2   1 <1>   0.5690 
  3 N       -1.3180     1.8060     1.4600 N.am  1 <1>  -0.4940 
  4 C        0.7870     2.8530     0.6200 C.3   1 <1>   0.2370 
  5 C       -2.6560     1.4300     1.5310 C.2   1 <1>   0.2500 
  6 N        1.5190     1.6100     0.3030 N.pl3 1 <1>   0.3140 
  7 C        1.2960     4.0690    -0.2120 C.3   1 <1>  -0.0800 
  8 N       -3.5750     1.6810     0.6000 N.pl3 1 <1>   0.0330 
  9 N       -3.1630     0.7820     2.5250 N.2   1 <1>  -0.3380 
 10 N        1.3400     0.8850    -0.7800 N.2   1 <1>  -0.4180 
 11 C        2.4410     1.0060     1.0300 C.2   1 <1>   0.0360 
 12 C        2.8410     4.1900    -0.1940 C.3   1 <1>  -0.1600 
 13 C        0.6500     5.3740     0.3000 C.3   1 <1>  -0.2400 
 14 C       -4.6890     1.1380     1.0990 C.2   1 <1>   0.0260 
 15 N       -4.4610     0.5980     2.2460 N.2   1 <1>  -0.3380 
 16 N        2.1380    -0.1170    -0.6840 N.2   1 <1>   0.0000 
 17 N        2.8350    -0.0570     0.4450 N.2   1 <1>  -0.3380 
 18 C        3.3830     5.3520    -1.0370 C.3   1 <1>  -0.2400 
 19 C       -6.0410     1.1580     0.3980 C.3   1 <1>   0.1610 
 20 C       -6.0300     0.6930    -1.0830 C.3   1 <1>   0.0000 
 21 C       -6.5010     2.5470    -0.1200 C.3   1 <1>   0.0000 
 22 C       -7.0750     1.8060    -1.3560 C.3   1 <1>   0.0000 
 23 H       -0.7690     1.4210     2.2270 H     1 <1>   0.3700 
 24 H        0.9760     3.0730     1.6530 H     1 <1>   0.0800 
 25 H        0.9840     3.9230    -1.2350 H     1 <1>   0.0800 
 26 H       -3.4050     2.1820    -0.2770 H     1 <1>   0.2700 
 27 H        2.8030     1.3650     1.9750 H     1 <1>   0.1500 
 28 H        3.1930     4.3020     0.8180 H     1 <1>   0.0800 
 29 H        3.2790     3.2910    -0.5960 H     1 <1>   0.0800 
 30 H        1.0100     5.6230     1.2830 H     1 <1>   0.0800 
 31 H       -0.4220     5.2920     0.3400 H     1 <1>   0.0800 
 32 H        0.8710     6.1920    -0.3610 H     1 <1>   0.0800 
 33 H        3.1350     6.3030    -0.6000 H     1 <1>   0.0800 
 34 H        2.9860     5.3110    -2.0370 H     1 <1>   0.0800 
 35 H        4.4550     5.2880    -1.0980 H     1 <1>   0.0800 
 36 H       -6.8160     0.6680     0.9630 H     1 <1>   0.0000 
 37 H       -5.0970     0.8750    -1.5870 H     1 <1>   0.0000 
 38 H       -6.4090    -0.3030    -1.2280 H     1 <1>   0.0000 
 39 H       -7.2520     3.0130     0.4940 H     1 <1>   0.0000 
 40 H       -5.6880     3.2040    -0.3790 H     1 <1>   0.0000 
 41 H       -8.0880     1.4710    -1.2060 H     1 <1>   0.0000 
 42 H       -6.9250     2.3260    -2.2850 H     1 <1>   0.0000 
@<TRIPOS>BOND
  1   1   2  2   
  2   2   3  am  
  3   2   4  1   
  4   3   5  1   
  5   3  23  1   
  6   4   6  1   
  7   4   7  1   
  8   4  24  1   
  9   5   8  1   
 10   5   9  2   
 11   6  10  1   
 12   6  11  1   
 13   7  12  1   
 14   7  13  1   
 15   7  25  1   
 16   8  14  1   
 17   8  26  1   
 18   9  15  1   
 19  10  16  2   
 20  11  17  2   
 21  11  27  1   
 22  12  18  1   
 23  12  28  1   
 24  12  29  1   
 25  13  30  1   
 26  13  31  1   
 27  13  32  1   
 28  14  15  2   
 29  14  19  1   
 30  16  17  1   
 31  18  33  1   
 32  18  34  1   
 33  18  35  1   
 34  19  20  1   
 35  19  21  1   
 36  19  36  1   
 37  20  22  1   
 38  20  37  1   
 39  20  38  1   
 40  21  22  1   
 41  21  39  1   
 42  21  40  1   
 43  22  41  1   
 44  22  42  1   
@<TRIPOS>SUBSTRUCTURE
  1 ****   2 GROUP 4 **** **** 0

# MOE 2024.06 (io_trps.svl 2023.06)
