@<TRIPOS>MOLECULE
NONAME
49 51 1 0 0 
SMALL
USER_CHARGES


@<TRIPOS>ATOM
  1 O       -2.6540     0.6460     2.0140 O.2   1 <1>  -0.5700 
  2 C       -3.3300     1.0780     1.1050 C.2   1 <1>   0.5690 
  3 N       -4.4060     0.3720     0.6300 N.am  1 <1>  -0.6600 
  4 C       -2.8430     2.3740     0.4110 C.3   1 <1>   0.4840 
  5 C       -4.4720    -1.0830     0.9410 C.3   1 <1>   0.3200 
  6 C       -5.2790     0.8020    -0.5100 C.3   1 <1>   0.1400 
  7 N       -1.5550     2.1980    -0.3710 N.4   1 <1>  -0.9590 
  8 C       -2.6540     3.5030     1.4340 C.3   1 <1>  -0.0170 
  9 C       -3.4200    -1.8090     0.1080 C.2   1 <1>   0.0070 
 10 C       -6.3520     1.8100    -0.0720 C.3   1 <1>   0.1200 
 11 C       -1.3320     3.3870    -1.2360 C.3   1 <1>   0.4860 
 12 C       -1.5110     0.9040    -1.1110 C.3   1 <1>   0.3430 
 13 C       -1.9980     4.7310     0.8220 C.ar  1 <1>  -0.1440 
 14 N       -3.3070    -1.7240    -1.1830 N.2   1 <1>  -0.5650 
 15 N       -2.4860    -2.6050     0.6770 N.pl3 1 <1>   0.0330 
 16 O       -5.7570     2.9930     0.3550 O.3   1 <1>  -0.6800 
 17 C       -1.3720     4.6690    -0.4190 C.ar  1 <1>  -0.1440 
 18 C       -0.1190     0.6700    -1.6850 C.3   1 <1>  -0.2400 
 19 C       -2.0190     5.9250     1.5250 C.ar  1 <1>  -0.1500 
 20 C       -2.2640    -2.5280    -1.4710 C.2   1 <1>   0.0770 
 21 C       -1.7450    -3.0650    -0.3460 C.2   1 <1>  -0.3020 
 22 C       -0.7730     5.8080    -0.9380 C.ar  1 <1>  -0.1500 
 23 C       -1.4200     7.0550     1.0000 C.ar  1 <1>  -0.1500 
 24 C       -0.7970     6.9970    -0.2310 C.ar  1 <1>  -0.1500 
 25 H       -3.6070     2.6830    -0.2760 H     1 <1>   0.0800 
 26 H       -5.4490    -1.4730     0.7130 H     1 <1>   0.0800 
 27 H       -4.2910    -1.2380     1.9910 H     1 <1>   0.0800 
 28 H       -5.7730    -0.0590    -0.9290 H     1 <1>   0.0800 
 29 H       -4.6850     1.2250    -1.3000 H     1 <1>   0.0800 
 30 H       -0.8100     2.1850     0.3360 H     1 <1>   0.4500 
 31 H       -2.0460     3.1570     2.2520 H     1 <1>   0.0800 
 32 H       -3.6140     3.7680     1.8380 H     1 <1>   0.0800 
 33 H       -6.9390     1.4070     0.7360 H     1 <1>   0.0800 
 34 H       -7.0020     2.0430    -0.8980 H     1 <1>   0.0800 
 35 H       -2.0910     3.4330    -1.9990 H     1 <1>   0.0800 
 36 H       -0.3720     3.3140    -1.7180 H     1 <1>   0.0800 
 37 H       -2.2480     0.8880    -1.8980 H     1 <1>   0.0800 
 38 H       -1.7330     0.0910    -0.4370 H     1 <1>   0.0800 
 39 H       -2.3660    -2.8080     1.6750 H     1 <1>   0.2700 
 40 H       -6.4450     3.6280     0.6490 H     1 <1>   0.4000 
 41 H        0.1120     1.3680    -2.4690 H     1 <1>   0.0800 
 42 H       -0.0840    -0.3170    -2.1110 H     1 <1>   0.0800 
 43 H        0.6270     0.7220    -0.9130 H     1 <1>   0.0800 
 44 H       -2.4980     5.9840     2.4880 H     1 <1>   0.1500 
 45 H       -1.9370    -2.6860    -2.4860 H     1 <1>   0.1500 
 46 H       -0.9160    -3.7400    -0.2230 H     1 <1>   0.1500 
 47 H       -0.2820     5.7880    -1.8960 H     1 <1>   0.1500 
 48 H       -1.4390     7.9800     1.5510 H     1 <1>   0.1500 
 49 H       -0.3310     7.8790    -0.6380 H     1 <1>   0.1500 
@<TRIPOS>BOND
  1   1   2  2   
  2   2   3  am  
  3   2   4  1   
  4   3   5  1   
  5   3   6  1   
  6   4   7  1   
  7   4   8  1   
  8   4  25  1   
  9   5   9  1   
 10   5  26  1   
 11   5  27  1   
 12   6  10  1   
 13   6  28  1   
 14   6  29  1   
 15   7  11  1   
 16   7  12  1   
 17   7  30  1   
 18   8  13  1   
 19   8  31  1   
 20   8  32  1   
 21   9  14  2   
 22   9  15  1   
 23  10  16  1   
 24  10  33  1   
 25  10  34  1   
 26  11  17  1   
 27  11  35  1   
 28  11  36  1   
 29  12  18  1   
 30  12  37  1   
 31  12  38  1   
 32  13  17  ar  
 33  13  19  ar  
 34  14  20  1   
 35  15  21  1   
 36  15  39  1   
 37  16  40  1   
 38  17  22  ar  
 39  18  41  1   
 40  18  42  1   
 41  18  43  1   
 42  19  23  ar  
 43  19  44  1   
 44  20  21  2   
 45  20  45  1   
 46  21  46  1   
 47  22  24  ar  
 48  22  47  1   
 49  23  24  ar  
 50  23  48  1   
 51  24  49  1   
@<TRIPOS>SUBSTRUCTURE
  1 ****   4 GROUP 4 **** **** 0

# MOE 2024.06 (io_trps.svl 2023.06)
