@<TRIPOS>MOLECULE
NONAME
44 45 1 0 0 
SMALL
USER_CHARGES


@<TRIPOS>ATOM
  1 S        0.2950     0.8630    -1.1930 S.o2  1 <1>   1.3330 
  2 O        0.1990     1.8400    -2.2540 O.2   1 <1>  -0.6500 
  3 O        0.1930    -0.5390    -1.5250 O.2   1 <1>  -0.6500 
  4 N        1.7930     1.0740    -0.4240 N.am  1 <1>  -0.8490 
  5 C       -0.9600     1.2300     0.0490 C.3   1 <1>  -0.0550 
  6 C        2.8780     1.2250    -1.3970 C.3   1 <1>   0.1160 
  7 C        2.1310    -0.0120     0.5030 C.3   1 <1>   0.1160 
  8 C       -1.0450     2.6480     0.6670 C.3   1 <1>  -0.0800 
  9 C       -1.1250     3.7930    -0.3550 C.3   1 <1>   0.2000 
 10 C        0.1240     3.0090     1.5970 C.3   1 <1>   0.1400 
 11 O       -1.9950     4.7420     0.1560 O.3   1 <1>  -0.6800 
 12 C        0.2740     4.4100    -0.3850 C.3   1 <1>   0.1400 
 13 N        0.8040     4.1680     0.9760 N.am  1 <1>  -0.6600 
 14 C        1.6550     4.9960     1.6660 C.2   1 <1>   0.5440 
 15 O        1.8650     4.7690     2.8420 O.2   1 <1>  -0.5700 
 16 C        2.2820     6.1350     1.0240 C.ar  1 <1>   0.0860 
 17 C        3.3710     6.0020     0.1490 C.ar  1 <1>  -0.1440 
 18 C        1.7900     7.4140     1.2730 C.ar  1 <1>  -0.1500 
 19 C        3.9280     7.1140    -0.4690 C.ar  1 <1>  -0.1500 
 20 C        3.9680     4.6280    -0.1290 C.3   1 <1>  -0.0970 
 21 C        2.3620     8.5020     0.6500 C.ar  1 <1>   0.1900 
 22 C        3.4230     8.3780    -0.2240 C.ar  1 <1>  -0.1500 
 23 F        1.8830     9.6920     0.8910 F     1 <1>  -0.1900 
 24 H       -1.9120     1.0330    -0.4050 H     1 <1>   0.0800 
 25 H       -0.8600     0.5250     0.8500 H     1 <1>   0.0800 
 26 H        3.8140     1.3870    -0.8900 H     1 <1>   0.0800 
 27 H        2.6890     2.0720    -2.0350 H     1 <1>   0.0800 
 28 H        2.9550     0.3430    -2.0120 H     1 <1>   0.0800 
 29 H        3.0510     0.2140     1.0160 H     1 <1>   0.0800 
 30 H        2.2480    -0.9430    -0.0300 H     1 <1>   0.0800 
 31 H        1.3560    -0.1320     1.2400 H     1 <1>   0.0800 
 32 H       -1.9430     2.6450     1.2600 H     1 <1>   0.0800 
 33 H       -1.4830     3.5000    -1.3280 H     1 <1>   0.0800 
 34 H        0.8220     2.2010     1.7170 H     1 <1>   0.0800 
 35 H       -0.2430     3.2930     2.5690 H     1 <1>   0.0800 
 36 H       -1.6070     5.1150     0.9730 H     1 <1>   0.4000 
 37 H        0.2400     5.4570    -0.6320 H     1 <1>   0.0800 
 38 H        0.8960     3.8990    -1.0970 H     1 <1>   0.0800 
 39 H        0.9680     7.5530     1.9510 H     1 <1>   0.1500 
 40 H        4.7610     7.0040    -1.1430 H     1 <1>   0.1500 
 41 H        4.8890     4.7080    -0.6760 H     1 <1>   0.0800 
 42 H        3.2770     4.0400    -0.7040 H     1 <1>   0.0800 
 43 H        4.1690     4.1170     0.7960 H     1 <1>   0.0800 
 44 H        3.8420     9.2500    -0.6940 H     1 <1>   0.1500 
@<TRIPOS>BOND
  1   1   2  2   
  2   1   3  2   
  3   1   4  am  
  4   1   5  1   
  5   4   6  1   
  6   4   7  1   
  7   5   8  1   
  8   5  24  1   
  9   5  25  1   
 10   6  26  1   
 11   6  27  1   
 12   6  28  1   
 13   7  29  1   
 14   7  30  1   
 15   7  31  1   
 16   8   9  1   
 17   8  10  1   
 18   8  32  1   
 19   9  11  1   
 20   9  12  1   
 21   9  33  1   
 22  10  13  1   
 23  10  34  1   
 24  10  35  1   
 25  11  36  1   
 26  12  13  1   
 27  12  37  1   
 28  12  38  1   
 29  13  14  am  
 30  14  15  2   
 31  14  16  1   
 32  16  17  ar  
 33  16  18  ar  
 34  17  19  ar  
 35  17  20  1   
 36  18  21  ar  
 37  18  39  1   
 38  19  22  ar  
 39  19  40  1   
 40  20  41  1   
 41  20  42  1   
 42  20  43  1   
 43  21  22  ar  
 44  21  23  1   
 45  22  44  1   
@<TRIPOS>SUBSTRUCTURE
  1 ****  13 GROUP 4 **** **** 0

# MOE 2024.06 (io_trps.svl 2023.06)
