@<TRIPOS>MOLECULE
NONAME
43 45 1 0 0 
SMALL
USER_CHARGES


@<TRIPOS>ATOM
  1 F       -2.4370    -0.6620    -1.6750 F     1 <1>  -0.3400 
  2 C       -3.5390    -0.5430    -0.9490 C.3   1 <1>   1.1640 
  3 F       -3.5770     0.7150    -0.5250 F     1 <1>  -0.3400 
  4 F       -4.5580    -0.6820    -1.7900 F     1 <1>  -0.3400 
  5 C       -3.5970    -1.5730     0.1900 C.ar  1 <1>  -0.1440 
  6 C       -3.7930    -2.9160    -0.1060 C.ar  1 <1>  -0.1500 
  7 C       -3.4550    -1.2030     1.5240 C.ar  1 <1>  -0.1500 
  8 C       -3.8750    -3.8930     0.8860 C.ar  1 <1>   0.0860 
  9 C       -3.5120    -2.1550     2.5250 C.ar  1 <1>  -0.1500 
 10 C       -4.1220    -5.2850     0.5570 C.2   1 <1>   0.5440 
 11 C       -3.7170    -3.4840     2.2070 C.ar  1 <1>  -0.1500 
 12 O       -3.3350    -6.1280     0.9460 O.2   1 <1>  -0.5700 
 13 N       -5.2260    -5.6810    -0.1750 N.am  1 <1>  -0.6600 
 14 C       -6.4270    -4.8040    -0.3280 C.3   1 <1>   0.2200 
 15 C       -5.3090    -7.0880    -0.6760 C.3   1 <1>   0.0600 
 16 C       -7.7380    -5.4470     0.1190 C.3   1 <1>  -0.1600 
 17 C       -6.6860    -4.3860    -1.7720 C.3   1 <1>  -0.1600 
 18 C       -8.8230    -4.6100    -0.5690 C.3   1 <1>  -0.0800 
 19 C       -8.1530    -3.9400    -1.7830 C.3   1 <1>  -0.0800 
 20 C       -9.3670    -3.4730     0.3080 C.3   1 <1>  -0.1600 
 21 C       -8.3300    -2.4250    -1.5960 C.3   1 <1>  -0.1600 
 22 C       -9.5040    -2.2910    -0.6390 C.3   1 <1>   0.2000 
 23 O       -9.4160    -1.1080     0.0600 O.3   1 <1>  -0.6800 
 24 H       -3.8850    -3.2330    -1.1320 H     1 <1>   0.1500 
 25 H       -3.2960    -0.1720     1.7970 H     1 <1>   0.1500 
 26 H       -3.3930    -1.8630     3.5550 H     1 <1>   0.1500 
 27 H       -3.7560    -4.2270     2.9860 H     1 <1>   0.1500 
 28 H       -6.3050    -3.9100     0.2580 H     1 <1>   0.0800 
 29 H       -5.8850    -7.1410    -1.5810 H     1 <1>   0.0800 
 30 H       -5.7650    -7.7100     0.0750 H     1 <1>   0.0800 
 31 H       -4.3220    -7.4670    -0.8800 H     1 <1>   0.0800 
 32 H       -7.8140    -6.4540    -0.2460 H     1 <1>   0.0800 
 33 H       -7.8350    -5.4520     1.1910 H     1 <1>   0.0800 
 34 H       -6.0210    -3.6060    -2.0950 H     1 <1>   0.0800 
 35 H       -6.5790    -5.2300    -2.4290 H     1 <1>   0.0800 
 36 H       -9.6380    -5.2360    -0.8940 H     1 <1>   0.0800 
 37 H       -8.6380    -4.2510    -2.6940 H     1 <1>   0.0800 
 38 H       -8.6640    -3.2340     1.0870 H     1 <1>   0.0800 
 39 H      -10.3140    -3.7330     0.7450 H     1 <1>   0.0800 
 40 H       -8.5330    -1.9350    -2.5310 H     1 <1>   0.0800 
 41 H       -7.4480    -1.9990    -1.1510 H     1 <1>   0.0800 
 42 H      -10.4430    -2.3220    -1.1670 H     1 <1>   0.0800 
 43 H       -8.5690    -1.0660     0.5390 H     1 <1>   0.4000 
@<TRIPOS>BOND
  1   1   2  1   
  2   2   3  1   
  3   2   4  1   
  4   2   5  1   
  5   5   6  ar  
  6   5   7  ar  
  7   6   8  ar  
  8   6  24  1   
  9   7   9  ar  
 10   7  25  1   
 11   8  10  1   
 12   8  11  ar  
 13   9  11  ar  
 14   9  26  1   
 15  10  12  2   
 16  10  13  am  
 17  11  27  1   
 18  13  14  1   
 19  13  15  1   
 20  14  16  1   
 21  14  17  1   
 22  14  28  1   
 23  15  29  1   
 24  15  30  1   
 25  15  31  1   
 26  16  18  1   
 27  16  32  1   
 28  16  33  1   
 29  17  19  1   
 30  17  34  1   
 31  17  35  1   
 32  18  19  1   
 33  18  20  1   
 34  18  36  1   
 35  19  21  1   
 36  19  37  1   
 37  20  22  1   
 38  20  38  1   
 39  20  39  1   
 40  21  22  1   
 41  21  40  1   
 42  21  41  1   
 43  22  23  1   
 44  22  42  1   
 45  23  43  1   
@<TRIPOS>SUBSTRUCTURE
  1 ****   6 GROUP 4 **** **** 0

# MOE 2024.06 (io_trps.svl 2023.06)
