@<TRIPOS>MOLECULE
NONAME
47 50 1 0 0 
SMALL
USER_CHARGES


@<TRIPOS>ATOM
  1 O        0.9180     4.8940     1.9870 O.2   1 <1>  -0.5700 
  2 C        0.5950     4.2730     0.9890 C.2   1 <1>   0.5440 
  3 N       -0.7120     4.3500     0.5460 N.am  1 <1>  -0.6600 
  4 C        1.6090     3.5270     0.2780 C.ar  1 <1>   0.0860 
  5 C       -1.7710     5.0570     1.3160 C.3   1 <1>   0.1400 
  6 C       -1.1980     3.7580    -0.7310 C.3   1 <1>   0.1400 
  7 C        1.6140     2.1300     0.2260 C.ar  1 <1>   0.0830 
  8 C        2.6290     4.2080    -0.3900 C.ar  1 <1>  -0.1500 
  9 C       -2.8960     4.0720     1.6380 C.3   1 <1>  -0.1600 
 10 C       -2.3230     2.7650    -0.4320 C.3   1 <1>  -0.1600 
 11 O        0.6360     1.4330     0.8590 O.3   1 <1>  -0.3620 
 12 C        2.6170     1.4520    -0.4740 C.ar  1 <1>   0.0830 
 13 C        3.6120     3.5370    -1.0940 C.ar  1 <1>  -0.1500 
 14 C       -3.4550     3.4150     0.3680 C.3   1 <1>   0.4180 
 15 C        0.5020     0.0540     0.5750 C.3   1 <1>   0.1200 
 16 O        2.6540     0.0960    -0.5150 O.3   1 <1>  -0.3630 
 17 C        3.6050     2.1540    -1.1380 C.ar  1 <1>  -0.1500 
 18 O       -4.0090     4.4020    -0.4690 O.3   1 <1>  -0.5600 
 19 C       -4.5060     2.3630     0.7150 C.2   1 <1>  -0.2880 
 20 C        1.8840    -0.5950     0.4480 C.3   1 <1>   0.1200 
 21 C       -5.3020     4.8490    -0.1700 C.3   1 <1>   0.1200 
 22 C       -5.8010     2.4650     0.4070 C.2   1 <1>  -0.2760 
 23 C       -6.3140     3.7030    -0.3060 C.3   1 <1>  -0.0220 
 24 C       -6.8460     1.4080     0.7120 C.3   1 <1>  -0.1020 
 25 H       -2.1510     5.8720     0.7250 H     1 <1>   0.0800 
 26 H       -1.3750     5.4620     2.2310 H     1 <1>   0.0800 
 27 H       -0.4040     3.2580    -1.2570 H     1 <1>   0.0800 
 28 H       -1.5690     4.5470    -1.3630 H     1 <1>   0.0800 
 29 H        2.6400     5.2840    -0.3460 H     1 <1>   0.1500 
 30 H       -3.6780     4.5680     2.1790 H     1 <1>   0.0800 
 31 H       -2.4990     3.3090     2.2830 H     1 <1>   0.0800 
 32 H       -1.9180     1.9430     0.1260 H     1 <1>   0.0800 
 33 H       -2.7200     2.3740    -1.3510 H     1 <1>   0.0800 
 34 H        4.3840     4.0880    -1.6040 H     1 <1>   0.1500 
 35 H       -0.0450    -0.0470    -0.3450 H     1 <1>   0.0800 
 36 H       -0.0610    -0.3950     1.3730 H     1 <1>   0.0800 
 37 H        4.3650     1.6180    -1.6780 H     1 <1>   0.1500 
 38 H       -4.0900     1.5170     1.2330 H     1 <1>   0.1500 
 39 H        1.8000    -1.6190     0.1350 H     1 <1>   0.0800 
 40 H        2.4060    -0.5520     1.3880 H     1 <1>   0.0800 
 41 H       -5.5420     5.6430    -0.8550 H     1 <1>   0.0800 
 42 H       -5.3080     5.2410     0.8310 H     1 <1>   0.0800 
 43 H       -6.4770     3.4840    -1.3460 H     1 <1>   0.0800 
 44 H       -7.2480     4.0200     0.1220 H     1 <1>   0.0800 
 45 H       -7.3050     1.0670    -0.1990 H     1 <1>   0.0800 
 46 H       -7.6070     1.8110     1.3570 H     1 <1>   0.0800 
 47 H       -6.3960     0.5640     1.2030 H     1 <1>   0.0800 
@<TRIPOS>BOND
  1   1   2  2   
  2   2   3  am  
  3   2   4  1   
  4   3   5  1   
  5   3   6  1   
  6   4   7  ar  
  7   4   8  ar  
  8   5   9  1   
  9   5  25  1   
 10   5  26  1   
 11   6  10  1   
 12   6  27  1   
 13   6  28  1   
 14   7  11  1   
 15   7  12  ar  
 16   8  13  ar  
 17   8  29  1   
 18   9  14  1   
 19   9  30  1   
 20   9  31  1   
 21  10  14  1   
 22  10  32  1   
 23  10  33  1   
 24  11  15  1   
 25  12  16  1   
 26  12  17  ar  
 27  13  17  ar  
 28  13  34  1   
 29  14  18  1   
 30  14  19  1   
 31  15  20  1   
 32  15  35  1   
 33  15  36  1   
 34  16  20  1   
 35  17  37  1   
 36  18  21  1   
 37  19  22  2   
 38  19  38  1   
 39  20  39  1   
 40  20  40  1   
 41  21  23  1   
 42  21  41  1   
 43  21  42  1   
 44  22  23  1   
 45  22  24  1   
 46  23  43  1   
 47  23  44  1   
 48  24  45  1   
 49  24  46  1   
 50  24  47  1   
@<TRIPOS>SUBSTRUCTURE
  1 ****   6 GROUP 4 **** **** 0

# MOE 2024.06 (io_trps.svl 2023.06)
