@<TRIPOS>MOLECULE
NONAME
45 46 1 0 0 
SMALL
USER_CHARGES


@<TRIPOS>ATOM
  1 O       -1.8640     0.9220     1.8060 O.2   1 <1>  -0.5700 
  2 C       -2.6550     1.1960     0.9300 C.2   1 <1>   0.5690 
  3 N       -3.7870     0.4440     0.7530 N.am  1 <1>  -0.6600 
  4 C       -2.3120     2.3750    -0.0280 C.3   1 <1>   0.4840 
  5 C       -3.6960    -1.0130     1.0570 C.3   1 <1>   0.3200 
  6 C       -4.9770     0.8380    -0.0640 C.3   1 <1>   0.1400 
  7 N       -0.9280     2.3330    -0.6380 N.4   1 <1>  -0.9590 
  8 C       -2.5370     3.7360     0.6360 C.3   1 <1>  -0.2400 
  9 C       -2.9600    -1.7510    -0.0650 C.2   1 <1>   0.0060 
 10 C       -6.1940     1.0630     0.8350 C.3   1 <1>   0.1200 
 11 C       -0.7720     1.0640    -1.4100 C.3   1 <1>   0.3430 
 12 C        0.1710     2.4580     0.3710 C.3   1 <1>   0.3430 
 13 N       -2.7060    -1.2780    -1.2510 N.2   1 <1>  -0.5650 
 14 N       -2.5040    -3.0130     0.1110 N.pl3 1 <1>   0.0330 
 15 O       -7.1900     1.6470     0.0710 O.3   1 <1>  -0.6800 
 16 C        0.5500     1.0860    -2.1790 C.3   1 <1>  -0.1600 
 17 C        1.5210     2.5240    -0.3480 C.3   1 <1>  -0.1600 
 18 C       -2.0710    -2.2880    -1.8760 C.2   1 <1>   0.0770 
 19 C       -1.9340    -3.3520    -1.0580 C.2   1 <1>  -0.3020 
 20 C        1.7450     1.2960    -1.2410 C.3   1 <1>  -0.1600 
 21 H       -3.0050     2.3080    -0.8460 H     1 <1>   0.0800 
 22 H       -4.6830    -1.4260     1.1680 H     1 <1>   0.0800 
 23 H       -3.1720    -1.1560     1.9860 H     1 <1>   0.0800 
 24 H       -5.1960     0.0640    -0.7820 H     1 <1>   0.0800 
 25 H       -4.7900     1.7470    -0.6020 H     1 <1>   0.0800 
 26 H       -0.8400     3.1130    -1.2950 H     1 <1>   0.4500 
 27 H       -1.9550     3.8300     1.5360 H     1 <1>   0.0800 
 28 H       -3.5730     3.8260     0.9120 H     1 <1>   0.0800 
 29 H       -2.3010     4.5380    -0.0390 H     1 <1>   0.0800 
 30 H       -5.9560     1.7340     1.6420 H     1 <1>   0.0800 
 31 H       -6.5660     0.1300     1.2230 H     1 <1>   0.0800 
 32 H       -1.5910     0.9400    -2.1000 H     1 <1>   0.0800 
 33 H       -0.7780     0.2230    -0.7330 H     1 <1>   0.0800 
 34 H        0.1620     1.6060     1.0320 H     1 <1>   0.0800 
 35 H        0.0390     3.3470     0.9640 H     1 <1>   0.0800 
 36 H       -2.5790    -3.5960     0.9510 H     1 <1>   0.2700 
 37 H       -8.0100     1.7680     0.5920 H     1 <1>   0.4000 
 38 H        0.5200     1.8630    -2.9220 H     1 <1>   0.0800 
 39 H        0.6650     0.1490    -2.6970 H     1 <1>   0.0800 
 40 H        2.3060     2.5760     0.3860 H     1 <1>   0.0800 
 41 H        1.5700     3.4230    -0.9370 H     1 <1>   0.0800 
 42 H       -1.7420    -2.2040    -2.9000 H     1 <1>   0.1500 
 43 H       -1.4790    -4.3090    -1.2420 H     1 <1>   0.1500 
 44 H        2.6480     1.4170    -1.8150 H     1 <1>   0.0800 
 45 H        1.8660     0.4230    -0.6200 H     1 <1>   0.0800 
@<TRIPOS>BOND
  1   1   2  2   
  2   2   3  am  
  3   2   4  1   
  4   3   5  1   
  5   3   6  1   
  6   4   7  1   
  7   4   8  1   
  8   4  21  1   
  9   5   9  1   
 10   5  22  1   
 11   5  23  1   
 12   6  10  1   
 13   6  24  1   
 14   6  25  1   
 15   7  11  1   
 16   7  12  1   
 17   7  26  1   
 18   8  27  1   
 19   8  28  1   
 20   8  29  1   
 21   9  13  2   
 22   9  14  1   
 23  10  15  1   
 24  10  30  1   
 25  10  31  1   
 26  11  16  1   
 27  11  32  1   
 28  11  33  1   
 29  12  17  1   
 30  12  34  1   
 31  12  35  1   
 32  13  18  1   
 33  14  19  1   
 34  14  36  1   
 35  15  37  1   
 36  16  20  1   
 37  16  38  1   
 38  16  39  1   
 39  17  20  1   
 40  17  40  1   
 41  17  41  1   
 42  18  19  2   
 43  18  42  1   
 44  19  43  1   
 45  20  44  1   
 46  20  45  1   
@<TRIPOS>SUBSTRUCTURE
  1 ****   2 GROUP 4 **** **** 0

# MOE 2024.06 (io_trps.svl 2023.06)
