@<TRIPOS>MOLECULE
NONAME
57 59 1 0 0 
SMALL
USER_CHARGES


@<TRIPOS>ATOM
  1 O        0.3160    -0.7450    -1.9230 O.2   1 <1>  -0.5700 
  2 C        1.1460    -1.2040    -1.1590 C.2   1 <1>   0.6900 
  3 N        2.3430    -0.5710    -0.9380 N.am  1 <1>  -0.6600 
  4 N        0.8720    -2.3520    -0.5030 N.am  1 <1>  -0.7300 
  5 C        2.6200     0.7790    -1.5000 C.3   1 <1>   0.0600 
  6 C        3.4690    -1.1770    -0.1760 C.3   1 <1>   0.0600 
  7 C       -0.4670    -2.9990    -0.4760 C.3   1 <1>   0.2010 
  8 C       -0.6770    -3.9050     0.7450 C.2   1 <1>   0.5690 
  9 O        0.2420    -4.0260     1.5280 O.2   1 <1>  -0.5700 
 10 N       -1.8710    -4.5610     0.9300 N.am  1 <1>  -0.6600 
 11 C       -3.0520    -4.4690     0.0260 C.3   1 <1>   0.1400 
 12 C       -2.0880    -5.4740     2.0880 C.3   1 <1>   0.1400 
 13 C       -3.3640    -5.8610    -0.5270 C.3   1 <1>  -0.1600 
 14 C       -2.4010    -6.8790     1.5670 C.3   1 <1>  -0.1600 
 15 C       -3.5960    -6.8820     0.6010 C.3   1 <1>   0.4240 
 16 O       -4.6920    -6.4390     1.3680 O.3   1 <1>  -0.5600 
 17 C       -3.8280    -8.2980     0.0320 C.ar  1 <1>  -0.1430 
 18 C       -5.9700    -6.7700     0.9200 C.3   1 <1>   0.1200 
 19 C       -5.0320    -8.9630     0.2180 C.ar  1 <1>  -0.1430 
 20 C       -2.8280    -8.9380    -0.6890 C.ar  1 <1>  -0.1500 
 21 C       -6.1430    -8.2840     0.9940 C.3   1 <1>  -0.0170 
 22 C       -5.2250   -10.2330    -0.3010 C.ar  1 <1>  -0.1500 
 23 C       -3.0010   -10.2090    -1.2110 C.ar  1 <1>   0.0830 
 24 C       -4.2240   -10.8720    -1.0270 C.ar  1 <1>   0.0830 
 25 O       -1.9200   -10.7000    -1.8820 O.3   1 <1>  -0.3630 
 26 O       -4.4200   -12.1100    -1.5710 O.3   1 <1>  -0.3620 
 27 C       -1.6310   -12.0810    -1.8930 C.3   1 <1>   0.0400 
 28 C       -5.6790   -12.7460    -1.5590 C.3   1 <1>   0.0400 
 29 H        1.4530    -2.6010     0.2990 H     1 <1>   0.3700 
 30 H        1.7220     1.2190    -1.9000 H     1 <1>   0.0800 
 31 H        3.3460     0.6990    -2.2900 H     1 <1>   0.0800 
 32 H        3.0000     1.4240    -0.7280 H     1 <1>   0.0800 
 33 H        3.4310    -2.2510    -0.2300 H     1 <1>   0.0800 
 34 H        3.4130    -0.8700     0.8540 H     1 <1>   0.0800 
 35 H        4.4090    -0.8540    -0.5890 H     1 <1>   0.0800 
 36 H       -0.5800    -3.5860    -1.3690 H     1 <1>   0.0800 
 37 H       -1.2210    -2.2330    -0.4720 H     1 <1>   0.0800 
 38 H       -2.8760    -3.7900    -0.7890 H     1 <1>   0.0800 
 39 H       -3.8940    -4.1010     0.5870 H     1 <1>   0.0800 
 40 H       -2.9090    -5.1070     2.6790 H     1 <1>   0.0800 
 41 H       -1.2160    -5.5100     2.7180 H     1 <1>   0.0800 
 42 H       -2.5340    -6.1770    -1.1320 H     1 <1>   0.0800 
 43 H       -4.2230    -5.8200    -1.1680 H     1 <1>   0.0800 
 44 H       -2.6140    -7.5340     2.3910 H     1 <1>   0.0800 
 45 H       -1.5240    -7.2540     1.0760 H     1 <1>   0.0800 
 46 H       -6.0980    -6.4140    -0.0870 H     1 <1>   0.0800 
 47 H       -6.6810    -6.2780     1.5610 H     1 <1>   0.0800 
 48 H       -1.8830    -8.4570    -0.8590 H     1 <1>   0.1500 
 49 H       -7.1010    -8.5500     0.5860 H     1 <1>   0.0800 
 50 H       -6.1130    -8.5980     2.0220 H     1 <1>   0.0800 
 51 H       -6.1700   -10.7100    -0.1290 H     1 <1>   0.1500 
 52 H       -0.5940   -12.2040    -2.1450 H     1 <1>   0.0800 
 53 H       -2.2450   -12.5570    -2.6360 H     1 <1>   0.0800 
 54 H       -1.8260   -12.4890    -0.9170 H     1 <1>   0.0800 
 55 H       -5.5920   -13.6680    -2.1060 H     1 <1>   0.0800 
 56 H       -6.3980   -12.1050    -2.0380 H     1 <1>   0.0800 
 57 H       -5.9580   -12.9510    -0.5410 H     1 <1>   0.0800 
@<TRIPOS>BOND
  1   1   2  2   
  2   2   3  am  
  3   2   4  am  
  4   3   5  1   
  5   3   6  1   
  6   4   7  1   
  7   4  29  1   
  8   5  30  1   
  9   5  31  1   
 10   5  32  1   
 11   6  33  1   
 12   6  34  1   
 13   6  35  1   
 14   7   8  1   
 15   7  36  1   
 16   7  37  1   
 17   8   9  2   
 18   8  10  am  
 19  10  11  1   
 20  10  12  1   
 21  11  13  1   
 22  11  38  1   
 23  11  39  1   
 24  12  14  1   
 25  12  40  1   
 26  12  41  1   
 27  13  15  1   
 28  13  42  1   
 29  13  43  1   
 30  14  15  1   
 31  14  44  1   
 32  14  45  1   
 33  15  16  1   
 34  15  17  1   
 35  16  18  1   
 36  17  19  ar  
 37  17  20  ar  
 38  18  21  1   
 39  18  46  1   
 40  18  47  1   
 41  19  21  1   
 42  19  22  ar  
 43  20  23  ar  
 44  20  48  1   
 45  21  49  1   
 46  21  50  1   
 47  22  24  ar  
 48  22  51  1   
 49  23  24  ar  
 50  23  25  1   
 51  24  26  1   
 52  25  27  1   
 53  26  28  1   
 54  27  52  1   
 55  27  53  1   
 56  27  54  1   
 57  28  55  1   
 58  28  56  1   
 59  28  57  1   
@<TRIPOS>SUBSTRUCTURE
  1 ****  13 GROUP 4 **** **** 0

# MOE 2024.06 (io_trps.svl 2023.06)
