@<TRIPOS>MOLECULE
NONAME
43 45 1 0 0 
SMALL
USER_CHARGES


@<TRIPOS>ATOM
  1 O        1.5850    -0.5600    -2.3060 O.2   1 <1>  -0.5700 
  2 C        2.0950    -0.7980    -1.2290 C.2   1 <1>   0.5440 
  3 N        2.8560     0.1960    -0.6330 N.am  1 <1>  -0.6600 
  4 C        1.9260    -2.1180    -0.6280 C.ar  1 <1>   0.3960 
  5 C        3.2740     0.1400     0.8230 C.3   1 <1>   0.2200 
  6 C        3.3350     1.3640    -1.4430 C.3   1 <1>   0.1400 
  7 N        2.9900    -2.7620    -0.1480 N.ar  1 <1>  -0.6200 
  8 C        0.6680    -2.6870    -0.5470 C.ar  1 <1>  -0.1500 
  9 C        3.0520     1.4630     1.5950 C.3   1 <1>   0.1200 
 10 C        4.7290    -0.3720     0.9700 C.3   1 <1>   0.3430 
 11 C        4.7200     1.8810    -0.9910 C.3   1 <1>  -0.0800 
 12 C        2.7330    -3.9200     0.4230 C.ar  1 <1>   0.7200 
 13 C        0.5390    -3.9030     0.0740 C.ar  1 <1>   0.1660 
 14 O        3.4370     2.6260     0.9200 O.3   1 <1>  -0.5600 
 15 N        5.4210    -0.4960    -0.3580 N.4   1 <1>  -0.9590 
 16 C        4.6950     2.6720     0.3350 C.3   1 <1>   0.1200 
 17 C        5.8190     0.8020    -0.9910 C.3   1 <1>   0.3430 
 18 N        1.5740    -4.5240     0.5760 N.ar  1 <1>  -0.6200 
 19 N        3.7820    -4.5830     0.9070 N.pl3 1 <1>  -0.9000 
 20 C       -0.8080    -4.5820     0.2080 C.3   1 <1>  -0.0970 
 21 C        6.5390    -1.4790    -0.3140 C.3   1 <1>   0.2630 
 22 H        2.6550    -0.5780     1.3310 H     1 <1>   0.0800 
 23 H        3.3930     1.0770    -2.4800 H     1 <1>   0.0800 
 24 H        2.6050     2.1560    -1.3770 H     1 <1>   0.0800 
 25 H       -0.1800    -2.1740    -0.9620 H     1 <1>   0.1500 
 26 H        3.5650     1.4430     2.5410 H     1 <1>   0.0800 
 27 H        2.0010     1.5690     1.8020 H     1 <1>   0.0800 
 28 H        4.6820    -1.3450     1.4330 H     1 <1>   0.0800 
 29 H        5.2870     0.2720     1.6280 H     1 <1>   0.0800 
 30 H        5.0250     2.5970    -1.7320 H     1 <1>   0.0800 
 31 H        4.6700    -0.8800    -0.9630 H     1 <1>   0.4500 
 32 H        4.8960     3.7120     0.1330 H     1 <1>   0.0800 
 33 H        5.4260     2.3300     1.0470 H     1 <1>   0.0800 
 34 H        6.6910     1.1940    -0.4940 H     1 <1>   0.0800 
 35 H        6.0940     0.6060    -2.0160 H     1 <1>   0.0800 
 36 H        4.5610    -4.6800     0.2640 H     1 <1>   0.4000 
 37 H        3.5050    -5.4790     1.3110 H     1 <1>   0.4000 
 38 H       -1.5870    -3.9920    -0.2380 H     1 <1>   0.0800 
 39 H       -1.0360    -4.7300     1.2490 H     1 <1>   0.0800 
 40 H       -0.7790    -5.5410    -0.2770 H     1 <1>   0.0800 
 41 H        7.3270    -1.1240     0.3310 H     1 <1>   0.0800 
 42 H        6.9410    -1.6330    -1.3020 H     1 <1>   0.0800 
 43 H        6.1840    -2.4260     0.0620 H     1 <1>   0.0800 
@<TRIPOS>BOND
  1   1   2  2   
  2   2   3  am  
  3   2   4  1   
  4   3   5  1   
  5   3   6  1   
  6   4   7  ar  
  7   4   8  ar  
  8   5   9  1   
  9   5  10  1   
 10   5  22  1   
 11   6  11  1   
 12   6  23  1   
 13   6  24  1   
 14   7  12  ar  
 15   8  13  ar  
 16   8  25  1   
 17   9  14  1   
 18   9  26  1   
 19   9  27  1   
 20  10  15  1   
 21  10  28  1   
 22  10  29  1   
 23  11  16  1   
 24  11  17  1   
 25  11  30  1   
 26  12  18  ar  
 27  12  19  1   
 28  13  18  ar  
 29  13  20  1   
 30  14  16  1   
 31  15  17  1   
 32  15  21  1   
 33  15  31  1   
 34  16  32  1   
 35  16  33  1   
 36  17  34  1   
 37  17  35  1   
 38  19  36  1   
 39  19  37  1   
 40  20  38  1   
 41  20  39  1   
 42  20  40  1   
 43  21  41  1   
 44  21  42  1   
 45  21  43  1   
@<TRIPOS>SUBSTRUCTURE
  1 ****   3 GROUP 4 **** **** 0

# MOE 2024.06 (io_trps.svl 2023.06)
