@<TRIPOS>MOLECULE
NONAME
56 58 1 0 0 
SMALL
USER_CHARGES


@<TRIPOS>ATOM
  1 O       -1.0620    -3.7960     0.5190 O.co2 1 <1>  -0.9000 
  2 C       -0.6060    -3.9650     1.6610 C.2   1 <1>   1.0330 
  3 O       -1.3910    -4.4100     2.5200 O.co2 1 <1>  -0.9000 
  4 C        0.8020    -3.9220     1.8960 C.2   1 <1>  -0.2330 
  5 C        1.4540    -4.8090     2.7490 C.2   1 <1>   0.3720 
  6 C        1.8210    -3.2210     1.3310 C.2   1 <1>   0.0870 
  7 N        2.7280    -4.6920     2.6750 N.2   1 <1>  -0.4100 
  8 N        0.7950    -5.7340     3.5460 N.pl3 1 <1>  -0.8520 
  9 O        2.9340    -3.7170     1.8260 O.3   1 <1>  -0.0190 
 10 C        1.8800    -2.1530     0.3600 C.ar  1 <1>   0.0530 
 11 C        0.9900    -7.1660     3.2450 C.3   1 <1>   0.2090 
 12 C        3.0490    -1.9060    -0.3630 C.ar  1 <1>  -0.1500 
 13 C        0.7890    -1.3230     0.1010 C.ar  1 <1>  -0.1500 
 14 C       -0.1490    -7.6780     2.3530 C.3   1 <1>  -0.1600 
 15 C        3.1210    -0.8910    -1.2980 C.ar  1 <1>  -0.1500 
 16 C        0.8500    -0.3060    -0.8340 C.ar  1 <1>  -0.1500 
 17 C       -0.0960    -7.0760     0.9340 C.3   1 <1>   0.4230 
 18 C        2.0250    -0.0830    -1.5460 C.ar  1 <1>   0.0830 
 19 N       -1.4000    -7.1510     0.2130 N.4   1 <1>  -0.9590 
 20 C        0.9770    -7.7870     0.1020 C.3   1 <1>  -0.2400 
 21 O        2.1710     0.8870    -2.4800 O.3   1 <1>  -0.3630 
 22 C       -1.3430    -6.4350    -1.1130 C.3   1 <1>   0.3430 
 23 C       -2.5710    -6.5410     0.9420 C.3   1 <1>   0.3430 
 24 C        1.1080     1.7510    -2.8120 C.3   1 <1>   0.0400 
 25 C       -2.7160    -6.3990    -1.8290 C.3   1 <1>   0.1100 
 26 C       -3.8990    -6.8790     0.2260 C.3   1 <1>   0.1100 
 27 N       -3.6990    -7.3020    -1.1850 N.3   1 <1>  -0.8100 
 28 C       -4.9710    -7.3190    -1.9150 C.3   1 <1>   0.0300 
 29 H       -0.2130    -5.4680     3.5490 H     1 <1>   0.4000 
 30 H        0.9840    -7.7050     4.1780 H     1 <1>   0.0800 
 31 H        1.9540    -7.3180     2.7900 H     1 <1>   0.0800 
 32 H        3.9160    -2.5190    -0.1910 H     1 <1>   0.1500 
 33 H       -0.1300    -1.4750     0.6390 H     1 <1>   0.1500 
 34 H       -1.0590    -7.4350     2.8640 H     1 <1>   0.0800 
 35 H       -0.0860    -8.7480     2.2900 H     1 <1>   0.0800 
 36 H        4.0300    -0.7180    -1.8460 H     1 <1>   0.1500 
 37 H       -0.0240     0.2950    -0.9940 H     1 <1>   0.1500 
 38 H        0.1790    -6.0430     1.0140 H     1 <1>   0.0800 
 39 H       -1.6750    -8.1160     0.0050 H     1 <1>   0.4500 
 40 H        0.6930    -8.8030    -0.1050 H     1 <1>   0.0800 
 41 H        1.9110    -7.8000     0.6340 H     1 <1>   0.0800 
 42 H        1.1630    -7.2670    -0.8180 H     1 <1>   0.0800 
 43 H       -0.6390    -6.9260    -1.7610 H     1 <1>   0.0800 
 44 H       -1.0000    -5.4230    -0.9710 H     1 <1>   0.0800 
 45 H       -2.4700    -5.4700     0.9490 H     1 <1>   0.0800 
 46 H       -2.6290    -6.8640     1.9640 H     1 <1>   0.0800 
 47 H        1.4530     2.4280    -3.5730 H     1 <1>   0.0800 
 48 H        0.8190     2.3020    -1.9350 H     1 <1>   0.0800 
 49 H        0.2870     1.1660    -3.1880 H     1 <1>   0.0800 
 50 H       -2.5810    -6.6790    -2.8590 H     1 <1>   0.0800 
 51 H       -3.0850    -5.3860    -1.8110 H     1 <1>   0.0800 
 52 H       -4.5320    -6.0080     0.2700 H     1 <1>   0.0800 
 53 H       -4.3950    -7.6700     0.7600 H     1 <1>   0.0800 
 54 H       -4.8110    -7.6650    -2.9220 H     1 <1>   0.0800 
 55 H       -5.4040    -6.3330    -1.9480 H     1 <1>   0.0800 
 56 H       -5.6610    -7.9900    -1.4330 H     1 <1>   0.0800 
@<TRIPOS>BOND
  1   1   2  ar  
  2   2   3  ar  
  3   2   4  1   
  4   4   5  1   
  5   4   6  2   
  6   5   7  2   
  7   5   8  1   
  8   6   9  1   
  9   6  10  1   
 10   7   9  1   
 11   8  11  1   
 12   8  29  1   
 13  10  12  ar  
 14  10  13  ar  
 15  11  14  1   
 16  11  30  1   
 17  11  31  1   
 18  12  15  ar  
 19  12  32  1   
 20  13  16  ar  
 21  13  33  1   
 22  14  17  1   
 23  14  34  1   
 24  14  35  1   
 25  15  18  ar  
 26  15  36  1   
 27  16  18  ar  
 28  16  37  1   
 29  17  19  1   
 30  17  20  1   
 31  17  38  1   
 32  18  21  1   
 33  19  22  1   
 34  19  23  1   
 35  19  39  1   
 36  20  40  1   
 37  20  41  1   
 38  20  42  1   
 39  21  24  1   
 40  22  25  1   
 41  22  43  1   
 42  22  44  1   
 43  23  26  1   
 44  23  45  1   
 45  23  46  1   
 46  24  47  1   
 47  24  48  1   
 48  24  49  1   
 49  25  27  1   
 50  25  50  1   
 51  25  51  1   
 52  26  27  1   
 53  26  52  1   
 54  26  53  1   
 55  27  28  1   
 56  28  54  1   
 57  28  55  1   
 58  28  56  1   
@<TRIPOS>SUBSTRUCTURE
  1 ****   1 GROUP 4 **** **** 0

# MOE 2024.06 (io_trps.svl 2023.06)
