@<TRIPOS>MOLECULE
NONAME
39 41 1 0 0 
SMALL
USER_CHARGES


@<TRIPOS>ATOM
  1 S        0.3130    -0.3650     0.0210 S.3   1 <1>  -0.0800 
  2 C       -1.2500    -0.8920    -0.5100 C.2   1 <1>   0.4420 
  3 C       -0.0980     1.2190    -0.5480 C.2   1 <1>   0.1980 
  4 N       -1.9280     0.0620    -1.0340 N.2   1 <1>  -0.3380 
  5 N       -1.5530    -2.2230    -0.3090 N.am  1 <1>  -0.4940 
  6 N       -1.2660     1.2590    -1.0550 N.2   1 <1>  -0.3380 
  7 C        0.9620     2.3120    -0.3710 C.3   1 <1>   0.3800 
  8 C       -2.7020    -2.9010    -0.5970 C.2   1 <1>   0.5690 
  9 O        0.4160     3.6000    -0.3540 O.3   1 <1>  -0.5600 
 10 C        1.9750     2.2900    -1.5140 C.3   1 <1>  -0.2400 
 11 O       -3.6760    -2.3880    -1.0820 O.2   1 <1>  -0.5700 
 12 C       -2.7210    -4.3820    -0.2710 C.3   1 <1>  -0.0990 
 13 C       -0.4030     3.8950     0.7360 C.3   1 <1>   0.0400 
 14 C       -4.0230    -5.0860    -0.6920 C.3   1 <1>   0.0200 
 15 C       -3.9990    -6.5670    -0.3590 C.2   1 <1>   0.1980 
 16 S       -5.4390    -7.4850    -0.7870 S.3   1 <1>  -0.0800 
 17 N       -3.0770    -7.2490     0.1920 N.2   1 <1>  -0.5650 
 18 C       -4.6900    -8.9310    -0.1450 C.ar  1 <1>   0.0400 
 19 C       -3.4360    -8.5890     0.3270 C.ar  1 <1>   0.2270 
 20 C       -5.2020   -10.2140    -0.0890 C.ar  1 <1>  -0.1500 
 21 C       -2.6510    -9.5870     0.8870 C.ar  1 <1>  -0.1500 
 22 C       -4.4050   -11.1970     0.4730 C.ar  1 <1>  -0.1500 
 23 C       -3.1370   -10.8840     0.9580 C.ar  1 <1>  -0.1500 
 24 H       -0.8100    -2.7720     0.1130 H     1 <1>   0.3700 
 25 H        1.4780     2.1650     0.5620 H     1 <1>   0.0800 
 26 H        1.4690     2.4520    -2.4500 H     1 <1>   0.0800 
 27 H        2.4720     1.3380    -1.5520 H     1 <1>   0.0800 
 28 H        2.7110     3.0590    -1.3680 H     1 <1>   0.0800 
 29 H       -2.5890    -4.5020     0.7890 H     1 <1>   0.0800 
 30 H       -1.8950    -4.8550    -0.7700 H     1 <1>   0.0800 
 31 H       -0.6940     4.9280     0.6620 H     1 <1>   0.0800 
 32 H        0.1410     3.7370     1.6500 H     1 <1>   0.0800 
 33 H       -1.2840     3.2770     0.7050 H     1 <1>   0.0800 
 34 H       -4.1690    -4.9720    -1.7520 H     1 <1>   0.0800 
 35 H       -4.8580    -4.6320    -0.1890 H     1 <1>   0.0800 
 36 H       -6.1840   -10.4300    -0.4700 H     1 <1>   0.1500 
 37 H       -1.6750    -9.3360     1.2580 H     1 <1>   0.1500 
 38 H       -4.7650   -12.2100     0.5360 H     1 <1>   0.1500 
 39 H       -2.5290   -11.6590     1.3920 H     1 <1>   0.1500 
@<TRIPOS>BOND
  1   1   2  1   
  2   1   3  1   
  3   2   4  2   
  4   2   5  1   
  5   3   6  2   
  6   3   7  1   
  7   4   6  1   
  8   5   8  am  
  9   5  24  1   
 10   7   9  1   
 11   7  10  1   
 12   7  25  1   
 13   8  11  2   
 14   8  12  1   
 15   9  13  1   
 16  10  26  1   
 17  10  27  1   
 18  10  28  1   
 19  12  14  1   
 20  12  29  1   
 21  12  30  1   
 22  13  31  1   
 23  13  32  1   
 24  13  33  1   
 25  14  15  1   
 26  14  34  1   
 27  14  35  1   
 28  15  16  1   
 29  15  17  2   
 30  16  18  1   
 31  17  19  1   
 32  18  19  ar  
 33  18  20  ar  
 34  19  21  ar  
 35  20  22  ar  
 36  20  36  1   
 37  21  23  ar  
 38  21  37  1   
 39  22  23  ar  
 40  22  38  1   
 41  23  39  1   
@<TRIPOS>SUBSTRUCTURE
  1 ****  12 GROUP 4 **** **** 0

# MOE 2024.06 (io_trps.svl 2023.06)
