@<TRIPOS>MOLECULE
NONAME
52 55 1 0 0 
SMALL
USER_CHARGES


@<TRIPOS>ATOM
  1 O       -0.0670     0.8410     0.8240 O.2   1 <1>  -0.5700 
  2 C       -0.0470     2.0450     0.8580 C.2   1 <1>   0.5690 
  3 N       -1.1880     2.7490     1.0200 N.am  1 <1>  -0.7300 
  4 C        1.2760     2.7960     0.6790 C.3   1 <1>   0.1810 
  5 C       -1.2370     4.2300     1.0820 C.3   1 <1>   0.3640 
  6 O        1.2130     4.1480     1.0860 O.3   1 <1>  -0.5600 
  7 C       -2.4080     4.7250     0.2360 C.ar  1 <1>  -0.1440 
  8 C        0.0890     4.8650     0.5950 C.3   1 <1>   0.2610 
  9 C       -3.2090     5.7540     0.7120 C.ar  1 <1>  -0.1500 
 10 C       -2.6850     4.1800    -1.0120 C.ar  1 <1>  -0.1500 
 11 C        0.1680     6.3500     0.9900 C.2   1 <1>   0.5690 
 12 C       -4.2670     6.2280    -0.0420 C.ar  1 <1>  -0.1500 
 13 C       -3.7450     4.6530    -1.7670 C.ar  1 <1>  -0.1500 
 14 O       -0.3650     6.7030     2.0210 O.2   1 <1>  -0.5700 
 15 N        0.8290     7.2660     0.2030 N.am  1 <1>  -0.6600 
 16 C       -4.5370     5.6780    -1.2820 C.ar  1 <1>  -0.1500 
 17 C        0.9000     8.7050     0.6100 C.3   1 <1>   0.1400 
 18 C        1.6890     6.9330    -0.9690 C.3   1 <1>   0.1400 
 19 C        2.1800     9.0190     1.4020 C.3   1 <1>   0.1400 
 20 C        3.0750     6.4330    -0.5350 C.3   1 <1>  -0.1600 
 21 N        3.4170     8.5790     0.6810 N.am  1 <1>  -0.6600 
 22 C        3.6520     7.1110     0.7140 C.3   1 <1>   0.1400 
 23 C        4.2750     9.4110     0.0090 C.2   1 <1>   0.6300 
 24 O        5.2480     8.9870    -0.5700 O.2   1 <1>  -0.5700 
 25 C        4.0140    10.9140    -0.0310 C.3   1 <1>  -0.1000 
 26 C        2.9030    11.4880    -0.8660 C.3   1 <1>  -0.2000 
 27 C        4.3270    11.7300    -1.2530 C.3   1 <1>  -0.2000 
 28 H       -2.0690     2.2490     1.1460 H     1 <1>   0.3700 
 29 H        1.5640     2.7680    -0.3560 H     1 <1>   0.0800 
 30 H        2.0390     2.3150     1.2630 H     1 <1>   0.0800 
 31 H       -1.4030     4.5050     2.1100 H     1 <1>   0.0800 
 32 H        0.1080     4.7970    -0.4750 H     1 <1>   0.0800 
 33 H       -3.0100     6.1970     1.6740 H     1 <1>   0.1500 
 34 H       -2.0820     3.3800    -1.4070 H     1 <1>   0.1500 
 35 H       -4.8810     7.0270     0.3370 H     1 <1>   0.1500 
 36 H       -3.9540     4.2230    -2.7310 H     1 <1>   0.1500 
 37 H       -5.3610     6.0470    -1.8680 H     1 <1>   0.1500 
 38 H        0.8560     9.3290    -0.2640 H     1 <1>   0.0800 
 39 H        0.0470     8.9540     1.2170 H     1 <1>   0.0800 
 40 H        1.2120     6.2030    -1.5970 H     1 <1>   0.0800 
 41 H        1.8210     7.8200    -1.5660 H     1 <1>   0.0800 
 42 H        2.1280     8.5190     2.3540 H     1 <1>   0.0800 
 43 H        2.2160    10.0740     1.6040 H     1 <1>   0.0800 
 44 H        3.0350     5.3750    -0.3580 H     1 <1>   0.0800 
 45 H        3.7600     6.5820    -1.3510 H     1 <1>   0.0800 
 46 H        4.7090     6.9130     0.7760 H     1 <1>   0.0800 
 47 H        3.1910     6.6930     1.5930 H     1 <1>   0.0800 
 48 H        4.2340    11.3730     0.9150 H     1 <1>   0.1000 
 49 H        2.3210    10.8330    -1.4920 H     1 <1>   0.1000 
 50 H        2.3280    12.3080    -0.4740 H     1 <1>   0.1000 
 51 H        4.7490    12.7110    -1.1200 H     1 <1>   0.1000 
 52 H        4.7330    11.2210    -2.1110 H     1 <1>   0.1000 
@<TRIPOS>BOND
  1   1   2  2   
  2   2   3  am  
  3   2   4  1   
  4   3   5  1   
  5   3  28  1   
  6   4   6  1   
  7   4  29  1   
  8   4  30  1   
  9   5   7  1   
 10   5   8  1   
 11   5  31  1   
 12   6   8  1   
 13   7   9  ar  
 14   7  10  ar  
 15   8  11  1   
 16   8  32  1   
 17   9  12  ar  
 18   9  33  1   
 19  10  13  ar  
 20  10  34  1   
 21  11  14  2   
 22  11  15  am  
 23  12  16  ar  
 24  12  35  1   
 25  13  16  ar  
 26  13  36  1   
 27  15  17  1   
 28  15  18  1   
 29  16  37  1   
 30  17  19  1   
 31  17  38  1   
 32  17  39  1   
 33  18  20  1   
 34  18  40  1   
 35  18  41  1   
 36  19  21  1   
 37  19  42  1   
 38  19  43  1   
 39  20  22  1   
 40  20  44  1   
 41  20  45  1   
 42  21  22  1   
 43  21  23  am  
 44  22  46  1   
 45  22  47  1   
 46  23  24  2   
 47  23  25  1   
 48  25  26  1   
 49  25  27  1   
 50  25  48  1   
 51  26  27  1   
 52  26  49  1   
 53  26  50  1   
 54  27  51  1   
 55  27  52  1   
@<TRIPOS>SUBSTRUCTURE
  1 ****  11 GROUP 4 **** **** 0

# MOE 2024.06 (io_trps.svl 2023.06)
