@<TRIPOS>MOLECULE
NONAME
52 53 1 0 0 
SMALL
USER_CHARGES


@<TRIPOS>ATOM
  1 O       -1.3650    -0.9260    -0.0610 O.2   1 <1>  -0.5700 
  2 C       -1.7180     0.1090    -0.5740 C.2   1 <1>   0.5690 
  3 N       -2.3700     0.1300    -1.7640 N.am  1 <1>  -0.7300 
  4 C       -1.4470     1.4270     0.1490 C.3   1 <1>  -0.0190 
  5 C       -2.6700    -1.0600    -2.5830 C.3   1 <1>   0.2840 
  6 C       -2.7420     2.2180     0.4200 C.3   1 <1>  -0.1600 
  7 C       -0.4060     2.2890    -0.6060 C.3   1 <1>  -0.1600 
  8 C       -4.0670    -1.5610    -2.2490 C.ar  1 <1>  -0.1440 
  9 C       -2.4880     3.4730     1.2800 C.3   1 <1>   0.2000 
 10 C       -0.4780     3.7910    -0.2640 C.3   1 <1>  -0.1600 
 11 C       -4.3040    -2.1510    -1.0190 C.ar  1 <1>  -0.1500 
 12 C       -5.1080    -1.4430    -3.1560 C.ar  1 <1>  -0.1500 
 13 O       -3.4010     4.4630     0.8750 O.3   1 <1>  -0.5600 
 14 C       -1.0430     4.0240     1.1390 C.3   1 <1>   0.2000 
 15 C       -5.5620    -2.6320    -0.6890 C.ar  1 <1>  -0.1430 
 16 C       -6.3690    -1.9130    -2.8320 C.ar  1 <1>  -0.1500 
 17 C       -4.6700     4.3680     1.4440 C.3   1 <1>   0.0400 
 18 O       -1.0500     5.3830     1.3770 O.3   1 <1>  -0.6800 
 19 C       -6.5980    -2.5070    -1.6030 C.ar  1 <1>  -0.1500 
 20 C       -5.7870    -3.2920     0.6570 C.3   1 <1>   0.4860 
 21 N       -4.9430    -4.5190     0.7330 N.4   1 <1>  -0.9590 
 22 C       -5.3550    -5.5300    -0.2900 C.3   1 <1>   0.2630 
 23 C       -4.9300    -5.0980     2.1080 C.3   1 <1>   0.2630 
 24 H       -2.7430     1.0110    -2.1170 H     1 <1>   0.3700 
 25 H       -1.0250     1.1710     1.1060 H     1 <1>   0.0800 
 26 H       -2.5960    -0.8040    -3.6250 H     1 <1>   0.0800 
 27 H       -1.9490    -1.8330    -2.3770 H     1 <1>   0.0800 
 28 H       -3.4500     1.5840     0.9220 H     1 <1>   0.0800 
 29 H       -3.1660     2.5180    -0.5230 H     1 <1>   0.0800 
 30 H        0.5760     1.9160    -0.3650 H     1 <1>   0.0800 
 31 H       -0.5300     2.1830    -1.6690 H     1 <1>   0.0800 
 32 H       -2.6520     3.2510     2.3210 H     1 <1>   0.0800 
 33 H       -1.1210     4.2820    -0.9740 H     1 <1>   0.0800 
 34 H        0.5030     4.2260    -0.3400 H     1 <1>   0.0800 
 35 H       -3.4900    -2.2260    -0.3180 H     1 <1>   0.1500 
 36 H       -4.9460    -0.9850    -4.1160 H     1 <1>   0.1500 
 37 H       -0.3940     3.5650     1.8660 H     1 <1>   0.0800 
 38 H       -7.1730    -1.8140    -3.5420 H     1 <1>   0.1500 
 39 H       -5.2680     5.1760     1.0610 H     1 <1>   0.0800 
 40 H       -4.5870     4.4570     2.5130 H     1 <1>   0.0800 
 41 H       -5.1180     3.4280     1.1730 H     1 <1>   0.0800 
 42 H       -1.9350     5.7000     1.0840 H     1 <1>   0.4000 
 43 H       -7.5880    -2.8630    -1.3750 H     1 <1>   0.1500 
 44 H       -6.8280    -3.5450     0.7760 H     1 <1>   0.0800 
 45 H       -5.5090    -2.6010     1.4370 H     1 <1>   0.0800 
 46 H       -3.9880    -4.2100     0.4900 H     1 <1>   0.4500 
 47 H       -6.3650    -5.8600    -0.1080 H     1 <1>   0.0800 
 48 H       -4.7000    -6.3850    -0.2570 H     1 <1>   0.0800 
 49 H       -5.3060    -5.1020    -1.2800 H     1 <1>   0.0800 
 50 H       -5.9200    -5.4170     2.3910 H     1 <1>   0.0800 
 51 H       -4.5840    -4.3670     2.8210 H     1 <1>   0.0800 
 52 H       -4.2690    -5.9500     2.1480 H     1 <1>   0.0800 
@<TRIPOS>BOND
  1   1   2  2   
  2   2   3  am  
  3   2   4  1   
  4   3   5  1   
  5   3  24  1   
  6   4   6  1   
  7   4   7  1   
  8   4  25  1   
  9   5   8  1   
 10   5  26  1   
 11   5  27  1   
 12   6   9  1   
 13   6  28  1   
 14   6  29  1   
 15   7  10  1   
 16   7  30  1   
 17   7  31  1   
 18   8  11  ar  
 19   8  12  ar  
 20   9  13  1   
 21   9  14  1   
 22   9  32  1   
 23  10  14  1   
 24  10  33  1   
 25  10  34  1   
 26  11  15  ar  
 27  11  35  1   
 28  12  16  ar  
 29  12  36  1   
 30  13  17  1   
 31  14  18  1   
 32  14  37  1   
 33  15  19  ar  
 34  15  20  1   
 35  16  19  ar  
 36  16  38  1   
 37  17  39  1   
 38  17  40  1   
 39  17  41  1   
 40  18  42  1   
 41  19  43  1   
 42  20  21  1   
 43  20  44  1   
 44  20  45  1   
 45  21  22  1   
 46  21  23  1   
 47  21  46  1   
 48  22  47  1   
 49  22  48  1   
 50  22  49  1   
 51  23  50  1   
 52  23  51  1   
 53  23  52  1   
@<TRIPOS>SUBSTRUCTURE
  1 ****   2 GROUP 4 **** **** 0

# MOE 2024.06 (io_trps.svl 2023.06)
