@<TRIPOS>MOLECULE
NONAME
21 22 1 0 0 
SMALL
USER_CHARGES


@<TRIPOS>ATOM
  1 O       -0.4700    -0.1340    -0.2140 O.3   1 <1>  -0.5380 
  2 C       -1.8470    -0.0750     0.0350 C.3   1 <1>   0.2580 
  3 C       -0.1340     1.1890    -0.4990 C.3   1 <1>   0.1200 
  4 C       -2.0860     1.1810     0.9210 C.3   1 <1>   0.0000 
  5 C       -2.4400     0.8070    -1.1010 C.3   1 <1>   0.0000 
  6 C       -2.4610    -1.4420     0.3820 C.3   1 <1>   0.3430 
  7 C       -1.5110     1.8160    -0.3730 C.3   1 <1>   0.1810 
  8 N       -1.7310    -2.5150    -0.3550 N.4   1 <1>  -0.8530 
  9 C       -1.6940     3.2750    -0.6110 C.1   1 <1>   0.3760 
 10 N       -1.8330     4.3870    -0.7960 N.1   1 <1>  -0.5570 
 11 H        0.2700     1.2570    -1.4960 H     1 <1>   0.0800 
 12 H        0.5640     1.5550     0.2360 H     1 <1>   0.0800 
 13 H       -1.4440     1.2370     1.7840 H     1 <1>   0.0000 
 14 H       -3.1190     1.4060     1.1410 H     1 <1>   0.0000 
 15 H       -3.4990     1.0060    -1.0320 H     1 <1>   0.0000 
 16 H       -2.1230     0.5230    -2.0900 H     1 <1>   0.0000 
 17 H       -3.5130    -1.4530     0.1480 H     1 <1>   0.0800 
 18 H       -2.3530    -1.5970     1.4440 H     1 <1>   0.0800 
 19 H       -2.0050    -2.5560    -1.3420 H     1 <1>   0.4500 
 20 H       -1.8470    -3.4420     0.0700 H     1 <1>   0.4500 
 21 H       -0.7290    -2.2610    -0.3380 H     1 <1>   0.4500 
@<TRIPOS>BOND
  1   1   2  1   
  2   1   3  1   
  3   2   4  1   
  4   2   5  1   
  5   2   6  1   
  6   3   7  1   
  7   3  11  1   
  8   3  12  1   
  9   4   7  1   
 10   4  13  1   
 11   4  14  1   
 12   5   7  1   
 13   5  15  1   
 14   5  16  1   
 15   6   8  1   
 16   6  17  1   
 17   6  18  1   
 18   7   9  1   
 19   8  19  1   
 20   8  20  1   
 21   8  21  1   
 22   9  10  3   
@<TRIPOS>SUBSTRUCTURE
  1 ****   7 GROUP 4 **** **** 0

# MOE 2024.06 (io_trps.svl 2023.06)
