@<TRIPOS>MOLECULE
NONAME
42 45 1 0 0 
SMALL
USER_CHARGES


@<TRIPOS>ATOM
  1 O       -0.0480    -0.0810    -0.3300 O.2   1 <1>  -0.5700 
  2 C        1.0200    -0.6430    -0.4700 C.2   1 <1>   0.5440 
  3 N        2.1960     0.0720    -0.4610 N.am  1 <1>  -0.4940 
  4 C        1.0800    -2.0820    -0.6200 C.ar  1 <1>   0.0860 
  5 C        2.4070     1.4730    -0.3950 C.2   1 <1>  -0.0880 
  6 C        0.2600    -2.9130     0.1440 C.ar  1 <1>  -0.1500 
  7 C        1.9640    -2.6880    -1.5180 C.ar  1 <1>  -0.1500 
  8 N        3.6230     2.0740    -0.2590 N.pl3 1 <1>   0.3140 
  9 C        1.4960     2.4720    -0.4460 C.2   1 <1>  -0.1500 
 10 C        0.3350    -4.2880     0.0360 C.ar  1 <1>   0.0830 
 11 C        2.0410    -4.0640    -1.6400 C.ar  1 <1>  -0.1500 
 12 N        3.5000     3.4260    -0.2230 N.2   1 <1>  -0.7070 
 13 C        4.9320     1.3670    -0.1380 C.3   1 <1>   0.1760 
 14 C        2.2270     3.6450    -0.3360 C.2   1 <1>   0.1390 
 15 O       -0.4630    -5.0530     0.8230 O.3   1 <1>  -0.3630 
 16 C        1.2260    -4.8710    -0.8660 C.ar  1 <1>   0.0830 
 17 C        5.1820     0.8430     1.2780 C.3   1 <1>  -0.1600 
 18 C        6.1660     2.2250    -0.4280 C.3   1 <1>  -0.1600 
 19 C       -0.1380    -6.4270     0.9260 C.3   1 <1>   0.1200 
 20 O        1.3060    -6.2130    -1.0070 O.3   1 <1>  -0.3630 
 21 C        6.7030     0.6910     1.3990 C.3   1 <1>  -0.1600 
 22 C        7.3180     1.4560     0.2200 C.3   1 <1>  -0.1600 
 23 C        0.2600    -6.9860    -0.4470 C.3   1 <1>   0.1200 
 24 H        3.0310    -0.5100    -0.4480 H     1 <1>   0.3700 
 25 H       -0.4410    -2.4770     0.8340 H     1 <1>   0.1500 
 26 H        2.5930    -2.0750    -2.1410 H     1 <1>   0.1500 
 27 H        0.4280     2.3950    -0.5480 H     1 <1>   0.1500 
 28 H        2.7220    -4.5220    -2.3350 H     1 <1>   0.1500 
 29 H        4.9340     0.5410    -0.8250 H     1 <1>   0.0800 
 30 H        1.7940     4.6320    -0.3410 H     1 <1>   0.1500 
 31 H        4.6730    -0.0870     1.4580 H     1 <1>   0.0800 
 32 H        4.8460     1.5790     1.9900 H     1 <1>   0.0800 
 33 H        6.0750     3.1820     0.0570 H     1 <1>   0.0800 
 34 H        6.3180     2.3690    -1.4830 H     1 <1>   0.0800 
 35 H       -0.9980    -6.9420     1.3140 H     1 <1>   0.0800 
 36 H        0.6770    -6.5270     1.6210 H     1 <1>   0.0800 
 37 H        6.9870    -0.3470     1.3530 H     1 <1>   0.0800 
 38 H        7.0430     1.0990     2.3360 H     1 <1>   0.0800 
 39 H        8.1000     2.1230     0.5420 H     1 <1>   0.0800 
 40 H        7.7290     0.7560    -0.4880 H     1 <1>   0.0800 
 41 H       -0.5780    -6.9530    -1.1210 H     1 <1>   0.0800 
 42 H        0.6060    -8.0000    -0.3620 H     1 <1>   0.0800 
@<TRIPOS>BOND
  1   1   2  2   
  2   2   3  am  
  3   2   4  1   
  4   3   5  1   
  5   3  24  1   
  6   4   6  ar  
  7   4   7  ar  
  8   5   8  1   
  9   5   9  2   
 10   6  10  ar  
 11   6  25  1   
 12   7  11  ar  
 13   7  26  1   
 14   8  12  1   
 15   8  13  1   
 16   9  14  1   
 17   9  27  1   
 18  10  15  1   
 19  10  16  ar  
 20  11  16  ar  
 21  11  28  1   
 22  12  14  2   
 23  13  17  1   
 24  13  18  1   
 25  13  29  1   
 26  14  30  1   
 27  15  19  1   
 28  16  20  1   
 29  17  21  1   
 30  17  31  1   
 31  17  32  1   
 32  18  22  1   
 33  18  33  1   
 34  18  34  1   
 35  19  23  1   
 36  19  35  1   
 37  19  36  1   
 38  20  23  1   
 39  21  22  1   
 40  21  37  1   
 41  21  38  1   
 42  22  39  1   
 43  22  40  1   
 44  23  41  1   
 45  23  42  1   
@<TRIPOS>SUBSTRUCTURE
  1 ****   3 GROUP 4 **** **** 0

# MOE 2024.06 (io_trps.svl 2023.06)
