@<TRIPOS>MOLECULE
NONAME
47 48 1 0 0 
SMALL
USER_CHARGES


@<TRIPOS>ATOM
  1 CL       5.3810     0.1130     0.2060 Cl    1 <1>  -0.1770 
  2 C        3.7000    -0.3560     0.1030 C.ar  1 <1>   0.1770 
  3 C        2.6850     0.5950    -0.0450 C.ar  1 <1>   0.0860 
  4 C        3.4340    -1.7120     0.1640 C.ar  1 <1>  -0.1500 
  5 C        2.9170     2.0260    -0.1000 C.2   1 <1>   0.5440 
  6 C        1.3810     0.1040    -0.1470 C.ar  1 <1>  -0.1500 
  7 C        2.1300    -2.1640     0.0700 C.ar  1 <1>  -0.1500 
  8 O        2.2590     2.7210    -0.8500 O.2   1 <1>  -0.5700 
  9 N        3.8440     2.6390     0.6940 N.am  1 <1>  -0.7300 
 10 C        1.1040    -1.2510    -0.0880 C.ar  1 <1>  -0.1500 
 11 C        4.1240     4.0960     0.7060 C.3   1 <1>   0.1400 
 12 C        5.0570     4.4640    -0.4510 C.3   1 <1>   0.1400 
 13 N        5.3510     5.9190    -0.4410 N.am  1 <1>  -0.7300 
 14 C        6.2730     6.5080     0.3640 C.2   1 <1>   0.5690 
 15 O        6.8820     5.8790     1.1930 O.2   1 <1>  -0.5700 
 16 C        6.5400     8.0060     0.2300 C.3   1 <1>  -0.0190 
 17 C        5.2740     8.8520     0.4760 C.3   1 <1>  -0.1600 
 18 C        7.1960     8.3580    -1.1270 C.3   1 <1>  -0.1600 
 19 C        5.5890    10.3630     0.5150 C.3   1 <1>   0.2000 
 20 C        7.0220     9.8350    -1.5350 C.3   1 <1>  -0.1600 
 21 O        4.4760    11.0530     0.0030 O.3   1 <1>  -0.5600 
 22 C        6.8480    10.7390    -0.3120 C.3   1 <1>   0.2000 
 23 C        3.4380    11.2570     0.9110 C.3   1 <1>   0.0400 
 24 O        6.7270    12.0390    -0.7570 O.3   1 <1>  -0.6800 
 25 H        4.2440    -2.4090     0.2810 H     1 <1>   0.1500 
 26 H        0.5730     0.8050    -0.2740 H     1 <1>   0.1500 
 27 H        1.9150    -3.2190     0.1160 H     1 <1>   0.1500 
 28 H        4.5000     2.0600     1.2260 H     1 <1>   0.3700 
 29 H        0.0860    -1.5950    -0.1680 H     1 <1>   0.1500 
 30 H        3.1980     4.6350     0.6050 H     1 <1>   0.0800 
 31 H        4.5840     4.3610     1.6420 H     1 <1>   0.0800 
 32 H        4.5940     4.2010    -1.3870 H     1 <1>   0.0800 
 33 H        5.9790     3.9180    -0.3520 H     1 <1>   0.0800 
 34 H        4.8270     6.4840    -1.1110 H     1 <1>   0.3700 
 35 H        7.2430     8.2580     1.0060 H     1 <1>   0.0800 
 36 H        4.8270     8.5610     1.4100 H     1 <1>   0.0800 
 37 H        4.5700     8.6560    -0.3130 H     1 <1>   0.0800 
 38 H        8.2460     8.1280    -1.0600 H     1 <1>   0.0800 
 39 H        6.7890     7.7430    -1.9110 H     1 <1>   0.0800 
 40 H        5.7600    10.6800     1.5300 H     1 <1>   0.0800 
 41 H        6.1440     9.9260    -2.1520 H     1 <1>   0.0800 
 42 H        7.8740    10.1540    -2.1090 H     1 <1>   0.0800 
 43 H        7.7300    10.6810     0.3020 H     1 <1>   0.0800 
 44 H        2.6530    11.7930     0.4070 H     1 <1>   0.0800 
 45 H        3.7990    11.8420     1.7390 H     1 <1>   0.0800 
 46 H        3.0640    10.3070     1.2510 H     1 <1>   0.0800 
 47 H        5.7610    12.1970    -0.8660 H     1 <1>   0.4000 
@<TRIPOS>BOND
  1   1   2  1   
  2   2   3  ar  
  3   2   4  ar  
  4   3   5  1   
  5   3   6  ar  
  6   4   7  ar  
  7   4  25  1   
  8   5   8  2   
  9   5   9  am  
 10   6  10  ar  
 11   6  26  1   
 12   7  10  ar  
 13   7  27  1   
 14   9  11  1   
 15   9  28  1   
 16  10  29  1   
 17  11  12  1   
 18  11  30  1   
 19  11  31  1   
 20  12  13  1   
 21  12  32  1   
 22  12  33  1   
 23  13  14  am  
 24  13  34  1   
 25  14  15  2   
 26  14  16  1   
 27  16  17  1   
 28  16  18  1   
 29  16  35  1   
 30  17  19  1   
 31  17  36  1   
 32  17  37  1   
 33  18  20  1   
 34  18  38  1   
 35  18  39  1   
 36  19  21  1   
 37  19  22  1   
 38  19  40  1   
 39  20  22  1   
 40  20  41  1   
 41  20  42  1   
 42  21  23  1   
 43  22  24  1   
 44  22  43  1   
 45  23  44  1   
 46  23  45  1   
 47  23  46  1   
 48  24  47  1   
@<TRIPOS>SUBSTRUCTURE
  1 ****  12 GROUP 4 **** **** 0

# MOE 2024.06 (io_trps.svl 2023.06)
