@<TRIPOS>MOLECULE
NONAME
43 45 1 0 0 
SMALL
USER_CHARGES


@<TRIPOS>ATOM
  1 O       -0.2960    -0.2490     2.2030 O.2   1 <1>  -0.5700 
  2 C       -1.0490     0.5100     1.6440 C.2   1 <1>   0.5690 
  3 N       -1.9840     0.0710     0.7480 N.am  1 <1>  -0.6600 
  4 C       -0.9130     1.9900     1.9590 C.3   1 <1>  -0.0990 
  5 C       -2.9700     0.8950     0.0050 C.3   1 <1>   0.1400 
  6 C       -2.1200    -1.3600     0.3850 C.3   1 <1>   0.1400 
  7 C       -0.0180     2.7050     0.9340 C.3   1 <1>  -0.1600 
  8 C       -3.7060    -0.0890    -0.9050 C.3   1 <1>   0.2000 
  9 C       -3.4890    -1.4700    -0.2880 C.3   1 <1>  -0.0800 
 10 C        0.1400     4.1950     1.2630 C.3   1 <1>   0.0960 
 11 O       -5.0610     0.1920    -0.9690 O.3   1 <1>  -0.6800 
 12 C       -3.5960    -2.6020    -1.3250 C.3   1 <1>  -0.0170 
 13 N        0.8360     4.8930     0.1670 N.pl3 1 <1>   0.3140 
 14 C       -3.4100    -3.9700    -0.6900 C.ar  1 <1>   0.1660 
 15 N        0.2020     5.3460    -0.9050 N.2   1 <1>  -0.7070 
 16 C        2.1370     5.1690     0.0420 C.2   1 <1>   0.0360 
 17 N       -2.1620    -4.3710    -0.5070 N.ar  1 <1>  -0.6200 
 18 C       -4.5220    -4.7310    -0.3320 C.ar  1 <1>   0.1600 
 19 C        1.1630     5.8630    -1.5970 C.2   1 <1>   0.3660 
 20 N        2.3860     5.7820    -1.0580 N.2   1 <1>  -0.5650 
 21 C       -2.1010    -5.5660     0.0570 C.ar  1 <1>   0.1600 
 22 N       -4.4640    -5.9260     0.2310 N.ar  1 <1>  -0.6200 
 23 C       -3.2140    -6.3180     0.4140 C.ar  1 <1>   0.1600 
 24 H       -1.8870     2.4420     1.9910 H     1 <1>   0.0800 
 25 H       -0.4810     2.0820     2.9400 H     1 <1>   0.0800 
 26 H       -3.6480     1.3550     0.7020 H     1 <1>   0.0800 
 27 H       -2.4710     1.6450    -0.5830 H     1 <1>   0.0800 
 28 H       -1.3300    -1.6240    -0.3000 H     1 <1>   0.0800 
 29 H       -2.0530    -1.9900     1.2570 H     1 <1>   0.0800 
 30 H       -0.4510     2.6040    -0.0460 H     1 <1>   0.0800 
 31 H        0.9500     2.2340     0.9230 H     1 <1>   0.0800 
 32 H       -3.3000    -0.0360    -1.9010 H     1 <1>   0.0800 
 33 H       -4.2110    -1.6310     0.4930 H     1 <1>   0.0800 
 34 H        0.6980     4.3250     2.1720 H     1 <1>   0.0800 
 35 H       -0.8260     4.6530     1.3820 H     1 <1>   0.0800 
 36 H       -5.4670     0.1290    -0.0820 H     1 <1>   0.4000 
 37 H       -2.8530    -2.4690    -2.0920 H     1 <1>   0.0800 
 38 H       -4.5600    -2.5550    -1.7990 H     1 <1>   0.0800 
 39 H        2.8690     4.9000     0.7820 H     1 <1>   0.1500 
 40 H       -5.5040    -4.3320    -0.5180 H     1 <1>   0.1500 
 41 H        1.0140     6.3360    -2.5550 H     1 <1>   0.1500 
 42 H       -1.1230    -5.9710     0.2460 H     1 <1>   0.1500 
 43 H       -3.0630    -7.2810     0.8680 H     1 <1>   0.1500 
@<TRIPOS>BOND
  1   1   2  2   
  2   2   3  am  
  3   2   4  1   
  4   3   5  1   
  5   3   6  1   
  6   4   7  1   
  7   4  24  1   
  8   4  25  1   
  9   5   8  1   
 10   5  26  1   
 11   5  27  1   
 12   6   9  1   
 13   6  28  1   
 14   6  29  1   
 15   7  10  1   
 16   7  30  1   
 17   7  31  1   
 18   8   9  1   
 19   8  11  1   
 20   8  32  1   
 21   9  12  1   
 22   9  33  1   
 23  10  13  1   
 24  10  34  1   
 25  10  35  1   
 26  11  36  1   
 27  12  14  1   
 28  12  37  1   
 29  12  38  1   
 30  13  15  1   
 31  13  16  1   
 32  14  17  ar  
 33  14  18  ar  
 34  15  19  2   
 35  16  20  2   
 36  16  39  1   
 37  17  21  ar  
 38  18  22  ar  
 39  18  40  1   
 40  19  20  1   
 41  19  41  1   
 42  21  23  ar  
 43  21  42  1   
 44  22  23  ar  
 45  23  43  1   
@<TRIPOS>SUBSTRUCTURE
  1 ****   3 GROUP 4 **** **** 0

# MOE 2024.06 (io_trps.svl 2023.06)
