@<TRIPOS>MOLECULE
NONAME
41 42 1 0 0 
SMALL
USER_CHARGES


@<TRIPOS>ATOM
  1 S        0.5610     0.7100    -1.2120 S.o2  1 <1>   1.3330 
  2 O       -0.3050     1.7090    -1.7980 O.2   1 <1>  -0.6500 
  3 O        0.6510    -0.5800    -1.8620 O.2   1 <1>  -0.6500 
  4 N       -0.0060     0.4310     0.3640 N.am  1 <1>  -0.8490 
  5 C        2.2210     1.3660    -1.0310 C.3   1 <1>  -0.0550 
  6 C       -1.2720    -0.2980     0.3590 C.3   1 <1>   0.1160 
  7 C       -0.1430     1.6660     1.1540 C.3   1 <1>   0.1160 
  8 C        3.2670     0.3530    -0.5110 C.3   1 <1>  -0.0800 
  9 C        4.6900     0.8840    -0.3920 C.3   1 <1>   0.2200 
 10 C        3.0280    -0.1650     0.9030 C.3   1 <1>   0.1200 
 11 N        4.6930     2.2470     0.1740 N.am  1 <1>  -0.7300 
 12 C        5.3050    -0.0830     0.6220 C.3   1 <1>   0.1200 
 13 O        4.2510    -0.7060     1.3030 O.3   1 <1>  -0.5600 
 14 C        4.6910     3.3960    -0.5560 C.2   1 <1>   0.5440 
 15 O        5.2640     3.3780    -1.6400 O.2   1 <1>  -0.5700 
 16 C        3.9890     4.5560    -0.0630 C.ar  1 <1>   0.0860 
 17 C        3.0520     4.4940     1.0140 C.ar  1 <1>  -0.1710 
 18 C        4.2070     5.8050    -0.6650 C.ar  1 <1>  -0.1500 
 19 O        2.7850     3.4140     1.6130 O.3   1 <1>  -0.8290 
 20 C        2.4120     5.6980     1.3910 C.ar  1 <1>   0.1900 
 21 C        3.5640     6.9570    -0.2630 C.ar  1 <1>  -0.1500 
 22 F        1.5360     5.6750     2.3720 F     1 <1>  -0.1900 
 23 C        2.6490     6.9010     0.7850 C.ar  1 <1>  -0.1500 
 24 H        2.5530     1.7160    -1.9890 H     1 <1>   0.0800 
 25 H        2.1830     2.2210    -0.3900 H     1 <1>   0.0800 
 26 H       -1.5890    -0.4990     1.3670 H     1 <1>   0.0800 
 27 H       -1.1500    -1.2380    -0.1520 H     1 <1>   0.0800 
 28 H       -2.0310     0.2760    -0.1470 H     1 <1>   0.0800 
 29 H       -0.4980     1.4390     2.1430 H     1 <1>   0.0800 
 30 H       -0.8290     2.3490     0.6800 H     1 <1>   0.0800 
 31 H        0.8070     2.1560     1.2570 H     1 <1>   0.0800 
 32 H        3.2760    -0.4970    -1.1700 H     1 <1>   0.0800 
 33 H        5.2190     0.8730    -1.3290 H     1 <1>   0.0800 
 34 H        2.2700    -0.9270     0.9470 H     1 <1>   0.0800 
 35 H        2.7830     0.6420     1.5760 H     1 <1>   0.0800 
 36 H        4.0590     2.3790     0.9950 H     1 <1>   0.3700 
 37 H        5.9330     0.4260     1.3320 H     1 <1>   0.0800 
 38 H        5.8640    -0.8520     0.1210 H     1 <1>   0.0800 
 39 H        4.9100     5.8560    -1.4770 H     1 <1>   0.1500 
 40 H        3.7610     7.8950    -0.7510 H     1 <1>   0.1500 
 41 H        2.1360     7.7850     1.1130 H     1 <1>   0.1500 
@<TRIPOS>BOND
  1   1   2  2   
  2   1   3  2   
  3   1   4  am  
  4   1   5  1   
  5   4   6  1   
  6   4   7  1   
  7   5   8  1   
  8   5  24  1   
  9   5  25  1   
 10   6  26  1   
 11   6  27  1   
 12   6  28  1   
 13   7  29  1   
 14   7  30  1   
 15   7  31  1   
 16   8   9  1   
 17   8  10  1   
 18   8  32  1   
 19   9  11  1   
 20   9  12  1   
 21   9  33  1   
 22  10  13  1   
 23  10  34  1   
 24  10  35  1   
 25  11  14  am  
 26  11  36  1   
 27  12  13  1   
 28  12  37  1   
 29  12  38  1   
 30  14  15  2   
 31  14  16  1   
 32  16  17  ar  
 33  16  18  ar  
 34  17  19  1   
 35  17  20  ar  
 36  18  21  ar  
 37  18  39  1   
 38  20  22  1   
 39  20  23  ar  
 40  21  23  ar  
 41  21  40  1   
 42  23  41  1   
@<TRIPOS>SUBSTRUCTURE
  1 ****   5 GROUP 4 **** **** 0

# MOE 2024.06 (io_trps.svl 2023.06)
