@<TRIPOS>MOLECULE
NONAME
44 47 1 0 0 
SMALL
USER_CHARGES


@<TRIPOS>ATOM
  1 S        1.2200    -1.1970     1.3600 S.3   1 <1>  -0.0800 
  2 C        0.5830    -0.9030    -0.2430 C.2   1 <1>   0.4340 
  3 C        1.3040     0.5290     1.5850 C.2   1 <1>  -0.1100 
  4 S        0.1810    -2.3180    -1.2590 S.3   1 <1>  -0.2860 
  5 N        0.4480     0.3200    -0.5670 N.2   1 <1>  -0.5650 
  6 C        0.8600     1.1380     0.4720 C.2   1 <1>   0.0460 
  7 C        0.5010    -3.8030    -0.1900 C.3   1 <1>   0.1310 
  8 C        0.7640     2.6300     0.2410 C.3   1 <1>  -0.0590 
  9 C        0.1310    -5.0870    -0.9180 C.2   1 <1>   0.5690 
 10 O        1.0460    -5.8100    -1.2390 O.2   1 <1>  -0.5700 
 11 N       -1.1800    -5.4290    -1.1620 N.am  1 <1>  -0.6600 
 12 C       -2.3680    -4.5950    -0.8270 C.3   1 <1>   0.1400 
 13 C       -1.5310    -6.6990    -1.8570 C.3   1 <1>   0.1400 
 14 C       -3.3010    -5.3940     0.0850 C.3   1 <1>  -0.1600 
 15 C       -2.4570    -7.5250    -0.9610 C.3   1 <1>  -0.1600 
 16 C       -3.7030    -6.7320    -0.5520 C.3   1 <1>   0.4600 
 17 O       -4.4200    -6.4780    -1.7440 O.3   1 <1>  -0.5600 
 18 C       -4.5870    -7.5500     0.3830 C.2   1 <1>  -0.1400 
 19 C       -5.7950    -6.1850    -1.6450 C.3   1 <1>   0.1200 
 20 S       -4.0060    -8.2170     1.9010 S.3   1 <1>  -0.0800 
 21 C       -5.8760    -7.8600     0.1910 C.2   1 <1>  -0.1810 
 22 C       -6.5830    -7.3690    -1.0520 C.3   1 <1>   0.0210 
 23 C       -5.5800    -8.9330     2.2240 C.2   1 <1>  -0.1100 
 24 C       -6.4490    -8.6550     1.2330 C.2   1 <1>  -0.1500 
 25 H        1.6760     0.9000     2.5220 H     1 <1>   0.1500 
 26 H       -0.0770    -3.6980     0.7080 H     1 <1>   0.0800 
 27 H        1.5490    -3.8030     0.0440 H     1 <1>   0.0800 
 28 H        1.1070     3.1690     1.1050 H     1 <1>   0.0800 
 29 H       -0.2560     2.8990     0.0400 H     1 <1>   0.0800 
 30 H        1.3680     2.9030    -0.6060 H     1 <1>   0.0800 
 31 H       -2.8800    -4.3350    -1.7380 H     1 <1>   0.0800 
 32 H       -2.0860    -3.6820    -0.3350 H     1 <1>   0.0800 
 33 H       -0.6480    -7.2700    -2.0860 H     1 <1>   0.0800 
 34 H       -2.0260    -6.4680    -2.7860 H     1 <1>   0.0800 
 35 H       -4.1760    -4.8170     0.3170 H     1 <1>   0.0800 
 36 H       -2.7910    -5.5850     1.0120 H     1 <1>   0.0800 
 37 H       -1.9070    -7.8190    -0.0860 H     1 <1>   0.0800 
 38 H       -2.7590    -8.4200    -1.4720 H     1 <1>   0.0800 
 39 H       -6.1540    -5.9600    -2.6340 H     1 <1>   0.0800 
 40 H       -5.9140    -5.3110    -1.0300 H     1 <1>   0.0800 
 41 H       -6.6470    -8.1650    -1.7730 H     1 <1>   0.0800 
 42 H       -7.5800    -7.0480    -0.8090 H     1 <1>   0.0800 
 43 H       -5.6890    -9.4950     3.1340 H     1 <1>   0.1500 
 44 H       -7.4750    -8.9770     1.1900 H     1 <1>   0.1500 
@<TRIPOS>BOND
  1   1   2  1   
  2   1   3  1   
  3   2   4  1   
  4   2   5  2   
  5   3   6  2   
  6   3  25  1   
  7   4   7  1   
  8   5   6  1   
  9   6   8  1   
 10   7   9  1   
 11   7  26  1   
 12   7  27  1   
 13   8  28  1   
 14   8  29  1   
 15   8  30  1   
 16   9  10  2   
 17   9  11  am  
 18  11  12  1   
 19  11  13  1   
 20  12  14  1   
 21  12  31  1   
 22  12  32  1   
 23  13  15  1   
 24  13  33  1   
 25  13  34  1   
 26  14  16  1   
 27  14  35  1   
 28  14  36  1   
 29  15  16  1   
 30  15  37  1   
 31  15  38  1   
 32  16  17  1   
 33  16  18  1   
 34  17  19  1   
 35  18  20  1   
 36  18  21  2   
 37  19  22  1   
 38  19  39  1   
 39  19  40  1   
 40  20  23  1   
 41  21  22  1   
 42  21  24  1   
 43  22  41  1   
 44  22  42  1   
 45  23  24  2   
 46  23  43  1   
 47  24  44  1   
@<TRIPOS>SUBSTRUCTURE
  1 ****  12 GROUP 4 **** **** 0

# MOE 2024.06 (io_trps.svl 2023.06)
