@<TRIPOS>MOLECULE
NONAME
38 39 1 0 0 
SMALL
USER_CHARGES


@<TRIPOS>ATOM
  1 O       -0.1420    -0.0290     0.5780 O.2   1 <1>  -0.5700 
  2 C       -1.0500    -0.6970     0.1260 C.2   1 <1>   0.7800 
  3 O       -2.2070    -0.1500    -0.2440 O.3   1 <1>  -0.4300 
  4 N       -0.9720    -2.0320    -0.0450 N.am  1 <1>  -0.7300 
  5 C       -2.5670     1.2130    -0.1710 C.3   1 <1>   0.2800 
  6 C        0.0790    -2.9190     0.5010 C.3   1 <1>   0.2200 
  7 C       -2.5620     1.6850     1.2880 C.3   1 <1>  -0.2400 
  8 C       -3.9930     1.2800    -0.7170 C.3   1 <1>  -0.2400 
  9 C       -1.6450     2.0550    -1.0620 C.3   1 <1>  -0.2400 
 10 C       -0.2740    -4.3880     0.2000 C.3   1 <1>  -0.1860 
 11 C        1.4080    -2.7330    -0.2640 C.3   1 <1>  -0.0800 
 12 C       -0.6190    -5.2090     1.4290 C.2   1 <1>   0.9060 
 13 C        0.9400    -4.8860    -0.6190 C.3   1 <1>  -0.0800 
 14 C        1.2390    -3.6570    -1.4620 C.3   1 <1>  -0.1600 
 15 C        2.5080    -3.4620     0.5260 C.3   1 <1>  -0.1600 
 16 O       -0.1710    -4.8960     2.5380 O.co2 1 <1>  -0.9000 
 17 O       -1.3680    -6.1790     1.2760 O.co2 1 <1>  -0.9000 
 18 C        2.1940    -4.9450     0.2690 C.3   1 <1>  -0.1600 
 19 H       -1.8370    -2.5100    -0.2820 H     1 <1>   0.3700 
 20 H        0.2070    -2.7260     1.5540 H     1 <1>   0.0800 
 21 H       -2.9700     2.6770     1.3550 H     1 <1>   0.0800 
 22 H       -1.5630     1.7170     1.6820 H     1 <1>   0.0800 
 23 H       -3.1580     1.0270     1.8950 H     1 <1>   0.0800 
 24 H       -4.3550     2.2920    -0.7000 H     1 <1>   0.0800 
 25 H       -4.6490     0.6740    -0.1180 H     1 <1>   0.0800 
 26 H       -4.0200     0.9260    -1.7320 H     1 <1>   0.0800 
 27 H       -2.0070     3.0650    -1.1140 H     1 <1>   0.0800 
 28 H       -1.6170     1.6490    -2.0570 H     1 <1>   0.0800 
 29 H       -0.6470     2.0870    -0.6660 H     1 <1>   0.0800 
 30 H       -1.1350    -4.4330    -0.4390 H     1 <1>   0.0800 
 31 H        1.6490    -1.7090    -0.4870 H     1 <1>   0.0800 
 32 H        0.7450    -5.7930    -1.1670 H     1 <1>   0.0800 
 33 H        0.4150    -3.3720    -2.0940 H     1 <1>   0.0800 
 34 H        2.1400    -3.7570    -2.0430 H     1 <1>   0.0800 
 35 H        3.4810    -3.2110     0.1420 H     1 <1>   0.0800 
 36 H        2.4650    -3.2260     1.5760 H     1 <1>   0.0800 
 37 H        2.0220    -5.4850     1.1850 H     1 <1>   0.0800 
 38 H        3.0050    -5.4120    -0.2620 H     1 <1>   0.0800 
@<TRIPOS>BOND
  1   1   2  2   
  2   2   3  1   
  3   2   4  am  
  4   3   5  1   
  5   4   6  1   
  6   4  19  1   
  7   5   7  1   
  8   5   8  1   
  9   5   9  1   
 10   6  10  1   
 11   6  11  1   
 12   6  20  1   
 13   7  21  1   
 14   7  22  1   
 15   7  23  1   
 16   8  24  1   
 17   8  25  1   
 18   8  26  1   
 19   9  27  1   
 20   9  28  1   
 21   9  29  1   
 22  10  12  1   
 23  10  13  1   
 24  10  30  1   
 25  11  14  1   
 26  11  15  1   
 27  11  31  1   
 28  12  16  ar  
 29  12  17  ar  
 30  13  14  1   
 31  13  18  1   
 32  13  32  1   
 33  14  33  1   
 34  14  34  1   
 35  15  18  1   
 36  15  35  1   
 37  15  36  1   
 38  18  37  1   
 39  18  38  1   
@<TRIPOS>SUBSTRUCTURE
  1 ****   4 GROUP 4 **** **** 0

# MOE 2024.06 (io_trps.svl 2023.06)
