@<TRIPOS>MOLECULE
NONAME
50 53 1 0 0 
SMALL
USER_CHARGES


@<TRIPOS>ATOM
  1 O       -0.5550    -0.2110     2.0490 O.2   1 <1>  -0.5700 
  2 C       -1.5250     0.4280     1.6730 C.2   1 <1>   0.7160 
  3 N       -2.7410    -0.2340     1.6370 N.am  1 <1>  -0.6600 
  4 C       -1.3530     1.8230     1.2680 C.2   1 <1>   0.2030 
  5 C       -2.8210    -1.6910     1.3140 C.3   1 <1>   0.1400 
  6 C       -4.0600     0.4400     1.4640 C.3   1 <1>   0.1400 
  7 N       -2.0950     2.5110     0.4130 N.2   1 <1>  -0.7070 
  8 C       -0.3130     2.6310     1.7430 C.2   1 <1>  -0.1500 
  9 C       -3.4600    -1.8990    -0.0760 C.3   1 <1>   0.3440 
 10 C       -4.5980     0.1680     0.0490 C.3   1 <1>   0.2950 
 11 N       -1.5460     3.7330     0.3460 N.pl3 1 <1>   0.3140 
 12 C       -0.4660     3.8270     1.1450 C.2   1 <1>  -0.3020 
 13 O       -4.6850    -1.2140    -0.1680 O.3   1 <1>  -0.5600 
 14 C       -3.6840    -3.3850    -0.3450 C.ar  1 <1>  -0.1430 
 15 C       -5.9970     0.7610    -0.1460 C.3   1 <1>  -0.1950 
 16 C       -2.1120     4.8010    -0.5260 C.3   1 <1>   0.1760 
 17 C       -2.6990    -4.1210    -0.9890 C.ar  1 <1>  -0.1500 
 18 C       -4.8500    -4.0250     0.0530 C.ar  1 <1>  -0.1500 
 19 C       -6.5110     1.1020    -1.5090 C.3   1 <1>  -0.2000 
 20 C       -6.1670     2.1960    -0.5370 C.3   1 <1>  -0.2000 
 21 C       -1.0810     5.2610    -1.5660 C.3   1 <1>  -0.2400 
 22 C       -2.6100     5.9830     0.3170 C.3   1 <1>  -0.2400 
 23 C       -2.8750    -5.4740    -1.2280 C.ar  1 <1>  -0.1500 
 24 C       -5.0280    -5.3770    -0.1850 C.ar  1 <1>  -0.1500 
 25 C       -4.0400    -6.1020    -0.8260 C.ar  1 <1>  -0.1500 
 26 H       -1.8420    -2.1380     1.3210 H     1 <1>   0.0800 
 27 H       -3.4150    -2.1910     2.0580 H     1 <1>   0.0800 
 28 H       -4.7540     0.0480     2.1860 H     1 <1>   0.0800 
 29 H       -3.9850     1.4980     1.6370 H     1 <1>   0.0800 
 30 H        0.4400     2.3150     2.4440 H     1 <1>   0.1500 
 31 H       -2.8070    -1.4990    -0.8330 H     1 <1>   0.0800 
 32 H       -3.9260     0.5860    -0.6810 H     1 <1>   0.0800 
 33 H        0.1220     4.7210     1.2380 H     1 <1>   0.1500 
 34 H       -6.7050     0.3610     0.5590 H     1 <1>   0.1000 
 35 H       -2.9520     4.3730    -1.0450 H     1 <1>   0.0800 
 36 H       -1.7870    -3.6470    -1.3080 H     1 <1>   0.1500 
 37 H       -5.6260    -3.4670     0.5490 H     1 <1>   0.1500 
 38 H       -5.8700     0.9320    -2.3570 H     1 <1>   0.1000 
 39 H       -7.5450     0.9000    -1.7280 H     1 <1>   0.1000 
 40 H       -6.9670     2.7630    -0.0940 H     1 <1>   0.1000 
 41 H       -5.2910     2.7940    -0.7240 H     1 <1>   0.1000 
 42 H       -0.2310     5.7160    -1.0890 H     1 <1>   0.0800 
 43 H       -1.5250     5.9810    -2.2300 H     1 <1>   0.0800 
 44 H       -0.7510     4.4210    -2.1510 H     1 <1>   0.0800 
 45 H       -1.7960     6.4500     0.8410 H     1 <1>   0.0800 
 46 H       -3.3410     5.6430     1.0290 H     1 <1>   0.0800 
 47 H       -3.0740     6.7170    -0.3170 H     1 <1>   0.0800 
 48 H       -2.1070    -6.0360    -1.7280 H     1 <1>   0.1500 
 49 H       -5.9360    -5.8610     0.1270 H     1 <1>   0.1500 
 50 H       -4.1780    -7.1530    -1.0120 H     1 <1>   0.1500 
@<TRIPOS>BOND
  1   1   2  2   
  2   2   3  am  
  3   2   4  1   
  4   3   5  1   
  5   3   6  1   
  6   4   7  2   
  7   4   8  1   
  8   5   9  1   
  9   5  26  1   
 10   5  27  1   
 11   6  10  1   
 12   6  28  1   
 13   6  29  1   
 14   7  11  1   
 15   8  12  2   
 16   8  30  1   
 17   9  13  1   
 18   9  14  1   
 19   9  31  1   
 20  10  13  1   
 21  10  15  1   
 22  10  32  1   
 23  11  12  1   
 24  11  16  1   
 25  12  33  1   
 26  14  17  ar  
 27  14  18  ar  
 28  15  19  1   
 29  15  20  1   
 30  15  34  1   
 31  16  21  1   
 32  16  22  1   
 33  16  35  1   
 34  17  23  ar  
 35  17  36  1   
 36  18  24  ar  
 37  18  37  1   
 38  19  20  1   
 39  19  38  1   
 40  19  39  1   
 41  20  40  1   
 42  20  41  1   
 43  21  42  1   
 44  21  43  1   
 45  21  44  1   
 46  22  45  1   
 47  22  46  1   
 48  22  47  1   
 49  23  25  ar  
 50  23  48  1   
 51  24  25  ar  
 52  24  49  1   
 53  25  50  1   
@<TRIPOS>SUBSTRUCTURE
  1 ****  10 GROUP 4 **** **** 0

# MOE 2024.06 (io_trps.svl 2023.06)
