@<TRIPOS>MOLECULE
NONAME
45 47 1 0 0 
SMALL
USER_CHARGES


@<TRIPOS>ATOM
  1 S       -0.1020    -0.5440     0.2810 S.3   1 <1>  -0.3320 
  2 C        0.0130     1.2540     0.3320 C.ar  1 <1>   0.1020 
  3 C       -1.8430    -0.9500    -0.1760 C.3   1 <1>   0.0700 
  4 C        1.2490     1.7940     0.6400 C.ar  1 <1>  -0.1500 
  5 C       -1.0760     2.0730     0.0770 C.ar  1 <1>  -0.1500 
  6 C       -1.9700    -2.4720    -0.2330 C.3   1 <1>  -0.1600 
  7 C        1.4010     3.1700     0.6930 C.ar  1 <1>  -0.1500 
  8 C       -0.9190     3.4480     0.1320 C.ar  1 <1>  -0.1500 
  9 C       -3.3820    -2.8810    -0.6470 C.3   1 <1>   0.1400 
 10 C        0.3170     3.9940     0.4390 C.ar  1 <1>  -0.1500 
 11 N       -3.4780    -4.3520    -0.6400 N.am  1 <1>  -0.7300 
 12 C       -4.4100    -5.1110     0.0120 C.2   1 <1>   0.7160 
 13 O       -5.2840    -4.5500     0.6500 O.2   1 <1>  -0.5700 
 14 C       -4.3270    -6.5620    -0.0750 C.2   1 <1>   0.2030 
 15 N       -3.4080    -7.2370    -0.7470 N.2   1 <1>  -0.7070 
 16 C       -5.2040    -7.4490     0.5410 C.2   1 <1>  -0.1500 
 17 N       -3.7020    -8.5270    -0.5580 N.pl3 1 <1>   0.3140 
 18 C       -4.7910    -8.7040     0.2270 C.2   1 <1>  -0.2370 
 19 C       -2.8620    -9.5690    -1.1630 C.3   1 <1>   0.0960 
 20 C       -5.3790    -9.9540     0.6110 C.2   1 <1>   0.7150 
 21 C       -2.3750   -10.5240    -0.0760 C.3   1 <1>   0.2000 
 22 O       -6.4910    -9.9750     1.0910 O.2   1 <1>  -0.5700 
 23 N       -4.7930   -11.1720     0.4800 N.am  1 <1>  -0.7300 
 24 O       -1.2110   -11.1410    -0.5190 O.3   1 <1>  -0.6800 
 25 C       -3.3880   -11.6230     0.2770 C.3   1 <1>   0.1400 
 26 H       -2.0350    -0.4990    -1.1340 H     1 <1>   0.0800 
 27 H       -2.4810    -0.5280     0.5800 H     1 <1>   0.0800 
 28 H        2.0820     1.1430     0.8350 H     1 <1>   0.1500 
 29 H       -2.0390     1.6660    -0.1610 H     1 <1>   0.1500 
 30 H       -1.7530    -2.8780     0.7400 H     1 <1>   0.0800 
 31 H       -1.2600    -2.8600    -0.9410 H     1 <1>   0.0800 
 32 H        2.3590     3.5960     0.9320 H     1 <1>   0.1500 
 33 H       -1.7570     4.0940    -0.0640 H     1 <1>   0.1500 
 34 H       -3.6020    -2.5180    -1.6370 H     1 <1>   0.0800 
 35 H       -4.1020    -2.4650     0.0380 H     1 <1>   0.0800 
 36 H        0.4360     5.0630     0.4810 H     1 <1>   0.1500 
 37 H       -2.7690    -4.8810    -1.1560 H     1 <1>   0.3700 
 38 H       -6.0490    -7.1660     1.1470 H     1 <1>   0.1500 
 39 H       -2.0210    -9.0830    -1.6260 H     1 <1>   0.0800 
 40 H       -3.4350   -10.0860    -1.9100 H     1 <1>   0.0800 
 41 H       -2.1080    -9.9680     0.8080 H     1 <1>   0.0800 
 42 H       -5.4240   -11.9150     0.7900 H     1 <1>   0.3700 
 43 H       -1.3510   -11.6330    -1.3510 H     1 <1>   0.4000 
 44 H       -3.0560   -12.1130     1.1760 H     1 <1>   0.0800 
 45 H       -3.3970   -12.3520    -0.5150 H     1 <1>   0.0800 
@<TRIPOS>BOND
  1   1   2  1   
  2   1   3  1   
  3   2   4  ar  
  4   2   5  ar  
  5   3   6  1   
  6   3  26  1   
  7   3  27  1   
  8   4   7  ar  
  9   4  28  1   
 10   5   8  ar  
 11   5  29  1   
 12   6   9  1   
 13   6  30  1   
 14   6  31  1   
 15   7  10  ar  
 16   7  32  1   
 17   8  10  ar  
 18   8  33  1   
 19   9  11  1   
 20   9  34  1   
 21   9  35  1   
 22  10  36  1   
 23  11  12  am  
 24  11  37  1   
 25  12  13  2   
 26  12  14  1   
 27  14  15  2   
 28  14  16  1   
 29  15  17  1   
 30  16  18  2   
 31  16  38  1   
 32  17  18  1   
 33  17  19  1   
 34  18  20  1   
 35  19  21  1   
 36  19  39  1   
 37  19  40  1   
 38  20  22  2   
 39  20  23  am  
 40  21  24  1   
 41  21  25  1   
 42  21  41  1   
 43  23  25  1   
 44  23  42  1   
 45  24  43  1   
 46  25  44  1   
 47  25  45  1   
@<TRIPOS>SUBSTRUCTURE
  1 ****  11 GROUP 4 **** **** 0

# MOE 2024.06 (io_trps.svl 2023.06)
