@<TRIPOS>MOLECULE
NONAME
47 49 1 0 0 
SMALL
USER_CHARGES


@<TRIPOS>ATOM
  1 F       -0.7790     0.4930     1.2800 F     1 <1>  -0.3400 
  2 C       -1.8460     1.2400     1.0020 C.3   1 <1>   1.1640 
  3 F       -2.5490     1.2840     2.1320 F     1 <1>  -0.3400 
  4 F       -2.5740     0.5210     0.1500 F     1 <1>  -0.3400 
  5 C       -1.5130     2.6560     0.4480 C.ar  1 <1>   0.1660 
  6 N       -0.2490     2.9320     0.1600 N.ar  1 <1>  -0.6200 
  7 C       -2.4990     3.6200     0.2560 C.ar  1 <1>  -0.1440 
  8 C        0.0330     4.1370    -0.3070 C.ar  1 <1>   0.7200 
  9 C       -2.0910     4.8510    -0.2300 C.ar  1 <1>   0.1660 
 10 C       -3.9790     3.3640     0.5770 C.3   1 <1>  -0.0170 
 11 N       -0.8420     5.1060    -0.5220 N.ar  1 <1>  -0.6200 
 12 N        1.3520     4.4110    -0.5780 N.pl3 1 <1>  -0.8380 
 13 C       -3.0570     6.0020    -0.4720 C.3   1 <1>  -0.0170 
 14 C       -4.9250     4.3820    -0.0670 C.3   1 <1>  -0.1600 
 15 C        1.7450     5.4190    -1.6060 C.3   1 <1>   0.3890 
 16 C        2.4560     3.5080    -0.1340 C.3   1 <1>   0.1290 
 17 C       -4.4250     5.8030     0.1870 C.3   1 <1>  -0.1600 
 18 C        2.7180     6.4380    -1.0320 C.2   1 <1>   0.0070 
 19 N        3.9270     6.5890    -1.4580 N.2   1 <1>  -0.3380 
 20 N        2.4410     7.2860    -0.0330 N.pl3 1 <1>   0.0480 
 21 N        4.4830     7.5580    -0.7300 N.2   1 <1>  -0.3380 
 22 C        3.5880     7.9540     0.1050 C.2   1 <1>   0.0370 
 23 C        1.2000     7.5070     0.7380 C.3   1 <1>   0.0960 
 24 C        0.2470     8.3940    -0.0610 C.3   1 <1>   0.1200 
 25 O       -0.7600     8.8370     0.7920 O.3   1 <1>  -0.5600 
 26 C       -1.6350     9.7470     0.2070 C.3   1 <1>   0.0400 
 27 H       -4.1080     3.4050     1.6450 H     1 <1>   0.0800 
 28 H       -4.2800     2.3860     0.2450 H     1 <1>   0.0800 
 29 H       -3.1840     6.1110    -1.5340 H     1 <1>   0.0800 
 30 H       -2.6200     6.9110    -0.0990 H     1 <1>   0.0800 
 31 H       -5.9140     4.2630     0.3430 H     1 <1>   0.0800 
 32 H       -4.9810     4.2030    -1.1280 H     1 <1>   0.0800 
 33 H        0.8900     5.9330    -2.0070 H     1 <1>   0.0800 
 34 H        2.2210     4.9080    -2.4240 H     1 <1>   0.0800 
 35 H        2.2140     3.0550     0.8120 H     1 <1>   0.0800 
 36 H        3.3720     4.0610    -0.0170 H     1 <1>   0.0800 
 37 H        2.6050     2.7320    -0.8640 H     1 <1>   0.0800 
 38 H       -5.1240     6.5190    -0.2090 H     1 <1>   0.0800 
 39 H       -4.3390     5.9710     1.2470 H     1 <1>   0.0800 
 40 H        3.7310     8.7310     0.8330 H     1 <1>   0.1500 
 41 H        1.4550     7.9950     1.6610 H     1 <1>   0.0800 
 42 H        0.7410     6.5630     0.9620 H     1 <1>   0.0800 
 43 H       -0.2020     7.8390    -0.8660 H     1 <1>   0.0800 
 44 H        0.7700     9.2550    -0.4420 H     1 <1>   0.0800 
 45 H       -2.3860    10.0040     0.9330 H     1 <1>   0.0800 
 46 H       -2.0990     9.2960    -0.6530 H     1 <1>   0.0800 
 47 H       -1.0900    10.6310    -0.0770 H     1 <1>   0.0800 
@<TRIPOS>BOND
  1   1   2  1   
  2   2   3  1   
  3   2   4  1   
  4   2   5  1   
  5   5   6  ar  
  6   5   7  ar  
  7   6   8  ar  
  8   7   9  ar  
  9   7  10  1   
 10   8  11  ar  
 11   8  12  1   
 12   9  11  ar  
 13   9  13  1   
 14  10  14  1   
 15  10  27  1   
 16  10  28  1   
 17  12  15  1   
 18  12  16  1   
 19  13  17  1   
 20  13  29  1   
 21  13  30  1   
 22  14  17  1   
 23  14  31  1   
 24  14  32  1   
 25  15  18  1   
 26  15  33  1   
 27  15  34  1   
 28  16  35  1   
 29  16  36  1   
 30  16  37  1   
 31  17  38  1   
 32  17  39  1   
 33  18  19  2   
 34  18  20  1   
 35  19  21  1   
 36  20  22  1   
 37  20  23  1   
 38  21  22  2   
 39  22  40  1   
 40  23  24  1   
 41  23  41  1   
 42  23  42  1   
 43  24  25  1   
 44  24  43  1   
 45  24  44  1   
 46  25  26  1   
 47  26  45  1   
 48  26  46  1   
 49  26  47  1   
@<TRIPOS>SUBSTRUCTURE
  1 ****  11 GROUP 4 **** **** 0

# MOE 2024.06 (io_trps.svl 2023.06)
