@<TRIPOS>MOLECULE
NONAME
36 37 1 0 0 
SMALL
USER_CHARGES


@<TRIPOS>ATOM
  1 BR      -1.1200     0.6480     0.8570 Br    1 <1>  -0.1110 
  2 C       -0.9710    -1.2240     0.4190 C.ar  1 <1>   0.1110 
  3 C       -1.9650    -2.1410     0.7510 C.ar  1 <1>  -0.0090 
  4 C        0.1960    -1.5810    -0.2340 C.ar  1 <1>  -0.1500 
  5 S       -3.5140    -1.6980     1.5890 S.o2  1 <1>   1.4470 
  6 C       -1.7210    -3.4640     0.3910 C.ar  1 <1>  -0.1500 
  7 C        0.4040    -2.9030    -0.5750 C.ar  1 <1>  -0.1500 
  8 O       -3.3030    -0.6550     2.5650 O.2   1 <1>  -0.6500 
  9 O       -4.1680    -2.9030     2.0560 O.2   1 <1>  -0.6500 
 10 N       -4.5450    -1.0650     0.3640 N.am  1 <1>  -0.6390 
 11 C       -0.5580    -3.8460    -0.2600 C.ar  1 <1>  -0.1500 
 12 C       -4.2880     0.1600    -0.2310 C.2   1 <1>   0.4340 
 13 C       -5.2780    -2.0530    -0.4080 C.3   1 <1>   0.4760 
 14 N       -3.8470     0.2850    -1.4350 N.2   1 <1>  -0.4100 
 15 C       -4.5070     1.4190     0.3450 C.2   1 <1>  -0.1810 
 16 O       -4.3490    -2.8630    -1.0400 O.3   1 <1>  -0.5600 
 17 O       -3.7500     1.5720    -1.6560 O.3   1 <1>  -0.0190 
 18 C       -4.1340     2.2710    -0.6210 C.2   1 <1>  -0.0400 
 19 C       -5.0470     1.7190     1.7340 C.3   1 <1>  -0.0590 
 20 C       -4.9090    -3.7890    -1.9120 C.3   1 <1>   0.0400 
 21 C       -4.0880     3.7830    -0.6950 C.3   1 <1>  -0.0600 
 22 H        0.9300    -0.8310    -0.4700 H     1 <1>   0.1500 
 23 H       -2.4610    -4.2140     0.6180 H     1 <1>   0.1500 
 24 H        1.3060    -3.1980    -1.0830 H     1 <1>   0.1500 
 25 H       -0.4060    -4.8780    -0.5240 H     1 <1>   0.1500 
 26 H       -5.8860    -1.5690    -1.1540 H     1 <1>   0.0800 
 27 H       -5.8930    -2.6590     0.2370 H     1 <1>   0.0800 
 28 H       -5.7600     0.9690     2.0270 H     1 <1>   0.0800 
 29 H       -5.5320     2.6780     1.7510 H     1 <1>   0.0800 
 30 H       -4.2420     1.7290     2.4460 H     1 <1>   0.0800 
 31 H       -4.1100    -4.3660    -2.3420 H     1 <1>   0.0800 
 32 H       -5.4370    -3.2680    -2.6920 H     1 <1>   0.0800 
 33 H       -5.5730    -4.4380    -1.3660 H     1 <1>   0.0800 
 34 H       -4.4120     4.2180     0.2320 H     1 <1>   0.0800 
 35 H       -4.7280     4.1280    -1.4870 H     1 <1>   0.0800 
 36 H       -3.0820     4.1040    -0.8950 H     1 <1>   0.0800 
@<TRIPOS>BOND
  1   1   2  1   
  2   2   3  ar  
  3   2   4  ar  
  4   3   5  1   
  5   3   6  ar  
  6   4   7  ar  
  7   4  22  1   
  8   5   8  2   
  9   5   9  2   
 10   5  10  am  
 11   6  11  ar  
 12   6  23  1   
 13   7  11  ar  
 14   7  24  1   
 15  10  12  1   
 16  10  13  1   
 17  11  25  1   
 18  12  14  2   
 19  12  15  1   
 20  13  16  1   
 21  13  26  1   
 22  13  27  1   
 23  14  17  1   
 24  15  18  2   
 25  15  19  1   
 26  16  20  1   
 27  17  18  1   
 28  18  21  1   
 29  19  28  1   
 30  19  29  1   
 31  19  30  1   
 32  20  31  1   
 33  20  32  1   
 34  20  33  1   
 35  21  34  1   
 36  21  35  1   
 37  21  36  1   
@<TRIPOS>SUBSTRUCTURE
  1 ****  10 GROUP 4 **** **** 0

# MOE 2024.06 (io_trps.svl 2023.06)
