@<TRIPOS>MOLECULE
NONAME
44 45 1 0 0 
SMALL
USER_CHARGES


@<TRIPOS>ATOM
  1 CL      -1.7620    -0.8150    -2.1050 Cl    1 <1>  -0.1770 
  2 C       -2.2800     0.2040    -0.7830 C.ar  1 <1>   0.1770 
  3 C       -3.0630    -0.3190     0.2480 C.ar  1 <1>   0.0860 
  4 C       -1.8860     1.5270    -0.8140 C.ar  1 <1>  -0.1500 
  5 C       -3.4170     0.5510     1.2900 C.ar  1 <1>  -0.1440 
  6 C       -3.4800    -1.7080     0.2140 C.2   1 <1>   0.5440 
  7 C       -2.2640     2.3720     0.2100 C.ar  1 <1>  -0.1500 
  8 C       -3.0220     1.8800     1.2580 C.ar  1 <1>  -0.1500 
  9 C       -4.2160     0.0650     2.4940 C.3   1 <1>  -0.0960 
 10 O       -3.1660    -2.4660     1.1130 O.2   1 <1>  -0.5700 
 11 N       -4.2880    -2.2040    -0.7870 N.am  1 <1>  -0.6600 
 12 C       -4.1640    -3.6350    -1.1790 C.3   1 <1>   0.3200 
 13 C       -5.2030    -1.3430    -1.6040 C.3   1 <1>   0.1400 
 14 C       -5.2190    -4.3920    -0.4110 C.2   1 <1>  -0.3320 
 15 C       -6.4170    -0.8740    -0.7780 C.3   1 <1>   0.3430 
 16 N       -5.1700    -4.5060     0.9290 N.pl3 1 <1>   0.0330 
 17 C       -6.3310    -5.0430    -0.8150 C.2   1 <1>   0.0770 
 18 N       -7.1820    -2.0330    -0.2190 N.4   1 <1>  -0.9590 
 19 C       -6.2890    -5.1790     1.2630 C.2   1 <1>   0.0360 
 20 N       -7.0260    -5.4940     0.2450 N.2   1 <1>  -0.5650 
 21 C       -8.2310    -2.5430    -1.1530 C.3   1 <1>   0.2630 
 22 C       -7.7810    -1.7430     1.1150 C.3   1 <1>   0.2630 
 23 H       -1.2850     1.8910    -1.6300 H     1 <1>   0.1500 
 24 H       -1.9620     3.4070     0.1990 H     1 <1>   0.1500 
 25 H       -3.2920     2.5500     2.0580 H     1 <1>   0.1500 
 26 H       -5.0690    -0.5070     2.1830 H     1 <1>   0.0800 
 27 H       -4.5600     0.8900     3.0920 H     1 <1>   0.0800 
 28 H       -3.5920    -0.5590     3.1110 H     1 <1>   0.0800 
 29 H       -3.1830    -4.0060    -0.9270 H     1 <1>   0.0800 
 30 H       -4.3010    -3.7480    -2.2410 H     1 <1>   0.0800 
 31 H       -5.5440    -1.8820    -2.4710 H     1 <1>   0.0800 
 32 H       -4.6660    -0.4810    -1.9600 H     1 <1>   0.0800 
 33 H       -7.0640    -0.2650    -1.3880 H     1 <1>   0.0800 
 34 H       -6.0520    -0.2590     0.0280 H     1 <1>   0.0800 
 35 H       -4.4210    -4.1350     1.5370 H     1 <1>   0.2700 
 36 H       -6.6840    -5.2040    -1.8210 H     1 <1>   0.1500 
 37 H       -6.4930    -2.8060    -0.0860 H     1 <1>   0.4500 
 38 H       -6.5280    -5.4230     2.2850 H     1 <1>   0.1500 
 39 H       -8.9980    -1.8000    -1.3030 H     1 <1>   0.0800 
 40 H       -8.6840    -3.4330    -0.7450 H     1 <1>   0.0800 
 41 H       -7.7950    -2.7930    -2.1060 H     1 <1>   0.0800 
 42 H       -8.5060    -0.9490     1.0380 H     1 <1>   0.0800 
 43 H       -7.0150    -1.4500     1.8130 H     1 <1>   0.0800 
 44 H       -8.2720    -2.6240     1.4970 H     1 <1>   0.0800 
@<TRIPOS>BOND
  1   1   2  1   
  2   2   3  ar  
  3   2   4  ar  
  4   3   5  ar  
  5   3   6  1   
  6   4   7  ar  
  7   4  23  1   
  8   5   8  ar  
  9   5   9  1   
 10   6  10  2   
 11   6  11  am  
 12   7   8  ar  
 13   7  24  1   
 14   8  25  1   
 15   9  26  1   
 16   9  27  1   
 17   9  28  1   
 18  11  12  1   
 19  11  13  1   
 20  12  14  1   
 21  12  29  1   
 22  12  30  1   
 23  13  15  1   
 24  13  31  1   
 25  13  32  1   
 26  14  16  1   
 27  14  17  2   
 28  15  18  1   
 29  15  33  1   
 30  15  34  1   
 31  16  19  1   
 32  16  35  1   
 33  17  20  1   
 34  17  36  1   
 35  18  21  1   
 36  18  22  1   
 37  18  37  1   
 38  19  20  2   
 39  19  38  1   
 40  21  39  1   
 41  21  40  1   
 42  21  41  1   
 43  22  42  1   
 44  22  43  1   
 45  22  44  1   
@<TRIPOS>SUBSTRUCTURE
  1 ****  11 GROUP 4 **** **** 0

# MOE 2024.06 (io_trps.svl 2023.06)
