@<TRIPOS>MOLECULE
NONAME
43 44 1 0 0 
SMALL
USER_CHARGES


@<TRIPOS>ATOM
  1 O        1.1120     1.5530    -1.7410 O.co2 1 <1>  -0.9000 
  2 C        0.3190     2.4490    -1.3940 C.2   1 <1>   1.0330 
  3 O       -0.8290     2.4410    -1.8840 O.co2 1 <1>  -0.9000 
  4 C        0.6870     3.5180    -0.4650 C.2   1 <1>  -0.0060 
  5 N        1.8740     3.6860     0.2120 N.2   1 <1>  -0.5650 
  6 C       -0.1070     4.5530    -0.1280 C.2   1 <1>  -0.0100 
  7 C        1.7130     4.7850     0.8650 C.2   1 <1>   0.5620 
  8 O        0.5310     5.3420     0.6960 O.3   1 <1>  -0.2800 
  9 N        2.6630     5.4140     1.6530 N.pl3 1 <1>  -0.8220 
 10 C        2.7820     6.8900     1.5100 C.3   1 <1>   0.2090 
 11 C        4.0040     4.7660     1.7310 C.3   1 <1>   0.2090 
 12 C        3.6490     7.2380     0.2830 C.3   1 <1>   0.1100 
 13 C        4.8590     5.1450     0.5050 C.3   1 <1>   0.1100 
 14 N        4.9980     6.6140     0.3420 N.3   1 <1>  -0.8100 
 15 C        5.7540     6.9080    -0.9120 C.3   1 <1>   0.1710 
 16 C        6.1790     8.3710    -1.0690 C.2   1 <1>   0.5690 
 17 O        6.2960     8.8310    -2.1800 O.2   1 <1>  -0.5700 
 18 N        6.4000     9.0810     0.0690 N.am  1 <1>  -0.7300 
 19 C        6.7880    10.4790     0.2490 C.3   1 <1>   0.3000 
 20 C        6.8910    10.7140     1.7540 C.3   1 <1>  -0.2400 
 21 C        8.1460    10.7230    -0.4080 C.3   1 <1>  -0.2400 
 22 C        5.7110    11.3870    -0.3440 C.3   1 <1>  -0.2400 
 23 H       -1.1100     4.7800    -0.4410 H     1 <1>   0.1500 
 24 H        3.2350     7.2980     2.3960 H     1 <1>   0.0800 
 25 H        1.8080     7.3330     1.4030 H     1 <1>   0.0800 
 26 H        3.8930     3.6960     1.7790 H     1 <1>   0.0800 
 27 H        4.5020     5.0850     2.6290 H     1 <1>   0.0800 
 28 H        3.7460     8.3080     0.2240 H     1 <1>   0.0800 
 29 H        3.1310     6.9050    -0.6020 H     1 <1>   0.0800 
 30 H        4.3990     4.7180    -0.3720 H     1 <1>   0.0800 
 31 H        5.8330     4.7030     0.6160 H     1 <1>   0.0800 
 32 H        5.1640     6.6280    -1.7680 H     1 <1>   0.0800 
 33 H        6.6530     6.3180    -0.9280 H     1 <1>   0.0800 
 34 H        6.1990     8.5740     0.9340 H     1 <1>   0.3700 
 35 H        7.6340    10.0680     2.1860 H     1 <1>   0.0800 
 36 H        5.9440    10.5340     2.2310 H     1 <1>   0.0800 
 37 H        7.1770    11.7320     1.9490 H     1 <1>   0.0800 
 38 H        8.8820    10.0470    -0.0130 H     1 <1>   0.0800 
 39 H        8.4720    11.7300    -0.2220 H     1 <1>   0.0800 
 40 H        8.0820    10.5870    -1.4720 H     1 <1>   0.0800 
 41 H        4.7550    11.1780     0.0990 H     1 <1>   0.0800 
 42 H        5.6420    11.2440    -1.4080 H     1 <1>   0.0800 
 43 H        5.9550    12.4180    -0.1640 H     1 <1>   0.0800 
@<TRIPOS>BOND
  1   1   2  ar  
  2   2   3  ar  
  3   2   4  1   
  4   4   5  1   
  5   4   6  2   
  6   5   7  2   
  7   6   8  1   
  8   6  23  1   
  9   7   8  1   
 10   7   9  1   
 11   9  10  1   
 12   9  11  1   
 13  10  12  1   
 14  10  24  1   
 15  10  25  1   
 16  11  13  1   
 17  11  26  1   
 18  11  27  1   
 19  12  14  1   
 20  12  28  1   
 21  12  29  1   
 22  13  14  1   
 23  13  30  1   
 24  13  31  1   
 25  14  15  1   
 26  15  16  1   
 27  15  32  1   
 28  15  33  1   
 29  16  17  2   
 30  16  18  am  
 31  18  19  1   
 32  18  34  1   
 33  19  20  1   
 34  19  21  1   
 35  19  22  1   
 36  20  35  1   
 37  20  36  1   
 38  20  37  1   
 39  21  38  1   
 40  21  39  1   
 41  21  40  1   
 42  22  41  1   
 43  22  42  1   
 44  22  43  1   
@<TRIPOS>SUBSTRUCTURE
  1 ****  12 GROUP 4 **** **** 0

# MOE 2024.06 (io_trps.svl 2023.06)
