@<TRIPOS>MOLECULE
NONAME
40 41 1 0 0 
SMALL
USER_CHARGES


@<TRIPOS>ATOM
  1 S        0.2860     0.2860     0.6300 S.o2  1 <1>   1.3330 
  2 O        1.4600     0.6560     1.3890 O.2   1 <1>  -0.6500 
  3 O       -0.8470    -0.3070     1.3020 O.2   1 <1>  -0.6500 
  4 N        0.7850    -0.7720    -0.6010 N.am  1 <1>  -0.8490 
  5 C       -0.3000     1.7060    -0.2950 C.3   1 <1>  -0.0550 
  6 C        2.1430    -0.5040    -1.0890 C.3   1 <1>   0.1160 
  7 C        0.6660    -2.1790    -0.2080 C.3   1 <1>   0.1160 
  8 C       -1.0630     2.7490     0.5500 C.3   1 <1>  -0.0800 
  9 C       -1.5840     3.8700    -0.3430 C.3   1 <1>   0.2000 
 10 C       -0.1550     3.4880     1.5470 C.3   1 <1>   0.1100 
 11 O       -2.5970     4.5220     0.3320 O.3   1 <1>  -0.6800 
 12 C       -0.3900     4.8150    -0.4200 C.3   1 <1>   0.1100 
 13 N        0.2280     4.7660     0.9190 N.3   1 <1>  -0.8100 
 14 C        1.6950     4.9680     0.8850 C.3   1 <1>   0.2900 
 15 C        2.0920     6.2560     0.1790 C.2   1 <1>   0.1980 
 16 S        1.7020     7.7640     0.9300 S.3   1 <1>  -0.0800 
 17 N        2.6930     6.3960    -0.9350 N.2   1 <1>  -0.3380 
 18 C        2.4370     8.5310    -0.4340 C.2   1 <1>   0.1980 
 19 N        2.8900     7.7040    -1.2860 N.2   1 <1>  -0.3380 
 20 C        2.4640    10.0420    -0.4710 C.3   1 <1>  -0.0600 
 21 H        0.5320     2.1730    -0.7840 H     1 <1>   0.0800 
 22 H       -0.9650     1.3480    -1.0580 H     1 <1>   0.0800 
 23 H        2.3670    -1.1430    -1.9260 H     1 <1>   0.0800 
 24 H        2.8650    -0.6810    -0.3090 H     1 <1>   0.0800 
 25 H        2.2270     0.5200    -1.4120 H     1 <1>   0.0800 
 26 H        0.9740    -2.8210    -1.0160 H     1 <1>   0.0800 
 27 H       -0.3600    -2.4100     0.0300 H     1 <1>   0.0800 
 28 H        1.2750    -2.3800     0.6580 H     1 <1>   0.0800 
 29 H       -1.8740     2.2530     1.0570 H     1 <1>   0.0800 
 30 H       -1.9550     3.5480    -1.3010 H     1 <1>   0.0800 
 31 H        0.7050     2.9110     1.8350 H     1 <1>   0.0800 
 32 H       -0.7170     3.7080     2.4400 H     1 <1>   0.0800 
 33 H       -2.1810     5.0060     1.0760 H     1 <1>   0.4000 
 34 H       -0.6890     5.8170    -0.6800 H     1 <1>   0.0800 
 35 H        0.3000     4.4550    -1.1640 H     1 <1>   0.0800 
 36 H        2.0710     4.9960     1.8920 H     1 <1>   0.0800 
 37 H        2.1610     4.1410     0.3770 H     1 <1>   0.0800 
 38 H        2.9470    10.3740    -1.3710 H     1 <1>   0.0800 
 39 H        3.0060    10.4180     0.3770 H     1 <1>   0.0800 
 40 H        1.4600    10.4250    -0.4500 H     1 <1>   0.0800 
@<TRIPOS>BOND
  1   1   2  2   
  2   1   3  2   
  3   1   4  am  
  4   1   5  1   
  5   4   6  1   
  6   4   7  1   
  7   5   8  1   
  8   5  21  1   
  9   5  22  1   
 10   6  23  1   
 11   6  24  1   
 12   6  25  1   
 13   7  26  1   
 14   7  27  1   
 15   7  28  1   
 16   8   9  1   
 17   8  10  1   
 18   8  29  1   
 19   9  11  1   
 20   9  12  1   
 21   9  30  1   
 22  10  13  1   
 23  10  31  1   
 24  10  32  1   
 25  11  33  1   
 26  12  13  1   
 27  12  34  1   
 28  12  35  1   
 29  13  14  1   
 30  14  15  1   
 31  14  36  1   
 32  14  37  1   
 33  15  16  1   
 34  15  17  2   
 35  16  18  1   
 36  17  19  1   
 37  18  19  2   
 38  18  20  1   
 39  20  38  1   
 40  20  39  1   
 41  20  40  1   
@<TRIPOS>SUBSTRUCTURE
  1 ****  13 GROUP 4 **** **** 0

# MOE 2024.06 (io_trps.svl 2023.06)
