@<TRIPOS>MOLECULE
NONAME
53 57 1 0 0 
SMALL
USER_CHARGES


@<TRIPOS>ATOM
  1 O        0.0830    -0.4260     1.7050 O.2   1 <1>  -0.5700 
  2 C       -0.5180     0.5240     1.2680 C.2   1 <1>   0.5690 
  3 N       -1.6160     0.3300     0.4510 N.am  1 <1>  -0.6600 
  4 C        0.0130     1.8960     1.6720 C.3   1 <1>   0.1570 
  5 C       -2.5020     1.4230    -0.0800 C.3   1 <1>   0.1400 
  6 C       -1.9110    -1.0270    -0.1060 C.3   1 <1>   0.1400 
  7 N        0.1270     2.8180     0.5220 N.pl3 1 <1>   0.0480 
  8 C       -3.9230     0.9580    -0.4830 C.3   1 <1>   0.4230 
  9 C       -3.3800    -1.4430     0.1010 C.3   1 <1>   0.3430 
 10 C       -0.6160     3.9470     0.3500 C.ar  1 <1>  -0.1520 
 11 C        0.7030     2.5760    -0.6910 C.2   1 <1>   0.0060 
 12 N       -4.3490    -0.2900     0.2590 N.4   1 <1>  -0.9590 
 13 C       -4.0720     0.7650    -2.0090 C.3   1 <1>   0.1200 
 14 C       -0.4570     4.2950    -0.9780 C.ar  1 <1>   0.2270 
 15 C       -1.4280     4.7080     1.1980 C.ar  1 <1>  -0.1500 
 16 N        0.3660     3.4150    -1.6050 N.2   1 <1>  -0.5650 
 17 C        1.6570     1.4250    -0.9550 C.3   1 <1>  -0.0600 
 18 C       -5.7490    -0.6490    -0.1440 C.3   1 <1>   0.5180 
 19 O       -5.3900     0.4000    -2.3160 O.3   1 <1>  -0.5600 
 20 C       -1.1180     5.4070    -1.4960 C.ar  1 <1>  -0.1500 
 21 C       -2.0800     5.8050     0.6780 C.ar  1 <1>  -0.1500 
 22 C       -6.1940    -1.9080     0.6280 C.3   1 <1>  -0.1950 
 23 C       -5.8650    -0.7620    -1.6870 C.3   1 <1>   0.1200 
 24 C       -1.9270     6.1540    -0.6690 C.ar  1 <1>  -0.1500 
 25 C       -5.9610    -3.3220     0.1780 C.3   1 <1>  -0.2000 
 26 C       -7.3530    -2.7560     0.1990 C.3   1 <1>  -0.2000 
 27 H        0.9880     1.7800     2.1080 H     1 <1>   0.0800 
 28 H       -0.6370     2.3190     2.4120 H     1 <1>   0.0800 
 29 H       -2.6130     2.1780     0.6770 H     1 <1>   0.0800 
 30 H       -2.0280     1.8870    -0.9280 H     1 <1>   0.0800 
 31 H       -1.6920    -1.0180    -1.1600 H     1 <1>   0.0800 
 32 H       -1.2760    -1.7780     0.3320 H     1 <1>   0.0800 
 33 H       -4.5930     1.7620    -0.2260 H     1 <1>   0.0800 
 34 H       -3.4360    -2.0680     0.9780 H     1 <1>   0.0800 
 35 H       -3.6700    -2.0550    -0.7360 H     1 <1>   0.0800 
 36 H       -4.3550    -0.0550     1.2570 H     1 <1>   0.4500 
 37 H       -3.4050     0.0120    -2.3880 H     1 <1>   0.0800 
 38 H       -3.8660     1.6890    -2.5210 H     1 <1>   0.0800 
 39 H       -1.5350     4.4520     2.2370 H     1 <1>   0.1500 
 40 H        2.1590     1.5800    -1.8940 H     1 <1>   0.0800 
 41 H        1.1230     0.4950    -1.0070 H     1 <1>   0.0800 
 42 H        2.3990     1.3680    -0.1800 H     1 <1>   0.0800 
 43 H       -6.4060     0.1520     0.1540 H     1 <1>   0.0800 
 44 H       -0.9750     5.6550    -2.5320 H     1 <1>   0.1500 
 45 H       -2.7080     6.4140     1.3060 H     1 <1>   0.1500 
 46 H       -6.1580    -1.7250     1.6890 H     1 <1>   0.1000 
 47 H       -6.8960    -0.8770    -1.9710 H     1 <1>   0.0800 
 48 H       -5.3140    -1.6040    -2.0660 H     1 <1>   0.0800 
 49 H       -2.4430     7.0190    -1.0510 H     1 <1>   0.1500 
 50 H       -5.5500    -3.5580    -0.7880 H     1 <1>   0.1000 
 51 H       -5.7190    -4.0750     0.9110 H     1 <1>   0.1000 
 52 H       -8.0370    -3.1200     0.9490 H     1 <1>   0.1000 
 53 H       -7.8450    -2.6040    -0.7470 H     1 <1>   0.1000 
@<TRIPOS>BOND
  1   1   2  2   
  2   2   3  am  
  3   2   4  1   
  4   3   5  1   
  5   3   6  1   
  6   4   7  1   
  7   4  27  1   
  8   4  28  1   
  9   5   8  1   
 10   5  29  1   
 11   5  30  1   
 12   6   9  1   
 13   6  31  1   
 14   6  32  1   
 15   7  10  1   
 16   7  11  1   
 17   8  12  1   
 18   8  13  1   
 19   8  33  1   
 20   9  12  1   
 21   9  34  1   
 22   9  35  1   
 23  10  14  ar  
 24  10  15  ar  
 25  11  16  2   
 26  11  17  1   
 27  12  18  1   
 28  12  36  1   
 29  13  19  1   
 30  13  37  1   
 31  13  38  1   
 32  14  16  1   
 33  14  20  ar  
 34  15  21  ar  
 35  15  39  1   
 36  17  40  1   
 37  17  41  1   
 38  17  42  1   
 39  18  22  1   
 40  18  23  1   
 41  18  43  1   
 42  19  23  1   
 43  20  24  ar  
 44  20  44  1   
 45  21  24  ar  
 46  21  45  1   
 47  22  25  1   
 48  22  26  1   
 49  22  46  1   
 50  23  47  1   
 51  23  48  1   
 52  24  49  1   
 53  25  26  1   
 54  25  50  1   
 55  25  51  1   
 56  26  52  1   
 57  26  53  1   
@<TRIPOS>SUBSTRUCTURE
  1 ****   5 GROUP 4 **** **** 0

# MOE 2024.06 (io_trps.svl 2023.06)
