@<TRIPOS>MOLECULE
NONAME
39 40 1 0 0 
SMALL
USER_CHARGES


@<TRIPOS>ATOM
  1 O        1.1140    -0.8130     1.9670 O.co2 1 <1>  -0.9000 
  2 C        2.0330    -0.8860     1.1560 C.2   1 <1>   0.9060 
  3 O        2.5050    -1.9510     0.7400 O.co2 1 <1>  -0.9000 
  4 C        2.6440     0.3990     0.6450 C.3   1 <1>  -0.1860 
  5 C        4.1590     0.3760     0.8760 C.3   1 <1>   0.2000 
  6 C        2.2810     0.6730    -0.8390 C.3   1 <1>  -0.1600 
  7 O        4.6980    -0.6660     0.1380 O.3   1 <1>  -0.6800 
  8 C        4.8030     1.6910     0.3960 C.3   1 <1>   0.3430 
  9 C        3.4380     1.2630    -1.6510 C.3   1 <1>   0.3430 
 10 N        4.1460     2.2880    -0.8340 N.4   1 <1>  -0.9590 
 11 C        5.1220     3.0560    -1.6420 C.3   1 <1>   0.4860 
 12 C        5.6490     4.2040    -0.8020 C.ar  1 <1>  -0.1430 
 13 C        4.7970     5.2280    -0.4150 C.ar  1 <1>  -0.1500 
 14 C        6.9810     4.2410    -0.4070 C.ar  1 <1>  -0.1500 
 15 C        5.2730     6.2600     0.3680 C.ar  1 <1>   0.0830 
 16 C        7.4590     5.2850     0.3710 C.ar  1 <1>  -0.1500 
 17 O        4.4300     7.2330     0.7470 O.3   1 <1>  -0.5330 
 18 C        6.6040     6.3080     0.7700 C.ar  1 <1>   0.0830 
 19 O        6.9890     7.3670     1.5370 O.3   1 <1>  -0.3630 
 20 C        8.3330     7.5260     1.9390 C.3   1 <1>   0.0400 
 21 H        2.2350     1.1900     1.2460 H     1 <1>   0.0800 
 22 H        4.3880     0.1890     1.9120 H     1 <1>   0.0800 
 23 H        1.4230     1.3190    -0.8850 H     1 <1>   0.0800 
 24 H        1.9970    -0.2540    -1.3110 H     1 <1>   0.0800 
 25 H        4.0680    -1.4430     0.2700 H     1 <1>   0.4000 
 26 H        5.8440     1.4930     0.2060 H     1 <1>   0.0800 
 27 H        4.7500     2.4100     1.1960 H     1 <1>   0.0800 
 28 H        3.0570     1.6930    -2.5630 H     1 <1>   0.0800 
 29 H        4.1260     0.4710    -1.9060 H     1 <1>   0.0800 
 30 H        3.4340     2.9420    -0.4910 H     1 <1>   0.4500 
 31 H        5.9330     2.4160    -1.9470 H     1 <1>   0.0800 
 32 H        4.6440     3.4500    -2.5240 H     1 <1>   0.0800 
 33 H        3.7620     5.2490    -0.7080 H     1 <1>   0.1500 
 34 H        7.6630     3.4610    -0.7020 H     1 <1>   0.1500 
 35 H        8.4950     5.2850     0.6560 H     1 <1>   0.1500 
 36 H        4.9170     7.8980     1.2770 H     1 <1>   0.4500 
 37 H        8.4060     8.4320     2.5130 H     1 <1>   0.0800 
 38 H        8.9540     7.5990     1.0630 H     1 <1>   0.0800 
 39 H        8.6190     6.6860     2.5470 H     1 <1>   0.0800 
@<TRIPOS>BOND
  1   1   2  ar  
  2   2   3  ar  
  3   2   4  1   
  4   4   5  1   
  5   4   6  1   
  6   4  21  1   
  7   5   7  1   
  8   5   8  1   
  9   5  22  1   
 10   6   9  1   
 11   6  23  1   
 12   6  24  1   
 13   7  25  1   
 14   8  10  1   
 15   8  26  1   
 16   8  27  1   
 17   9  10  1   
 18   9  28  1   
 19   9  29  1   
 20  10  11  1   
 21  10  30  1   
 22  11  12  1   
 23  11  31  1   
 24  11  32  1   
 25  12  13  ar  
 26  12  14  ar  
 27  13  15  ar  
 28  13  33  1   
 29  14  16  ar  
 30  14  34  1   
 31  15  17  1   
 32  15  18  ar  
 33  16  18  ar  
 34  16  35  1   
 35  17  36  1   
 36  18  19  1   
 37  19  20  1   
 38  20  37  1   
 39  20  38  1   
 40  20  39  1   
@<TRIPOS>SUBSTRUCTURE
  1 ****   8 GROUP 4 **** **** 0

# MOE 2024.06 (io_trps.svl 2023.06)
