@<TRIPOS>MOLECULE
NONAME
38 40 1 0 0 
SMALL
USER_CHARGES


@<TRIPOS>ATOM
  1 F       -1.6050     2.7830    -0.3290 F     1 <1>  -0.1900 
  2 C       -0.3940     3.1180    -0.6840 C.ar  1 <1>   0.1900 
  3 C       -0.0720     3.1200    -2.0260 C.ar  1 <1>  -0.1500 
  4 C        0.5170     3.4560     0.3020 C.ar  1 <1>  -0.1500 
  5 C        1.2190     3.4820    -2.3560 C.ar  1 <1>   0.1900 
  6 C        1.8100     3.8140    -0.0580 C.ar  1 <1>  -0.0320 
  7 F        1.5630     3.4970    -3.6150 F     1 <1>  -0.1900 
  8 C        2.1600     3.8290    -1.4020 C.ar  1 <1>  -0.1500 
  9 C        2.8350     4.1970     0.9990 C.3   1 <1>   0.2010 
 10 N        2.8560     5.6390     1.2730 N.pl3 1 <1>  -0.6690 
 11 C        4.1080     3.4270     1.1430 C.3   1 <1>  -0.2000 
 12 C        3.0430     3.3100     2.1850 C.3   1 <1>  -0.2000 
 13 C        3.4630     6.5920     0.4870 C.ar  1 <1>   0.4100 
 14 N        4.3620     6.1920    -0.3920 N.ar  1 <1>  -0.6200 
 15 C        3.1400     7.9390     0.6150 C.ar  1 <1>  -0.1430 
 16 C        4.9270     7.1310    -1.1200 C.ar  1 <1>   0.4770 
 17 C        3.8020     8.8160    -0.2040 C.ar  1 <1>   0.1600 
 18 C        2.1000     8.4550     1.6060 C.3   1 <1>  -0.0170 
 19 N        4.7030     8.4300    -1.0830 N.ar  1 <1>  -0.6200 
 20 C        5.9510     6.6640    -2.1260 C.3   1 <1>  -0.0970 
 21 C        2.6900     8.5610     3.0150 C.3   1 <1>  -0.2400 
 22 H       -0.7910     2.8540    -2.7780 H     1 <1>   0.1500 
 23 H        0.2170     3.4400     1.3340 H     1 <1>   0.1500 
 24 H        3.1530     4.1120    -1.7020 H     1 <1>   0.1500 
 25 H        2.0750     5.9530     1.8430 H     1 <1>   0.4000 
 26 H        5.0030     3.9860     1.3500 H     1 <1>   0.1000 
 27 H        4.2800     2.5950     0.4850 H     1 <1>   0.1000 
 28 H        2.5180     2.3740     2.2490 H     1 <1>   0.1000 
 29 H        3.2250     3.7550     3.1460 H     1 <1>   0.1000 
 30 H        3.5970     9.8720    -0.1470 H     1 <1>   0.1500 
 31 H        1.2420     7.8060     1.6130 H     1 <1>   0.0800 
 32 H        1.7570     9.4270     1.2970 H     1 <1>   0.0800 
 33 H        6.3830     5.7320    -1.8100 H     1 <1>   0.0800 
 34 H        6.7320     7.3950    -2.2210 H     1 <1>   0.0800 
 35 H        5.4750     6.5280    -3.0780 H     1 <1>   0.0800 
 36 H        3.0300     7.5990     3.3590 H     1 <1>   0.0800 
 37 H        1.9490     8.9300     3.7020 H     1 <1>   0.0800 
 38 H        3.5270     9.2370     3.0170 H     1 <1>   0.0800 
@<TRIPOS>BOND
  1   1   2  1   
  2   2   3  ar  
  3   2   4  ar  
  4   3   5  ar  
  5   3  22  1   
  6   4   6  ar  
  7   4  23  1   
  8   5   7  1   
  9   5   8  ar  
 10   6   8  ar  
 11   6   9  1   
 12   8  24  1   
 13   9  10  1   
 14   9  11  1   
 15   9  12  1   
 16  10  13  1   
 17  10  25  1   
 18  11  12  1   
 19  11  26  1   
 20  11  27  1   
 21  12  28  1   
 22  12  29  1   
 23  13  14  ar  
 24  13  15  ar  
 25  14  16  ar  
 26  15  17  ar  
 27  15  18  1   
 28  16  19  ar  
 29  16  20  1   
 30  17  19  ar  
 31  17  30  1   
 32  18  21  1   
 33  18  31  1   
 34  18  32  1   
 35  20  33  1   
 36  20  34  1   
 37  20  35  1   
 38  21  36  1   
 39  21  37  1   
 40  21  38  1   
@<TRIPOS>SUBSTRUCTURE
  1 ****  10 GROUP 4 **** **** 0

# MOE 2024.06 (io_trps.svl 2023.06)
