@<TRIPOS>MOLECULE
NONAME
60 62 1 0 0 
SMALL
USER_CHARGES


@<TRIPOS>ATOM
  1 O       -4.1700     1.7730    -1.4700 O.2   1 <1>  -0.5700 
  2 C       -3.4560     1.1310    -0.7340 C.2   1 <1>   0.5690 
  3 N       -3.5370    -0.2430    -0.7150 N.am  1 <1>  -0.6600 
  4 C       -2.4780     1.9200     0.1510 C.3   1 <1>  -0.0190 
  5 C       -2.6780    -1.1290     0.1530 C.3   1 <1>   0.3640 
  6 C       -4.6010    -0.8920    -1.5450 C.3   1 <1>   0.1400 
  7 C       -3.1710     3.0660     0.9100 C.3   1 <1>  -0.1600 
  8 C       -1.3180     2.4950    -0.6800 C.3   1 <1>  -0.1600 
  9 C       -1.2150    -1.0040    -0.2830 C.ar  1 <1>  -0.1430 
 10 C       -3.0600    -2.6440     0.2040 C.3   1 <1>   0.2000 
 11 C       -4.4420    -2.4070    -1.6670 C.3   1 <1>   0.1200 
 12 C       -2.1760     3.8270     1.7910 C.3   1 <1>   0.1400 
 13 C       -0.3230     3.2530     0.2010 C.3   1 <1>   0.1400 
 14 C       -0.2200    -0.8160     0.6680 C.ar  1 <1>  -0.1500 
 15 C       -0.8550    -1.0750    -1.6230 C.ar  1 <1>  -0.1500 
 16 O       -4.2890    -2.9470    -0.3970 O.3   1 <1>  -0.5600 
 17 C       -3.1410    -3.1710     1.6440 C.3   1 <1>   0.1200 
 18 N       -1.0310     4.3190     0.9700 N.am  1 <1>  -0.6600 
 19 C        1.1050    -0.6970     0.2880 C.ar  1 <1>  -0.1500 
 20 C        0.4700    -0.9590    -2.0050 C.ar  1 <1>  -0.1500 
 21 O       -1.9460    -2.9530     2.3250 O.3   1 <1>  -0.6800 
 22 C       -0.7140     5.6580     0.9450 C.2   1 <1>   0.5690 
 23 C        1.4510    -0.7680    -1.0490 C.ar  1 <1>  -0.1500 
 24 O       -1.3940     6.4750     1.5220 O.2   1 <1>  -0.5700 
 25 C        0.5040     6.1510     0.1630 C.3   1 <1>  -0.0990 
 26 C        0.9960     7.5730     0.5090 C.3   1 <1>  -0.0800 
 27 C        2.0640     8.0220    -0.4960 C.3   1 <1>  -0.2400 
 28 C        1.5740     7.6390     1.9300 C.3   1 <1>  -0.2400 
 29 H       -2.0610     1.2770     0.8970 H     1 <1>   0.0800 
 30 H       -2.7610    -0.7560     1.1590 H     1 <1>   0.0800 
 31 H       -5.5590    -0.6780    -1.1030 H     1 <1>   0.0800 
 32 H       -4.5970    -0.4600    -2.5320 H     1 <1>   0.0800 
 33 H       -3.9590     2.6700     1.5240 H     1 <1>   0.0800 
 34 H       -3.6160     3.7560     0.2130 H     1 <1>   0.0800 
 35 H       -1.7040     3.1610    -1.4320 H     1 <1>   0.0800 
 36 H       -0.8010     1.6990    -1.1840 H     1 <1>   0.0800 
 37 H       -2.3150    -3.2150    -0.3220 H     1 <1>   0.0800 
 38 H       -3.5910    -2.6670    -2.2720 H     1 <1>   0.0800 
 39 H       -5.3260    -2.8360    -2.1050 H     1 <1>   0.0800 
 40 H       -1.7970     3.1780     2.5620 H     1 <1>   0.0800 
 41 H       -2.6850     4.6450     2.2720 H     1 <1>   0.0800 
 42 H        0.4460     3.6610    -0.4280 H     1 <1>   0.0800 
 43 H        0.1410     2.5710     0.8940 H     1 <1>   0.0800 
 44 H       -0.4720    -0.7630     1.7140 H     1 <1>   0.1500 
 45 H       -1.6080    -1.2140    -2.3790 H     1 <1>   0.1500 
 46 H       -3.3420    -4.2290     1.6480 H     1 <1>   0.0800 
 47 H       -3.9210    -2.6580     2.1790 H     1 <1>   0.0800 
 48 H        1.8680    -0.5520     1.0340 H     1 <1>   0.1500 
 49 H        0.7370    -1.0140    -3.0460 H     1 <1>   0.1500 
 50 H       -1.2410    -3.5420     1.9890 H     1 <1>   0.4000 
 51 H        2.4820    -0.6770    -1.3450 H     1 <1>   0.1500 
 52 H        1.3210     5.4740     0.3270 H     1 <1>   0.0800 
 53 H        0.2420     6.1150    -0.8770 H     1 <1>   0.0800 
 54 H        0.1630     8.2550     0.4420 H     1 <1>   0.0800 
 55 H        2.9170     7.3680    -0.4650 H     1 <1>   0.0800 
 56 H        2.3910     9.0220    -0.2690 H     1 <1>   0.0800 
 57 H        1.6630     8.0210    -1.4940 H     1 <1>   0.0800 
 58 H        2.4110     6.9710     2.0350 H     1 <1>   0.0800 
 59 H        0.8260     7.3700     2.6540 H     1 <1>   0.0800 
 60 H        1.9030     8.6390     2.1510 H     1 <1>   0.0800 
@<TRIPOS>BOND
  1   1   2  2   
  2   2   3  am  
  3   2   4  1   
  4   3   5  1   
  5   3   6  1   
  6   4   7  1   
  7   4   8  1   
  8   4  29  1   
  9   5   9  1   
 10   5  10  1   
 11   5  30  1   
 12   6  11  1   
 13   6  31  1   
 14   6  32  1   
 15   7  12  1   
 16   7  33  1   
 17   7  34  1   
 18   8  13  1   
 19   8  35  1   
 20   8  36  1   
 21   9  14  ar  
 22   9  15  ar  
 23  10  16  1   
 24  10  17  1   
 25  10  37  1   
 26  11  16  1   
 27  11  38  1   
 28  11  39  1   
 29  12  18  1   
 30  12  40  1   
 31  12  41  1   
 32  13  18  1   
 33  13  42  1   
 34  13  43  1   
 35  14  19  ar  
 36  14  44  1   
 37  15  20  ar  
 38  15  45  1   
 39  17  21  1   
 40  17  46  1   
 41  17  47  1   
 42  18  22  am  
 43  19  23  ar  
 44  19  48  1   
 45  20  23  ar  
 46  20  49  1   
 47  21  50  1   
 48  22  24  2   
 49  22  25  1   
 50  23  51  1   
 51  25  26  1   
 52  25  52  1   
 53  25  53  1   
 54  26  27  1   
 55  26  28  1   
 56  26  54  1   
 57  27  55  1   
 58  27  56  1   
 59  27  57  1   
 60  28  58  1   
 61  28  59  1   
 62  28  60  1   
@<TRIPOS>SUBSTRUCTURE
  1 ****   4 GROUP 4 **** **** 0

# MOE 2024.06 (io_trps.svl 2023.06)
