@<TRIPOS>MOLECULE
NONAME
47 49 1 0 0 
SMALL
USER_CHARGES


@<TRIPOS>ATOM
  1 O        0.2910    -4.9420     2.5510 O.2   1 <1>  -0.5700 
  2 C        0.4220    -4.0860     1.6870 C.2   1 <1>   0.7670 
  3 N       -0.3830    -2.9840     1.7680 N.2   1 <1>  -0.6610 
  4 C        1.3410    -4.2560     0.6030 C.2   1 <1>  -0.1240 
  5 C       -0.2830    -2.1080     0.8430 C.2   1 <1>   0.4390 
  6 C        1.3950    -3.3010    -0.3610 C.2   1 <1>  -0.0380 
  7 C        2.1710    -5.5430     0.5800 C.3   1 <1>   0.0390 
  8 N        0.5750    -2.2180    -0.2080 N.pl3 1 <1>  -0.5500 
  9 C       -1.1550    -0.8780     0.8800 C.3   1 <1>  -0.1790 
 10 C        2.2500    -3.3060    -1.6190 C.3   1 <1>  -0.1020 
 11 C        1.3450    -6.6670    -0.0140 C.2   1 <1>   0.5690 
 12 O        1.5720    -7.0360    -1.1400 O.2   1 <1>  -0.5700 
 13 N        0.3320    -7.1800     0.7230 N.am  1 <1>  -0.7300 
 14 C       -0.7390    -8.0680     0.2180 C.3   1 <1>   0.2200 
 15 C       -2.0470    -7.3000     0.0710 C.3   1 <1>  -0.0800 
 16 C       -1.1190    -9.0630     1.3080 C.3   1 <1>   0.1200 
 17 C       -2.5640    -7.2770     1.5100 C.3   1 <1>   0.1200 
 18 C       -1.9490    -5.9180    -0.6030 C.3   1 <1>  -0.0170 
 19 O       -2.0280    -8.4040     2.1420 O.3   1 <1>  -0.5600 
 20 C       -3.2820    -5.1900    -0.5940 C.ar  1 <1>  -0.1430 
 21 C       -3.5950    -4.2680     0.3840 C.ar  1 <1>  -0.1500 
 22 C       -4.2450    -5.4070    -1.5590 C.ar  1 <1>  -0.1500 
 23 C       -4.8210    -3.6250     0.3520 C.ar  1 <1>   0.1600 
 24 C       -5.4400    -4.7100    -1.5000 C.ar  1 <1>   0.1600 
 25 N       -5.7510    -3.8230    -0.5680 N.ar  1 <1>  -0.6200 
 26 H        2.4740    -5.8160     1.5740 H     1 <1>   0.0800 
 27 H        3.0680    -5.4230     0.0050 H     1 <1>   0.0800 
 28 H        0.5780    -1.4700    -0.9040 H     1 <1>   0.4000 
 29 H       -0.5440     0.0050     0.8970 H     1 <1>   0.0800 
 30 H       -1.7700    -0.8880     1.7620 H     1 <1>   0.0800 
 31 H       -1.7940    -0.8570     0.0160 H     1 <1>   0.0800 
 32 H        1.6470    -3.0500    -2.4720 H     1 <1>   0.0800 
 33 H        2.6810    -4.2700    -1.8120 H     1 <1>   0.0800 
 34 H        3.0430    -2.5850    -1.5270 H     1 <1>   0.0800 
 35 H        0.1400    -6.7810     1.6560 H     1 <1>   0.3700 
 36 H       -0.4320    -8.5550    -0.6930 H     1 <1>   0.0800 
 37 H       -2.7290    -7.9030    -0.5030 H     1 <1>   0.0800 
 38 H       -0.2710    -9.3900     1.8850 H     1 <1>   0.0800 
 39 H       -1.6240    -9.9130     0.8850 H     1 <1>   0.0800 
 40 H       -3.6390    -7.3170     1.5590 H     1 <1>   0.0800 
 41 H       -2.2070    -6.4090     2.0390 H     1 <1>   0.0800 
 42 H       -1.6070    -6.0380    -1.6160 H     1 <1>   0.0800 
 43 H       -1.2330    -5.3000    -0.0980 H     1 <1>   0.0800 
 44 H       -2.8980    -4.0420     1.1720 H     1 <1>   0.1500 
 45 H       -4.0760    -6.1100    -2.3540 H     1 <1>   0.1500 
 46 H       -5.0460    -2.9120     1.1260 H     1 <1>   0.1500 
 47 H       -6.1800    -4.8910    -2.2610 H     1 <1>   0.1500 
@<TRIPOS>BOND
  1   1   2  2   
  2   2   3  1   
  3   2   4  1   
  4   3   5  2   
  5   4   6  2   
  6   4   7  1   
  7   5   8  1   
  8   5   9  1   
  9   6   8  1   
 10   6  10  1   
 11   7  11  1   
 12   7  26  1   
 13   7  27  1   
 14   8  28  1   
 15   9  29  1   
 16   9  30  1   
 17   9  31  1   
 18  10  32  1   
 19  10  33  1   
 20  10  34  1   
 21  11  12  2   
 22  11  13  am  
 23  13  14  1   
 24  13  35  1   
 25  14  15  1   
 26  14  16  1   
 27  14  36  1   
 28  15  17  1   
 29  15  18  1   
 30  15  37  1   
 31  16  19  1   
 32  16  38  1   
 33  16  39  1   
 34  17  19  1   
 35  17  40  1   
 36  17  41  1   
 37  18  20  1   
 38  18  42  1   
 39  18  43  1   
 40  20  21  ar  
 41  20  22  ar  
 42  21  23  ar  
 43  21  44  1   
 44  22  24  ar  
 45  22  45  1   
 46  23  25  ar  
 47  23  46  1   
 48  24  25  ar  
 49  24  47  1   
@<TRIPOS>SUBSTRUCTURE
  1 ****  18 GROUP 4 **** **** 0

# MOE 2024.06 (io_trps.svl 2023.06)
