@<TRIPOS>MOLECULE
NONAME
56 59 1 0 0 
SMALL
USER_CHARGES


@<TRIPOS>ATOM
  1 O        1.1410    -1.6420    -0.3260 O.3   1 <1>  -0.5600 
  2 C       -0.1010    -1.7560    -0.9570 C.3   1 <1>   0.1200 
  3 C        1.1620    -2.0370     1.0140 C.3   1 <1>   0.1200 
  4 C       -0.5840    -3.2200    -0.9210 C.3   1 <1>   0.3430 
  5 C        0.7390    -3.5130     1.1400 C.3   1 <1>   0.3430 
  6 N       -0.5930    -3.7690     0.4850 N.4   1 <1>  -0.9590 
  7 C       -0.9180    -5.2330     0.5300 C.3   1 <1>   0.3430 
  8 C       -2.3550    -5.5450     0.0960 C.3   1 <1>   0.1200 
  9 O       -2.5360    -6.9380     0.2010 O.3   1 <1>  -0.3630 
 10 C       -3.6830    -7.5310    -0.2140 C.ar  1 <1>   0.0820 
 11 C       -3.6910    -8.9170    -0.2450 C.ar  1 <1>  -0.1500 
 12 C       -4.8210    -6.8300    -0.6040 C.ar  1 <1>  -0.1500 
 13 C       -4.8170    -9.6100    -0.6620 C.ar  1 <1>  -0.1430 
 14 C       -5.9430    -7.5190    -1.0280 C.ar  1 <1>  -0.1500 
 15 C       -5.9420    -8.9020    -1.0610 C.ar  1 <1>  -0.1500 
 16 C       -4.8180   -11.1270    -0.6860 C.3   1 <1>   0.4860 
 17 N       -4.9280   -11.6360     0.7130 N.4   1 <1>  -0.9590 
 18 C       -4.8480   -13.1140     0.8000 C.3   1 <1>   0.6030 
 19 C       -6.2140   -11.2600     1.3550 C.3   1 <1>   0.3430 
 20 C       -3.7980   -13.6990    -0.1380 C.2   1 <1>  -0.0400 
 21 C       -6.2820   -13.5690     0.5480 C.3   1 <1>  -0.1600 
 22 C       -7.1580   -12.4320     1.0860 C.3   1 <1>  -0.1600 
 23 O       -2.5710   -13.2160    -0.0610 O.3   1 <1>  -0.2800 
 24 C       -3.8630   -14.6610    -1.0880 C.2   1 <1>  -0.1500 
 25 C       -1.8310   -13.8530    -0.9470 C.2   1 <1>  -0.0100 
 26 C       -2.5710   -14.7590    -1.6190 C.2   1 <1>  -0.1500 
 27 H        0.0200    -1.4300    -1.9750 H     1 <1>   0.0800 
 28 H       -0.8010    -1.1000    -0.4690 H     1 <1>   0.0800 
 29 H        0.5110    -1.3920     1.5780 H     1 <1>   0.0800 
 30 H        2.1680    -1.9080     1.3760 H     1 <1>   0.0800 
 31 H        0.0790    -3.8060    -1.5370 H     1 <1>   0.0800 
 32 H       -1.5700    -3.2750    -1.3500 H     1 <1>   0.0800 
 33 H        0.6960    -3.7820     2.1830 H     1 <1>   0.0800 
 34 H        1.4980    -4.1210     0.6740 H     1 <1>   0.0800 
 35 H       -1.2980    -3.2480     1.0250 H     1 <1>   0.4500 
 36 H       -0.7900    -5.5940     1.5380 H     1 <1>   0.0800 
 37 H       -0.2380    -5.7720    -0.1090 H     1 <1>   0.0800 
 38 H       -2.5210    -5.2670    -0.9290 H     1 <1>   0.0800 
 39 H       -3.0660    -5.0670     0.7470 H     1 <1>   0.0800 
 40 H       -2.7990    -9.4390     0.0550 H     1 <1>   0.1500 
 41 H       -4.8600    -5.7580    -0.5880 H     1 <1>   0.1500 
 42 H       -6.8210    -6.9750    -1.3370 H     1 <1>   0.1500 
 43 H       -6.8270    -9.4120    -1.4040 H     1 <1>   0.1500 
 44 H       -3.8990   -11.4670    -1.1370 H     1 <1>   0.0800 
 45 H       -5.6410   -11.4860    -1.2810 H     1 <1>   0.0800 
 46 H       -4.1340   -11.2410     1.2270 H     1 <1>   0.4500 
 47 H       -4.5820   -13.3810     1.8100 H     1 <1>   0.0800 
 48 H       -6.6050   -10.3330     0.9660 H     1 <1>   0.0800 
 49 H       -6.0700   -11.1560     2.4190 H     1 <1>   0.0800 
 50 H       -6.4800   -14.5050     1.0420 H     1 <1>   0.0800 
 51 H       -6.4520   -13.6940    -0.5070 H     1 <1>   0.0800 
 52 H       -7.9100   -12.1520     0.3680 H     1 <1>   0.0800 
 53 H       -7.6510   -12.7160     2.0000 H     1 <1>   0.0800 
 54 H       -4.6980   -15.2610    -1.4100 H     1 <1>   0.1500 
 55 H       -0.7860   -13.6040    -1.0360 H     1 <1>   0.1500 
 56 H       -2.2610   -15.4330    -2.4000 H     1 <1>   0.1500 
@<TRIPOS>BOND
  1   1   2  1   
  2   1   3  1   
  3   2   4  1   
  4   2  27  1   
  5   2  28  1   
  6   3   5  1   
  7   3  29  1   
  8   3  30  1   
  9   4   6  1   
 10   4  31  1   
 11   4  32  1   
 12   5   6  1   
 13   5  33  1   
 14   5  34  1   
 15   6   7  1   
 16   6  35  1   
 17   7   8  1   
 18   7  36  1   
 19   7  37  1   
 20   8   9  1   
 21   8  38  1   
 22   8  39  1   
 23   9  10  1   
 24  10  11  ar  
 25  10  12  ar  
 26  11  13  ar  
 27  11  40  1   
 28  12  14  ar  
 29  12  41  1   
 30  13  15  ar  
 31  13  16  1   
 32  14  15  ar  
 33  14  42  1   
 34  15  43  1   
 35  16  17  1   
 36  16  44  1   
 37  16  45  1   
 38  17  18  1   
 39  17  19  1   
 40  17  46  1   
 41  18  20  1   
 42  18  21  1   
 43  18  47  1   
 44  19  22  1   
 45  19  48  1   
 46  19  49  1   
 47  20  23  1   
 48  20  24  2   
 49  21  22  1   
 50  21  50  1   
 51  21  51  1   
 52  22  52  1   
 53  22  53  1   
 54  23  25  1   
 55  24  26  1   
 56  24  54  1   
 57  25  26  2   
 58  25  55  1   
 59  26  56  1   
@<TRIPOS>SUBSTRUCTURE
  1 ****  11 GROUP 4 **** **** 0

# MOE 2024.06 (io_trps.svl 2023.06)
