@<TRIPOS>MOLECULE
NONAME
49 52 1 0 0 
SMALL
USER_CHARGES


@<TRIPOS>ATOM
  1 O        1.1100    -5.1160     0.1250 O.3   1 <1>  -0.0190 
  2 N        0.7560    -4.0490    -0.5290 N.2   1 <1>  -0.4100 
  3 C        0.1510    -5.5580     0.8900 C.2   1 <1>  -0.0400 
  4 C       -0.4500    -3.7900    -0.1760 C.2   1 <1>   0.1080 
  5 C       -0.9080    -4.7470     0.7320 C.2   1 <1>  -0.1810 
  6 C        0.3980    -6.7940     1.7320 C.3   1 <1>  -0.0600 
  7 C       -1.2010    -2.5850    -0.7050 C.3   1 <1>  -0.0590 
  8 C       -2.2710    -4.8430     1.3720 C.3   1 <1>   0.5240 
  9 N       -3.1000    -5.7220     0.5210 N.4   1 <1>  -0.9590 
 10 C       -3.4990    -5.1270    -0.7890 C.3   1 <1>   0.3430 
 11 C       -4.3310    -6.2710     1.1360 C.3   1 <1>   0.3430 
 12 C       -4.8940    -5.6780    -1.1130 C.3   1 <1>   0.2000 
 13 C       -5.1880    -6.7350    -0.0430 C.3   1 <1>  -0.0800 
 14 O       -5.7970    -4.6400    -0.9370 O.3   1 <1>  -0.6800 
 15 C       -4.9090    -8.1910    -0.5030 C.3   1 <1>  -0.0160 
 16 C       -3.4570    -8.6710    -0.5040 C.ar  1 <1>   0.1670 
 17 N       -2.5720    -7.9640    -1.1410 N.ar  1 <1>  -0.6200 
 18 C       -3.1440    -9.8630     0.1700 C.ar  1 <1>  -0.1500 
 19 C       -1.2860    -8.4100    -1.1630 C.ar  1 <1>   0.3100 
 20 C       -1.8660   -10.3310     0.1720 C.ar  1 <1>  -0.1500 
 21 C       -0.8850    -9.5970    -0.5130 C.ar  1 <1>   0.0000 
 22 C       -0.3130    -7.6540    -1.8350 C.ar  1 <1>  -0.1500 
 23 C        0.4670    -9.9880    -0.5730 C.ar  1 <1>  -0.1500 
 24 C        0.9980    -8.0460    -1.8730 C.ar  1 <1>  -0.1500 
 25 C        1.3910    -9.2290    -1.2380 C.ar  1 <1>  -0.1500 
 26 H       -0.4920    -7.0920     2.2540 H     1 <1>   0.0800 
 27 H        1.1730    -6.5910     2.4490 H     1 <1>   0.0800 
 28 H        0.7210    -7.6040     1.1050 H     1 <1>   0.0800 
 29 H       -1.9600    -2.2660    -0.0150 H     1 <1>   0.0800 
 30 H       -1.6490    -2.8190    -1.6530 H     1 <1>   0.0800 
 31 H       -0.5120    -1.7720    -0.8500 H     1 <1>   0.0800 
 32 H       -2.7190    -3.8680     1.4670 H     1 <1>   0.0800 
 33 H       -2.1670    -5.2750     2.3530 H     1 <1>   0.0800 
 34 H       -2.5190    -6.5370     0.2430 H     1 <1>   0.4500 
 35 H       -3.5430    -4.0530    -0.7350 H     1 <1>   0.0800 
 36 H       -2.7950    -5.4230    -1.5490 H     1 <1>   0.0800 
 37 H       -4.1120    -7.0800     1.8150 H     1 <1>   0.0800 
 38 H       -4.8530    -5.4870     1.6620 H     1 <1>   0.0800 
 39 H       -4.9670    -6.0360    -2.1270 H     1 <1>   0.0800 
 40 H       -6.2270    -6.6920     0.2360 H     1 <1>   0.0800 
 41 H       -6.6690    -4.8540    -1.3340 H     1 <1>   0.4000 
 42 H       -5.3040    -8.3300    -1.4950 H     1 <1>   0.0800 
 43 H       -5.4770    -8.8450     0.1350 H     1 <1>   0.0800 
 44 H       -3.9180   -10.4130     0.6770 H     1 <1>   0.1500 
 45 H       -1.5930   -11.2440     0.6730 H     1 <1>   0.1500 
 46 H       -0.6190    -6.7480    -2.3250 H     1 <1>   0.1500 
 47 H        0.7650   -10.9010    -0.0860 H     1 <1>   0.1500 
 48 H        1.7370    -7.4540    -2.3870 H     1 <1>   0.1500 
 49 H        2.4260    -9.5270    -1.2830 H     1 <1>   0.1500 
@<TRIPOS>BOND
  1   1   2  1   
  2   1   3  1   
  3   2   4  2   
  4   3   5  2   
  5   3   6  1   
  6   4   5  1   
  7   4   7  1   
  8   5   8  1   
  9   6  26  1   
 10   6  27  1   
 11   6  28  1   
 12   7  29  1   
 13   7  30  1   
 14   7  31  1   
 15   8   9  1   
 16   8  32  1   
 17   8  33  1   
 18   9  10  1   
 19   9  11  1   
 20   9  34  1   
 21  10  12  1   
 22  10  35  1   
 23  10  36  1   
 24  11  13  1   
 25  11  37  1   
 26  11  38  1   
 27  12  13  1   
 28  12  14  1   
 29  12  39  1   
 30  13  15  1   
 31  13  40  1   
 32  14  41  1   
 33  15  16  1   
 34  15  42  1   
 35  15  43  1   
 36  16  17  ar  
 37  16  18  ar  
 38  17  19  ar  
 39  18  20  ar  
 40  18  44  1   
 41  19  21  ar  
 42  19  22  ar  
 43  20  21  ar  
 44  20  45  1   
 45  21  23  ar  
 46  22  24  ar  
 47  22  46  1   
 48  23  25  ar  
 49  23  47  1   
 50  24  25  ar  
 51  24  48  1   
 52  25  49  1   
@<TRIPOS>SUBSTRUCTURE
  1 ****  17 GROUP 4 **** **** 0

# MOE 2024.06 (io_trps.svl 2023.06)
