@<TRIPOS>MOLECULE
NONAME
59 62 1 0 0 
SMALL
USER_CHARGES


@<TRIPOS>ATOM
  1 O        0.1790     0.2250    -2.3350 O.2   1 <1>  -0.5700 
  2 C       -0.6390     1.1000    -2.1460 C.2   1 <1>   0.5690 
  3 N       -1.9270     0.7450    -1.8010 N.am  1 <1>  -0.6600 
  4 C       -0.1720     2.5860    -2.2910 C.3   1 <1>   0.3410 
  5 C       -3.1080     1.6260    -1.5920 C.3   1 <1>   0.1400 
  6 C       -2.2550    -0.6400    -1.3820 C.3   1 <1>   0.1400 
  7 O       -0.5030     3.3730    -1.1490 O.3   1 <1>  -0.3630 
  8 C       -0.8740     3.2660    -3.4790 C.3   1 <1>  -0.2400 
  9 C        1.3460     2.7500    -2.5200 C.3   1 <1>  -0.2400 
 10 C       -3.9930     0.8610    -0.6110 C.3   1 <1>   0.2000 
 11 C       -3.7270    -0.6110    -0.9490 C.3   1 <1>  -0.0800 
 12 C       -0.5260     2.9230     0.1430 C.ar  1 <1>   0.0820 
 13 O       -3.5700     1.1410     0.6810 O.3   1 <1>  -0.6800 
 14 C       -4.0640    -1.6000     0.1880 C.3   1 <1>  -0.0170 
 15 C       -1.4300     3.5280     1.0200 C.ar  1 <1>   0.0820 
 16 C        0.2850     1.8910     0.6070 C.ar  1 <1>  -0.1500 
 17 C       -3.9590    -3.0950    -0.1390 C.ar  1 <1>  -0.1440 
 18 O       -2.2390     4.5120     0.5300 O.3   1 <1>  -0.3630 
 19 C       -1.5040     3.0980     2.3410 C.ar  1 <1>  -0.1500 
 20 C        0.1970     1.4640     1.9200 C.ar  1 <1>  -0.1500 
 21 C       -4.0590    -4.0490     0.9050 C.ar  1 <1>   0.0000 
 22 C       -3.7810    -3.5820    -1.4050 C.ar  1 <1>  -0.1500 
 23 C       -3.4180     4.8830     1.2080 C.3   1 <1>   0.0400 
 24 C       -0.6950     2.0680     2.7870 C.ar  1 <1>  -0.1500 
 25 C       -3.9410    -5.4200     0.5690 C.ar  1 <1>   0.3100 
 26 C       -4.2750    -3.7230     2.2660 C.ar  1 <1>  -0.1500 
 27 C       -3.6830    -4.9610    -1.6290 C.ar  1 <1>   0.1600 
 28 N       -3.7530    -5.8590    -0.7000 N.ar  1 <1>  -0.6200 
 29 C       -4.0270    -6.3830     1.5870 C.ar  1 <1>  -0.1500 
 30 C       -4.3560    -4.6860     3.2340 C.ar  1 <1>  -0.1500 
 31 C       -4.2290    -6.0340     2.8940 C.ar  1 <1>  -0.1500 
 32 H       -2.8530     2.5990    -1.2160 H     1 <1>   0.0800 
 33 H       -3.6250     1.7340    -2.5290 H     1 <1>   0.0800 
 34 H       -2.0860    -1.3260    -2.1940 H     1 <1>   0.0800 
 35 H       -1.6180    -0.9130    -0.5560 H     1 <1>   0.0800 
 36 H       -0.6660     2.7240    -4.3840 H     1 <1>   0.0800 
 37 H       -0.5200     4.2750    -3.5960 H     1 <1>   0.0800 
 38 H       -1.9360     3.2930    -3.3400 H     1 <1>   0.0800 
 39 H        1.6290     2.2690    -3.4380 H     1 <1>   0.0800 
 40 H        1.9170     2.3010    -1.7320 H     1 <1>   0.0800 
 41 H        1.6070     3.7910    -2.5850 H     1 <1>   0.0800 
 42 H       -5.0330     1.1280    -0.6890 H     1 <1>   0.0800 
 43 H       -4.3310    -0.8450    -1.8060 H     1 <1>   0.0800 
 44 H       -2.5900     1.2210     0.6890 H     1 <1>   0.4000 
 45 H       -5.0670    -1.4020     0.5230 H     1 <1>   0.0800 
 46 H       -3.4030    -1.3930     1.0110 H     1 <1>   0.0800 
 47 H        0.9900     1.3990    -0.0330 H     1 <1>   0.1500 
 48 H       -2.1830     3.5500     3.0370 H     1 <1>   0.1500 
 49 H        0.8260     0.6620     2.2670 H     1 <1>   0.1500 
 50 H       -3.7110    -2.9510    -2.2680 H     1 <1>   0.1500 
 51 H       -3.9700     5.5530     0.5740 H     1 <1>   0.0800 
 52 H       -3.1530     5.3840     2.1220 H     1 <1>   0.0800 
 53 H       -4.0000     4.0000     1.4050 H     1 <1>   0.0800 
 54 H       -0.7590     1.7370     3.8100 H     1 <1>   0.1500 
 55 H       -4.3830    -2.6950     2.5550 H     1 <1>   0.1500 
 56 H       -3.5390    -5.2960    -2.6420 H     1 <1>   0.1500 
 57 H       -3.9290    -7.4140     1.3000 H     1 <1>   0.1500 
 58 H       -4.5190    -4.4200     4.2650 H     1 <1>   0.1500 
 59 H       -4.2930    -6.7840     3.6650 H     1 <1>   0.1500 
@<TRIPOS>BOND
  1   1   2  2   
  2   2   3  am  
  3   2   4  1   
  4   3   5  1   
  5   3   6  1   
  6   4   7  1   
  7   4   8  1   
  8   4   9  1   
  9   5  10  1   
 10   5  32  1   
 11   5  33  1   
 12   6  11  1   
 13   6  34  1   
 14   6  35  1   
 15   7  12  1   
 16   8  36  1   
 17   8  37  1   
 18   8  38  1   
 19   9  39  1   
 20   9  40  1   
 21   9  41  1   
 22  10  11  1   
 23  10  13  1   
 24  10  42  1   
 25  11  14  1   
 26  11  43  1   
 27  12  15  ar  
 28  12  16  ar  
 29  13  44  1   
 30  14  17  1   
 31  14  45  1   
 32  14  46  1   
 33  15  18  1   
 34  15  19  ar  
 35  16  20  ar  
 36  16  47  1   
 37  17  21  ar  
 38  17  22  ar  
 39  18  23  1   
 40  19  24  ar  
 41  19  48  1   
 42  20  24  ar  
 43  20  49  1   
 44  21  25  ar  
 45  21  26  ar  
 46  22  27  ar  
 47  22  50  1   
 48  23  51  1   
 49  23  52  1   
 50  23  53  1   
 51  24  54  1   
 52  25  28  ar  
 53  25  29  ar  
 54  26  30  ar  
 55  26  55  1   
 56  27  28  ar  
 57  27  56  1   
 58  29  31  ar  
 59  29  57  1   
 60  30  31  ar  
 61  30  58  1   
 62  31  59  1   
@<TRIPOS>SUBSTRUCTURE
  1 ****   6 GROUP 4 **** **** 0

# MOE 2024.06 (io_trps.svl 2023.06)
