@<TRIPOS>MOLECULE
NONAME
46 48 1 0 0 
SMALL
USER_CHARGES


@<TRIPOS>ATOM
  1 O        0.2600     0.2830    -0.1860 O.3   1 <1>  -0.5600 
  2 C        1.4700    -0.3350    -0.5380 C.3   1 <1>   0.3440 
  3 C        0.2930     1.6900    -0.2160 C.3   1 <1>   0.2000 
  4 C        1.2890    -1.8490    -0.5250 C.ar  1 <1>  -0.1440 
  5 C        2.5920     0.0810     0.4360 C.3   1 <1>   0.2090 
  6 C       -1.1490     2.2410     0.0030 C.3   1 <1>   0.0000 
  7 C        1.3460     2.2070     0.7970 C.3   1 <1>   0.2090 
  8 C        1.9110    -2.6280    -1.4910 C.ar  1 <1>  -0.1500 
  9 C        0.5210    -2.4700     0.4500 C.ar  1 <1>  -0.1500 
 10 N        2.6840     1.5740     0.5660 N.pl3 1 <1>  -0.8380 
 11 C       -1.7370     1.8080     1.3600 C.3   1 <1>  -0.2400 
 12 C       -2.0730     1.7150    -1.1110 C.3   1 <1>  -0.2400 
 13 C       -1.1660     3.7790    -0.0670 C.3   1 <1>  -0.2400 
 14 C        1.7730    -4.0050    -1.4790 C.ar  1 <1>  -0.1500 
 15 C        0.3820    -3.8470     0.4640 C.ar  1 <1>  -0.1500 
 16 C        3.7560     2.2770     0.0890 C.2   1 <1>   0.2000 
 17 C        1.0090    -4.6160    -0.5000 C.ar  1 <1>  -0.1500 
 18 N        4.9810     1.8390     0.4610 N.pl3 1 <1>  -0.5500 
 19 C        3.7230     3.3750    -0.7140 C.2   1 <1>  -0.1360 
 20 C        6.1230     2.4600     0.0450 C.2   1 <1>   0.4400 
 21 C        4.9220     3.9800    -1.1230 C.2   1 <1>   0.7670 
 22 N        6.1370     3.4860    -0.7190 N.2   1 <1>  -0.6610 
 23 O        4.9100     4.9640    -1.8540 O.2   1 <1>  -0.5700 
 24 H        1.7240    -0.0150    -1.5330 H     1 <1>   0.0800 
 25 H        0.6100     1.9820    -1.2020 H     1 <1>   0.0800 
 26 H        3.5210    -0.3230     0.0780 H     1 <1>   0.0800 
 27 H        2.3930    -0.3480     1.4030 H     1 <1>   0.0800 
 28 H        1.0250     1.9750     1.7960 H     1 <1>   0.0800 
 29 H        1.4340     3.2760     0.7250 H     1 <1>   0.0800 
 30 H        2.5070    -2.1690    -2.2600 H     1 <1>   0.1500 
 31 H        0.0240    -1.8790     1.2000 H     1 <1>   0.1500 
 32 H       -2.7540     2.1460     1.4550 H     1 <1>   0.0800 
 33 H       -1.1750     2.2160     2.1790 H     1 <1>   0.0800 
 34 H       -1.7330     0.7350     1.4450 H     1 <1>   0.0800 
 35 H       -3.0690     2.1060    -1.0000 H     1 <1>   0.0800 
 36 H       -2.1330     0.6410    -1.0770 H     1 <1>   0.0800 
 37 H       -1.7020     2.0000    -2.0790 H     1 <1>   0.0800 
 38 H       -2.1770     4.1450    -0.0160 H     1 <1>   0.0800 
 39 H       -0.7340     4.1210    -0.9910 H     1 <1>   0.0800 
 40 H       -0.6220     4.2160     0.7510 H     1 <1>   0.0800 
 41 H        2.2570    -4.6030    -2.2310 H     1 <1>   0.1500 
 42 H       -0.2160    -4.3180     1.2240 H     1 <1>   0.1500 
 43 H        0.9010    -5.6860    -0.4890 H     1 <1>   0.1500 
 44 H        5.0210     1.0720     1.1290 H     1 <1>   0.4000 
 45 H        2.8110     3.8040    -1.0670 H     1 <1>   0.1500 
 46 H        7.0520     2.0460     0.3950 H     1 <1>   0.0600 
@<TRIPOS>BOND
  1   1   2  1   
  2   1   3  1   
  3   2   4  1   
  4   2   5  1   
  5   2  24  1   
  6   3   6  1   
  7   3   7  1   
  8   3  25  1   
  9   4   8  ar  
 10   4   9  ar  
 11   5  10  1   
 12   5  26  1   
 13   5  27  1   
 14   6  11  1   
 15   6  12  1   
 16   6  13  1   
 17   7  10  1   
 18   7  28  1   
 19   7  29  1   
 20   8  14  ar  
 21   8  30  1   
 22   9  15  ar  
 23   9  31  1   
 24  10  16  1   
 25  11  32  1   
 26  11  33  1   
 27  11  34  1   
 28  12  35  1   
 29  12  36  1   
 30  12  37  1   
 31  13  38  1   
 32  13  39  1   
 33  13  40  1   
 34  14  17  ar  
 35  14  41  1   
 36  15  17  ar  
 37  15  42  1   
 38  16  18  1   
 39  16  19  2   
 40  17  43  1   
 41  18  20  1   
 42  18  44  1   
 43  19  21  1   
 44  19  45  1   
 45  20  22  2   
 46  20  46  1   
 47  21  22  1   
 48  21  23  2   
@<TRIPOS>SUBSTRUCTURE
  1 ****   5 GROUP 4 **** **** 0

# MOE 2024.06 (io_trps.svl 2023.06)
