@<TRIPOS>MOLECULE
NONAME
44 46 1 0 0 
SMALL
USER_CHARGES


@<TRIPOS>ATOM
  1 O        0.4620    -1.3700    -0.7560 O.3   1 <1>  -0.5600 
  2 C       -0.1310    -2.4160    -0.0180 C.3   1 <1>   0.4180 
  3 C        0.2490    -0.0600    -0.2980 C.3   1 <1>   0.1200 
  4 C       -1.5350    -2.0330     0.4330 C.2   1 <1>  -0.2880 
  5 C        0.7760    -2.7630     1.1670 C.3   1 <1>  -0.1600 
  6 C       -0.1960    -3.6180    -0.9700 C.3   1 <1>  -0.1600 
  7 C       -1.2430     0.2960    -0.3480 C.3   1 <1>  -0.0220 
  8 C       -2.0620    -0.8170     0.2790 C.2   1 <1>  -0.2760 
  9 C        2.1990    -3.1310     0.7280 C.3   1 <1>   0.3430 
 10 C        1.1550    -4.3130    -1.1820 C.3   1 <1>   0.3430 
 11 C       -3.4740    -0.4330     0.6860 C.3   1 <1>  -0.1020 
 12 N        2.2570    -3.4260    -0.7380 N.4   1 <1>  -0.9590 
 13 C        3.6070    -3.8740    -1.1710 C.3   1 <1>   0.4860 
 14 C        4.5990    -2.7620    -0.9220 C.ar  1 <1>  -0.1440 
 15 C        5.3960    -2.7980     0.2210 C.ar  1 <1>   0.4100 
 16 C        4.7220    -1.6980    -1.7910 C.ar  1 <1>  -0.1500 
 17 N        6.2560    -1.8660     0.5610 N.ar  1 <1>  -0.6200 
 18 N        5.3370    -3.8150     1.1150 N.pl3 1 <1>  -0.9000 
 19 C        5.6370    -0.7210    -1.4520 C.ar  1 <1>  -0.1500 
 20 C        6.3640    -0.8510    -0.2820 C.ar  1 <1>   0.1600 
 21 H        0.8100     0.6090    -0.9260 H     1 <1>   0.0800 
 22 H        0.6180     0.0190     0.7100 H     1 <1>   0.0800 
 23 H       -2.0740    -2.8450     0.8870 H     1 <1>   0.1500 
 24 H        0.3540    -3.5990     1.6930 H     1 <1>   0.0800 
 25 H        0.8080    -1.9490     1.8660 H     1 <1>   0.0800 
 26 H       -0.5960    -3.2940    -1.9140 H     1 <1>   0.0800 
 27 H       -0.8800    -4.3490    -0.5800 H     1 <1>   0.0800 
 28 H       -1.5500     0.4480    -1.3670 H     1 <1>   0.0800 
 29 H       -1.3920     1.2160     0.1880 H     1 <1>   0.0800 
 30 H        2.5490    -3.9780     1.2950 H     1 <1>   0.0800 
 31 H        2.8540    -2.3010     0.9430 H     1 <1>   0.0800 
 32 H        1.2680    -4.5580    -2.2260 H     1 <1>   0.0800 
 33 H        1.1830    -5.2290    -0.6130 H     1 <1>   0.0800 
 34 H       -3.4500     0.3510     1.4220 H     1 <1>   0.0800 
 35 H       -3.9910    -1.2770     1.1060 H     1 <1>   0.0800 
 36 H       -4.0260    -0.0880    -0.1710 H     1 <1>   0.0800 
 37 H        2.0640    -2.5080    -1.1800 H     1 <1>   0.4500 
 38 H        3.5970    -4.1100    -2.2220 H     1 <1>   0.0800 
 39 H        3.8960    -4.7570    -0.6250 H     1 <1>   0.0800 
 40 H        4.1410    -1.6140    -2.6940 H     1 <1>   0.1500 
 41 H        5.6590    -3.4580     2.0220 H     1 <1>   0.4000 
 42 H        5.9980    -4.5630     0.8850 H     1 <1>   0.4000 
 43 H        5.7850     0.1360    -2.0860 H     1 <1>   0.1500 
 44 H        7.0720    -0.0800    -0.0250 H     1 <1>   0.1500 
@<TRIPOS>BOND
  1   1   2  1   
  2   1   3  1   
  3   2   4  1   
  4   2   5  1   
  5   2   6  1   
  6   3   7  1   
  7   3  21  1   
  8   3  22  1   
  9   4   8  2   
 10   4  23  1   
 11   5   9  1   
 12   5  24  1   
 13   5  25  1   
 14   6  10  1   
 15   6  26  1   
 16   6  27  1   
 17   7   8  1   
 18   7  28  1   
 19   7  29  1   
 20   8  11  1   
 21   9  12  1   
 22   9  30  1   
 23   9  31  1   
 24  10  12  1   
 25  10  32  1   
 26  10  33  1   
 27  11  34  1   
 28  11  35  1   
 29  11  36  1   
 30  12  13  1   
 31  12  37  1   
 32  13  14  1   
 33  13  38  1   
 34  13  39  1   
 35  14  15  ar  
 36  14  16  ar  
 37  15  17  ar  
 38  15  18  1   
 39  16  19  ar  
 40  16  40  1   
 41  17  20  ar  
 42  18  41  1   
 43  18  42  1   
 44  19  20  ar  
 45  19  43  1   
 46  20  44  1   
@<TRIPOS>SUBSTRUCTURE
  1 ****   9 GROUP 4 **** **** 0

# MOE 2024.06 (io_trps.svl 2023.06)
