@<TRIPOS>MOLECULE
NONAME
43 45 1 0 0 
SMALL
USER_CHARGES


@<TRIPOS>ATOM
  1 F       -0.9970    -0.7150     0.0960 F     1 <1>  -0.3400 
  2 C       -2.1810    -0.8510    -0.4850 C.3   1 <1>   1.1640 
  3 F       -1.9550    -1.3990    -1.6730 F     1 <1>  -0.3400 
  4 F       -2.6210     0.3790    -0.7250 F     1 <1>  -0.3400 
  5 C       -3.1540    -1.6740     0.3750 C.ar  1 <1>  -0.1440 
  6 C       -3.1980    -3.0590     0.2660 C.ar  1 <1>  -0.1500 
  7 C       -4.0020    -1.0540     1.2870 C.ar  1 <1>  -0.1500 
  8 C       -4.0690    -3.8370     1.0270 C.ar  1 <1>   0.0860 
  9 C       -4.8670    -1.8030     2.0630 C.ar  1 <1>  -0.1500 
 10 C       -4.1010    -5.2790     0.8700 C.2   1 <1>   0.5440 
 11 C       -4.8970    -3.1790     1.9340 C.ar  1 <1>  -0.1500 
 12 O       -3.0600    -5.9080     0.8740 O.2   1 <1>  -0.5700 
 13 N       -5.2830    -5.9580     0.6880 N.am  1 <1>  -0.6600 
 14 C       -6.5420    -5.3380     0.2010 C.3   1 <1>   0.1400 
 15 C       -5.3260    -7.4310     0.5050 C.3   1 <1>   0.1400 
 16 C       -7.2380    -6.4470    -0.5850 C.3   1 <1>   0.2000 
 17 C       -6.7520    -7.7460     0.0490 C.3   1 <1>  -0.0800 
 18 O       -8.6160    -6.3470    -0.4940 O.3   1 <1>  -0.6800 
 19 C       -6.8410    -8.9530    -0.8970 C.3   1 <1>   0.0210 
 20 C       -6.2690   -10.1940    -0.2420 C.2   1 <1>   0.1080 
 21 N       -6.7940   -10.7380     0.8110 N.2   1 <1>  -0.7070 
 22 C       -5.1340   -10.8730    -0.6750 C.2   1 <1>  -0.1500 
 23 N       -6.0010   -11.7920     1.0800 N.pl3 1 <1>   0.3000 
 24 C       -4.9870   -11.8930     0.1950 C.2   1 <1>  -0.3320 
 25 C       -3.9230   -12.9750     0.2370 C.3   1 <1>  -0.0600 
 26 H       -2.5440    -3.5720    -0.4220 H     1 <1>   0.1500 
 27 H       -3.9930     0.0180     1.4030 H     1 <1>   0.1500 
 28 H       -5.5160    -1.3140     2.7700 H     1 <1>   0.1500 
 29 H       -5.5640    -3.7580     2.5480 H     1 <1>   0.1500 
 30 H       -7.1380    -5.0410     1.0450 H     1 <1>   0.0800 
 31 H       -6.3380    -4.4920    -0.4320 H     1 <1>   0.0800 
 32 H       -4.6080    -7.7140    -0.2460 H     1 <1>   0.0800 
 33 H       -5.0880    -7.9370     1.4270 H     1 <1>   0.0800 
 34 H       -6.9590    -6.3840    -1.6230 H     1 <1>   0.0800 
 35 H       -7.3260    -7.9540     0.9360 H     1 <1>   0.0800 
 36 H       -8.9180    -6.6220     0.3940 H     1 <1>   0.4000 
 37 H       -6.3070    -8.7510    -1.8070 H     1 <1>   0.0800 
 38 H       -7.8700    -9.1390    -1.1460 H     1 <1>   0.0800 
 39 H       -4.5230   -10.6160    -1.5220 H     1 <1>   0.1500 
 40 H       -6.1770   -12.4210     1.8730 H     1 <1>   0.2700 
 41 H       -3.2270   -12.8390    -0.5730 H     1 <1>   0.0800 
 42 H       -4.3750   -13.9460     0.1410 H     1 <1>   0.0800 
 43 H       -3.3810   -12.9280     1.1640 H     1 <1>   0.0800 
@<TRIPOS>BOND
  1   1   2  1   
  2   2   3  1   
  3   2   4  1   
  4   2   5  1   
  5   5   6  ar  
  6   5   7  ar  
  7   6   8  ar  
  8   6  26  1   
  9   7   9  ar  
 10   7  27  1   
 11   8  10  1   
 12   8  11  ar  
 13   9  11  ar  
 14   9  28  1   
 15  10  12  2   
 16  10  13  am  
 17  11  29  1   
 18  13  14  1   
 19  13  15  1   
 20  14  16  1   
 21  14  30  1   
 22  14  31  1   
 23  15  17  1   
 24  15  32  1   
 25  15  33  1   
 26  16  17  1   
 27  16  18  1   
 28  16  34  1   
 29  17  19  1   
 30  17  35  1   
 31  18  36  1   
 32  19  20  1   
 33  19  37  1   
 34  19  38  1   
 35  20  21  2   
 36  20  22  1   
 37  21  23  1   
 38  22  24  2   
 39  22  39  1   
 40  23  24  1   
 41  23  40  1   
 42  24  25  1   
 43  25  41  1   
 44  25  42  1   
 45  25  43  1   
@<TRIPOS>SUBSTRUCTURE
  1 ****  13 GROUP 4 **** **** 0

# MOE 2024.06 (io_trps.svl 2023.06)
