@<TRIPOS>MOLECULE
NONAME
53 55 1 0 0 
SMALL
USER_CHARGES


@<TRIPOS>ATOM
  1 S        1.0840    -0.7730     2.4930 S.o2  1 <1>   1.4470 
  2 O        0.6640     0.0850     3.5760 O.2   1 <1>  -0.6500 
  3 O        2.0450    -1.8100     2.7960 O.2   1 <1>  -0.6500 
  4 N       -0.2970    -1.6250     2.0720 N.am  1 <1>  -0.9140 
  5 C        1.4470     0.1870     0.9630 C.ar  1 <1>  -0.0090 
  6 C       -0.0710    -2.7250     1.1450 C.3   1 <1>   0.2760 
  7 C        0.5910     1.2220     0.5320 C.ar  1 <1>  -0.1430 
  8 C        2.5690    -0.0970     0.1690 C.ar  1 <1>  -0.1430 
  9 C       -1.3400    -3.0010     0.3520 C.3   1 <1>  -0.0800 
 10 C        0.0640    -4.0390     1.9110 C.3   1 <1>   0.1200 
 11 C        0.8510     1.9380    -0.6400 C.ar  1 <1>  -0.1430 
 12 C       -0.6450     1.6020     1.3650 C.3   1 <1>  -0.0970 
 13 C        2.8010     0.5970    -1.0040 C.ar  1 <1>  -0.1500 
 14 C        3.6100    -1.1580     0.5200 C.3   1 <1>  -0.0970 
 15 C       -2.1410    -3.9080     1.2930 C.3   1 <1>   0.1200 
 16 C       -2.1030    -1.7530    -0.1340 C.3   1 <1>  -0.0170 
 17 O       -1.2410    -4.3990     2.2460 O.3   1 <1>  -0.5600 
 18 C        1.9520     1.6060    -1.4230 C.ar  1 <1>   0.0820 
 19 C       -0.0490     3.0980    -1.0860 C.3   1 <1>  -0.0970 
 20 C       -3.2750    -2.1450    -1.0180 C.ar  1 <1>  -0.1430 
 21 O        2.1630     2.2870    -2.5810 O.3   1 <1>  -0.3630 
 22 C       -3.1140    -2.3930    -2.3660 C.ar  1 <1>  -0.1500 
 23 C       -4.5560    -2.2730    -0.5220 C.ar  1 <1>  -0.1500 
 24 C        3.3210     2.1140    -3.3690 C.3   1 <1>   0.0400 
 25 C       -4.2110    -2.7530    -3.1300 C.ar  1 <1>   0.1600 
 26 C       -5.5860    -2.6380    -1.3730 C.ar  1 <1>   0.1600 
 27 N       -5.4420    -2.8840    -2.6650 N.ar  1 <1>  -0.6200 
 28 H       -0.6200    -2.0470     2.9430 H     1 <1>   0.4200 
 29 H        0.7670    -2.5310     0.4960 H     1 <1>   0.0800 
 30 H       -1.0710    -3.5870    -0.5080 H     1 <1>   0.0800 
 31 H        0.6590    -3.9560     2.8040 H     1 <1>   0.0800 
 32 H        0.4660    -4.8090     1.2770 H     1 <1>   0.0800 
 33 H       -1.4050     2.0890     0.7870 H     1 <1>   0.0800 
 34 H       -0.3520     2.2610     2.1630 H     1 <1>   0.0800 
 35 H       -1.1300     0.7500     1.7930 H     1 <1>   0.0800 
 36 H        3.6600     0.3450    -1.5940 H     1 <1>   0.1500 
 37 H        4.4180    -1.1750    -0.1900 H     1 <1>   0.0800 
 38 H        3.1680    -2.1380     0.5290 H     1 <1>   0.0800 
 39 H        4.0400    -0.9530     1.4850 H     1 <1>   0.0800 
 40 H       -2.5870    -4.7360     0.7690 H     1 <1>   0.0800 
 41 H       -2.9010    -3.3580     1.8210 H     1 <1>   0.0800 
 42 H       -1.4360    -1.1170    -0.6880 H     1 <1>   0.0800 
 43 H       -2.4680    -1.1850     0.7040 H     1 <1>   0.0800 
 44 H       -0.2470     3.7560    -0.2600 H     1 <1>   0.0800 
 45 H       -0.9780     2.7140    -1.4670 H     1 <1>   0.0800 
 46 H        0.3980     3.7000    -1.8540 H     1 <1>   0.0800 
 47 H       -2.1480    -2.3090    -2.8290 H     1 <1>   0.1500 
 48 H       -4.7650    -2.0910     0.5160 H     1 <1>   0.1500 
 49 H        3.2690     2.8040    -4.1920 H     1 <1>   0.0800 
 50 H        3.3430     1.1050    -3.7410 H     1 <1>   0.0800 
 51 H        4.1870     2.3270    -2.7680 H     1 <1>   0.0800 
 52 H       -4.0690    -2.9430    -4.1810 H     1 <1>   0.1500 
 53 H       -6.5800    -2.7340    -0.9700 H     1 <1>   0.1500 
@<TRIPOS>BOND
  1   1   2  2   
  2   1   3  2   
  3   1   4  am  
  4   1   5  1   
  5   4   6  1   
  6   4  28  1   
  7   5   7  ar  
  8   5   8  ar  
  9   6   9  1   
 10   6  10  1   
 11   6  29  1   
 12   7  11  ar  
 13   7  12  1   
 14   8  13  ar  
 15   8  14  1   
 16   9  15  1   
 17   9  16  1   
 18   9  30  1   
 19  10  17  1   
 20  10  31  1   
 21  10  32  1   
 22  11  18  ar  
 23  11  19  1   
 24  12  33  1   
 25  12  34  1   
 26  12  35  1   
 27  13  18  ar  
 28  13  36  1   
 29  14  37  1   
 30  14  38  1   
 31  14  39  1   
 32  15  17  1   
 33  15  40  1   
 34  15  41  1   
 35  16  20  1   
 36  16  42  1   
 37  16  43  1   
 38  18  21  1   
 39  19  44  1   
 40  19  45  1   
 41  19  46  1   
 42  20  22  ar  
 43  20  23  ar  
 44  21  24  1   
 45  22  25  ar  
 46  22  47  1   
 47  23  26  ar  
 48  23  48  1   
 49  24  49  1   
 50  24  50  1   
 51  24  51  1   
 52  25  27  ar  
 53  25  52  1   
 54  26  27  ar  
 55  26  53  1   
@<TRIPOS>SUBSTRUCTURE
  1 ****  16 GROUP 4 **** **** 0

# MOE 2024.06 (io_trps.svl 2023.06)
