@<TRIPOS>MOLECULE
NONAME
47 48 1 0 0 
SMALL
USER_CHARGES


@<TRIPOS>ATOM
  1 S       -1.1440     0.7270     0.4260 S.o2  1 <1>   1.2040 
  2 O       -0.5410     0.1010     1.5800 O.2   1 <1>  -0.6500 
  3 O       -2.1070     1.7880     0.6040 O.2   1 <1>  -0.6500 
  4 C       -1.7120    -0.4950    -0.7770 C.ar  1 <1>  -0.0090 
  5 C        0.2130     1.4990    -0.4150 C.3   1 <1>  -0.0550 
  6 C       -2.6660    -0.1660    -1.7330 C.ar  1 <1>  -0.1500 
  7 C       -1.1810    -1.7790    -0.7990 C.ar  1 <1>  -0.1500 
  8 C        0.7670     2.5470     0.5390 C.3   1 <1>   0.3430 
  9 C       -3.0710    -1.0850    -2.6860 C.ar  1 <1>  -0.1500 
 10 C       -1.5800    -2.7030    -1.7490 C.ar  1 <1>  -0.1500 
 11 N        1.9590     3.2560    -0.0240 N.4   1 <1>  -0.9590 
 12 C       -2.5250    -2.3550    -2.6960 C.ar  1 <1>  -0.1500 
 13 C        2.6080     4.0600     1.0600 C.3   1 <1>   0.3430 
 14 C        1.5900     4.1430    -1.1800 C.3   1 <1>   0.2630 
 15 C        3.9820     4.5870     0.6330 C.3   1 <1>  -0.1600 
 16 C        4.0040     6.1170     0.5400 C.3   1 <1>   0.2000 
 17 O        2.9050     6.5200    -0.2200 O.3   1 <1>  -0.5600 
 18 C        5.2960     6.6310    -0.1150 C.3   1 <1>  -0.1600 
 19 C        2.7320     7.9060    -0.3110 C.3   1 <1>   0.1200 
 20 C        5.2430     8.1490    -0.3130 C.3   1 <1>  -0.1600 
 21 C        3.9390     8.5300    -1.0210 C.3   1 <1>  -0.1600 
 22 H       -0.1380     1.9570    -1.3190 H     1 <1>   0.0800 
 23 H        0.9650     0.7690    -0.6410 H     1 <1>   0.0800 
 24 H       -3.1080     0.8170    -1.7340 H     1 <1>   0.1500 
 25 H       -0.4500    -2.0700    -0.0620 H     1 <1>   0.1500 
 26 H        1.0430     2.0560     1.4600 H     1 <1>   0.0800 
 27 H       -0.0070     3.2630     0.7720 H     1 <1>   0.0800 
 28 H       -3.8130    -0.8140    -3.4190 H     1 <1>   0.1500 
 29 H       -1.1600    -3.6950    -1.7500 H     1 <1>   0.1500 
 30 H        2.6530     2.5650    -0.3420 H     1 <1>   0.4500 
 31 H       -2.8390    -3.0720    -3.4350 H     1 <1>   0.1500 
 32 H        2.7350     3.4430     1.9350 H     1 <1>   0.0800 
 33 H        1.9720     4.8890     1.3310 H     1 <1>   0.0800 
 34 H        0.9070     4.9120    -0.8570 H     1 <1>   0.0800 
 35 H        1.1300     3.5740    -1.9700 H     1 <1>   0.0800 
 36 H        2.4690     4.6260    -1.5760 H     1 <1>   0.0800 
 37 H        4.2980     4.1560    -0.3000 H     1 <1>   0.0800 
 38 H        4.7030     4.2980     1.3760 H     1 <1>   0.0800 
 39 H        3.8960     6.5430     1.5250 H     1 <1>   0.0800 
 40 H        5.4290     6.1530    -1.0700 H     1 <1>   0.0800 
 41 H        6.1420     6.3790     0.4990 H     1 <1>   0.0800 
 42 H        2.6180     8.3070     0.6820 H     1 <1>   0.0800 
 43 H        1.8310     8.0940    -0.8690 H     1 <1>   0.0800 
 44 H        6.0890     8.4790    -0.8920 H     1 <1>   0.0800 
 45 H        5.2840     8.6380     0.6460 H     1 <1>   0.0800 
 46 H        3.8330     9.6000    -1.0380 H     1 <1>   0.0800 
 47 H        3.9600     8.1860    -2.0400 H     1 <1>   0.0800 
@<TRIPOS>BOND
  1   1   2  2   
  2   1   3  2   
  3   1   4  1   
  4   1   5  1   
  5   4   6  ar  
  6   4   7  ar  
  7   5   8  1   
  8   5  22  1   
  9   5  23  1   
 10   6   9  ar  
 11   6  24  1   
 12   7  10  ar  
 13   7  25  1   
 14   8  11  1   
 15   8  26  1   
 16   8  27  1   
 17   9  12  ar  
 18   9  28  1   
 19  10  12  ar  
 20  10  29  1   
 21  11  13  1   
 22  11  14  1   
 23  11  30  1   
 24  12  31  1   
 25  13  15  1   
 26  13  32  1   
 27  13  33  1   
 28  14  34  1   
 29  14  35  1   
 30  14  36  1   
 31  15  16  1   
 32  15  37  1   
 33  15  38  1   
 34  16  17  1   
 35  16  18  1   
 36  16  39  1   
 37  17  19  1   
 38  18  20  1   
 39  18  40  1   
 40  18  41  1   
 41  19  21  1   
 42  19  42  1   
 43  19  43  1   
 44  20  21  1   
 45  20  44  1   
 46  20  45  1   
 47  21  46  1   
 48  21  47  1   
@<TRIPOS>SUBSTRUCTURE
  1 ****   8 GROUP 4 **** **** 0

# MOE 2024.06 (io_trps.svl 2023.06)
