@<TRIPOS>MOLECULE
NONAME
33 34 1 0 0 
SMALL
USER_CHARGES


@<TRIPOS>ATOM
  1 F        0.0620     2.8060    -1.9060 F     1 <1>  -0.1900 
  2 C       -0.9540     2.1920    -1.3430 C.ar  1 <1>   0.1900 
  3 C       -1.8350     2.9210    -0.5520 C.ar  1 <1>   0.1000 
  4 C       -1.1150     0.8360    -1.5480 C.ar  1 <1>   0.1600 
  5 N       -1.6980     4.2880    -0.3220 N.pl3 1 <1>  -0.8690 
  6 C       -2.8720     2.1710    -0.0200 C.ar  1 <1>  -0.1500 
  7 N       -2.1050     0.1200    -1.0240 N.ar  1 <1>  -0.6200 
  8 C       -1.7630     4.8510     1.0500 C.3   1 <1>   0.2890 
  9 C       -2.9580     0.8120    -0.2780 C.ar  1 <1>   0.1600 
 10 C       -2.0000     6.3700     0.9590 C.3   1 <1>   0.1400 
 11 C       -0.3910     4.6980     1.7170 C.3   1 <1>  -0.0990 
 12 N       -0.6430     6.9430     1.0460 N.am  1 <1>  -0.6600 
 13 C        0.2580     6.0310     1.4760 C.2   1 <1>   0.5690 
 14 C       -0.3650     8.3650     0.7490 C.3   1 <1>   0.1400 
 15 O        1.4310     6.2300     1.6660 O.2   1 <1>  -0.5700 
 16 C       -0.3470     8.5830    -0.7660 C.3   1 <1>  -0.1600 
 17 C       -0.0320    10.0410    -1.1160 C.3   1 <1>  -0.2400 
 18 H       -0.4020     0.3200    -2.1660 H     1 <1>   0.1500 
 19 H       -0.9330     4.7250    -0.8580 H     1 <1>   0.4000 
 20 H       -3.6190     2.6450     0.5860 H     1 <1>   0.1500 
 21 H       -2.5420     4.3690     1.6140 H     1 <1>   0.0800 
 22 H       -3.7760     0.2590     0.1520 H     1 <1>   0.1500 
 23 H       -2.5810     6.7120     1.7970 H     1 <1>   0.0800 
 24 H       -2.4870     6.6370     0.0380 H     1 <1>   0.0800 
 25 H        0.1900     3.8960     1.3000 H     1 <1>   0.0800 
 26 H       -0.4990     4.5600     2.7750 H     1 <1>   0.0800 
 27 H        0.5940     8.6320     1.1630 H     1 <1>   0.0800 
 28 H       -1.1170     8.9830     1.2100 H     1 <1>   0.0800 
 29 H       -1.3030     8.3210    -1.1830 H     1 <1>   0.0800 
 30 H        0.4040     7.9460    -1.2020 H     1 <1>   0.0800 
 31 H       -0.7760    10.6990    -0.7020 H     1 <1>   0.0800 
 32 H       -0.0190    10.1680    -2.1840 H     1 <1>   0.0800 
 33 H        0.9330    10.3200    -0.7280 H     1 <1>   0.0800 
@<TRIPOS>BOND
  1   1   2  1   
  2   2   3  ar  
  3   2   4  ar  
  4   3   5  1   
  5   3   6  ar  
  6   4   7  ar  
  7   4  18  1   
  8   5   8  1   
  9   5  19  1   
 10   6   9  ar  
 11   6  20  1   
 12   7   9  ar  
 13   8  10  1   
 14   8  11  1   
 15   8  21  1   
 16   9  22  1   
 17  10  12  1   
 18  10  23  1   
 19  10  24  1   
 20  11  13  1   
 21  11  25  1   
 22  11  26  1   
 23  12  13  am  
 24  12  14  1   
 25  13  15  2   
 26  14  16  1   
 27  14  27  1   
 28  14  28  1   
 29  16  17  1   
 30  16  29  1   
 31  16  30  1   
 32  17  31  1   
 33  17  32  1   
 34  17  33  1   
@<TRIPOS>SUBSTRUCTURE
  1 ****   5 GROUP 4 **** **** 0

# MOE 2024.06 (io_trps.svl 2023.06)
