@<TRIPOS>MOLECULE
NONAME
49 51 1 0 0 
SMALL
USER_CHARGES


@<TRIPOS>ATOM
  1 O       -1.1320    -0.1130     1.7750 O.2   1 <1>  -0.5700 
  2 C       -1.5490     0.3500     0.7400 C.2   1 <1>   0.5690 
  3 N       -1.9520    -0.4470    -0.3030 N.am  1 <1>  -0.6600 
  4 C       -1.6370     1.8610     0.6720 C.3   1 <1>  -0.0990 
  5 C       -2.0760    -1.9080    -0.0640 C.3   1 <1>   0.3200 
  6 C       -2.0320     0.0060    -1.7290 C.3   1 <1>   0.1400 
  7 C       -0.2510     2.5240     0.6650 C.3   1 <1>   0.2430 
  8 C       -3.3780    -2.1920     0.6560 C.2   1 <1>  -0.3320 
  9 C       -3.4740     0.2000    -2.2260 C.3   1 <1>   0.1200 
 10 C       -0.3900     4.0210     0.9580 C.ar  1 <1>  -0.1440 
 11 C        0.5120     2.2910    -0.6400 C.2   1 <1>  -0.0400 
 12 N       -4.5860    -2.0280     0.0950 N.pl3 1 <1>   0.0330 
 13 C       -3.6050    -2.6310     1.9140 C.2   1 <1>   0.0770 
 14 O       -4.0800    -1.0200    -2.5140 O.3   1 <1>  -0.6800 
 15 C        0.3170     4.5840     2.0120 C.ar  1 <1>  -0.1500 
 16 C       -1.2120     4.8390     0.1920 C.ar  1 <1>  -0.1500 
 17 O        0.8840     1.0620    -0.9520 O.3   1 <1>  -0.2800 
 18 C        0.9280     3.1550    -1.5940 C.2   1 <1>  -0.1500 
 19 C       -5.4760    -2.3880     1.0430 C.2   1 <1>   0.0070 
 20 N       -4.9260    -2.7610     2.1510 N.2   1 <1>  -0.5650 
 21 C        0.2030     5.9330     2.2980 C.ar  1 <1>  -0.1500 
 22 C       -1.3280     6.1890     0.4760 C.ar  1 <1>  -0.1500 
 23 C        1.5360     1.1140    -2.0960 C.2   1 <1>  -0.0100 
 24 C        1.5960     2.3810    -2.5510 C.2   1 <1>  -0.1500 
 25 C       -6.9710    -2.3490     0.8150 C.3   1 <1>  -0.0600 
 26 C       -0.6200     6.7370     1.5300 C.ar  1 <1>  -0.1500 
 27 H       -2.1580     2.1800     1.5550 H     1 <1>   0.0800 
 28 H       -2.2170     2.1800    -0.1690 H     1 <1>   0.0800 
 29 H       -1.2490    -2.2470     0.5380 H     1 <1>   0.0800 
 30 H       -2.0490    -2.4460    -0.9950 H     1 <1>   0.0800 
 31 H       -1.5120    -0.6900    -2.3630 H     1 <1>   0.0800 
 32 H       -1.5200     0.9450    -1.8310 H     1 <1>   0.0800 
 33 H        0.3310     2.0800     1.4540 H     1 <1>   0.0800 
 34 H       -3.4790     0.7870    -3.1290 H     1 <1>   0.0800 
 35 H       -4.0600     0.7060    -1.4790 H     1 <1>   0.0800 
 36 H       -4.7670    -1.6820    -0.8580 H     1 <1>   0.2700 
 37 H       -2.8740    -2.8590     2.6720 H     1 <1>   0.1500 
 38 H       -3.6820    -1.4250    -3.3120 H     1 <1>   0.4000 
 39 H        0.9630     3.9750     2.6210 H     1 <1>   0.1500 
 40 H       -1.7670     4.4330    -0.6350 H     1 <1>   0.1500 
 41 H        0.8040     4.2230    -1.6390 H     1 <1>   0.1500 
 42 H        0.7560     6.3580     3.1180 H     1 <1>   0.1500 
 43 H       -1.9670     6.8130    -0.1230 H     1 <1>   0.1500 
 44 H        1.9270     0.2010    -2.5120 H     1 <1>   0.1500 
 45 H        2.0570     2.7570    -3.4480 H     1 <1>   0.1500 
 46 H       -7.2360    -3.0020     0.0040 H     1 <1>   0.0800 
 47 H       -7.2810    -1.3470     0.5850 H     1 <1>   0.0800 
 48 H       -7.4820    -2.6750     1.7040 H     1 <1>   0.0800 
 49 H       -0.7080     7.7860     1.7520 H     1 <1>   0.1500 
@<TRIPOS>BOND
  1   1   2  2   
  2   2   3  am  
  3   2   4  1   
  4   3   5  1   
  5   3   6  1   
  6   4   7  1   
  7   4  27  1   
  8   4  28  1   
  9   5   8  1   
 10   5  29  1   
 11   5  30  1   
 12   6   9  1   
 13   6  31  1   
 14   6  32  1   
 15   7  10  1   
 16   7  11  1   
 17   7  33  1   
 18   8  12  1   
 19   8  13  2   
 20   9  14  1   
 21   9  34  1   
 22   9  35  1   
 23  10  15  ar  
 24  10  16  ar  
 25  11  17  1   
 26  11  18  2   
 27  12  19  1   
 28  12  36  1   
 29  13  20  1   
 30  13  37  1   
 31  14  38  1   
 32  15  21  ar  
 33  15  39  1   
 34  16  22  ar  
 35  16  40  1   
 36  17  23  1   
 37  18  24  1   
 38  18  41  1   
 39  19  20  2   
 40  19  25  1   
 41  21  26  ar  
 42  21  42  1   
 43  22  26  ar  
 44  22  43  1   
 45  23  24  2   
 46  23  44  1   
 47  24  45  1   
 48  25  46  1   
 49  25  47  1   
 50  25  48  1   
 51  26  49  1   
@<TRIPOS>SUBSTRUCTURE
  1 ****   4 GROUP 4 **** **** 0

# MOE 2024.06 (io_trps.svl 2023.06)
