@<TRIPOS>MOLECULE
NONAME
34 35 1 0 0 
SMALL
USER_CHARGES


@<TRIPOS>ATOM
  1 O        0.1860    -0.0020    -0.5510 O.2   1 <1>  -0.5700 
  2 C        1.2450    -0.5360    -0.2940 C.2   1 <1>   0.7160 
  3 N        2.3690     0.2150    -0.0750 N.am  1 <1>  -0.4940 
  4 C        1.3530    -1.9730    -0.1860 C.2   1 <1>  -0.0860 
  5 C        2.5810     1.5890    -0.2220 C.2   1 <1>   0.2040 
  6 C        0.4000    -2.9120     0.0760 C.2   1 <1>  -0.0400 
  7 C        2.5380    -2.7290    -0.3400 C.2   1 <1>  -0.1500 
  8 O        1.7070     2.3800    -0.7990 O.3   1 <1>  -0.0190 
  9 C        3.6380     2.3440     0.1370 C.2   1 <1>  -0.1810 
 10 O        0.9160    -4.1160     0.0960 O.3   1 <1>  -0.2800 
 11 C       -1.0880    -2.7860     0.3410 C.3   1 <1>  -0.0600 
 12 C        2.2000    -4.0190    -0.1550 C.2   1 <1>  -0.0400 
 13 N        2.1280     3.6190    -0.8460 N.2   1 <1>  -0.4100 
 14 C        3.2850     3.6230    -0.2890 C.2   1 <1>   0.1080 
 15 C        4.9200     1.9300     0.8410 C.3   1 <1>   0.0210 
 16 C        3.0250    -5.2860    -0.1970 C.3   1 <1>  -0.0600 
 17 C        4.1220     4.8750    -0.1330 C.3   1 <1>  -0.0590 
 18 C        6.0230     1.6380    -0.1780 C.3   1 <1>  -0.2400 
 19 H        3.1610    -0.3150     0.2700 H     1 <1>   0.3700 
 20 H        3.5110    -2.3370    -0.5740 H     1 <1>   0.1500 
 21 H       -1.3980    -1.7580     0.3450 H     1 <1>   0.0800 
 22 H       -1.3230    -3.2210     1.2940 H     1 <1>   0.0800 
 23 H       -1.6340    -3.3080    -0.4230 H     1 <1>   0.0800 
 24 H        4.7380     1.0510     1.4330 H     1 <1>   0.0800 
 25 H        5.2360     2.7120     1.5090 H     1 <1>   0.0800 
 26 H        4.0520    -5.0580    -0.4150 H     1 <1>   0.0800 
 27 H        2.6420    -5.9410    -0.9590 H     1 <1>   0.0800 
 28 H        2.9700    -5.7870     0.7520 H     1 <1>   0.0800 
 29 H        5.0590     4.7560    -0.6440 H     1 <1>   0.0800 
 30 H        4.3030     5.0670     0.9080 H     1 <1>   0.0800 
 31 H        3.6030     5.7170    -0.5550 H     1 <1>   0.0800 
 32 H        5.7180     0.8490    -0.8430 H     1 <1>   0.0800 
 33 H        6.9240     1.3370     0.3270 H     1 <1>   0.0800 
 34 H        6.2340     2.5150    -0.7630 H     1 <1>   0.0800 
@<TRIPOS>BOND
  1   1   2  2   
  2   2   3  am  
  3   2   4  1   
  4   3   5  1   
  5   3  19  1   
  6   4   6  2   
  7   4   7  1   
  8   5   8  1   
  9   5   9  2   
 10   6  10  1   
 11   6  11  1   
 12   7  12  2   
 13   7  20  1   
 14   8  13  1   
 15   9  14  1   
 16   9  15  1   
 17  10  12  1   
 18  11  21  1   
 19  11  22  1   
 20  11  23  1   
 21  12  16  1   
 22  13  14  2   
 23  14  17  1   
 24  15  18  1   
 25  15  24  1   
 26  15  25  1   
 27  16  26  1   
 28  16  27  1   
 29  16  28  1   
 30  17  29  1   
 31  17  30  1   
 32  17  31  1   
 33  18  32  1   
 34  18  33  1   
 35  18  34  1   
@<TRIPOS>SUBSTRUCTURE
  1 ****   3 GROUP 4 **** **** 0

# MOE 2024.06 (io_trps.svl 2023.06)
