@<TRIPOS>MOLECULE
NONAME
35 36 1 0 0 
SMALL
USER_CHARGES


@<TRIPOS>ATOM
  1 CL      -0.2550    -2.6660     3.3080 Cl    1 <1>  -0.1240 
  2 C       -1.0220    -2.8330     1.7540 C.2   1 <1>   0.1640 
  3 S       -1.2900    -4.4680     1.1870 S.3   1 <1>  -0.0800 
  4 C       -1.4660    -1.9170     0.8760 C.2   1 <1>  -0.1500 
  5 C       -2.0320    -3.8560    -0.2910 C.2   1 <1>  -0.1400 
  6 C       -2.0450    -2.5060    -0.2960 C.2   1 <1>  -0.1500 
  7 C       -2.5250    -4.8920    -1.2770 C.3   1 <1>   0.5230 
  8 N       -3.5500    -5.7080    -0.5830 N.4   1 <1>  -0.9590 
  9 C       -3.7480    -7.0230    -1.2300 C.3   1 <1>   0.5230 
 10 C       -4.8320    -4.9410    -0.4180 C.3   1 <1>   0.3430 
 11 C       -4.4030    -7.9150    -0.2110 C.2   1 <1>  -0.3320 
 12 C       -5.4000    -5.0290     1.0050 C.3   1 <1>   0.1200 
 13 N       -3.7920    -8.5010     0.8440 N.pl3 1 <1>   0.0480 
 14 C       -5.7010    -8.2930    -0.1640 C.2   1 <1>   0.0770 
 15 O       -6.4870    -4.1780     1.0680 O.3   1 <1>  -0.6800 
 16 C       -4.7800    -9.1770     1.4710 C.2   1 <1>   0.0360 
 17 C       -2.3700    -8.4880     1.2480 C.3   1 <1>   0.0160 
 18 N       -5.9340    -9.0680     0.9030 N.2   1 <1>  -0.5650 
 19 H       -1.4070    -0.8500     1.0080 H     1 <1>   0.1500 
 20 H       -2.4370    -1.8730    -1.0760 H     1 <1>   0.1500 
 21 H       -1.6930    -5.5080    -1.5810 H     1 <1>   0.0800 
 22 H       -2.9420    -4.4150    -2.1490 H     1 <1>   0.0800 
 23 H       -3.1840    -5.8890     0.3570 H     1 <1>   0.4500 
 24 H       -2.8060    -7.4520    -1.5310 H     1 <1>   0.0800 
 25 H       -4.3780    -6.9230    -2.1000 H     1 <1>   0.0800 
 26 H       -5.5730    -5.3020    -1.1130 H     1 <1>   0.0800 
 27 H       -4.6570    -3.8980    -0.6270 H     1 <1>   0.0800 
 28 H       -4.6800    -4.6970     1.7330 H     1 <1>   0.0800 
 29 H       -5.7420    -6.0220     1.2410 H     1 <1>   0.0800 
 30 H       -6.5040    -8.0450    -0.8410 H     1 <1>   0.1500 
 31 H       -6.9460    -4.2430     1.9330 H     1 <1>   0.4000 
 32 H       -4.6040    -9.7550     2.3630 H     1 <1>   0.1500 
 33 H       -1.7430    -8.5710     0.3790 H     1 <1>   0.0800 
 34 H       -2.1760    -9.3260     1.8950 H     1 <1>   0.0800 
 35 H       -2.1500    -7.5800     1.7770 H     1 <1>   0.0800 
@<TRIPOS>BOND
  1   1   2  1   
  2   2   3  1   
  3   2   4  2   
  4   3   5  1   
  5   4   6  1   
  6   4  19  1   
  7   5   6  2   
  8   5   7  1   
  9   6  20  1   
 10   7   8  1   
 11   7  21  1   
 12   7  22  1   
 13   8   9  1   
 14   8  10  1   
 15   8  23  1   
 16   9  11  1   
 17   9  24  1   
 18   9  25  1   
 19  10  12  1   
 20  10  26  1   
 21  10  27  1   
 22  11  13  1   
 23  11  14  2   
 24  12  15  1   
 25  12  28  1   
 26  12  29  1   
 27  13  16  1   
 28  13  17  1   
 29  14  18  1   
 30  14  30  1   
 31  15  31  1   
 32  16  18  2   
 33  16  32  1   
 34  17  33  1   
 35  17  34  1   
 36  17  35  1   
@<TRIPOS>SUBSTRUCTURE
  1 ****   8 GROUP 4 **** **** 0

# MOE 2024.06 (io_trps.svl 2023.06)
