@<TRIPOS>MOLECULE
NONAME
44 45 1 0 0 
SMALL
USER_CHARGES


@<TRIPOS>ATOM
  1 S        0.2150    -0.1220    -0.0350 S.o2  1 <1>   1.0900 
  2 O        0.8360    -0.6590    -1.2250 O.2   1 <1>  -0.6500 
  3 O       -0.9680    -0.7190     0.5390 O.2   1 <1>  -0.6500 
  4 C       -0.0310     1.6160    -0.2760 C.3   1 <1>  -0.0550 
  5 C        1.4780     0.0800     1.2080 C.3   1 <1>  -0.0550 
  6 C        1.3140     2.2750     0.0290 C.3   1 <1>   0.1900 
  7 C        1.8350     1.5720     1.2980 C.3   1 <1>  -0.1600 
  8 N        1.1710     3.7300     0.2410 N.3   1 <1>  -0.8100 
  9 C        2.4650     4.3960     0.6170 C.3   1 <1>   0.1710 
 10 C        0.5410     4.4160    -0.9030 C.3   1 <1>   0.0300 
 11 C        2.3880     5.8900     0.9950 C.2   1 <1>   0.5690 
 12 O        1.9880     6.1600     2.1030 O.2   1 <1>  -0.5700 
 13 N        2.7820     6.8850     0.1280 N.am  1 <1>  -0.6600 
 14 C        2.6290     8.3270     0.5310 C.3   1 <1>   0.3200 
 15 C        3.3230     6.6620    -1.2400 C.3   1 <1>   0.1400 
 16 C        3.9590     9.0580     0.6250 C.2   1 <1>   0.2980 
 17 C        4.8240     6.3780    -1.1820 C.3   1 <1>  -0.2400 
 18 O        4.8020     8.7120     1.5660 O.3   1 <1>  -0.0190 
 19 N        4.3510     9.9980    -0.1430 N.2   1 <1>  -0.5650 
 20 N        5.8190     9.4970     1.3790 N.2   1 <1>  -0.4100 
 21 C        5.5400    10.2390     0.3850 C.2   1 <1>   0.3350 
 22 C        6.4420    11.3080    -0.1830 C.3   1 <1>  -0.0590 
 23 H       -0.7630     1.9760     0.4210 H     1 <1>   0.0800 
 24 H       -0.3540     1.8150    -1.2790 H     1 <1>   0.0800 
 25 H        2.3450    -0.4890     0.9300 H     1 <1>   0.0800 
 26 H        1.1300    -0.2720     2.1610 H     1 <1>   0.0800 
 27 H        1.9910     2.0860    -0.7900 H     1 <1>   0.0800 
 28 H        2.8980     1.6880     1.4060 H     1 <1>   0.0800 
 29 H        1.3420     1.9940     2.1580 H     1 <1>   0.0800 
 30 H        3.1760     4.2530    -0.1730 H     1 <1>   0.0800 
 31 H        2.8650     3.9130     1.4880 H     1 <1>   0.0800 
 32 H       -0.4610     4.0540    -1.0560 H     1 <1>   0.0800 
 33 H        1.1130     4.2580    -1.8010 H     1 <1>   0.0800 
 34 H        0.4650     5.4720    -0.7120 H     1 <1>   0.0800 
 35 H        2.1320     8.4130     1.4810 H     1 <1>   0.0800 
 36 H        2.0140     8.8260    -0.1960 H     1 <1>   0.0800 
 37 H        3.1460     7.5340    -1.8500 H     1 <1>   0.0800 
 38 H        2.8160     5.8360    -1.7050 H     1 <1>   0.0800 
 39 H        5.3620     7.2370    -0.8250 H     1 <1>   0.0800 
 40 H        5.1850     6.1520    -2.1690 H     1 <1>   0.0800 
 41 H        5.0380     5.5420    -0.5430 H     1 <1>   0.0800 
 42 H        5.9490    12.2600    -0.1300 H     1 <1>   0.0800 
 43 H        6.6670    11.0820    -1.2090 H     1 <1>   0.0800 
 44 H        7.3580    11.3530     0.3770 H     1 <1>   0.0800 
@<TRIPOS>BOND
  1   1   2  2   
  2   1   3  2   
  3   1   4  1   
  4   1   5  1   
  5   4   6  1   
  6   4  23  1   
  7   4  24  1   
  8   5   7  1   
  9   5  25  1   
 10   5  26  1   
 11   6   7  1   
 12   6   8  1   
 13   6  27  1   
 14   7  28  1   
 15   7  29  1   
 16   8   9  1   
 17   8  10  1   
 18   9  11  1   
 19   9  30  1   
 20   9  31  1   
 21  10  32  1   
 22  10  33  1   
 23  10  34  1   
 24  11  12  2   
 25  11  13  am  
 26  13  14  1   
 27  13  15  1   
 28  14  16  1   
 29  14  35  1   
 30  14  36  1   
 31  15  17  1   
 32  15  37  1   
 33  15  38  1   
 34  16  18  1   
 35  16  19  2   
 36  17  39  1   
 37  17  40  1   
 38  17  41  1   
 39  18  20  1   
 40  19  21  1   
 41  20  21  2   
 42  21  22  1   
 43  22  42  1   
 44  22  43  1   
 45  22  44  1   
@<TRIPOS>SUBSTRUCTURE
  1 ****   9 GROUP 4 **** **** 0

# MOE 2024.06 (io_trps.svl 2023.06)
