@<TRIPOS>MOLECULE
NONAME
48 49 1 0 0 
SMALL
USER_CHARGES


@<TRIPOS>ATOM
  1 O       -0.8220    -0.4230    -1.4920 O.2   1 <1>  -0.5700 
  2 C       -1.6440     0.4480    -1.3370 C.2   1 <1>   0.5690 
  3 N       -2.9860     0.1660    -1.2760 N.am  1 <1>  -0.6600 
  4 C       -1.1070     1.8600    -1.1700 C.3   1 <1>  -0.0990 
  5 C       -3.4650    -1.2370    -1.4050 C.3   1 <1>   0.3200 
  6 C       -4.0770     1.1780    -1.1120 C.3   1 <1>   0.1400 
  7 C       -0.4210     2.0310     0.1910 C.3   1 <1>  -0.0170 
  8 C       -4.0080    -1.7030    -0.0690 C.2   1 <1>  -0.3320 
  9 C       -4.2460     1.5850     0.3580 C.3   1 <1>   0.1200 
 10 C       -0.2080     3.5060     0.4860 C.ar  1 <1>  -0.1440 
 11 N       -3.2480    -1.9970     1.0060 N.pl3 1 <1>   0.0480 
 12 C       -5.2910    -1.9100     0.3010 C.2   1 <1>   0.0770 
 13 O       -4.9170     2.7990     0.4240 O.3   1 <1>  -0.6800 
 14 C       -1.0740     4.1840     1.3300 C.ar  1 <1>  -0.1500 
 15 C        0.8480     4.1890    -0.0940 C.ar  1 <1>  -0.1500 
 16 C       -4.1350    -2.3560     1.9620 C.2   1 <1>   0.0360 
 17 C       -1.7790    -1.9610     1.1280 C.3   1 <1>   0.0160 
 18 N       -5.3690    -2.3150     1.5800 N.2   1 <1>  -0.5650 
 19 C       -0.8880     5.5310     1.5860 C.ar  1 <1>  -0.1500 
 20 C        1.0330     5.5370     0.1630 C.ar  1 <1>  -0.1500 
 21 C        0.1670     6.2160     1.0040 C.ar  1 <1>  -0.1430 
 22 C        0.3690     7.6970     1.2830 C.3   1 <1>  -0.0170 
 23 C       -0.4000     8.5430     0.2660 C.3   1 <1>  -0.2400 
 24 H       -1.8790     2.5940    -1.2720 H     1 <1>   0.0800 
 25 H       -0.3920     2.0460    -1.9490 H     1 <1>   0.0800 
 26 H       -2.6740    -1.8940    -1.7270 H     1 <1>   0.0800 
 27 H       -4.2410    -1.2800    -2.1500 H     1 <1>   0.0800 
 28 H       -5.0090     0.7680    -1.4620 H     1 <1>   0.0800 
 29 H       -3.8600     2.0390    -1.7160 H     1 <1>   0.0800 
 30 H        0.5240     1.5160     0.1870 H     1 <1>   0.0800 
 31 H       -1.0230     1.5940     0.9670 H     1 <1>   0.0800 
 32 H       -3.2970     1.7070     0.8460 H     1 <1>   0.0800 
 33 H       -4.8290     0.8520     0.8880 H     1 <1>   0.0800 
 34 H       -6.1820    -1.7830    -0.2930 H     1 <1>   0.1500 
 35 H       -4.3500     3.5350     0.1200 H     1 <1>   0.4000 
 36 H       -1.8980     3.6720     1.7940 H     1 <1>   0.1500 
 37 H        1.5300     3.6770    -0.7490 H     1 <1>   0.1500 
 38 H       -3.8210    -2.6490     2.9480 H     1 <1>   0.1500 
 39 H       -1.3360    -2.4180     0.2620 H     1 <1>   0.0800 
 40 H       -1.4750    -2.4970     2.0090 H     1 <1>   0.0800 
 41 H       -1.4540    -0.9400     1.1980 H     1 <1>   0.0800 
 42 H       -1.5680     6.0470     2.2410 H     1 <1>   0.1500 
 43 H        1.8560     6.0550    -0.2970 H     1 <1>   0.1500 
 44 H        1.4170     7.9360     1.2330 H     1 <1>   0.0800 
 45 H        0.0300     7.9290     2.2770 H     1 <1>   0.0800 
 46 H       -0.0560     8.3280    -0.7300 H     1 <1>   0.0800 
 47 H       -0.2520     9.5890     0.4670 H     1 <1>   0.0800 
 48 H       -1.4510     8.3240     0.3210 H     1 <1>   0.0800 
@<TRIPOS>BOND
  1   1   2  2   
  2   2   3  am  
  3   2   4  1   
  4   3   5  1   
  5   3   6  1   
  6   4   7  1   
  7   4  24  1   
  8   4  25  1   
  9   5   8  1   
 10   5  26  1   
 11   5  27  1   
 12   6   9  1   
 13   6  28  1   
 14   6  29  1   
 15   7  10  1   
 16   7  30  1   
 17   7  31  1   
 18   8  11  1   
 19   8  12  2   
 20   9  13  1   
 21   9  32  1   
 22   9  33  1   
 23  10  14  ar  
 24  10  15  ar  
 25  11  16  1   
 26  11  17  1   
 27  12  18  1   
 28  12  34  1   
 29  13  35  1   
 30  14  19  ar  
 31  14  36  1   
 32  15  20  ar  
 33  15  37  1   
 34  16  18  2   
 35  16  38  1   
 36  17  39  1   
 37  17  40  1   
 38  17  41  1   
 39  19  21  ar  
 40  19  42  1   
 41  20  21  ar  
 42  20  43  1   
 43  21  22  1   
 44  22  23  1   
 45  22  44  1   
 46  22  45  1   
 47  23  46  1   
 48  23  47  1   
 49  23  48  1   
@<TRIPOS>SUBSTRUCTURE
  1 ****   7 GROUP 4 **** **** 0

# MOE 2024.06 (io_trps.svl 2023.06)
