@<TRIPOS>MOLECULE
NONAME
35 36 1 0 0 
SMALL
USER_CHARGES


@<TRIPOS>ATOM
  1 F        0.0040    -0.2990    -0.5800 F     1 <1>  -0.1900 
  2 C       -1.1890    -0.8010    -0.4090 C.ar  1 <1>   0.1900 
  3 C       -1.4280    -1.5930     0.6970 C.ar  1 <1>  -0.1500 
  4 C       -2.1690    -0.5220    -1.3430 C.ar  1 <1>  -0.1500 
  5 C       -2.6950    -2.1220     0.8700 C.ar  1 <1>  -0.1500 
  6 C       -3.4330    -1.0580    -1.1580 C.ar  1 <1>  -0.1500 
  7 C       -3.7000    -1.8590    -0.0540 C.ar  1 <1>  -0.1430 
  8 C       -5.0860    -2.4540     0.1500 C.3   1 <1>   0.2540 
  9 N       -5.0450    -3.9280     0.1150 N.3   1 <1>  -0.8100 
 10 C       -6.3520    -4.5010     0.5180 C.3   1 <1>   0.2900 
 11 C       -4.6010    -4.4510    -1.2100 C.3   1 <1>   0.1100 
 12 C       -6.2660    -5.9920     0.8280 C.2   1 <1>   0.2980 
 13 C       -3.1260    -4.8760    -1.1830 C.3   1 <1>   0.1200 
 14 O       -5.6100    -6.3680     1.8950 O.3   1 <1>  -0.0190 
 15 N       -6.7810    -6.9330     0.1410 N.2   1 <1>  -0.5650 
 16 O       -2.9120    -5.6250    -0.0420 O.3   1 <1>  -0.6800 
 17 N       -5.7070    -7.6620     1.8880 N.2   1 <1>  -0.4100 
 18 C       -6.3850    -8.0010     0.8530 C.2   1 <1>   0.3350 
 19 C       -6.7290    -9.4650     0.4440 C.3   1 <1>   1.2010 
 20 F       -6.2910    -9.7790    -0.7740 F     1 <1>  -0.3400 
 21 F       -8.0410    -9.6960     0.4300 F     1 <1>  -0.3400 
 22 F       -6.2120   -10.3830     1.2610 F     1 <1>  -0.3400 
 23 H       -0.6400    -1.7910     1.4010 H     1 <1>   0.1500 
 24 H       -1.9430     0.1000    -2.1900 H     1 <1>   0.1500 
 25 H       -2.9000    -2.7490     1.7220 H     1 <1>   0.1500 
 26 H       -4.2040    -0.8480    -1.8790 H     1 <1>   0.1500 
 27 H       -5.7640    -2.0870    -0.6020 H     1 <1>   0.0800 
 28 H       -5.4480    -2.1280     1.1110 H     1 <1>   0.0800 
 29 H       -7.0750    -4.3430    -0.2630 H     1 <1>   0.0800 
 30 H       -6.7040    -4.0050     1.4060 H     1 <1>   0.0800 
 31 H       -4.7480    -3.7150    -1.9820 H     1 <1>   0.0800 
 32 H       -5.1760    -5.3180    -1.4890 H     1 <1>   0.0800 
 33 H       -2.4790    -4.0180    -1.1480 H     1 <1>   0.0800 
 34 H       -2.8720    -5.4750    -2.0400 H     1 <1>   0.0800 
 35 H       -3.4610    -5.2120     0.6610 H     1 <1>   0.4000 
@<TRIPOS>BOND
  1   1   2  1   
  2   2   3  ar  
  3   2   4  ar  
  4   3   5  ar  
  5   3  23  1   
  6   4   6  ar  
  7   4  24  1   
  8   5   7  ar  
  9   5  25  1   
 10   6   7  ar  
 11   6  26  1   
 12   7   8  1   
 13   8   9  1   
 14   8  27  1   
 15   8  28  1   
 16   9  10  1   
 17   9  11  1   
 18  10  12  1   
 19  10  29  1   
 20  10  30  1   
 21  11  13  1   
 22  11  31  1   
 23  11  32  1   
 24  12  14  1   
 25  12  15  2   
 26  13  16  1   
 27  13  33  1   
 28  13  34  1   
 29  14  17  1   
 30  15  18  1   
 31  16  35  1   
 32  17  18  2   
 33  18  19  1   
 34  19  20  1   
 35  19  21  1   
 36  19  22  1   
@<TRIPOS>SUBSTRUCTURE
  1 ****   9 GROUP 4 **** **** 0

# MOE 2024.06 (io_trps.svl 2023.06)
