@<TRIPOS>MOLECULE
NONAME
47 50 1 0 0 
SMALL
USER_CHARGES


@<TRIPOS>ATOM
  1 F        0.6130     1.3510    -1.0710 F     1 <1>  -0.1900 
  2 C        1.2280     2.3980    -0.5820 C.ar  1 <1>   0.1900 
  3 C        2.5910     2.4910    -0.7120 C.ar  1 <1>  -0.1500 
  4 C        0.4540     3.3730     0.0540 C.ar  1 <1>  -0.1500 
  5 C        3.2220     3.6200    -0.1810 C.ar  1 <1>   0.0000 
  6 C        1.0730     4.4840     0.5780 C.ar  1 <1>  -0.1500 
  7 C        2.4630     4.6010     0.4550 C.ar  1 <1>  -0.1520 
  8 C        4.5630     4.0520    -0.1250 C.2   1 <1>  -0.1500 
  9 N        3.3100     5.5900     0.8840 N.pl3 1 <1>   0.0330 
 10 C        4.5860     5.2490     0.5150 C.2   1 <1>  -0.3320 
 11 C        5.7770     6.1230     0.8200 C.3   1 <1>   0.5230 
 12 N        6.2020     6.7190    -0.4720 N.4   1 <1>  -0.9590 
 13 C        7.5890     7.3230    -0.4310 C.3   1 <1>   0.3430 
 14 C        5.1770     7.6910    -0.9840 C.3   1 <1>   0.2630 
 15 C        7.9160     8.2760     0.7550 C.3   1 <1>   0.2000 
 16 O        6.7210     8.8750     1.2310 O.3   1 <1>  -0.3630 
 17 C        8.8190     9.4570     0.3300 C.3   1 <1>  -0.0170 
 18 C        6.6550    10.1380     0.8220 C.ar  1 <1>   0.3930 
 19 C        7.8180    10.5790     0.2720 C.ar  1 <1>  -0.1430 
 20 N        5.5520    10.8320     0.9060 N.ar  1 <1>  -0.6200 
 21 C        7.8370    11.8650    -0.2000 C.ar  1 <1>   0.1670 
 22 C        5.6800    12.0610     0.4290 C.ar  1 <1>   0.4770 
 23 N        6.7540    12.6130    -0.1230 N.ar  1 <1>  -0.6200 
 24 C        9.0630    12.4970    -0.8240 C.3   1 <1>  -0.0970 
 25 C        4.4610    12.9470     0.5120 C.3   1 <1>  -0.0970 
 26 H        3.1580     1.7230    -1.2040 H     1 <1>   0.1500 
 27 H       -0.6100     3.2350     0.1220 H     1 <1>   0.1500 
 28 H        0.5030     5.2500     1.0750 H     1 <1>   0.1500 
 29 H        5.3760     3.4770    -0.5350 H     1 <1>   0.1500 
 30 H        3.0010     6.4130     1.4180 H     1 <1>   0.2700 
 31 H        6.5690     5.5160     1.2280 H     1 <1>   0.0800 
 32 H        5.5190     6.8890     1.5340 H     1 <1>   0.0800 
 33 H        6.1990     5.9260    -1.1290 H     1 <1>   0.4500 
 34 H        7.7450     7.8680    -1.3470 H     1 <1>   0.0800 
 35 H        8.3190     6.5310    -0.4230 H     1 <1>   0.0800 
 36 H        5.0130     8.4860    -0.2750 H     1 <1>   0.0800 
 37 H        4.2380     7.1870    -1.1520 H     1 <1>   0.0800 
 38 H        5.5010     8.1240    -1.9160 H     1 <1>   0.0800 
 39 H        8.3610     7.7280     1.5670 H     1 <1>   0.0800 
 40 H        9.3070     9.2960    -0.6150 H     1 <1>   0.0800 
 41 H        9.5580     9.6590     1.0870 H     1 <1>   0.0800 
 42 H        9.9020    11.8270    -0.8110 H     1 <1>   0.0800 
 43 H        9.3230    13.3860    -0.2790 H     1 <1>   0.0800 
 44 H        8.8490    12.7700    -1.8410 H     1 <1>   0.0800 
 45 H        3.6650    12.4520     1.0370 H     1 <1>   0.0800 
 46 H        4.1310    13.1950    -0.4780 H     1 <1>   0.0800 
 47 H        4.7130    13.8510     1.0350 H     1 <1>   0.0800 
@<TRIPOS>BOND
  1   1   2  1   
  2   2   3  ar  
  3   2   4  ar  
  4   3   5  ar  
  5   3  26  1   
  6   4   6  ar  
  7   4  27  1   
  8   5   7  ar  
  9   5   8  1   
 10   6   7  ar  
 11   6  28  1   
 12   7   9  1   
 13   8  10  2   
 14   8  29  1   
 15   9  10  1   
 16   9  30  1   
 17  10  11  1   
 18  11  12  1   
 19  11  31  1   
 20  11  32  1   
 21  12  13  1   
 22  12  14  1   
 23  12  33  1   
 24  13  15  1   
 25  13  34  1   
 26  13  35  1   
 27  14  36  1   
 28  14  37  1   
 29  14  38  1   
 30  15  16  1   
 31  15  17  1   
 32  15  39  1   
 33  16  18  1   
 34  17  19  1   
 35  17  40  1   
 36  17  41  1   
 37  18  19  ar  
 38  18  20  ar  
 39  19  21  ar  
 40  20  22  ar  
 41  21  23  ar  
 42  21  24  1   
 43  22  23  ar  
 44  22  25  1   
 45  24  42  1   
 46  24  43  1   
 47  24  44  1   
 48  25  45  1   
 49  25  46  1   
 50  25  47  1   
@<TRIPOS>SUBSTRUCTURE
  1 ****  14 GROUP 4 **** **** 0

# MOE 2024.06 (io_trps.svl 2023.06)
