@<TRIPOS>MOLECULE
NONAME
54 57 1 0 0 
SMALL
USER_CHARGES


@<TRIPOS>ATOM
  1 O        1.9580     0.6670    -2.7670 O.2   1 <1>  -0.5700 
  2 C        2.0120     0.7520    -1.5520 C.2   1 <1>   0.5440 
  3 N        1.5080     1.8850    -0.9540 N.am  1 <1>  -0.6600 
  4 C        2.6410    -0.2970    -0.7910 C.ar  1 <1>   0.0860 
  5 C        1.4990     2.1490     0.5000 C.3   1 <1>   0.1400 
  6 C        0.8730     2.9840    -1.7070 C.3   1 <1>   0.1400 
  7 C        1.9150    -1.1720     0.0450 C.ar  1 <1>   0.4100 
  8 C        4.0180    -0.4520    -0.8610 C.ar  1 <1>  -0.1500 
  9 C        0.5990     3.3680     0.6630 C.3   1 <1>  -0.1600 
 10 C        0.6790     4.0930    -0.6790 C.3   1 <1>  -0.1600 
 11 N        2.5000    -2.0900     0.8170 N.ar  1 <1>  -0.6200 
 12 N        0.5300    -1.1420     0.1240 N.pl3 1 <1>  -0.8380 
 13 C        4.6080    -1.4220    -0.0850 C.ar  1 <1>  -0.1500 
 14 C        3.8100    -2.2000     0.7320 C.ar  1 <1>   0.1600 
 15 C       -0.3000    -1.2580    -1.1100 C.3   1 <1>   0.2090 
 16 C       -0.1780    -1.3680     1.4160 C.3   1 <1>   0.2090 
 17 C       -1.0680    -2.5820    -1.1190 C.3   1 <1>  -0.1600 
 18 C       -0.9300    -2.6990     1.3900 C.3   1 <1>  -0.1600 
 19 C       -1.8670    -2.7740     0.1770 C.3   1 <1>   0.0630 
 20 C       -2.7310    -4.0450     0.1630 C.ar  1 <1>  -0.1430 
 21 C       -2.2070    -5.3380     0.0770 C.ar  1 <1>   0.0820 
 22 C       -4.1090    -3.8870     0.2420 C.ar  1 <1>  -0.1500 
 23 O       -0.8590    -5.4910    -0.0010 O.3   1 <1>  -0.3630 
 24 C       -3.0680    -6.4350     0.0710 C.ar  1 <1>  -0.1500 
 25 C       -4.9570    -4.9790     0.2360 C.ar  1 <1>  -0.1500 
 26 C       -0.2370    -6.7540    -0.0430 C.3   1 <1>   0.0400 
 27 C       -4.4360    -6.2550     0.1500 C.ar  1 <1>  -0.1500 
 28 H        2.5020     2.3720     0.8240 H     1 <1>   0.0800 
 29 H        1.1170     1.3060     1.0500 H     1 <1>   0.0800 
 30 H       -0.0760     2.6430    -2.0850 H     1 <1>   0.0800 
 31 H        1.4970     3.2990    -2.5260 H     1 <1>   0.0800 
 32 H        4.5990     0.1810    -1.5090 H     1 <1>   0.1500 
 33 H        0.9100     3.9880     1.4850 H     1 <1>   0.0800 
 34 H       -0.4090     3.0340     0.8370 H     1 <1>   0.0800 
 35 H       -0.1990     4.6790    -0.8840 H     1 <1>   0.0800 
 36 H        1.5420     4.7360    -0.6960 H     1 <1>   0.0800 
 37 H        5.6720    -1.5750    -0.1090 H     1 <1>   0.1500 
 38 H        4.2750    -2.9520     1.3450 H     1 <1>   0.1500 
 39 H        0.3220    -1.2210    -1.9870 H     1 <1>   0.0800 
 40 H       -0.9850    -0.4290    -1.1500 H     1 <1>   0.0800 
 41 H       -0.8720    -0.5620     1.5750 H     1 <1>   0.0800 
 42 H        0.5250    -1.3650     2.2330 H     1 <1>   0.0800 
 43 H       -0.3580    -3.3780    -1.2420 H     1 <1>   0.0800 
 44 H       -1.7340    -2.6020    -1.9610 H     1 <1>   0.0800 
 45 H       -1.4990    -2.8080     2.2950 H     1 <1>   0.0800 
 46 H       -0.2050    -3.4920     1.3590 H     1 <1>   0.0800 
 47 H       -2.5310    -1.9300     0.2520 H     1 <1>   0.0800 
 48 H       -4.5400    -2.9040     0.3090 H     1 <1>   0.1500 
 49 H       -2.6940    -7.4370     0.0050 H     1 <1>   0.1500 
 50 H       -6.0220    -4.8350     0.2980 H     1 <1>   0.1500 
 51 H        0.8260    -6.5970    -0.0800 H     1 <1>   0.0800 
 52 H       -0.5610    -7.2730    -0.9270 H     1 <1>   0.0800 
 53 H       -0.4960    -7.3000     0.8460 H     1 <1>   0.0800 
 54 H       -5.0940    -7.1060     0.1450 H     1 <1>   0.1500 
@<TRIPOS>BOND
  1   1   2  2   
  2   2   3  am  
  3   2   4  1   
  4   3   5  1   
  5   3   6  1   
  6   4   7  ar  
  7   4   8  ar  
  8   5   9  1   
  9   5  28  1   
 10   5  29  1   
 11   6  10  1   
 12   6  30  1   
 13   6  31  1   
 14   7  11  ar  
 15   7  12  1   
 16   8  13  ar  
 17   8  32  1   
 18   9  10  1   
 19   9  33  1   
 20   9  34  1   
 21  10  35  1   
 22  10  36  1   
 23  11  14  ar  
 24  12  15  1   
 25  12  16  1   
 26  13  14  ar  
 27  13  37  1   
 28  14  38  1   
 29  15  17  1   
 30  15  39  1   
 31  15  40  1   
 32  16  18  1   
 33  16  41  1   
 34  16  42  1   
 35  17  19  1   
 36  17  43  1   
 37  17  44  1   
 38  18  19  1   
 39  18  45  1   
 40  18  46  1   
 41  19  20  1   
 42  19  47  1   
 43  20  21  ar  
 44  20  22  ar  
 45  21  23  1   
 46  21  24  ar  
 47  22  25  ar  
 48  22  48  1   
 49  23  26  1   
 50  24  27  ar  
 51  24  49  1   
 52  25  27  ar  
 53  25  50  1   
 54  26  51  1   
 55  26  52  1   
 56  26  53  1   
 57  27  54  1   
@<TRIPOS>SUBSTRUCTURE
  1 ****  12 GROUP 4 **** **** 0

# MOE 2024.06 (io_trps.svl 2023.06)
