@<TRIPOS>MOLECULE
NONAME
51 54 1 0 0 
SMALL
USER_CHARGES


@<TRIPOS>ATOM
  1 O       -0.6400     0.1250     1.0320 O.2   1 <1>  -0.5700 
  2 C       -1.4180     0.7900     0.3730 C.2   1 <1>   0.6160 
  3 N       -2.6870     0.2920     0.1520 N.am  1 <1>  -0.6600 
  4 C       -0.9880     2.0650    -0.1600 C.2   1 <1>   0.0140 
  5 C       -3.0810    -1.0360     0.7300 C.3   1 <1>   0.1400 
  6 C       -3.7570     1.0770    -0.5480 C.3   1 <1>   0.1400 
  7 C       -0.5770     3.0660     0.6590 C.2   1 <1>  -0.1780 
  8 C       -0.9810     2.2080    -1.5980 C.2   1 <1>  -0.1500 
  9 C       -4.2690    -1.6070    -0.0650 C.3   1 <1>   0.4230 
 10 C       -5.1430     0.7850     0.0440 C.3   1 <1>  -0.1600 
 11 C       -0.1020     4.3810     0.3100 C.ar  1 <1>   0.0280 
 12 C       -1.1330     3.3460    -2.2970 C.2   1 <1>  -0.0730 
 13 N       -4.6000    -3.0540     0.1510 N.4   1 <1>  -0.9590 
 14 C       -5.5150    -0.7270     0.1610 C.3   1 <1>  -0.1060 
 15 C       -0.4780     5.0770    -0.8510 C.ar  1 <1>   0.0830 
 16 C        0.7760     5.0220     1.1800 C.ar  1 <1>  -0.1500 
 17 O       -1.3590     4.5670    -1.7570 O.3   1 <1>  -0.1590 
 18 C       -5.6120    -3.5310    -0.8300 C.3   1 <1>   0.3430 
 19 C       -3.4370    -3.9730     0.2780 C.3   1 <1>   0.2630 
 20 C       -6.1080    -0.9780     1.5610 C.2   1 <1>   0.9060 
 21 C       -6.5440    -1.1340    -0.9200 C.3   1 <1>  -0.1600 
 22 C        0.0060     6.3460    -1.1100 C.ar  1 <1>  -0.1500 
 23 C        1.2650     6.2910     0.9190 C.ar  1 <1>  -0.1500 
 24 C       -6.8620    -2.6390    -0.8250 C.3   1 <1>  -0.1600 
 25 O       -7.0560    -0.2890     1.9320 O.co2 1 <1>  -0.9000 
 26 O       -5.6670    -1.9070     2.2560 O.co2 1 <1>  -0.9000 
 27 C        0.8810     6.9580    -0.2280 C.ar  1 <1>  -0.1500 
 28 H       -2.2370    -1.6970     0.6690 H     1 <1>   0.0800 
 29 H       -3.3460    -0.9070     1.7660 H     1 <1>   0.0800 
 30 H       -3.5610     2.1330    -0.4590 H     1 <1>   0.0800 
 31 H       -3.7500     0.8250    -1.5940 H     1 <1>   0.0800 
 32 H       -0.5750     2.8710     1.7170 H     1 <1>   0.1500 
 33 H       -0.8390     1.2820    -2.1270 H     1 <1>   0.1500 
 34 H       -3.9900    -1.5060    -1.0990 H     1 <1>   0.0800 
 35 H       -5.1540     1.2300     1.0270 H     1 <1>   0.0800 
 36 H       -5.8930     1.3110    -0.5200 H     1 <1>   0.0800 
 37 H       -1.1110     3.3850    -3.3720 H     1 <1>   0.1500 
 38 H       -5.0770    -3.0030     1.0930 H     1 <1>   0.4500 
 39 H        1.0890     4.5200     2.0780 H     1 <1>   0.1500 
 40 H       -5.1800    -3.5250    -1.8160 H     1 <1>   0.0800 
 41 H       -5.9010    -4.5420    -0.5920 H     1 <1>   0.0800 
 42 H       -2.8510    -3.9640    -0.6260 H     1 <1>   0.0800 
 43 H       -3.7790    -4.9770     0.4660 H     1 <1>   0.0800 
 44 H       -2.8150    -3.6690     1.1040 H     1 <1>   0.0800 
 45 H       -7.4550    -0.5730    -0.7760 H     1 <1>   0.0800 
 46 H       -6.1630    -0.9010    -1.8990 H     1 <1>   0.0800 
 47 H       -0.3030     6.8600    -2.0030 H     1 <1>   0.1500 
 48 H        1.9450     6.7580     1.6110 H     1 <1>   0.1500 
 49 H       -7.4980    -2.9210    -1.6450 H     1 <1>   0.0800 
 50 H       -7.4160    -2.8310     0.0790 H     1 <1>   0.0800 
 51 H        1.2570     7.9450    -0.4360 H     1 <1>   0.1500 
@<TRIPOS>BOND
  1   1   2  2   
  2   2   3  am  
  3   2   4  1   
  4   3   5  1   
  5   3   6  1   
  6   4   7  2   
  7   4   8  1   
  8   5   9  1   
  9   5  28  1   
 10   5  29  1   
 11   6  10  1   
 12   6  30  1   
 13   6  31  1   
 14   7  11  1   
 15   7  32  1   
 16   8  12  2   
 17   8  33  1   
 18   9  13  1   
 19   9  14  1   
 20   9  34  1   
 21  10  14  1   
 22  10  35  1   
 23  10  36  1   
 24  11  15  ar  
 25  11  16  ar  
 26  12  17  1   
 27  12  37  1   
 28  13  18  1   
 29  13  19  1   
 30  13  38  1   
 31  14  20  1   
 32  14  21  1   
 33  15  17  1   
 34  15  22  ar  
 35  16  23  ar  
 36  16  39  1   
 37  18  24  1   
 38  18  40  1   
 39  18  41  1   
 40  19  42  1   
 41  19  43  1   
 42  19  44  1   
 43  20  25  ar  
 44  20  26  ar  
 45  21  24  1   
 46  21  45  1   
 47  21  46  1   
 48  22  27  ar  
 49  22  47  1   
 50  23  27  ar  
 51  23  48  1   
 52  24  49  1   
 53  24  50  1   
 54  27  51  1   
@<TRIPOS>SUBSTRUCTURE
  1 ****   3 GROUP 4 **** **** 0

# MOE 2024.06 (io_trps.svl 2023.06)
