@<TRIPOS>MOLECULE
NONAME
60 63 1 0 0 
SMALL
USER_CHARGES


@<TRIPOS>ATOM
  1 O       -1.0370     0.7590     2.7700 O.2   1 <1>  -0.5700 
  2 C       -1.9350     1.2530     2.1120 C.2   1 <1>   0.5440 
  3 N       -3.1910     0.6760     2.1550 N.am  1 <1>  -0.6600 
  4 C       -1.6560     2.4080     1.2880 C.ar  1 <1>   0.0860 
  5 C       -4.2370     0.8970     1.1200 C.3   1 <1>   0.1400 
  6 C       -3.5220    -0.4170     3.1100 C.3   1 <1>   0.1400 
  7 C       -2.3870     3.5910     1.4100 C.ar  1 <1>  -0.1500 
  8 C       -0.6430     2.3780     0.3300 C.ar  1 <1>  -0.1500 
  9 C       -4.4130    -0.3910     0.3140 C.3   1 <1>  -0.1600 
 10 C       -3.6970    -1.7230     2.3320 C.3   1 <1>  -0.1600 
 11 C       -2.1350     4.6790     0.5990 C.ar  1 <1>  -0.1500 
 12 C       -0.3920     3.4640    -0.4830 C.ar  1 <1>  -0.1500 
 13 C       -4.7470    -1.5910     1.2180 C.3   1 <1>   0.4240 
 14 C       -1.1370     4.6330    -0.3690 C.ar  1 <1>   0.1000 
 15 O       -5.9590    -1.3120     1.8810 O.3   1 <1>  -0.5600 
 16 C       -4.8280    -2.8980     0.4000 C.ar  1 <1>  -0.1430 
 17 N       -0.8750     5.7140    -1.2010 N.pl3 1 <1>  -0.8380 
 18 C       -7.1460    -1.5930     1.2050 C.3   1 <1>   0.1200 
 19 C       -6.0160    -3.6160     0.3050 C.ar  1 <1>  -0.1430 
 20 C       -3.7080    -3.3790    -0.2690 C.ar  1 <1>  -0.1500 
 21 C        0.4920     6.2980    -1.2460 C.3   1 <1>   0.1290 
 22 C       -1.9680     6.5710    -1.7270 C.3   1 <1>   0.1290 
 23 C       -7.2570    -3.1010     1.0060 C.3   1 <1>  -0.0170 
 24 C       -6.0730    -4.7950    -0.4210 C.ar  1 <1>  -0.1500 
 25 C       -3.7600    -4.5450    -1.0130 C.ar  1 <1>   0.0830 
 26 C       -4.9490    -5.2770    -1.0680 C.ar  1 <1>   0.0830 
 27 O       -2.6310    -4.9190    -1.6650 O.3   1 <1>  -0.3630 
 28 O       -5.0630    -6.4560    -1.7270 O.3   1 <1>  -0.3620 
 29 C       -2.6940    -4.9290    -3.0740 C.3   1 <1>   0.0400 
 30 C       -4.3180    -7.5340    -1.2040 C.3   1 <1>   0.0400 
 31 H       -3.9660     1.6950     0.4530 H     1 <1>   0.0800 
 32 H       -5.1620     1.1610     1.6040 H     1 <1>   0.0800 
 33 H       -4.4340    -0.1690     3.6270 H     1 <1>   0.0800 
 34 H       -2.7450    -0.5310     3.8460 H     1 <1>   0.0800 
 35 H       -3.1590     3.6470     2.1570 H     1 <1>   0.1500 
 36 H       -0.0530     1.4830     0.2320 H     1 <1>   0.1500 
 37 H       -3.4960    -0.5820    -0.2110 H     1 <1>   0.0800 
 38 H       -5.1790    -0.2620    -0.4260 H     1 <1>   0.0800 
 39 H       -3.9890    -2.5110     3.0010 H     1 <1>   0.0800 
 40 H       -2.7440    -1.9890     1.9170 H     1 <1>   0.0800 
 41 H       -2.7070     5.5800     0.7170 H     1 <1>   0.1500 
 42 H        0.3830     3.4170    -1.2250 H     1 <1>   0.1500 
 43 H       -7.1480    -1.0770     0.2610 H     1 <1>   0.0800 
 44 H       -7.9610    -1.2320     1.8070 H     1 <1>   0.0800 
 45 H       -2.7730    -2.8500    -0.2300 H     1 <1>   0.1500 
 46 H        1.1630     5.7280    -0.6280 H     1 <1>   0.0800 
 47 H        0.4700     7.3110    -0.8850 H     1 <1>   0.0800 
 48 H        0.8560     6.2880    -2.2590 H     1 <1>   0.0800 
 49 H       -2.8960     6.0260    -1.7290 H     1 <1>   0.0800 
 50 H       -1.7430     6.8670    -2.7370 H     1 <1>   0.0800 
 51 H       -2.0730     7.4490    -1.1140 H     1 <1>   0.0800 
 52 H       -8.1320    -3.3180     0.4220 H     1 <1>   0.0800 
 53 H       -7.3590    -3.5820     1.9630 H     1 <1>   0.0800 
 54 H       -6.9870    -5.3560    -0.4870 H     1 <1>   0.1500 
 55 H       -1.7060    -5.1160    -3.4540 H     1 <1>   0.0800 
 56 H       -3.0440    -3.9700    -3.4130 H     1 <1>   0.0800 
 57 H       -3.3630    -5.7060    -3.3970 H     1 <1>   0.0800 
 58 H       -4.5770    -8.4200    -1.7560 H     1 <1>   0.0800 
 59 H       -4.5700    -7.6580    -0.1660 H     1 <1>   0.0800 
 60 H       -3.2690    -7.3280    -1.3120 H     1 <1>   0.0800 
@<TRIPOS>BOND
  1   1   2  2   
  2   2   3  am  
  3   2   4  1   
  4   3   5  1   
  5   3   6  1   
  6   4   7  ar  
  7   4   8  ar  
  8   5   9  1   
  9   5  31  1   
 10   5  32  1   
 11   6  10  1   
 12   6  33  1   
 13   6  34  1   
 14   7  11  ar  
 15   7  35  1   
 16   8  12  ar  
 17   8  36  1   
 18   9  13  1   
 19   9  37  1   
 20   9  38  1   
 21  10  13  1   
 22  10  39  1   
 23  10  40  1   
 24  11  14  ar  
 25  11  41  1   
 26  12  14  ar  
 27  12  42  1   
 28  13  15  1   
 29  13  16  1   
 30  14  17  1   
 31  15  18  1   
 32  16  19  ar  
 33  16  20  ar  
 34  17  21  1   
 35  17  22  1   
 36  18  23  1   
 37  18  43  1   
 38  18  44  1   
 39  19  23  1   
 40  19  24  ar  
 41  20  25  ar  
 42  20  45  1   
 43  21  46  1   
 44  21  47  1   
 45  21  48  1   
 46  22  49  1   
 47  22  50  1   
 48  22  51  1   
 49  23  52  1   
 50  23  53  1   
 51  24  26  ar  
 52  24  54  1   
 53  25  26  ar  
 54  25  27  1   
 55  26  28  1   
 56  27  29  1   
 57  28  30  1   
 58  29  55  1   
 59  29  56  1   
 60  29  57  1   
 61  30  58  1   
 62  30  59  1   
 63  30  60  1   
@<TRIPOS>SUBSTRUCTURE
  1 ****   9 GROUP 4 **** **** 0

# MOE 2024.06 (io_trps.svl 2023.06)
