@<TRIPOS>MOLECULE
NONAME
54 56 1 0 0 
SMALL
USER_CHARGES


@<TRIPOS>ATOM
  1 F       -0.4630    -2.2380    -2.4780 F     1 <1>  -0.1900 
  2 C       -1.1500    -2.9490    -1.6200 C.ar  1 <1>   0.1900 
  3 C       -0.6700    -3.2290    -0.3350 C.ar  1 <1>   0.0830 
  4 C       -2.3810    -3.4060    -2.0480 C.ar  1 <1>  -0.1500 
  5 O        0.5220    -2.8340     0.2000 O.3   1 <1>  -0.3630 
  6 C       -1.4750    -3.9870     0.4990 C.ar  1 <1>  -0.1500 
  7 C       -3.1580    -4.1600    -1.1890 C.ar  1 <1>  -0.1500 
  8 C        1.4940    -2.1220    -0.5310 C.3   1 <1>   0.0400 
  9 C       -2.7220    -4.4720     0.1010 C.ar  1 <1>   0.0530 
 10 C       -3.5250    -5.2650     0.9990 C.2   1 <1>   0.0870 
 11 O       -3.4750    -5.0580     2.2920 O.3   1 <1>  -0.0190 
 12 C       -4.4020    -6.2800     0.7980 C.2   1 <1>  -0.2330 
 13 N       -4.2640    -5.8560     2.9630 N.2   1 <1>  -0.4100 
 14 C       -4.8400    -6.6070     2.0870 C.2   1 <1>   0.3720 
 15 C       -4.7870    -6.8910    -0.4290 C.2   1 <1>   1.0330 
 16 N       -5.7780    -7.6020     2.4400 N.pl3 1 <1>  -0.8210 
 17 O       -5.6790    -6.4170    -1.1490 O.co2 1 <1>  -0.9000 
 18 O       -4.2910    -7.9700    -0.8080 O.co2 1 <1>  -0.9000 
 19 C       -5.5240    -8.9620     1.8950 C.3   1 <1>   0.2090 
 20 C       -6.2630    -7.5900     3.8480 C.3   1 <1>   0.1290 
 21 C       -6.7460    -9.5530     1.1380 C.3   1 <1>  -0.0800 
 22 C       -6.3640   -10.5430     0.0090 C.3   1 <1>   0.5030 
 23 C       -7.6620    -8.5250     0.4250 C.3   1 <1>  -0.1600 
 24 N       -6.3610    -9.6910    -1.1860 N.4   1 <1>  -0.9590 
 25 C       -7.4520   -11.6210    -0.1320 C.3   1 <1>  -0.2400 
 26 C       -5.0050   -11.2420     0.1390 C.3   1 <1>  -0.2400 
 27 C       -7.4890    -8.7450    -1.0730 C.3   1 <1>   0.3430 
 28 C       -6.2030   -10.2870    -2.5350 C.3   1 <1>   0.2630 
 29 H       -2.7280    -3.1760    -3.0390 H     1 <1>   0.1500 
 30 H       -1.1190    -4.2120     1.4890 H     1 <1>   0.1500 
 31 H       -4.1210    -4.5070    -1.5240 H     1 <1>   0.1500 
 32 H        2.3470    -1.9710     0.1050 H     1 <1>   0.0800 
 33 H        1.0850    -1.1710    -0.8230 H     1 <1>   0.0800 
 34 H        1.7790    -2.7010    -1.3920 H     1 <1>   0.0800 
 35 H       -5.2620    -9.6220     2.7040 H     1 <1>   0.0800 
 36 H       -4.6570    -8.9150     1.2700 H     1 <1>   0.0800 
 37 H       -6.5700    -6.5940     4.1160 H     1 <1>   0.0800 
 38 H       -5.4740    -7.9010     4.5110 H     1 <1>   0.0800 
 39 H       -7.1050    -8.2500     3.9550 H     1 <1>   0.0800 
 40 H       -7.3250   -10.0690     1.8810 H     1 <1>   0.0800 
 41 H       -7.4340    -7.4990     0.6470 H     1 <1>   0.0800 
 42 H       -8.6910    -8.6880     0.6870 H     1 <1>   0.0800 
 43 H       -5.5250    -9.0580    -1.0650 H     1 <1>   0.4500 
 44 H       -8.4270   -11.1900    -0.2680 H     1 <1>   0.0800 
 45 H       -7.4810   -12.2200     0.7600 H     1 <1>   0.0800 
 46 H       -7.2450   -12.2800    -0.9550 H     1 <1>   0.0800 
 47 H       -4.1900   -10.5510     0.0170 H     1 <1>   0.0800 
 48 H       -4.8980   -12.0080    -0.6070 H     1 <1>   0.0800 
 49 H       -4.9210   -11.7100     1.1030 H     1 <1>   0.0800 
 50 H       -7.2750    -7.8220    -1.5860 H     1 <1>   0.0800 
 51 H       -8.3820    -9.1820    -1.4850 H     1 <1>   0.0800 
 52 H       -7.0480   -10.9100    -2.7730 H     1 <1>   0.0800 
 53 H       -5.3030   -10.8760    -2.5730 H     1 <1>   0.0800 
 54 H       -6.1260    -9.5010    -3.2690 H     1 <1>   0.0800 
@<TRIPOS>BOND
  1   1   2  1   
  2   2   3  ar  
  3   2   4  ar  
  4   3   5  1   
  5   3   6  ar  
  6   4   7  ar  
  7   4  29  1   
  8   5   8  1   
  9   6   9  ar  
 10   6  30  1   
 11   7   9  ar  
 12   7  31  1   
 13   8  32  1   
 14   8  33  1   
 15   8  34  1   
 16   9  10  1   
 17  10  11  1   
 18  10  12  2   
 19  11  13  1   
 20  12  14  1   
 21  12  15  1   
 22  13  14  2   
 23  14  16  1   
 24  15  17  ar  
 25  15  18  ar  
 26  16  19  1   
 27  16  20  1   
 28  19  21  1   
 29  19  35  1   
 30  19  36  1   
 31  20  37  1   
 32  20  38  1   
 33  20  39  1   
 34  21  22  1   
 35  21  23  1   
 36  21  40  1   
 37  22  24  1   
 38  22  25  1   
 39  22  26  1   
 40  23  27  1   
 41  23  41  1   
 42  23  42  1   
 43  24  27  1   
 44  24  28  1   
 45  24  43  1   
 46  25  44  1   
 47  25  45  1   
 48  25  46  1   
 49  26  47  1   
 50  26  48  1   
 51  26  49  1   
 52  27  50  1   
 53  27  51  1   
 54  28  52  1   
 55  28  53  1   
 56  28  54  1   
@<TRIPOS>SUBSTRUCTURE
  1 ****  12 GROUP 4 **** **** 0

# MOE 2024.06 (io_trps.svl 2023.06)
