@<TRIPOS>MOLECULE
NONAME
52 54 1 0 0 
SMALL
USER_CHARGES


@<TRIPOS>ATOM
  1 S        0.0720     0.1580    -1.6650 S.o2  1 <1>   1.4470 
  2 O       -0.7420    -0.9070    -2.2180 O.2   1 <1>  -0.6500 
  3 O        0.4730     1.2590    -2.5170 O.2   1 <1>  -0.6500 
  4 N       -0.7170     0.7960    -0.3030 N.am  1 <1>  -0.8490 
  5 C        1.5590    -0.5730    -0.9270 C.ar  1 <1>  -0.0090 
  6 C       -1.7980    -0.0210     0.2730 C.3   1 <1>   0.1960 
  7 C       -1.0910     2.2070    -0.3630 C.3   1 <1>   0.1960 
  8 C        2.6160     0.2240    -0.5100 C.ar  1 <1>  -0.1500 
  9 C        1.6760    -1.9440    -0.7370 C.ar  1 <1>  -0.1500 
 10 C       -3.2170     0.2660    -0.3190 C.3   1 <1>   0.0000 
 11 C       -2.2930     2.4550    -1.2910 C.3   1 <1>  -0.1600 
 12 C        3.7580    -0.3050     0.0680 C.ar  1 <1>   0.0830 
 13 C        2.8010    -2.4990    -0.1520 C.ar  1 <1>  -0.1500 
 14 C       -4.1960     0.7780     0.7610 C.3   1 <1>   0.2000 
 15 C       -3.1680     1.2140    -1.5400 C.3   1 <1>  -0.1600 
 16 C       -3.8840    -1.0630    -0.7090 C.3   1 <1>  -0.1600 
 17 O        4.7060     0.6150     0.4030 O.3   1 <1>  -0.3630 
 18 C        3.8560    -1.6920     0.2660 C.ar  1 <1>   0.0830 
 19 O       -3.6100     1.7180     1.6110 O.3   1 <1>  -0.5600 
 20 C       -4.6420    -0.4650     1.5390 C.3   1 <1>  -0.1600 
 21 C       -4.4120    -1.6570     0.6000 C.3   1 <1>  -0.1600 
 22 C        6.0810     0.3020     0.3650 C.3   1 <1>   0.0400 
 23 O        4.9570    -2.2210     0.8730 O.3   1 <1>  -0.3630 
 24 C       -4.5070     2.4620     2.3730 C.3   1 <1>   0.0400 
 25 C        5.0500    -3.5880     1.2090 C.3   1 <1>   0.0400 
 26 H       -1.5470    -1.0620     0.1560 H     1 <1>   0.0800 
 27 H       -1.8090     0.1550     1.3340 H     1 <1>   0.0800 
 28 H       -1.3530     2.5250     0.6320 H     1 <1>   0.0800 
 29 H       -0.2500     2.8040    -0.6750 H     1 <1>   0.0800 
 30 H        2.5530     1.2900    -0.6420 H     1 <1>   0.1500 
 31 H        0.8710    -2.5880    -1.0510 H     1 <1>   0.1500 
 32 H       -2.8920     3.2320    -0.8510 H     1 <1>   0.0800 
 33 H       -1.9350     2.8260    -2.2350 H     1 <1>   0.0800 
 34 H        2.8290    -3.5650    -0.0320 H     1 <1>   0.1500 
 35 H       -5.0470     1.2270     0.2780 H     1 <1>   0.0800 
 36 H       -2.7560     0.6760    -2.3750 H     1 <1>   0.0800 
 37 H       -4.1570     1.5200    -1.8290 H     1 <1>   0.0800 
 38 H       -4.7200    -0.8690    -1.3610 H     1 <1>   0.0800 
 39 H       -3.2110    -1.7300    -1.2190 H     1 <1>   0.0800 
 40 H       -4.0470    -0.5850     2.4280 H     1 <1>   0.0800 
 41 H       -5.6800    -0.3860     1.8070 H     1 <1>   0.0800 
 42 H       -3.6750    -2.3160     1.0270 H     1 <1>   0.0800 
 43 H       -5.3190    -2.2130     0.4340 H     1 <1>   0.0800 
 44 H        6.6330     1.2220     0.3080 H     1 <1>   0.0800 
 45 H        6.2810    -0.3040    -0.5010 H     1 <1>   0.0800 
 46 H        6.3420    -0.2220     1.2670 H     1 <1>   0.0800 
 47 H       -3.9430     3.1540     2.9720 H     1 <1>   0.0800 
 48 H       -5.0680     1.8040     3.0130 H     1 <1>   0.0800 
 49 H       -5.1650     3.0060     1.7160 H     1 <1>   0.0800 
 50 H        5.9830    -3.7430     1.7210 H     1 <1>   0.0800 
 51 H        5.0280    -4.1740     0.3070 H     1 <1>   0.0800 
 52 H        4.2320    -3.8450     1.8590 H     1 <1>   0.0800 
@<TRIPOS>BOND
  1   1   2  2   
  2   1   3  2   
  3   1   4  am  
  4   1   5  1   
  5   4   6  1   
  6   4   7  1   
  7   5   8  ar  
  8   5   9  ar  
  9   6  10  1   
 10   6  26  1   
 11   6  27  1   
 12   7  11  1   
 13   7  28  1   
 14   7  29  1   
 15   8  12  ar  
 16   8  30  1   
 17   9  13  ar  
 18   9  31  1   
 19  10  14  1   
 20  10  15  1   
 21  10  16  1   
 22  11  15  1   
 23  11  32  1   
 24  11  33  1   
 25  12  17  1   
 26  12  18  ar  
 27  13  18  ar  
 28  13  34  1   
 29  14  19  1   
 30  14  20  1   
 31  14  35  1   
 32  15  36  1   
 33  15  37  1   
 34  16  21  1   
 35  16  38  1   
 36  16  39  1   
 37  17  22  1   
 38  18  23  1   
 39  19  24  1   
 40  20  21  1   
 41  20  40  1   
 42  20  41  1   
 43  21  42  1   
 44  21  43  1   
 45  22  44  1   
 46  22  45  1   
 47  22  46  1   
 48  23  25  1   
 49  24  47  1   
 50  24  48  1   
 51  24  49  1   
 52  25  50  1   
 53  25  51  1   
 54  25  52  1   
@<TRIPOS>SUBSTRUCTURE
  1 ****   4 GROUP 4 **** **** 0

# MOE 2024.06 (io_trps.svl 2023.06)
