@<TRIPOS>MOLECULE
NONAME
52 55 1 0 0 
SMALL
USER_CHARGES


@<TRIPOS>ATOM
  1 F       -1.1070    -2.2480    -1.5220 F     1 <1>  -0.1900 
  2 C       -1.3370    -2.1880    -0.2370 C.ar  1 <1>   0.1900 
  3 C       -2.2650    -1.2810     0.2580 C.ar  1 <1>  -0.0320 
  4 C       -0.6230    -3.0460     0.5790 C.ar  1 <1>  -0.1500 
  5 C       -2.4570    -1.2490     1.6330 C.ar  1 <1>  -0.1500 
  6 C       -3.0470    -0.3540    -0.6740 C.3   1 <1>   0.0320 
  7 C       -0.8350    -3.0000     1.9450 C.ar  1 <1>  -0.1500 
  8 C       -1.7500    -2.1010     2.4690 C.ar  1 <1>  -0.1500 
  9 C       -4.0530    -1.0910    -1.5780 C.2   1 <1>   0.6300 
 10 C       -2.2910     0.8220    -1.2340 C.3   1 <1>  -0.2000 
 11 C       -3.3790     1.0520    -0.2390 C.3   1 <1>  -0.2000 
 12 O       -3.8000    -1.1690    -2.7600 O.2   1 <1>  -0.5700 
 13 N       -5.2090    -1.6260    -1.0570 N.am  1 <1>  -0.6600 
 14 C       -6.2680    -2.1610    -1.9510 C.3   1 <1>   0.1400 
 15 C       -5.5370    -1.6090     0.3970 C.3   1 <1>   0.1400 
 16 C       -7.5900    -1.3980    -1.7630 C.3   1 <1>  -0.1600 
 17 C       -7.0420    -1.7590     0.6600 C.3   1 <1>  -0.1600 
 18 C       -7.8760    -0.9100    -0.3210 C.3   1 <1>   0.2800 
 19 O       -7.4050     0.4070    -0.2640 O.3   1 <1>  -0.5600 
 20 C       -9.4040    -0.9540    -0.0230 C.3   1 <1>  -0.1600 
 21 C       -7.6460     1.2250     0.8560 C.3   1 <1>   0.1200 
 22 C      -10.0160     0.3480     0.5270 C.3   1 <1>   0.2800 
 23 C       -9.0300     1.0250     1.5040 C.3   1 <1>   0.2000 
 24 O      -10.2410     1.2070    -0.5320 O.3   1 <1>  -0.6800 
 25 C      -11.3970     0.1000     1.1440 C.3   1 <1>  -0.2400 
 26 O       -8.8770     0.2540     2.6600 O.3   1 <1>  -0.6800 
 27 H        0.0830    -3.7330     0.1470 H     1 <1>   0.1500 
 28 H       -3.1590    -0.5590     2.0650 H     1 <1>   0.1500 
 29 H       -0.2890    -3.6590     2.5990 H     1 <1>   0.1500 
 30 H       -1.9100    -2.0630     3.5330 H     1 <1>   0.1500 
 31 H       -1.2670     0.9560    -0.9340 H     1 <1>   0.1000 
 32 H       -2.4560     1.0870    -2.2640 H     1 <1>   0.1000 
 33 H       -4.3070     1.4800    -0.5790 H     1 <1>   0.1000 
 34 H       -3.0960     1.4030     0.7360 H     1 <1>   0.1000 
 35 H       -5.9680    -2.1050    -2.9840 H     1 <1>   0.0800 
 36 H       -6.4120    -3.2000    -1.7130 H     1 <1>   0.0800 
 37 H       -4.9990    -2.4000     0.8910 H     1 <1>   0.0800 
 38 H       -5.2190    -0.6710     0.8140 H     1 <1>   0.0800 
 39 H       -8.3600    -2.0680    -2.0930 H     1 <1>   0.0800 
 40 H       -7.6080    -0.5540    -2.4300 H     1 <1>   0.0800 
 41 H       -7.2400    -1.4940     1.6790 H     1 <1>   0.0800 
 42 H       -7.3120    -2.7950     0.5530 H     1 <1>   0.0800 
 43 H       -9.9620    -1.2450    -0.8940 H     1 <1>   0.0800 
 44 H       -9.5740    -1.7360     0.6930 H     1 <1>   0.0800 
 45 H       -6.8580     1.0730     1.5720 H     1 <1>   0.0800 
 46 H       -7.5810     2.2370     0.4970 H     1 <1>   0.0800 
 47 H       -9.4230     1.9750     1.8230 H     1 <1>   0.0800 
 48 H      -10.7830     0.7680    -1.2100 H     1 <1>   0.4000 
 49 H      -11.3180    -0.5650     1.9850 H     1 <1>   0.0800 
 50 H      -12.0640    -0.3430     0.4270 H     1 <1>   0.0800 
 51 H      -11.8160     1.0270     1.4940 H     1 <1>   0.0800 
 52 H       -8.5670    -0.6370     2.4180 H     1 <1>   0.4000 
@<TRIPOS>BOND
  1   1   2  1   
  2   2   3  ar  
  3   2   4  ar  
  4   3   5  ar  
  5   3   6  1   
  6   4   7  ar  
  7   4  27  1   
  8   5   8  ar  
  9   5  28  1   
 10   6   9  1   
 11   6  10  1   
 12   6  11  1   
 13   7   8  ar  
 14   7  29  1   
 15   8  30  1   
 16   9  12  2   
 17   9  13  am  
 18  10  11  1   
 19  10  31  1   
 20  10  32  1   
 21  11  33  1   
 22  11  34  1   
 23  13  14  1   
 24  13  15  1   
 25  14  16  1   
 26  14  35  1   
 27  14  36  1   
 28  15  17  1   
 29  15  37  1   
 30  15  38  1   
 31  16  18  1   
 32  16  39  1   
 33  16  40  1   
 34  17  18  1   
 35  17  41  1   
 36  17  42  1   
 37  18  19  1   
 38  18  20  1   
 39  19  21  1   
 40  20  22  1   
 41  20  43  1   
 42  20  44  1   
 43  21  23  1   
 44  21  45  1   
 45  21  46  1   
 46  22  23  1   
 47  22  24  1   
 48  22  25  1   
 49  23  26  1   
 50  23  47  1   
 51  24  48  1   
 52  25  49  1   
 53  25  50  1   
 54  25  51  1   
 55  26  52  1   
@<TRIPOS>SUBSTRUCTURE
  1 ****  15 GROUP 4 **** **** 0

# MOE 2024.06 (io_trps.svl 2023.06)
