@<TRIPOS>MOLECULE
NONAME
47 49 1 0 0 
SMALL
USER_CHARGES


@<TRIPOS>ATOM
  1 O        0.4970    -0.0340     0.3440 O.3   1 <1>  -0.6800 
  2 C        1.7100    -0.1570    -0.3200 C.3   1 <1>   0.2000 
  3 C        2.4390    -1.4220     0.1220 C.3   1 <1>  -0.0800 
  4 C        2.6540     0.9860     0.0510 C.3   1 <1>   0.2090 
  5 C        3.9120    -1.0900    -0.1260 C.3   1 <1>   0.2090 
  6 C        1.9580    -2.6930    -0.6010 C.3   1 <1>  -0.0170 
  7 N        4.0200     0.3880     0.0350 N.pl3 1 <1>  -0.8380 
  8 C        2.7390    -3.9230    -0.1640 C.ar  1 <1>   0.1660 
  9 C        5.1880     1.0460     0.1700 C.ar  1 <1>   0.4100 
 10 N        3.8810    -4.1510    -0.7930 N.ar  1 <1>  -0.6200 
 11 C        2.2420    -4.7410     0.8500 C.ar  1 <1>   0.1600 
 12 N        6.3130     0.3220     0.0920 N.ar  1 <1>  -0.6200 
 13 C        5.2540     2.4280     0.3820 C.ar  1 <1>  -0.1500 
 14 C        4.4830    -5.2420    -0.3500 C.ar  1 <1>   0.1600 
 15 N        2.8440    -5.8310     1.2960 N.ar  1 <1>  -0.6200 
 16 C        7.4510     0.9300     0.2170 C.ar  1 <1>   0.5280 
 17 C        6.4670     3.0360     0.5100 C.ar  1 <1>   0.2180 
 18 C        3.9810    -6.0540     0.6600 C.ar  1 <1>   0.1600 
 19 N        7.5650     2.2570     0.4240 N.ar  1 <1>  -0.1790 
 20 C        8.7170     0.1020     0.1260 C.3   1 <1>  -0.0970 
 21 C        6.6260     4.5330     0.7450 C.3   1 <1>  -0.0170 
 22 C        7.2690     5.2370    -0.4600 C.3   1 <1>  -0.1600 
 23 C        7.3940     6.7440    -0.2170 C.3   1 <1>  -0.2400 
 24 H       -0.1310    -0.7210     0.0530 H     1 <1>   0.4000 
 25 H        1.5310    -0.1500    -1.3820 H     1 <1>   0.0800 
 26 H        2.3180    -1.5440     1.1850 H     1 <1>   0.0800 
 27 H        2.4330     1.3400     1.0440 H     1 <1>   0.0800 
 28 H        2.5760     1.7870    -0.6620 H     1 <1>   0.0800 
 29 H        4.2010    -1.3560    -1.1290 H     1 <1>   0.0800 
 30 H        4.5490    -1.6070     0.5730 H     1 <1>   0.0800 
 31 H        2.0670    -2.5740    -1.6650 H     1 <1>   0.0800 
 32 H        0.9140    -2.8460    -0.3980 H     1 <1>   0.0800 
 33 H        1.3070    -4.4830     1.3140 H     1 <1>   0.1500 
 34 H        4.3430     2.9920     0.4430 H     1 <1>   0.1500 
 35 H        5.4180    -5.5090    -0.8080 H     1 <1>   0.1500 
 36 H        4.5450    -6.9230     0.9520 H     1 <1>   0.1500 
 37 H        8.4940     2.6660     0.5110 H     1 <1>   0.4570 
 38 H        8.4690    -0.9300    -0.0520 H     1 <1>   0.0800 
 39 H        9.2690     0.1600     1.0470 H     1 <1>   0.0800 
 40 H        9.3310     0.4450    -0.6860 H     1 <1>   0.0800 
 41 H        5.6570     4.9680     0.9260 H     1 <1>   0.0800 
 42 H        7.2190     4.6990     1.6280 H     1 <1>   0.0800 
 43 H        8.2490     4.8380    -0.6550 H     1 <1>   0.0800 
 44 H        6.6630     5.0760    -1.3370 H     1 <1>   0.0800 
 45 H        8.0130     6.9460     0.6410 H     1 <1>   0.0800 
 46 H        6.4260     7.1870    -0.0560 H     1 <1>   0.0800 
 47 H        7.8410     7.2190    -1.0740 H     1 <1>   0.0800 
@<TRIPOS>BOND
  1   1   2  1   
  2   1  24  1   
  3   2   3  1   
  4   2   4  1   
  5   2  25  1   
  6   3   5  1   
  7   3   6  1   
  8   3  26  1   
  9   4   7  1   
 10   4  27  1   
 11   4  28  1   
 12   5   7  1   
 13   5  29  1   
 14   5  30  1   
 15   6   8  1   
 16   6  31  1   
 17   6  32  1   
 18   7   9  1   
 19   8  10  ar  
 20   8  11  ar  
 21   9  12  ar  
 22   9  13  ar  
 23  10  14  ar  
 24  11  15  ar  
 25  11  33  1   
 26  12  16  ar  
 27  13  17  ar  
 28  13  34  1   
 29  14  18  ar  
 30  14  35  1   
 31  15  18  ar  
 32  16  19  ar  
 33  16  20  1   
 34  17  19  ar  
 35  17  21  1   
 36  18  36  1   
 37  19  37  1   
 38  20  38  1   
 39  20  39  1   
 40  20  40  1   
 41  21  22  1   
 42  21  41  1   
 43  21  42  1   
 44  22  23  1   
 45  22  43  1   
 46  22  44  1   
 47  23  45  1   
 48  23  46  1   
 49  23  47  1   
@<TRIPOS>SUBSTRUCTURE
  1 ****   7 GROUP 4 **** **** 0

# MOE 2024.06 (io_trps.svl 2023.06)
