@<TRIPOS>MOLECULE
NONAME
48 50 1 0 0 
SMALL
USER_CHARGES


@<TRIPOS>ATOM
  1 CL       2.6050    -0.2720     0.7310 Cl    1 <1>  -0.1770 
  2 C        2.8760     1.3520     1.3150 C.ar  1 <1>   0.1770 
  3 C        3.3350     1.5800     2.6010 C.ar  1 <1>   0.1770 
  4 C        2.6250     2.4120     0.4610 C.ar  1 <1>  -0.1500 
  5 CL       3.6580     0.2500     3.6870 Cl    1 <1>  -0.1770 
  6 C        3.5470     2.8730     3.0440 C.ar  1 <1>  -0.1500 
  7 C        2.8400     3.7150     0.8960 C.ar  1 <1>  -0.1440 
  8 C        3.2980     3.9380     2.1910 C.ar  1 <1>  -0.1500 
  9 C        2.5740     4.8840    -0.0380 C.3   1 <1>   0.4870 
 10 N        3.8680     5.4470    -0.4990 N.4   1 <1>  -0.9590 
 11 C        3.7350     6.7130    -1.2880 C.3   1 <1>   0.3430 
 12 C        4.7560     4.4680    -1.2130 C.3   1 <1>   0.3430 
 13 C        5.1210     7.3590    -1.5220 C.3   1 <1>   0.1100 
 14 C        6.0980     5.1220    -1.6300 C.3   1 <1>   0.1100 
 15 N        6.2480     6.4900    -1.0820 N.3   1 <1>  -0.8100 
 16 C        7.5730     7.0660    -1.4210 C.3   1 <1>   0.2900 
 17 C        7.7750     8.4330    -0.7910 C.2   1 <1>  -0.0400 
 18 O        7.3010     9.4970    -1.3810 O.3   1 <1>  -0.0190 
 19 C        8.3940     8.8260     0.3320 C.2   1 <1>  -0.1500 
 20 N        7.5550    10.5790    -0.7060 N.2   1 <1>  -0.4100 
 21 C        8.2190    10.2090     0.3340 C.2   1 <1>   0.1080 
 22 C        8.7400    11.1440     1.4200 C.3   1 <1>   0.1010 
 23 C        7.5780    11.8370     2.1430 C.3   1 <1>  -0.2400 
 24 C        9.7000    12.1850     0.8310 C.3   1 <1>  -0.2400 
 25 H        2.2610     2.1970    -0.5290 H     1 <1>   0.1500 
 26 H        3.9000     3.0370     4.0480 H     1 <1>   0.1500 
 27 H        3.4630     4.9390     2.5550 H     1 <1>   0.1500 
 28 H        2.0100     5.6380     0.4880 H     1 <1>   0.0800 
 29 H        1.9920     4.5540    -0.8840 H     1 <1>   0.0800 
 30 H        4.4290     5.7210     0.3230 H     1 <1>   0.4500 
 31 H        3.1080     7.4170    -0.7650 H     1 <1>   0.0800 
 32 H        3.2760     6.5060    -2.2410 H     1 <1>   0.0800 
 33 H        4.2610     4.0850    -2.0900 H     1 <1>   0.0800 
 34 H        4.9680     3.6320    -0.5670 H     1 <1>   0.0800 
 35 H        5.1470     8.2830    -0.9680 H     1 <1>   0.0800 
 36 H        5.2270     7.6080    -2.5650 H     1 <1>   0.0800 
 37 H        6.1570     5.1520    -2.7060 H     1 <1>   0.0800 
 38 H        6.9060     4.5020    -1.2800 H     1 <1>   0.0800 
 39 H        7.6870     7.1470    -2.4890 H     1 <1>   0.0800 
 40 H        8.3420     6.4100    -1.0510 H     1 <1>   0.0800 
 41 H        8.9070     8.2460     1.0760 H     1 <1>   0.1500 
 42 H        9.2830    10.5570     2.1400 H     1 <1>   0.0800 
 43 H        7.0190    12.4440     1.4520 H     1 <1>   0.0800 
 44 H        7.9470    12.4630     2.9350 H     1 <1>   0.0800 
 45 H        6.9160    11.1020     2.5630 H     1 <1>   0.0800 
 46 H        9.1870    12.8010     0.1130 H     1 <1>   0.0800 
 47 H       10.5160    11.6930     0.3340 H     1 <1>   0.0800 
 48 H       10.0970    12.8140     1.6070 H     1 <1>   0.0800 
@<TRIPOS>BOND
  1   1   2  1   
  2   2   3  ar  
  3   2   4  ar  
  4   3   5  1   
  5   3   6  ar  
  6   4   7  ar  
  7   4  25  1   
  8   6   8  ar  
  9   6  26  1   
 10   7   8  ar  
 11   7   9  1   
 12   8  27  1   
 13   9  10  1   
 14   9  28  1   
 15   9  29  1   
 16  10  11  1   
 17  10  12  1   
 18  10  30  1   
 19  11  13  1   
 20  11  31  1   
 21  11  32  1   
 22  12  14  1   
 23  12  33  1   
 24  12  34  1   
 25  13  15  1   
 26  13  35  1   
 27  13  36  1   
 28  14  15  1   
 29  14  37  1   
 30  14  38  1   
 31  15  16  1   
 32  16  17  1   
 33  16  39  1   
 34  16  40  1   
 35  17  18  1   
 36  17  19  2   
 37  18  20  1   
 38  19  21  1   
 39  19  41  1   
 40  20  21  2   
 41  21  22  1   
 42  22  23  1   
 43  22  24  1   
 44  22  42  1   
 45  23  43  1   
 46  23  44  1   
 47  23  45  1   
 48  24  46  1   
 49  24  47  1   
 50  24  48  1   
@<TRIPOS>SUBSTRUCTURE
  1 ****  15 GROUP 4 **** **** 0

# MOE 2024.06 (io_trps.svl 2023.06)
