@<TRIPOS>MOLECULE
NONAME
34 36 1 0 0 
SMALL
USER_CHARGES


@<TRIPOS>ATOM
  1 S       -0.3030    -0.0370     1.8800 S.o2  1 <1>   1.4470 
  2 O       -0.1560    -1.2830     2.6020 O.2   1 <1>  -0.6500 
  3 O       -0.2800     1.2120     2.6120 O.2   1 <1>  -0.6500 
  4 N        1.0060     0.0330     0.8060 N.am  1 <1>  -0.8490 
  5 C       -1.8550    -0.1100     0.9350 C.ar  1 <1>  -0.0090 
  6 C        1.3330    -1.0420    -0.0810 C.3   1 <1>   0.2760 
  7 C        1.2260     1.1440    -0.0700 C.3   1 <1>   0.2760 
  8 C       -2.4120    -1.3260     0.5580 C.ar  1 <1>  -0.1500 
  9 C       -2.5300     1.0490     0.5680 C.ar  1 <1>  -0.1500 
 10 C        0.4780    -0.7500    -1.3230 C.3   1 <1>  -0.1600 
 11 C        2.7810    -0.6470    -0.3980 C.3   1 <1>  -0.1600 
 12 C        0.4030     0.7840    -1.3150 C.3   1 <1>  -0.1600 
 13 C        2.7060     0.8950    -0.3900 C.3   1 <1>  -0.1600 
 14 C       -3.5830    -1.3860    -0.1780 C.ar  1 <1>  -0.1500 
 15 C       -3.7020     0.9980    -0.1670 C.ar  1 <1>  -0.1500 
 16 C       -4.2320    -0.2210    -0.5490 C.ar  1 <1>  -0.1430 
 17 C       -5.5170    -0.2820    -1.3550 C.3   1 <1>  -0.0970 
 18 H        1.2230    -2.0250     0.3480 H     1 <1>   0.0800 
 19 H        1.0210     2.1070     0.3700 H     1 <1>   0.0800 
 20 H       -1.9220    -2.2420     0.8460 H     1 <1>   0.1500 
 21 H       -2.1340     2.0060     0.8650 H     1 <1>   0.1500 
 22 H       -0.4950    -1.1940    -1.2400 H     1 <1>   0.0800 
 23 H        0.9430    -1.1260    -2.2170 H     1 <1>   0.0800 
 24 H        3.1140    -1.0420    -1.3410 H     1 <1>   0.0800 
 25 H        3.4320    -0.9980     0.3840 H     1 <1>   0.0800 
 26 H        0.8290     1.2130    -2.2050 H     1 <1>   0.0800 
 27 H       -0.6080     1.1300    -1.2270 H     1 <1>   0.0800 
 28 H        3.3200     1.3000     0.3960 H     1 <1>   0.0800 
 29 H        2.9990     1.3310    -1.3280 H     1 <1>   0.0800 
 30 H       -3.9880    -2.3430    -0.4560 H     1 <1>   0.1500 
 31 H       -4.2000     1.9130    -0.4370 H     1 <1>   0.1500 
 32 H       -5.5260    -1.1530    -1.9860 H     1 <1>   0.0800 
 33 H       -5.6120     0.5890    -1.9790 H     1 <1>   0.0800 
 34 H       -6.3610    -0.3260    -0.6910 H     1 <1>   0.0800 
@<TRIPOS>BOND
  1   1   2  2   
  2   1   3  2   
  3   1   4  am  
  4   1   5  1   
  5   4   6  1   
  6   4   7  1   
  7   5   8  ar  
  8   5   9  ar  
  9   6  10  1   
 10   6  11  1   
 11   6  18  1   
 12   7  12  1   
 13   7  13  1   
 14   7  19  1   
 15   8  14  ar  
 16   8  20  1   
 17   9  15  ar  
 18   9  21  1   
 19  10  12  1   
 20  10  22  1   
 21  10  23  1   
 22  11  13  1   
 23  11  24  1   
 24  11  25  1   
 25  12  26  1   
 26  12  27  1   
 27  13  28  1   
 28  13  29  1   
 29  14  16  ar  
 30  14  30  1   
 31  15  16  ar  
 32  15  31  1   
 33  16  17  1   
 34  17  32  1   
 35  17  33  1   
 36  17  34  1   
@<TRIPOS>SUBSTRUCTURE
  1 ****   5 GROUP 4 **** **** 0

# MOE 2024.06 (io_trps.svl 2023.06)
