@<TRIPOS>MOLECULE
NONAME
51 53 1 0 0 
SMALL
USER_CHARGES


@<TRIPOS>ATOM
  1 S       -0.1620     0.0380     0.4640 S.o2  1 <1>   1.0900 
  2 O       -1.0020     0.2730    -0.6880 O.2   1 <1>  -0.6500 
  3 O       -0.5300    -0.9650     1.4370 O.2   1 <1>  -0.6500 
  4 C        1.4760    -0.3310    -0.1370 C.3   1 <1>  -0.0550 
  5 C        0.0620     1.5830     1.3230 C.3   1 <1>  -0.0550 
  6 C        2.5270     0.2850     0.7780 C.3   1 <1>   0.1100 
  7 C        1.1450     2.4050     0.6400 C.3   1 <1>   0.1100 
  8 N        2.4760     1.7640     0.7610 N.3   1 <1>  -0.8100 
  9 C        3.4590     2.3530    -0.1700 C.3   1 <1>   0.2530 
 10 C        3.5690     3.8630     0.0130 C.ar  1 <1>  -0.1430 
 11 C        3.9080     4.3920     1.2480 C.ar  1 <1>  -0.1500 
 12 C        3.3300     4.7260    -1.0450 C.ar  1 <1>  -0.1500 
 13 C        4.0090     5.7610     1.4200 C.ar  1 <1>  -0.1500 
 14 C        3.4340     6.0940    -0.8670 C.ar  1 <1>  -0.1500 
 15 C        3.7840     6.6430     0.3660 C.ar  1 <1>   0.0860 
 16 C        3.9040     8.0780     0.5540 C.2   1 <1>   0.5440 
 17 O        3.3190     8.6060     1.4810 O.2   1 <1>  -0.5700 
 18 N        4.6740     8.8610    -0.2820 N.am  1 <1>  -0.6600 
 19 C        4.5980    10.3570    -0.2470 C.3   1 <1>   0.1400 
 20 C        5.8200     8.3350    -1.0710 C.3   1 <1>   0.1400 
 21 C        5.8930    10.9470     0.3270 C.3   1 <1>   0.2000 
 22 C        7.1290     8.8880    -0.4940 C.3   1 <1>  -0.1600 
 23 O        5.8360    12.3350     0.1830 O.3   1 <1>  -0.5600 
 24 C        7.1270    10.4250    -0.4280 C.3   1 <1>  -0.1600 
 25 C        6.5450    13.0570     1.1400 C.3   1 <1>   0.0400 
 26 H        1.6060     0.0590    -1.1280 H     1 <1>   0.0800 
 27 H        1.6100    -1.3940    -0.1790 H     1 <1>   0.0800 
 28 H        0.3530     1.4100     2.3420 H     1 <1>   0.0800 
 29 H       -0.8600     2.1300     1.3300 H     1 <1>   0.0800 
 30 H        3.5080    -0.0570     0.4920 H     1 <1>   0.0800 
 31 H        2.3550    -0.0550     1.7860 H     1 <1>   0.0800 
 32 H        1.1840     3.3820     1.0950 H     1 <1>   0.0800 
 33 H        0.8880     2.5340    -0.3990 H     1 <1>   0.0800 
 34 H        3.1800     2.1230    -1.1840 H     1 <1>   0.0800 
 35 H        4.4290     1.9230     0.0150 H     1 <1>   0.0800 
 36 H        4.0840     3.7310     2.0800 H     1 <1>   0.1500 
 37 H        3.0580     4.3380    -2.0110 H     1 <1>   0.1500 
 38 H        4.2630     6.1630     2.3860 H     1 <1>   0.1500 
 39 H        3.2390     6.7570    -1.6920 H     1 <1>   0.1500 
 40 H        3.7650    10.6800     0.3520 H     1 <1>   0.0800 
 41 H        4.4560    10.7200    -1.2490 H     1 <1>   0.0800 
 42 H        5.7110     8.6430    -2.0970 H     1 <1>   0.0800 
 43 H        5.8490     7.2600    -1.0430 H     1 <1>   0.0800 
 44 H        5.9440    10.6980     1.3740 H     1 <1>   0.0800 
 45 H        7.9520     8.5560    -1.1010 H     1 <1>   0.0800 
 46 H        7.2680     8.4840     0.4940 H     1 <1>   0.0800 
 47 H        8.0240    10.7590     0.0610 H     1 <1>   0.0800 
 48 H        7.1130    10.8190    -1.4290 H     1 <1>   0.0800 
 49 H        6.4240    14.1040     0.9240 H     1 <1>   0.0800 
 50 H        7.5870    12.7960     1.0920 H     1 <1>   0.0800 
 51 H        6.1440    12.8420     2.1160 H     1 <1>   0.0800 
@<TRIPOS>BOND
  1   1   2  2   
  2   1   3  2   
  3   1   4  1   
  4   1   5  1   
  5   4   6  1   
  6   4  26  1   
  7   4  27  1   
  8   5   7  1   
  9   5  28  1   
 10   5  29  1   
 11   6   8  1   
 12   6  30  1   
 13   6  31  1   
 14   7   8  1   
 15   7  32  1   
 16   7  33  1   
 17   8   9  1   
 18   9  10  1   
 19   9  34  1   
 20   9  35  1   
 21  10  11  ar  
 22  10  12  ar  
 23  11  13  ar  
 24  11  36  1   
 25  12  14  ar  
 26  12  37  1   
 27  13  15  ar  
 28  13  38  1   
 29  14  15  ar  
 30  14  39  1   
 31  15  16  1   
 32  16  17  2   
 33  16  18  am  
 34  18  19  1   
 35  18  20  1   
 36  19  21  1   
 37  19  40  1   
 38  19  41  1   
 39  20  22  1   
 40  20  42  1   
 41  20  43  1   
 42  21  23  1   
 43  21  24  1   
 44  21  44  1   
 45  22  24  1   
 46  22  45  1   
 47  22  46  1   
 48  23  25  1   
 49  24  47  1   
 50  24  48  1   
 51  25  49  1   
 52  25  50  1   
 53  25  51  1   
@<TRIPOS>SUBSTRUCTURE
  1 ****  15 GROUP 4 **** **** 0

# MOE 2024.06 (io_trps.svl 2023.06)
