@<TRIPOS>MOLECULE
NONAME
55 58 1 0 0 
SMALL
USER_CHARGES


@<TRIPOS>ATOM
  1 O        3.1620    -2.0560     1.6110 O.2   1 <1>  -0.5700 
  2 C        2.1890    -1.9160     0.9070 C.2   1 <1>   0.4230 
  3 C        1.5590    -0.6200     0.6830 C.ar  1 <1>   0.3960 
  4 C        1.6340    -3.1860     0.2590 C.3   1 <1>  -0.0190 
  5 N        0.4070    -0.5290    -0.0100 N.ar  1 <1>  -0.6200 
  6 C        2.1700     0.5250     1.2030 C.ar  1 <1>  -0.1500 
  7 C        1.1820    -4.1560     1.3570 C.3   1 <1>   0.2090 
  8 C        2.6610    -3.8700    -0.6650 C.3   1 <1>  -0.1600 
  9 C       -0.1010     0.6770    -0.1840 C.ar  1 <1>   0.1600 
 10 C        1.6270     1.7770     1.0200 C.ar  1 <1>  -0.1500 
 11 N        0.6060    -5.3920     0.7390 N.pl3 1 <1>  -0.8380 
 12 C        2.0820    -5.1750    -1.2350 C.3   1 <1>  -0.1600 
 13 C        0.4560     1.8450     0.3020 C.ar  1 <1>  -0.1500 
 14 C       -0.7380    -5.5520     0.6280 C.ar  1 <1>   0.4100 
 15 C        1.5710    -6.1160    -0.1360 C.3   1 <1>   0.2090 
 16 N       -1.4100    -4.4640     0.3180 N.ar  1 <1>  -0.6200 
 17 C       -1.3840    -6.8030     0.8230 C.ar  1 <1>  -0.1430 
 18 C       -2.7070    -4.5550     0.1190 C.ar  1 <1>   0.7710 
 19 C       -2.7260    -6.8670     0.5870 C.ar  1 <1>   0.2180 
 20 C       -0.5810    -8.0090     1.3240 C.3   1 <1>  -0.0970 
 21 N       -3.3560    -5.7220     0.2320 N.ar  1 <1>  -0.1790 
 22 N       -3.3990    -3.4370    -0.2110 N.pl3 1 <1>  -0.8380 
 23 C       -3.5970    -8.1140     0.6960 C.3   1 <1>  -0.0970 
 24 C       -4.8410    -3.2910    -0.5410 C.3   1 <1>   0.2090 
 25 C       -2.7120    -2.1170    -0.3250 C.3   1 <1>   0.2090 
 26 C       -4.9630    -1.9050    -1.1600 C.3   1 <1>  -0.1600 
 27 C       -3.8280    -1.1030    -0.5350 C.3   1 <1>  -0.1600 
 28 H        0.7700    -2.9480    -0.3320 H     1 <1>   0.0800 
 29 H        3.0870     0.4240     1.7580 H     1 <1>   0.1500 
 30 H        0.4460    -3.6810     1.9830 H     1 <1>   0.0800 
 31 H        2.0200    -4.4260     1.9770 H     1 <1>   0.0800 
 32 H        3.5560    -4.0900    -0.1080 H     1 <1>   0.0800 
 33 H        2.9240    -3.2060    -1.4700 H     1 <1>   0.0800 
 34 H       -1.0170     0.7470    -0.7470 H     1 <1>   0.1500 
 35 H        2.0970     2.6600     1.4200 H     1 <1>   0.1500 
 36 H        2.8360    -5.6810    -1.8110 H     1 <1>   0.0800 
 37 H        1.2650    -4.9460    -1.8970 H     1 <1>   0.0800 
 38 H       -0.0200     2.7920     0.1190 H     1 <1>   0.1500 
 39 H        1.0970    -6.9650    -0.5940 H     1 <1>   0.0800 
 40 H        2.3960    -6.4650     0.4620 H     1 <1>   0.0800 
 41 H        0.2530    -7.6870     1.9230 H     1 <1>   0.0800 
 42 H       -0.2060    -8.5800     0.4940 H     1 <1>   0.0800 
 43 H       -1.1760    -8.6500     1.9480 H     1 <1>   0.0800 
 44 H       -4.3490    -5.6790     0.0580 H     1 <1>   0.4570 
 45 H       -3.0070    -9.0120     0.7090 H     1 <1>   0.0800 
 46 H       -4.2610    -8.1840    -0.1470 H     1 <1>   0.0800 
 47 H       -4.1820    -8.0790     1.5980 H     1 <1>   0.0800 
 48 H       -5.4230    -3.3340     0.3650 H     1 <1>   0.0800 
 49 H       -5.1730    -4.0440    -1.2360 H     1 <1>   0.0800 
 50 H       -2.0500    -2.1300    -1.1770 H     1 <1>   0.0800 
 51 H       -2.1410    -1.8930     0.5610 H     1 <1>   0.0800 
 52 H       -5.9260    -1.4640    -0.9730 H     1 <1>   0.0800 
 53 H       -4.8140    -1.9790    -2.2230 H     1 <1>   0.0800 
 54 H       -3.5110    -0.2860    -1.1590 H     1 <1>   0.0800 
 55 H       -4.1320    -0.7150     0.4220 H     1 <1>   0.0800 
@<TRIPOS>BOND
  1   1   2  2   
  2   2   3  1   
  3   2   4  1   
  4   3   5  ar  
  5   3   6  ar  
  6   4   7  1   
  7   4   8  1   
  8   4  28  1   
  9   5   9  ar  
 10   6  10  ar  
 11   6  29  1   
 12   7  11  1   
 13   7  30  1   
 14   7  31  1   
 15   8  12  1   
 16   8  32  1   
 17   8  33  1   
 18   9  13  ar  
 19   9  34  1   
 20  10  13  ar  
 21  10  35  1   
 22  11  14  1   
 23  11  15  1   
 24  12  15  1   
 25  12  36  1   
 26  12  37  1   
 27  13  38  1   
 28  14  16  ar  
 29  14  17  ar  
 30  15  39  1   
 31  15  40  1   
 32  16  18  ar  
 33  17  19  ar  
 34  17  20  1   
 35  18  21  ar  
 36  18  22  1   
 37  19  21  ar  
 38  19  23  1   
 39  20  41  1   
 40  20  42  1   
 41  20  43  1   
 42  21  44  1   
 43  22  24  1   
 44  22  25  1   
 45  23  45  1   
 46  23  46  1   
 47  23  47  1   
 48  24  26  1   
 49  24  48  1   
 50  24  49  1   
 51  25  27  1   
 52  25  50  1   
 53  25  51  1   
 54  26  27  1   
 55  26  52  1   
 56  26  53  1   
 57  27  54  1   
 58  27  55  1   
@<TRIPOS>SUBSTRUCTURE
  1 ****  16 GROUP 4 **** **** 0

# MOE 2024.06 (io_trps.svl 2023.06)
