@<TRIPOS>MOLECULE
NONAME
63 67 1 0 0 
SMALL
USER_CHARGES


@<TRIPOS>ATOM
  1 O        0.6500     2.3750     2.6600 O.3   1 <1>  -0.5600 
  2 C        1.4010     1.6480     1.7320 C.3   1 <1>   0.1200 
  3 C        0.8280     3.7590     2.6120 C.3   1 <1>   0.1200 
  4 C        1.0590     2.0960     0.2980 C.3   1 <1>   0.3430 
  5 C        0.4530     4.2950     1.2180 C.3   1 <1>   0.3430 
  6 N        1.2190     3.5850     0.1250 N.4   1 <1>  -0.9590 
  7 C        0.8900     3.9820    -1.2790 C.3   1 <1>   0.4230 
  8 C        1.7920     5.1340    -1.7930 C.3   1 <1>  -0.0800 
  9 C       -0.6040     4.2700    -1.4580 C.3   1 <1>  -0.2400 
 10 C        3.2710     4.7010    -1.8910 C.3   1 <1>  -0.1600 
 11 C        1.6980     6.4760    -1.0310 C.3   1 <1>  -0.1600 
 12 C        4.1280     5.8090    -2.5120 C.3   1 <1>   0.2090 
 13 C        2.5970     7.5490    -1.6610 C.3   1 <1>   0.2090 
 14 N        4.0100     7.0500    -1.6810 N.pl3 1 <1>  -0.8380 
 15 C        5.0720     7.6490    -1.0820 C.ar  1 <1>   0.4610 
 16 N        4.9980     8.9320    -0.7170 N.ar  1 <1>  -0.1790 
 17 C        6.3020     6.9920    -0.8110 C.ar  1 <1>  -0.1500 
 18 C        6.0180     9.6490    -0.1200 C.ar  1 <1>   0.3610 
 19 C        7.3570     7.6250    -0.2270 C.ar  1 <1>  -0.1440 
 20 C        7.2420     9.0000     0.1410 C.ar  1 <1>   0.0000 
 21 C        5.8400    10.9970     0.2150 C.ar  1 <1>  -0.1500 
 22 C        8.6550     6.8710     0.0410 C.3   1 <1>  -0.0970 
 23 C        8.2690     9.7460     0.7470 C.ar  1 <1>  -0.1500 
 24 C        6.8670    11.6880     0.8050 C.ar  1 <1>  -0.1440 
 25 C        8.0690    11.0640     1.0670 C.ar  1 <1>  -0.1440 
 26 C        6.8960    13.1310     1.2500 C.3   1 <1>  -0.0170 
 27 C        9.0420    12.0170     1.7180 C.3   1 <1>  -0.0170 
 28 C        8.1600    13.2090     2.1220 C.3   1 <1>  -0.1600 
 29 H        1.1590     0.6070     1.8620 H     1 <1>   0.0800 
 30 H        2.4470     1.7840     1.9480 H     1 <1>   0.0800 
 31 H        1.8500     3.9880     2.8600 H     1 <1>   0.0800 
 32 H        0.1890     4.1950     3.3610 H     1 <1>   0.0800 
 33 H        0.0400     1.8130     0.0900 H     1 <1>   0.0800 
 34 H        1.6950     1.5720    -0.3960 H     1 <1>   0.0800 
 35 H        0.6390     5.3530     1.1820 H     1 <1>   0.0800 
 36 H       -0.6050     4.1420     1.0810 H     1 <1>   0.0800 
 37 H        2.2120     3.7930     0.2690 H     1 <1>   0.4500 
 38 H        1.1110     3.1370    -1.9130 H     1 <1>   0.0800 
 39 H        1.4680     5.3290    -2.8030 H     1 <1>   0.0800 
 40 H       -0.9180     5.1540    -0.9330 H     1 <1>   0.0800 
 41 H       -1.1950     3.4330    -1.1310 H     1 <1>   0.0800 
 42 H       -0.8140     4.4230    -2.5020 H     1 <1>   0.0800 
 43 H        3.3540     3.8240    -2.5100 H     1 <1>   0.0800 
 44 H        3.6750     4.4640    -0.9230 H     1 <1>   0.0800 
 45 H        1.9990     6.3540    -0.0080 H     1 <1>   0.0800 
 46 H        0.6850     6.8380    -1.0420 H     1 <1>   0.0800 
 47 H        3.7750     6.0200    -3.5090 H     1 <1>   0.0800 
 48 H        5.1460     5.4790    -2.6110 H     1 <1>   0.0800 
 49 H        2.5030     8.4560    -1.0910 H     1 <1>   0.0800 
 50 H        2.2740     7.7530    -2.6700 H     1 <1>   0.0800 
 51 H        4.1520     9.4340    -0.9530 H     1 <1>   0.4570 
 52 H        6.3920     5.9540    -1.0630 H     1 <1>   0.1500 
 53 H        4.9100    11.4980     0.0180 H     1 <1>   0.1500 
 54 H        8.5900     5.8500    -0.2900 H     1 <1>   0.0800 
 55 H        8.8730     6.8680     1.0940 H     1 <1>   0.0800 
 56 H        9.4700     7.3390    -0.4820 H     1 <1>   0.0800 
 57 H        9.2190     9.2920     0.9660 H     1 <1>   0.1500 
 58 H        6.0160    13.4000     1.8080 H     1 <1>   0.0800 
 59 H        6.9940    13.7730     0.3910 H     1 <1>   0.0800 
 60 H        9.7820    12.3230     0.9990 H     1 <1>   0.0800 
 61 H        9.5250    11.5750     2.5720 H     1 <1>   0.0800 
 62 H        7.8760    13.0950     3.1540 H     1 <1>   0.0800 
 63 H        8.6730    14.1470     2.0030 H     1 <1>   0.0800 
@<TRIPOS>BOND
  1   1   2  1   
  2   1   3  1   
  3   2   4  1   
  4   2  29  1   
  5   2  30  1   
  6   3   5  1   
  7   3  31  1   
  8   3  32  1   
  9   4   6  1   
 10   4  33  1   
 11   4  34  1   
 12   5   6  1   
 13   5  35  1   
 14   5  36  1   
 15   6   7  1   
 16   6  37  1   
 17   7   8  1   
 18   7   9  1   
 19   7  38  1   
 20   8  10  1   
 21   8  11  1   
 22   8  39  1   
 23   9  40  1   
 24   9  41  1   
 25   9  42  1   
 26  10  12  1   
 27  10  43  1   
 28  10  44  1   
 29  11  13  1   
 30  11  45  1   
 31  11  46  1   
 32  12  14  1   
 33  12  47  1   
 34  12  48  1   
 35  13  14  1   
 36  13  49  1   
 37  13  50  1   
 38  14  15  1   
 39  15  16  ar  
 40  15  17  ar  
 41  16  18  ar  
 42  16  51  1   
 43  17  19  ar  
 44  17  52  1   
 45  18  20  ar  
 46  18  21  ar  
 47  19  20  ar  
 48  19  22  1   
 49  20  23  ar  
 50  21  24  ar  
 51  21  53  1   
 52  22  54  1   
 53  22  55  1   
 54  22  56  1   
 55  23  25  ar  
 56  23  57  1   
 57  24  25  ar  
 58  24  26  1   
 59  25  27  1   
 60  26  28  1   
 61  26  58  1   
 62  26  59  1   
 63  27  28  1   
 64  27  60  1   
 65  27  61  1   
 66  28  62  1   
 67  28  63  1   
@<TRIPOS>SUBSTRUCTURE
  1 ****  15 GROUP 4 **** **** 0

# MOE 2024.06 (io_trps.svl 2023.06)
