@<TRIPOS>MOLECULE
NONAME
60 64 1 0 0 
SMALL
USER_CHARGES


@<TRIPOS>ATOM
  1 O       -0.1810     0.6820    -1.8930 O.2   1 <1>  -0.5700 
  2 C       -0.3980     1.5380    -1.0560 C.2   1 <1>   0.5440 
  3 N       -1.5650     1.4770    -0.3190 N.am  1 <1>  -0.6600 
  4 C        0.5630     2.6120    -0.8830 C.ar  1 <1>   0.0860 
  5 C       -2.1280     2.6360     0.4450 C.3   1 <1>   0.1400 
  6 C       -2.4720     0.2940    -0.3720 C.3   1 <1>   0.1400 
  7 C        0.9860     3.3710    -1.9730 C.ar  1 <1>  -0.1500 
  8 C        1.0980     2.9270     0.3650 C.ar  1 <1>  -0.1500 
  9 C       -3.4760     3.0860    -0.1490 C.3   1 <1>   0.1440 
 10 C       -3.8280     0.6980    -0.9630 C.3   1 <1>  -0.1600 
 11 C        1.8850     4.4110    -1.8230 C.ar  1 <1>  -0.1500 
 12 C        1.9940     3.9670     0.5220 C.ar  1 <1>  -0.1500 
 13 C       -4.0060     4.2290     0.6980 C.ar  1 <1>   0.1670 
 14 C       -4.4480     1.8880    -0.2090 C.3   1 <1>  -0.1600 
 15 C       -3.2940     3.7580    -1.5380 C.3   1 <1>  -0.1600 
 16 C        2.3950     4.7190    -0.5710 C.ar  1 <1>  -0.1430 
 17 N       -4.5090     4.1140     1.9070 N.ar  1 <1>  -0.6200 
 18 C       -3.8810     5.4270     0.0600 C.ar  1 <1>  -0.1430 
 19 C       -3.2510     5.2780    -1.3020 C.3   1 <1>  -0.0170 
 20 C        3.3880     5.8670    -0.4010 C.3   1 <1>   0.2390 
 21 C       -4.8990     5.2590     2.4500 C.ar  1 <1>   0.4770 
 22 C       -4.3170     6.5510     0.7160 C.ar  1 <1>   0.1600 
 23 N        4.5740     5.4710     0.3930 N.pl3 1 <1>   0.3140 
 24 N       -4.8340     6.4760     1.9250 N.ar  1 <1>  -0.6200 
 25 C       -5.4950     5.1690     3.8330 C.3   1 <1>  -0.0970 
 26 N        4.8490     6.0700     1.5700 N.2   1 <1>  -0.7070 
 27 C        5.5130     4.5430     0.0880 C.2   1 <1>  -0.3320 
 28 C        5.9430     5.5150     1.9810 C.2   1 <1>   0.1080 
 29 C        6.4090     4.5510     1.0970 C.2   1 <1>  -0.1500 
 30 C        5.5140     3.6750    -1.1590 C.3   1 <1>  -0.0600 
 31 C        6.6060     5.9020     3.2820 C.3   1 <1>  -0.0590 
 32 H       -1.4530     3.4710     0.4420 H     1 <1>   0.0800 
 33 H       -2.2750     2.3370     1.4690 H     1 <1>   0.0800 
 34 H       -2.6080    -0.0830     0.6270 H     1 <1>   0.0800 
 35 H       -2.0380    -0.4950    -0.9640 H     1 <1>   0.0800 
 36 H        0.5990     3.1290    -2.9480 H     1 <1>   0.1500 
 37 H        0.8040     2.3440     1.2210 H     1 <1>   0.1500 
 38 H       -4.4960    -0.1440    -0.9170 H     1 <1>   0.0800 
 39 H       -3.6910     0.9450    -2.0010 H     1 <1>   0.0800 
 40 H        2.1850     4.9750    -2.6890 H     1 <1>   0.1500 
 41 H        2.3870     4.1880     1.5030 H     1 <1>   0.1500 
 42 H       -5.3720     2.1830    -0.6730 H     1 <1>   0.0800 
 43 H       -4.6780     1.5780     0.7960 H     1 <1>   0.0800 
 44 H       -4.1500     3.5420    -2.1530 H     1 <1>   0.0800 
 45 H       -2.4170     3.4110    -2.0550 H     1 <1>   0.0800 
 46 H       -3.8020     5.8110    -2.0580 H     1 <1>   0.0800 
 47 H       -2.2340     5.6280    -1.2710 H     1 <1>   0.0800 
 48 H        2.9060     6.6840     0.1030 H     1 <1>   0.0800 
 49 H        3.7320     6.2140    -1.3560 H     1 <1>   0.0800 
 50 H       -4.2420     7.5190     0.2520 H     1 <1>   0.1500 
 51 H       -5.1270     4.2970     4.3410 H     1 <1>   0.0800 
 52 H       -6.5640     5.1070     3.7540 H     1 <1>   0.0800 
 53 H       -5.2330     6.0400     4.4030 H     1 <1>   0.0800 
 54 H        7.2950     3.9550     1.2180 H     1 <1>   0.1500 
 55 H        5.5130     4.2870    -2.0430 H     1 <1>   0.0800 
 56 H        4.6470     3.0380    -1.1700 H     1 <1>   0.0800 
 57 H        6.3910     3.0520    -1.1750 H     1 <1>   0.0800 
 58 H        5.9250     5.7310     4.0950 H     1 <1>   0.0800 
 59 H        6.8640     6.9440     3.2550 H     1 <1>   0.0800 
 60 H        7.4960     5.3210     3.4370 H     1 <1>   0.0800 
@<TRIPOS>BOND
  1   1   2  2   
  2   2   3  am  
  3   2   4  1   
  4   3   5  1   
  5   3   6  1   
  6   4   7  ar  
  7   4   8  ar  
  8   5   9  1   
  9   5  32  1   
 10   5  33  1   
 11   6  10  1   
 12   6  34  1   
 13   6  35  1   
 14   7  11  ar  
 15   7  36  1   
 16   8  12  ar  
 17   8  37  1   
 18   9  13  1   
 19   9  14  1   
 20   9  15  1   
 21  10  14  1   
 22  10  38  1   
 23  10  39  1   
 24  11  16  ar  
 25  11  40  1   
 26  12  16  ar  
 27  12  41  1   
 28  13  17  ar  
 29  13  18  ar  
 30  14  42  1   
 31  14  43  1   
 32  15  19  1   
 33  15  44  1   
 34  15  45  1   
 35  16  20  1   
 36  17  21  ar  
 37  18  19  1   
 38  18  22  ar  
 39  19  46  1   
 40  19  47  1   
 41  20  23  1   
 42  20  48  1   
 43  20  49  1   
 44  21  24  ar  
 45  21  25  1   
 46  22  24  ar  
 47  22  50  1   
 48  23  26  1   
 49  23  27  1   
 50  25  51  1   
 51  25  52  1   
 52  25  53  1   
 53  26  28  2   
 54  27  29  2   
 55  27  30  1   
 56  28  29  1   
 57  28  31  1   
 58  29  54  1   
 59  30  55  1   
 60  30  56  1   
 61  30  57  1   
 62  31  58  1   
 63  31  59  1   
 64  31  60  1   
@<TRIPOS>SUBSTRUCTURE
  1 ****   8 GROUP 4 **** **** 0

# MOE 2024.06 (io_trps.svl 2023.06)
