@<TRIPOS>MOLECULE
NONAME
37 38 1 0 0 
SMALL
USER_CHARGES


@<TRIPOS>ATOM
  1 O       -0.5530     0.1820    -0.5410 O.2   1 <1>  -0.5700 
  2 C       -1.5930     0.5820    -0.0880 C.2   1 <1>   0.4230 
  3 C       -2.8500    -0.0570    -0.3630 C.ar  1 <1>   0.0860 
  4 C       -1.5100     1.7650     0.8560 C.3   1 <1>  -0.1790 
  5 C       -4.0550     0.5790    -0.6530 C.ar  1 <1>   0.1660 
  6 C       -2.9170    -1.4390    -0.3470 C.ar  1 <1>   0.1600 
  7 N       -5.1700    -0.0810    -0.8250 N.ar  1 <1>  -0.6200 
  8 C       -4.1720     2.0850    -0.8210 C.3   1 <1>  -0.0960 
  9 N       -4.0200    -2.1180    -0.5270 N.ar  1 <1>  -0.6200 
 10 C       -5.1280    -1.4120    -0.7460 C.ar  1 <1>   0.7200 
 11 N       -6.3070    -2.1020    -0.9100 N.pl3 1 <1>  -0.8380 
 12 C       -6.3640    -3.5860    -1.0510 C.3   1 <1>   0.2090 
 13 C       -7.6360    -1.4280    -0.9900 C.3   1 <1>   0.2090 
 14 C       -7.2920    -4.1730     0.0130 C.3   1 <1>  -0.1600 
 15 C       -8.5720    -2.0080     0.0710 C.3   1 <1>  -0.1600 
 16 C       -8.6780    -3.5260    -0.0660 C.3   1 <1>   0.2000 
 17 O       -9.4700    -3.9800     0.9850 O.3   1 <1>  -0.5600 
 18 C      -10.0990    -5.2060     0.7790 C.3   1 <1>   0.0400 
 19 H       -2.3810     1.8180     1.4820 H     1 <1>   0.0800 
 20 H       -1.4080     2.6750     0.2950 H     1 <1>   0.0800 
 21 H       -0.6460     1.6550     1.4860 H     1 <1>   0.0800 
 22 H       -2.0110    -1.9950    -0.1700 H     1 <1>   0.1500 
 23 H       -3.2860     2.4940    -1.2680 H     1 <1>   0.0800 
 24 H       -4.3480     2.5480     0.1320 H     1 <1>   0.0800 
 25 H       -5.0020     2.3170    -1.4660 H     1 <1>   0.0800 
 26 H       -5.3920    -4.0360    -0.9570 H     1 <1>   0.0800 
 27 H       -6.7370    -3.8250    -2.0320 H     1 <1>   0.0800 
 28 H       -8.0490    -1.5860    -1.9710 H     1 <1>   0.0800 
 29 H       -7.5550    -0.3660    -0.8340 H     1 <1>   0.0800 
 30 H       -6.8610    -3.9940     0.9820 H     1 <1>   0.0800 
 31 H       -7.3640    -5.2320    -0.1420 H     1 <1>   0.0800 
 32 H       -9.5460    -1.5690    -0.0360 H     1 <1>   0.0800 
 33 H       -8.1870    -1.7570     1.0430 H     1 <1>   0.0800 
 34 H       -9.1590    -3.7660    -0.9990 H     1 <1>   0.0800 
 35 H      -10.6990    -5.4200     1.6450 H     1 <1>   0.0800 
 36 H       -9.3590    -5.9760     0.6560 H     1 <1>   0.0800 
 37 H      -10.7300    -5.1400    -0.0900 H     1 <1>   0.0800 
@<TRIPOS>BOND
  1   1   2  2   
  2   2   3  1   
  3   2   4  1   
  4   3   5  ar  
  5   3   6  ar  
  6   4  19  1   
  7   4  20  1   
  8   4  21  1   
  9   5   7  ar  
 10   5   8  1   
 11   6   9  ar  
 12   6  22  1   
 13   7  10  ar  
 14   8  23  1   
 15   8  24  1   
 16   8  25  1   
 17   9  10  ar  
 18  10  11  1   
 19  11  12  1   
 20  11  13  1   
 21  12  14  1   
 22  12  26  1   
 23  12  27  1   
 24  13  15  1   
 25  13  28  1   
 26  13  29  1   
 27  14  16  1   
 28  14  30  1   
 29  14  31  1   
 30  15  16  1   
 31  15  32  1   
 32  15  33  1   
 33  16  17  1   
 34  16  34  1   
 35  17  18  1   
 36  18  35  1   
 37  18  36  1   
 38  18  37  1   
@<TRIPOS>SUBSTRUCTURE
  1 ****  10 GROUP 4 **** **** 0

# MOE 2024.06 (io_trps.svl 2023.06)
