@<TRIPOS>MOLECULE
NONAME
72 75 1 0 0 
SMALL
USER_CHARGES


@<TRIPOS>ATOM
  1 O       -0.2490    -2.9220    -1.7620 O.2   1 <1>  -0.5700 
  2 C        0.8940    -2.8390    -1.3680 C.2   1 <1>   0.5690 
  3 N        1.1830    -2.6090    -0.0430 N.am  1 <1>  -0.6600 
  4 C        2.0050    -2.9830    -2.4130 C.3   1 <1>   0.1810 
  5 C        2.5530    -2.6290     0.5440 C.3   1 <1>   0.1400 
  6 C        0.1160    -2.2740     0.9390 C.3   1 <1>   0.1400 
  7 O        2.6910    -4.2260    -2.3010 O.3   1 <1>  -0.3620 
  8 C        2.8680    -1.2600     1.1540 C.3   1 <1>  -0.1600 
  9 C        0.4060    -0.9050     1.5640 C.3   1 <1>  -0.1600 
 10 C        2.0080    -5.3910    -2.4020 C.ar  1 <1>   0.0820 
 11 C        1.8090    -0.8490     2.1900 C.3   1 <1>  -0.0800 
 12 C        2.4890    -6.4740    -1.6860 C.ar  1 <1>  -0.1500 
 13 C        0.8560    -5.5320    -3.1670 C.ar  1 <1>  -0.1500 
 14 C        2.1020     0.5520     2.7360 C.3   1 <1>  -0.2400 
 15 C        1.8050    -7.6770    -1.6930 C.ar  1 <1>  -0.1500 
 16 C        0.1740    -6.7330    -3.1770 C.ar  1 <1>  -0.1500 
 17 C        0.6300    -7.8040    -2.4210 C.ar  1 <1>  -0.1430 
 18 C       -0.1750    -9.0840    -2.3680 C.3   1 <1>   0.4860 
 19 N       -0.9220    -9.0920    -1.0730 N.4   1 <1>  -0.9590 
 20 C       -1.5880   -10.4230    -0.8270 C.3   1 <1>   0.3430 
 21 C       -1.8970    -7.9550    -1.0310 C.3   1 <1>   0.3430 
 22 C       -2.4430   -10.4700     0.4810 C.3   1 <1>   0.4230 
 23 C       -2.6390    -7.9540     0.3080 C.3   1 <1>  -0.1600 
 24 N       -3.1020   -11.8150     0.7890 N.4   1 <1>  -0.9590 
 25 C       -3.4200    -9.2630     0.6000 C.3   1 <1>   0.0000 
 26 C       -4.1810   -11.7370     1.8350 C.3   1 <1>   0.3430 
 27 C       -3.6460   -12.5460    -0.4070 C.3   1 <1>   0.2630 
 28 C       -3.9430    -9.1980     2.0630 C.3   1 <1>  -0.1600 
 29 C       -4.6490    -9.3500    -0.3520 C.3   1 <1>   0.1200 
 30 C       -3.9480   -10.5610     2.7850 C.3   1 <1>  -0.1600 
 31 O       -4.2720    -9.6660    -1.6500 O.3   1 <1>  -0.6800 
 32 H        2.7260    -2.1990    -2.2790 H     1 <1>   0.0800 
 33 H        1.6010    -2.8980    -3.4030 H     1 <1>   0.0800 
 34 H        2.5910    -3.3830     1.3110 H     1 <1>   0.0800 
 35 H        3.2960    -2.8760    -0.1930 H     1 <1>   0.0800 
 36 H       -0.8490    -2.2520     0.4620 H     1 <1>   0.0800 
 37 H        0.0930    -3.0300     1.7050 H     1 <1>   0.0800 
 38 H        3.8350    -1.2980     1.6220 H     1 <1>   0.0800 
 39 H        2.9130    -0.5300     0.3650 H     1 <1>   0.0800 
 40 H        0.3140    -0.1540     0.7980 H     1 <1>   0.0800 
 41 H       -0.3360    -0.6990     2.3150 H     1 <1>   0.0800 
 42 H        1.8440    -1.5480     3.0100 H     1 <1>   0.0800 
 43 H        3.3970    -6.3620    -1.1210 H     1 <1>   0.1500 
 44 H        0.4770    -4.7150    -3.7530 H     1 <1>   0.1500 
 45 H        2.0740     1.2820     1.9460 H     1 <1>   0.0800 
 46 H        3.0740     0.5790     3.1950 H     1 <1>   0.0800 
 47 H        1.3710     0.8240     3.4780 H     1 <1>   0.0800 
 48 H        2.2040    -8.4980    -1.1220 H     1 <1>   0.1500 
 49 H       -0.7190    -6.8110    -3.7760 H     1 <1>   0.1500 
 50 H        0.4940    -9.9270    -2.4260 H     1 <1>   0.0800 
 51 H       -0.8590    -9.1260    -3.2000 H     1 <1>   0.0800 
 52 H       -0.2090    -8.8910    -0.3580 H     1 <1>   0.4500 
 53 H       -2.2280   -10.6430    -1.6640 H     1 <1>   0.0800 
 54 H       -0.8330   -11.1890    -0.7740 H     1 <1>   0.0800 
 55 H       -1.3760    -7.0160    -1.1450 H     1 <1>   0.0800 
 56 H       -2.6020    -8.0410    -1.8420 H     1 <1>   0.0800 
 57 H       -1.7300   -10.3140     1.2730 H     1 <1>   0.0800 
 58 H       -1.9150    -7.7630     1.0820 H     1 <1>   0.0800 
 59 H       -3.3190    -7.1190     0.3140 H     1 <1>   0.0800 
 60 H       -2.3740   -12.4180     1.2020 H     1 <1>   0.4500 
 61 H       -5.1410   -11.6080     1.3620 H     1 <1>   0.0800 
 62 H       -4.2150   -12.6580     2.3970 H     1 <1>   0.0800 
 63 H       -4.4150   -11.9660    -0.8890 H     1 <1>   0.0800 
 64 H       -4.0740   -13.4900    -0.1050 H     1 <1>   0.0800 
 65 H       -2.8660   -12.7470    -1.1230 H     1 <1>   0.0800 
 66 H       -3.3450    -8.5280     2.6590 H     1 <1>   0.0800 
 67 H       -4.9410    -8.7870     2.0750 H     1 <1>   0.0800 
 68 H       -5.1690    -8.4060    -0.3780 H     1 <1>   0.0800 
 69 H       -5.3480   -10.1000    -0.0260 H     1 <1>   0.0800 
 70 H       -4.7210   -10.5580     3.5350 H     1 <1>   0.0800 
 71 H       -3.0170   -10.7110     3.3040 H     1 <1>   0.0800 
 72 H       -5.0360    -9.5440    -2.2630 H     1 <1>   0.4000 
@<TRIPOS>BOND
  1   1   2  2   
  2   2   3  am  
  3   2   4  1   
  4   3   5  1   
  5   3   6  1   
  6   4   7  1   
  7   4  32  1   
  8   4  33  1   
  9   5   8  1   
 10   5  34  1   
 11   5  35  1   
 12   6   9  1   
 13   6  36  1   
 14   6  37  1   
 15   7  10  1   
 16   8  11  1   
 17   8  38  1   
 18   8  39  1   
 19   9  11  1   
 20   9  40  1   
 21   9  41  1   
 22  10  12  ar  
 23  10  13  ar  
 24  11  14  1   
 25  11  42  1   
 26  12  15  ar  
 27  12  43  1   
 28  13  16  ar  
 29  13  44  1   
 30  14  45  1   
 31  14  46  1   
 32  14  47  1   
 33  15  17  ar  
 34  15  48  1   
 35  16  17  ar  
 36  16  49  1   
 37  17  18  1   
 38  18  19  1   
 39  18  50  1   
 40  18  51  1   
 41  19  20  1   
 42  19  21  1   
 43  19  52  1   
 44  20  22  1   
 45  20  53  1   
 46  20  54  1   
 47  21  23  1   
 48  21  55  1   
 49  21  56  1   
 50  22  24  1   
 51  22  25  1   
 52  22  57  1   
 53  23  25  1   
 54  23  58  1   
 55  23  59  1   
 56  24  26  1   
 57  24  27  1   
 58  24  60  1   
 59  25  28  1   
 60  25  29  1   
 61  26  30  1   
 62  26  61  1   
 63  26  62  1   
 64  27  63  1   
 65  27  64  1   
 66  27  65  1   
 67  28  30  1   
 68  28  66  1   
 69  28  67  1   
 70  29  31  1   
 71  29  68  1   
 72  29  69  1   
 73  30  70  1   
 74  30  71  1   
 75  31  72  1   
@<TRIPOS>SUBSTRUCTURE
  1 ****  21 GROUP 4 **** **** 0

# MOE 2024.06 (io_trps.svl 2023.06)
