@<TRIPOS>MOLECULE
NONAME
48 51 1 0 0 
SMALL
USER_CHARGES


@<TRIPOS>ATOM
  1 O        0.6020     1.1960     0.4720 O.2   1 <1>  -0.5700 
  2 C        0.4480     2.2830    -0.0230 C.2   1 <1>   0.5690 
  3 N        0.0400     3.3300     0.7300 N.am  1 <1>  -0.7300 
  4 C        0.6930     2.4890    -1.5230 C.3   1 <1>   0.1810 
  5 C       -0.0950     4.7070     0.2000 C.3   1 <1>   0.3640 
  6 O        0.8790     3.8470    -1.8670 O.3   1 <1>  -0.5600 
  7 C       -1.3400     5.3640     0.7800 C.ar  1 <1>  -0.1440 
  8 C       -0.1160     4.7170    -1.3480 C.3   1 <1>   0.2610 
  9 C       -2.5320     4.6650     0.9180 C.ar  1 <1>   0.1600 
 10 C       -1.3030     6.6900     1.1700 C.ar  1 <1>  -0.1500 
 11 C        0.0650     6.1480    -1.8590 C.2   1 <1>   0.5690 
 12 N       -3.6550     5.1680     1.4050 N.ar  1 <1>  -0.6200 
 13 C       -2.4650     7.2300     1.6750 C.ar  1 <1>  -0.1500 
 14 O       -0.8290     6.6540    -2.4970 O.2   1 <1>  -0.5700 
 15 N        1.1970     6.8430    -1.5560 N.am  1 <1>  -0.5100 
 16 C       -3.5960     6.4380     1.7700 C.ar  1 <1>   0.1600 
 17 C        1.6590     8.1280    -2.1740 C.3   1 <1>   0.2250 
 18 C        2.6160     6.3540    -1.5340 C.3   1 <1>   0.2250 
 19 C        3.0610     7.8350    -1.5800 C.3   1 <1>   0.2580 
 20 O        3.2120     8.3490    -0.2670 O.3   1 <1>  -0.3400 
 21 C        3.3820     9.6770    -0.0350 C.ar  1 <1>   0.0820 
 22 C        3.2670    10.1210     1.2800 C.ar  1 <1>  -0.1440 
 23 C        3.6600    10.5900    -1.0500 C.ar  1 <1>  -0.1500 
 24 C        3.4250    11.4690     1.5630 C.ar  1 <1>  -0.1500 
 25 C        2.9690     9.1440     2.4070 C.3   1 <1>  -0.0970 
 26 C        3.8150    11.9330    -0.7550 C.ar  1 <1>  -0.1500 
 27 C        3.6960    12.3720     0.5500 C.ar  1 <1>  -0.1500 
 28 H       -0.0890     3.1890     1.7340 H     1 <1>   0.3700 
 29 H       -0.1450     2.1100    -2.0790 H     1 <1>   0.0800 
 30 H        1.5760     1.9520    -1.8170 H     1 <1>   0.0800 
 31 H        0.7640     5.2630     0.5330 H     1 <1>   0.0800 
 32 H       -1.0710     4.3640    -1.6960 H     1 <1>   0.0800 
 33 H       -2.5730     3.6330     0.6130 H     1 <1>   0.1500 
 34 H       -0.4120     7.2910     1.0810 H     1 <1>   0.1500 
 35 H       -2.4990     8.2570     1.9910 H     1 <1>   0.1500 
 36 H       -4.4990     6.8710     2.1650 H     1 <1>   0.1500 
 37 H        1.6240     8.0770    -3.2490 H     1 <1>   0.0000 
 38 H        1.1670     8.9870    -1.7530 H     1 <1>   0.0000 
 39 H        2.8650     5.8450    -0.6200 H     1 <1>   0.0000 
 40 H        2.8500     5.8030    -2.4290 H     1 <1>   0.0000 
 41 H        3.9160     8.0420    -2.2000 H     1 <1>   0.0000 
 42 H        3.7650    10.2810    -2.0720 H     1 <1>   0.1500 
 43 H        3.3370    11.8250     2.5740 H     1 <1>   0.1500 
 44 H        2.9220     9.6470     3.3560 H     1 <1>   0.0800 
 45 H        3.7410     8.3970     2.4540 H     1 <1>   0.0800 
 46 H        2.0270     8.6580     2.2280 H     1 <1>   0.0800 
 47 H        4.0290    12.6370    -1.5400 H     1 <1>   0.1500 
 48 H        3.8160    13.4170     0.7800 H     1 <1>   0.1500 
@<TRIPOS>BOND
  1   1   2  2   
  2   2   3  am  
  3   2   4  1   
  4   3   5  1   
  5   3  28  1   
  6   4   6  1   
  7   4  29  1   
  8   4  30  1   
  9   5   7  1   
 10   5   8  1   
 11   5  31  1   
 12   6   8  1   
 13   7   9  ar  
 14   7  10  ar  
 15   8  11  1   
 16   8  32  1   
 17   9  12  ar  
 18   9  33  1   
 19  10  13  ar  
 20  10  34  1   
 21  11  14  2   
 22  11  15  am  
 23  12  16  ar  
 24  13  16  ar  
 25  13  35  1   
 26  15  17  1   
 27  15  18  1   
 28  16  36  1   
 29  17  19  1   
 30  17  37  1   
 31  17  38  1   
 32  18  19  1   
 33  18  39  1   
 34  18  40  1   
 35  19  20  1   
 36  19  41  1   
 37  20  21  1   
 38  21  22  ar  
 39  21  23  ar  
 40  22  24  ar  
 41  22  25  1   
 42  23  26  ar  
 43  23  42  1   
 44  24  27  ar  
 45  24  43  1   
 46  25  44  1   
 47  25  45  1   
 48  25  46  1   
 49  26  27  ar  
 50  26  47  1   
 51  27  48  1   
@<TRIPOS>SUBSTRUCTURE
  1 ****  15 GROUP 4 **** **** 0

# MOE 2024.06 (io_trps.svl 2023.06)
