@<TRIPOS>MOLECULE
NONAME
54 56 1 0 0 
SMALL
USER_CHARGES


@<TRIPOS>ATOM
  1 F       -0.5080     1.0080     1.3830 F     1 <1>  -0.1900 
  2 C       -1.7700     1.1420     1.0600 C.ar  1 <1>   0.1900 
  3 C       -2.2170     2.1730     0.2260 C.ar  1 <1>   0.0830 
  4 C       -2.6420     0.2110     1.5920 C.ar  1 <1>  -0.1500 
  5 O       -1.4590     3.1470    -0.3560 O.3   1 <1>  -0.3630 
  6 C       -3.5730     2.2300    -0.0530 C.ar  1 <1>  -0.1500 
  7 C       -3.9890     0.2990     1.2930 C.ar  1 <1>  -0.1500 
  8 C       -0.0580     3.2170    -0.2160 C.3   1 <1>   0.0400 
  9 C       -4.4830     1.3050     0.4620 C.ar  1 <1>   0.0530 
 10 C       -5.8860     1.4140     0.1510 C.2   1 <1>   0.0870 
 11 O       -6.4570     2.5910     0.2000 O.3   1 <1>  -0.0190 
 12 C       -6.8490     0.5180    -0.2060 C.2   1 <1>  -0.0860 
 13 N       -7.7300     2.5550    -0.0830 N.2   1 <1>  -0.4100 
 14 C       -7.9940     1.3210    -0.3270 C.2   1 <1>   0.3720 
 15 C       -6.7790    -0.8960    -0.4320 C.2   1 <1>   0.7160 
 16 N       -9.2800     0.8800    -0.6800 N.pl3 1 <1>  -0.8210 
 17 O       -5.7320    -1.5080    -0.3460 O.2   1 <1>  -0.5700 
 18 N       -7.9060    -1.5920    -0.7390 N.am  1 <1>  -0.7300 
 19 C       -9.6190     1.1840    -2.0970 C.3   1 <1>   0.1290 
 20 C      -10.3470     1.3490     0.2480 C.3   1 <1>   0.1290 
 21 C       -8.0670    -3.0610    -0.8550 C.3   1 <1>   0.1400 
 22 C       -8.9210    -3.6710     0.2790 C.3   1 <1>   0.0000 
 23 C      -10.2780    -2.9550     0.5540 C.3   1 <1>   0.0000 
 24 C       -8.4760    -3.2920     1.7230 C.3   1 <1>   0.0000 
 25 C       -9.0720    -5.1900     0.1080 C.3   1 <1>   0.1200 
 26 C       -9.6290    -2.2560     1.7780 C.3   1 <1>   0.0000 
 27 O       -9.6830    -5.4560    -1.1150 O.3   1 <1>  -0.5600 
 28 C       -9.8880    -6.8090    -1.3620 C.3   1 <1>   0.0400 
 29 H       -2.2690    -0.5700     2.2290 H     1 <1>   0.1500 
 30 H       -3.9310     3.0170    -0.6920 H     1 <1>   0.1500 
 31 H       -4.6690    -0.4240     1.7080 H     1 <1>   0.1500 
 32 H        0.2930     4.0560    -0.7890 H     1 <1>   0.0800 
 33 H        0.3780     2.3100    -0.5950 H     1 <1>   0.0800 
 34 H        0.1840     3.3580     0.8220 H     1 <1>   0.0800 
 35 H       -8.7670    -1.0250    -0.7670 H     1 <1>   0.3700 
 36 H       -8.8420     0.8170    -2.7460 H     1 <1>   0.0800 
 37 H       -9.7130     2.2480    -2.2350 H     1 <1>   0.0800 
 38 H      -10.5460     0.7070    -2.3640 H     1 <1>   0.0800 
 39 H      -10.0320     1.2100     1.2680 H     1 <1>   0.0800 
 40 H      -11.2490     0.7830     0.0860 H     1 <1>   0.0800 
 41 H      -10.5480     2.3950     0.0880 H     1 <1>   0.0800 
 42 H       -7.0960    -3.5280    -0.8560 H     1 <1>   0.0800 
 43 H       -8.5310    -3.2770    -1.8030 H     1 <1>   0.0800 
 44 H      -11.0610    -3.6310     0.8500 H     1 <1>   0.0000 
 45 H      -10.5850    -2.2710    -0.2180 H     1 <1>   0.0000 
 46 H       -7.4970    -2.8500     1.7860 H     1 <1>   0.0000 
 47 H       -8.6210    -4.0870     2.4340 H     1 <1>   0.0000 
 48 H       -9.6830    -5.6020     0.8930 H     1 <1>   0.0800 
 49 H       -8.1040    -5.6630     0.1190 H     1 <1>   0.0800 
 50 H      -10.2220    -2.3250     2.6730 H     1 <1>   0.0000 
 51 H       -9.3000    -1.2540     1.5660 H     1 <1>   0.0000 
 52 H      -10.3580    -6.9050    -2.3250 H     1 <1>   0.0800 
 53 H      -10.5320    -7.2160    -0.6020 H     1 <1>   0.0800 
 54 H       -8.9390    -7.3170    -1.3700 H     1 <1>   0.0800 
@<TRIPOS>BOND
  1   1   2  1   
  2   2   3  ar  
  3   2   4  ar  
  4   3   5  1   
  5   3   6  ar  
  6   4   7  ar  
  7   4  29  1   
  8   5   8  1   
  9   6   9  ar  
 10   6  30  1   
 11   7   9  ar  
 12   7  31  1   
 13   8  32  1   
 14   8  33  1   
 15   8  34  1   
 16   9  10  1   
 17  10  11  1   
 18  10  12  2   
 19  11  13  1   
 20  12  14  1   
 21  12  15  1   
 22  13  14  2   
 23  14  16  1   
 24  15  17  2   
 25  15  18  am  
 26  16  19  1   
 27  16  20  1   
 28  18  21  1   
 29  18  35  1   
 30  19  36  1   
 31  19  37  1   
 32  19  38  1   
 33  20  39  1   
 34  20  40  1   
 35  20  41  1   
 36  21  22  1   
 37  21  42  1   
 38  21  43  1   
 39  22  23  1   
 40  22  24  1   
 41  22  25  1   
 42  23  26  1   
 43  23  44  1   
 44  23  45  1   
 45  24  26  1   
 46  24  46  1   
 47  24  47  1   
 48  25  27  1   
 49  25  48  1   
 50  25  49  1   
 51  26  50  1   
 52  26  51  1   
 53  27  28  1   
 54  28  52  1   
 55  28  53  1   
 56  28  54  1   
@<TRIPOS>SUBSTRUCTURE
  1 ****  15 GROUP 4 **** **** 0

# MOE 2024.06 (io_trps.svl 2023.06)
