@<TRIPOS>MOLECULE
NONAME
41 43 1 0 0 
SMALL
USER_CHARGES


@<TRIPOS>ATOM
  1 O       -0.4490    -0.1660     0.7770 O.2   1 <1>  -0.5700 
  2 C       -1.4080     0.4400     0.3400 C.2   1 <1>   0.7160 
  3 N       -2.4980    -0.2740    -0.0540 N.am  1 <1>  -0.7300 
  4 C       -1.4140     1.8700     0.2420 C.2   1 <1>  -0.0860 
  5 C       -2.6570    -1.7370    -0.0330 C.3   1 <1>   0.1400 
  6 C       -2.5510     2.6810     0.1080 C.2   1 <1>   0.3720 
  7 C       -0.3930     2.7720     0.2580 C.2   1 <1>   0.0870 
  8 C       -3.4220    -2.1580    -1.2820 C.3   1 <1>  -0.2400 
  9 N       -2.2320     3.9250     0.0530 N.2   1 <1>  -0.4100 
 10 N       -3.8800     2.2280     0.0660 N.pl3 1 <1>  -0.8210 
 11 O       -0.9320     3.9590     0.1490 O.3   1 <1>  -0.0190 
 12 C        1.0420     2.6620     0.3510 C.ar  1 <1>   0.0530 
 13 C       -4.4830     1.9990     1.4190 C.3   1 <1>   0.2090 
 14 C       -4.8070     3.0020    -0.8280 C.3   1 <1>   0.2090 
 15 C        1.7790     3.6010     1.0720 C.ar  1 <1>  -0.1500 
 16 C        1.7520     1.6410    -0.2820 C.ar  1 <1>  -0.1500 
 17 C       -5.1170     3.2770     1.9960 C.3   1 <1>   0.1200 
 18 C       -5.4580     4.2050    -0.1160 C.3   1 <1>   0.1200 
 19 C        3.1570     3.5240     1.1650 C.ar  1 <1>  -0.1500 
 20 C        3.1290     1.5560    -0.1920 C.ar  1 <1>  -0.1500 
 21 O       -6.0400     3.8160     1.0960 O.3   1 <1>  -0.5600 
 22 C        3.8360     2.4980     0.5320 C.ar  1 <1>  -0.1500 
 23 H       -3.3220     0.2910    -0.3050 H     1 <1>   0.3700 
 24 H       -3.1980    -2.0250     0.8520 H     1 <1>   0.0800 
 25 H       -1.6890    -2.2120    -0.0140 H     1 <1>   0.0800 
 26 H       -4.3970    -1.7050    -1.2970 H     1 <1>   0.0800 
 27 H       -3.5410    -3.2260    -1.2880 H     1 <1>   0.0800 
 28 H       -2.8770    -1.8710    -2.1640 H     1 <1>   0.0800 
 29 H       -3.7280     1.6420     2.0990 H     1 <1>   0.0800 
 30 H       -5.2400     1.2380     1.3440 H     1 <1>   0.0800 
 31 H       -5.5840     2.3460    -1.1770 H     1 <1>   0.0800 
 32 H       -4.2680     3.3530    -1.6910 H     1 <1>   0.0800 
 33 H        1.2630     4.4030     1.5690 H     1 <1>   0.1500 
 34 H        1.2190     0.9010    -0.8520 H     1 <1>   0.1500 
 35 H       -4.3600     4.0150     2.2010 H     1 <1>   0.0800 
 36 H       -5.6390     3.0540     2.9080 H     1 <1>   0.0800 
 37 H       -6.2310     4.6260    -0.7330 H     1 <1>   0.0800 
 38 H       -4.7260     4.9690     0.0830 H     1 <1>   0.0800 
 39 H        3.7020     4.2600     1.7290 H     1 <1>   0.1500 
 40 H        3.6500     0.7540    -0.6860 H     1 <1>   0.1500 
 41 H        4.9070     2.4330     0.6030 H     1 <1>   0.1500 
@<TRIPOS>BOND
  1   1   2  2   
  2   2   3  am  
  3   2   4  1   
  4   3   5  1   
  5   3  23  1   
  6   4   6  1   
  7   4   7  2   
  8   5   8  1   
  9   5  24  1   
 10   5  25  1   
 11   6   9  2   
 12   6  10  1   
 13   7  11  1   
 14   7  12  1   
 15   8  26  1   
 16   8  27  1   
 17   8  28  1   
 18   9  11  1   
 19  10  13  1   
 20  10  14  1   
 21  12  15  ar  
 22  12  16  ar  
 23  13  17  1   
 24  13  29  1   
 25  13  30  1   
 26  14  18  1   
 27  14  31  1   
 28  14  32  1   
 29  15  19  ar  
 30  15  33  1   
 31  16  20  ar  
 32  16  34  1   
 33  17  21  1   
 34  17  35  1   
 35  17  36  1   
 36  18  21  1   
 37  18  37  1   
 38  18  38  1   
 39  19  22  ar  
 40  19  39  1   
 41  20  22  ar  
 42  20  40  1   
 43  22  41  1   
@<TRIPOS>SUBSTRUCTURE
  1 ****   4 GROUP 4 **** **** 0

# MOE 2024.06 (io_trps.svl 2023.06)
