@<TRIPOS>MOLECULE
NONAME
57 60 1 0 0 
SMALL
USER_CHARGES


@<TRIPOS>ATOM
  1 O       -0.7530    -0.3160    -0.5280 O.2   1 <1>  -0.5700 
  2 C       -1.6710    -0.9260    -0.0110 C.2   1 <1>   0.5440 
  3 N       -1.4260    -2.2280     0.3920 N.am  1 <1>  -0.6600 
  4 C       -2.9570    -0.2610     0.1110 C.ar  1 <1>   0.0860 
  5 C       -2.5010    -3.2440     0.6880 C.3   1 <1>   0.1400 
  6 C       -0.0270    -2.7550     0.2920 C.3   1 <1>   0.1400 
  7 C       -3.4410     0.5120    -0.9470 C.ar  1 <1>  -0.1500 
  8 C       -3.7430    -0.3220     1.2630 C.ar  1 <1>  -0.1500 
  9 C       -2.3180    -4.5040    -0.1900 C.3   1 <1>   0.2800 
 10 C        0.0790    -4.2150     0.7430 C.3   1 <1>  -0.1600 
 11 C       -4.6540     1.1710    -0.8790 C.ar  1 <1>  -0.1500 
 12 C       -4.9630     0.3260     1.3370 C.ar  1 <1>  -0.1500 
 13 O       -2.3730    -4.0610    -1.5040 O.3   1 <1>  -0.6800 
 14 C       -3.4340    -5.5520     0.0140 C.3   1 <1>   0.1400 
 15 C       -0.9250    -5.1400     0.0260 C.3   1 <1>  -0.1600 
 16 C       -5.4360     1.0690     0.2660 C.ar  1 <1>   0.0830 
 17 N       -4.7960    -4.9800    -0.1630 N.am  1 <1>  -0.7300 
 18 O       -6.6550     1.6380     0.4050 O.3   1 <1>  -0.3620 
 19 C       -5.7570    -4.9790     0.7930 C.2   1 <1>   0.5690 
 20 C       -7.3370     2.2750    -0.6540 C.3   1 <1>   0.1200 
 21 O       -5.6110    -5.5480     1.8460 O.2   1 <1>  -0.5700 
 22 C       -7.0090    -4.1670     0.5670 C.3   1 <1>  -0.0990 
 23 C       -8.8470     2.2250    -0.3790 C.3   1 <1>  -0.1600 
 24 C       -6.8420    -2.8160     1.2630 C.3   1 <1>   0.0210 
 25 C       -9.5210     0.8880    -0.7570 C.3   1 <1>   0.0960 
 26 C       -7.9370    -1.8390     0.9040 C.2   1 <1>   0.0460 
 27 N       -9.0570    -0.2590     0.0520 N.pl3 1 <1>   0.3140 
 28 N       -9.0560    -1.7010     1.6210 N.2   1 <1>  -0.2270 
 29 C       -7.9380    -0.9640    -0.1080 C.2   1 <1>  -0.3020 
 30 N       -9.7350    -0.7360     1.1000 N.2   1 <1>  -0.4180 
 31 H       -3.4730    -2.8280     0.5020 H     1 <1>   0.0800 
 32 H       -2.4550    -3.5190     1.7270 H     1 <1>   0.0800 
 33 H        0.6220    -2.1400     0.8930 H     1 <1>   0.0800 
 34 H        0.3020    -2.6740    -0.7310 H     1 <1>   0.0800 
 35 H       -2.8400     0.5980    -1.8370 H     1 <1>   0.1500 
 36 H       -3.3870    -0.8800     2.1120 H     1 <1>   0.1500 
 37 H       -0.0900    -4.2510     1.8050 H     1 <1>   0.0800 
 38 H        1.0810    -4.5680     0.5710 H     1 <1>   0.0800 
 39 H       -4.9670     1.7610    -1.7190 H     1 <1>   0.1500 
 40 H       -5.5660     0.2630     2.2270 H     1 <1>   0.1500 
 41 H       -1.7990    -3.2680    -1.5630 H     1 <1>   0.4000 
 42 H       -3.3490    -5.9640     1.0050 H     1 <1>   0.0800 
 43 H       -3.2960    -6.3580    -0.6850 H     1 <1>   0.0800 
 44 H       -0.5200    -5.4520    -0.9220 H     1 <1>   0.0800 
 45 H       -1.0200    -6.0260     0.6280 H     1 <1>   0.0800 
 46 H       -4.9290    -4.4940    -1.0550 H     1 <1>   0.3700 
 47 H       -7.1170     1.7740    -1.5790 H     1 <1>   0.0800 
 48 H       -6.9860     3.2910    -0.6960 H     1 <1>   0.0800 
 49 H       -7.8560    -4.6870     0.9770 H     1 <1>   0.0800 
 50 H       -7.1700    -4.0260    -0.4850 H     1 <1>   0.0800 
 51 H       -9.3110     2.9930    -0.9700 H     1 <1>   0.0800 
 52 H       -9.0410     2.4590     0.6540 H     1 <1>   0.0800 
 53 H       -5.9040    -2.3830     0.9670 H     1 <1>   0.0800 
 54 H       -6.8190    -2.9510     2.3310 H     1 <1>   0.0800 
 55 H       -9.3410     0.6620    -1.7910 H     1 <1>   0.0800 
 56 H      -10.5830     0.9750    -0.6150 H     1 <1>   0.0800 
 57 H       -7.2180    -0.7840    -0.8820 H     1 <1>   0.1500 
@<TRIPOS>BOND
  1   1   2  2   
  2   2   3  am  
  3   2   4  1   
  4   3   5  1   
  5   3   6  1   
  6   4   7  ar  
  7   4   8  ar  
  8   5   9  1   
  9   5  31  1   
 10   5  32  1   
 11   6  10  1   
 12   6  33  1   
 13   6  34  1   
 14   7  11  ar  
 15   7  35  1   
 16   8  12  ar  
 17   8  36  1   
 18   9  13  1   
 19   9  14  1   
 20   9  15  1   
 21  10  15  1   
 22  10  37  1   
 23  10  38  1   
 24  11  16  ar  
 25  11  39  1   
 26  12  16  ar  
 27  12  40  1   
 28  13  41  1   
 29  14  17  1   
 30  14  42  1   
 31  14  43  1   
 32  15  44  1   
 33  15  45  1   
 34  16  18  1   
 35  17  19  am  
 36  17  46  1   
 37  18  20  1   
 38  19  21  2   
 39  19  22  1   
 40  20  23  1   
 41  20  47  1   
 42  20  48  1   
 43  22  24  1   
 44  22  49  1   
 45  22  50  1   
 46  23  25  1   
 47  23  51  1   
 48  23  52  1   
 49  24  26  1   
 50  24  53  1   
 51  24  54  1   
 52  25  27  1   
 53  25  55  1   
 54  25  56  1   
 55  26  28  1   
 56  26  29  2   
 57  27  29  1   
 58  27  30  1   
 59  28  30  2   
 60  29  57  1   
@<TRIPOS>SUBSTRUCTURE
  1 ****   8 GROUP 4 **** **** 0

# MOE 2024.06 (io_trps.svl 2023.06)
