@<TRIPOS>MOLECULE
NONAME
48 50 1 0 0 
SMALL
USER_CHARGES


@<TRIPOS>ATOM
  1 O        0.5470    -1.9560    -2.0410 O.3   1 <1>  -0.6800 
  2 C        0.0800    -1.9430    -0.7360 C.3   1 <1>   0.1200 
  3 C        1.2150    -1.6890     0.3000 C.3   1 <1>   0.0000 
  4 C        2.5150    -2.5160     0.0590 C.3   1 <1>   0.4230 
  5 C        1.5720    -0.1780     0.3150 C.3   1 <1>  -0.1600 
  6 C        0.6620    -2.0610     1.7070 C.3   1 <1>  -0.1600 
  7 N        2.2870    -4.0250     0.0670 N.4   1 <1>  -0.9590 
  8 C        3.4070    -1.9900    -1.1090 C.3   1 <1>   0.2090 
  9 C        2.3960     0.2870    -0.8900 C.3   1 <1>   0.2090 
 10 C        1.0480    -3.4800     2.1740 C.3   1 <1>  -0.1600 
 11 C        1.2060    -4.4630     1.0130 C.3   1 <1>   0.3430 
 12 C        2.0150    -4.6200    -1.2840 C.3   1 <1>   0.2630 
 13 N        3.6560    -0.5150    -0.9770 N.pl3 1 <1>  -0.8380 
 14 C        4.8410     0.0430    -0.6310 C.ar  1 <1>   0.7710 
 15 N        4.8680     0.8860     0.3860 N.ar  1 <1>  -0.6200 
 16 N        5.9420    -0.2790    -1.3320 N.ar  1 <1>  -0.1790 
 17 C        6.0290     1.3960     0.7210 C.ar  1 <1>   0.4100 
 18 C        7.1540     0.2400    -1.0150 C.ar  1 <1>   0.2110 
 19 N        5.9980     2.2240     1.7670 N.pl3 1 <1>  -0.9000 
 20 C        7.2280     1.0960     0.0360 C.ar  1 <1>  -0.1440 
 21 C        8.5520     1.7230     0.4660 C.3   1 <1>  -0.0970 
 22 H       -0.1990    -1.8480    -2.6730 H     1 <1>   0.4000 
 23 H       -0.6690    -1.1720    -0.6610 H     1 <1>   0.0800 
 24 H       -0.4040    -2.8880    -0.5620 H     1 <1>   0.0800 
 25 H        3.1060    -2.3140     0.9360 H     1 <1>   0.0800 
 26 H        2.1490     0.0610     1.1920 H     1 <1>   0.0800 
 27 H        0.6740     0.4130     0.3670 H     1 <1>   0.0800 
 28 H        1.0230    -1.3760     2.4570 H     1 <1>   0.0800 
 29 H       -0.4110    -1.9630     1.7150 H     1 <1>   0.0800 
 30 H        3.1550    -4.4490     0.4230 H     1 <1>   0.4500 
 31 H        2.9440    -2.1740    -2.0610 H     1 <1>   0.0800 
 32 H        4.3430    -2.5180    -1.0820 H     1 <1>   0.0800 
 33 H        2.6220     1.3360    -0.7820 H     1 <1>   0.0800 
 34 H        1.8320     0.1790    -1.8020 H     1 <1>   0.0800 
 35 H        0.2920    -3.8460     2.8470 H     1 <1>   0.0800 
 36 H        1.9700    -3.4480     2.7300 H     1 <1>   0.0800 
 37 H        0.2660    -4.5220     0.4880 H     1 <1>   0.0800 
 38 H        1.4290    -5.4460     1.3950 H     1 <1>   0.0800 
 39 H        1.1070    -4.2160    -1.6990 H     1 <1>   0.0800 
 40 H        1.9060    -5.6910    -1.2060 H     1 <1>   0.0800 
 41 H        2.8240    -4.4120    -1.9640 H     1 <1>   0.0800 
 42 H        5.7910    -0.8580    -2.1520 H     1 <1>   0.4570 
 43 H        8.0140    -0.0360    -1.6060 H     1 <1>   0.1500 
 44 H        5.1130     2.4410     2.2320 H     1 <1>   0.4000 
 45 H        6.8110     2.7060     2.1540 H     1 <1>   0.4000 
 46 H        9.3640     1.3950    -0.1580 H     1 <1>   0.0800 
 47 H        8.7780     1.4520     1.4830 H     1 <1>   0.0800 
 48 H        8.4920     2.7960     0.4020 H     1 <1>   0.0800 
@<TRIPOS>BOND
  1   1   2  1   
  2   1  22  1   
  3   2   3  1   
  4   2  23  1   
  5   2  24  1   
  6   3   4  1   
  7   3   5  1   
  8   3   6  1   
  9   4   7  1   
 10   4   8  1   
 11   4  25  1   
 12   5   9  1   
 13   5  26  1   
 14   5  27  1   
 15   6  10  1   
 16   6  28  1   
 17   6  29  1   
 18   7  11  1   
 19   7  12  1   
 20   7  30  1   
 21   8  13  1   
 22   8  31  1   
 23   8  32  1   
 24   9  13  1   
 25   9  33  1   
 26   9  34  1   
 27  10  11  1   
 28  10  35  1   
 29  10  36  1   
 30  11  37  1   
 31  11  38  1   
 32  12  39  1   
 33  12  40  1   
 34  12  41  1   
 35  13  14  1   
 36  14  15  ar  
 37  14  16  ar  
 38  15  17  ar  
 39  16  18  ar  
 40  16  42  1   
 41  17  19  1   
 42  17  20  ar  
 43  18  20  ar  
 44  18  43  1   
 45  19  44  1   
 46  19  45  1   
 47  20  21  1   
 48  21  46  1   
 49  21  47  1   
 50  21  48  1   
@<TRIPOS>SUBSTRUCTURE
  1 ****  13 GROUP 4 **** **** 0

# MOE 2024.06 (io_trps.svl 2023.06)
