@<TRIPOS>MOLECULE
NONAME
56 60 1 0 0 
SMALL
USER_CHARGES


@<TRIPOS>ATOM
  1 O       -0.6370    -0.1170    -2.5660 O.2   1 <1>  -0.5700 
  2 C       -1.4730     0.5380    -1.9870 C.2   1 <1>   0.5690 
  3 N       -2.7950     0.5180    -2.3730 N.am  1 <1>  -0.6600 
  4 C       -1.0020     1.3880    -0.8110 C.3   1 <1>   0.1810 
  5 C       -3.2530    -0.3400    -3.5000 C.3   1 <1>   0.1400 
  6 C       -3.8740     1.2990    -1.6920 C.3   1 <1>   0.1400 
  7 O       -1.5210     0.8890     0.4160 O.3   1 <1>  -0.3620 
  8 C       -4.2240    -1.4010    -2.9760 C.3   1 <1>  -0.1600 
  9 C       -5.2570     0.6680    -1.9030 C.3   1 <1>  -0.1600 
 10 C       -1.6550     1.7140     1.4930 C.ar  1 <1>   0.0820 
 11 C       -5.2080    -0.8680    -1.9160 C.3   1 <1>   0.4600 
 12 C       -0.7750     2.7580     1.8260 C.ar  1 <1>   0.0820 
 13 C       -2.7550     1.4660     2.2980 C.ar  1 <1>  -0.1500 
 14 O       -6.4840    -1.3360    -2.2950 O.3   1 <1>  -0.5600 
 15 C       -4.8660    -1.4290    -0.5370 C.2   1 <1>  -0.3320 
 16 O        0.3330     2.9840     1.0600 O.3   1 <1>  -0.3630 
 17 C       -1.0470     3.5370     2.9490 C.ar  1 <1>  -0.1500 
 18 C       -3.0080     2.2420     3.4140 C.ar  1 <1>  -0.1500 
 19 C       -7.4980    -1.3730    -1.3180 C.3   1 <1>   0.1200 
 20 N       -3.6510    -1.3520     0.0870 N.pl3 1 <1>   0.0330 
 21 C       -5.7300    -2.0980     0.2520 C.2   1 <1>  -0.1810 
 22 C        1.3970     3.7940     1.5110 C.3   1 <1>   0.0400 
 23 C       -2.1550     3.2800     3.7370 C.ar  1 <1>  -0.1500 
 24 C       -7.1510    -2.3530    -0.1840 C.3   1 <1>   0.0210 
 25 C       -3.7600    -1.9800     1.3030 C.ar  1 <1>  -0.1520 
 26 C       -5.0580    -2.4650     1.4370 C.ar  1 <1>   0.0000 
 27 C       -2.8170    -2.1600     2.3170 C.ar  1 <1>  -0.1500 
 28 C       -5.4210    -3.1510     2.6000 C.ar  1 <1>  -0.1500 
 29 C       -3.1890    -2.8330     3.4580 C.ar  1 <1>  -0.1500 
 30 C       -4.4910    -3.3300     3.5990 C.ar  1 <1>  -0.1500 
 31 H       -1.3270     2.4030    -0.9410 H     1 <1>   0.0800 
 32 H        0.0700     1.3540    -0.7580 H     1 <1>   0.0800 
 33 H       -2.4220    -0.8190    -3.9900 H     1 <1>   0.0800 
 34 H       -3.7470     0.2800    -4.2290 H     1 <1>   0.0800 
 35 H       -3.8760     2.3080    -2.0670 H     1 <1>   0.0800 
 36 H       -3.6840     1.3400    -0.6350 H     1 <1>   0.0800 
 37 H       -3.6530    -2.2120    -2.5620 H     1 <1>   0.0800 
 38 H       -4.7670    -1.7970    -3.8150 H     1 <1>   0.0800 
 39 H       -5.6550     1.0120    -2.8400 H     1 <1>   0.0800 
 40 H       -5.9050     1.0110    -1.1190 H     1 <1>   0.0800 
 41 H       -3.4240     0.6610     2.0540 H     1 <1>   0.1500 
 42 H       -0.4090     4.3520     3.2320 H     1 <1>   0.1500 
 43 H       -3.8680     2.0350     4.0280 H     1 <1>   0.1500 
 44 H       -8.4090    -1.6770    -1.8020 H     1 <1>   0.0800 
 45 H       -7.6320    -0.3820    -0.9250 H     1 <1>   0.0800 
 46 H       -2.8050    -0.8930    -0.2740 H     1 <1>   0.2700 
 47 H        2.2010     3.7130     0.8030 H     1 <1>   0.0800 
 48 H        1.7220     3.4410     2.4740 H     1 <1>   0.0800 
 49 H        1.0620     4.8140     1.5660 H     1 <1>   0.0800 
 50 H       -2.3530     3.8870     4.6040 H     1 <1>   0.1500 
 51 H       -7.2440    -3.3650    -0.5330 H     1 <1>   0.0800 
 52 H       -7.8240    -2.2090     0.6410 H     1 <1>   0.0800 
 53 H       -1.8200    -1.7710     2.1950 H     1 <1>   0.1500 
 54 H       -6.4230    -3.5270     2.6940 H     1 <1>   0.1500 
 55 H       -2.4800    -2.9840     4.2530 H     1 <1>   0.1500 
 56 H       -4.7550    -3.8550     4.5000 H     1 <1>   0.1500 
@<TRIPOS>BOND
  1   1   2  2   
  2   2   3  am  
  3   2   4  1   
  4   3   5  1   
  5   3   6  1   
  6   4   7  1   
  7   4  31  1   
  8   4  32  1   
  9   5   8  1   
 10   5  33  1   
 11   5  34  1   
 12   6   9  1   
 13   6  35  1   
 14   6  36  1   
 15   7  10  1   
 16   8  11  1   
 17   8  37  1   
 18   8  38  1   
 19   9  11  1   
 20   9  39  1   
 21   9  40  1   
 22  10  12  ar  
 23  10  13  ar  
 24  11  14  1   
 25  11  15  1   
 26  12  16  1   
 27  12  17  ar  
 28  13  18  ar  
 29  13  41  1   
 30  14  19  1   
 31  15  20  1   
 32  15  21  2   
 33  16  22  1   
 34  17  23  ar  
 35  17  42  1   
 36  18  23  ar  
 37  18  43  1   
 38  19  24  1   
 39  19  44  1   
 40  19  45  1   
 41  20  25  1   
 42  20  46  1   
 43  21  24  1   
 44  21  26  1   
 45  22  47  1   
 46  22  48  1   
 47  22  49  1   
 48  23  50  1   
 49  24  51  1   
 50  24  52  1   
 51  25  26  ar  
 52  25  27  ar  
 53  26  28  ar  
 54  27  29  ar  
 55  27  53  1   
 56  28  30  ar  
 57  28  54  1   
 58  29  30  ar  
 59  29  55  1   
 60  30  56  1   
@<TRIPOS>SUBSTRUCTURE
  1 ****  20 GROUP 4 **** **** 0

# MOE 2024.06 (io_trps.svl 2023.06)
