@<TRIPOS>MOLECULE
NONAME
40 42 1 0 0 
SMALL
USER_CHARGES


@<TRIPOS>ATOM
  1 O        0.8980     1.9810     2.8950 O.co2 1 <1>  -0.9000 
  2 C        2.1230     1.8320     2.7940 C.2   1 <1>   0.9470 
  3 O        2.8900     2.2360     3.6780 O.co2 1 <1>  -0.9000 
  4 C        2.7140     1.3540     1.4660 C.3   1 <1>  -0.2420 
  5 C        3.1810     0.0010     0.9840 C.3   1 <1>  -0.2420 
  6 C        3.6680     2.3950     0.9130 C.3   1 <1>   0.2350 
  7 C        1.8440     0.5390     0.5420 C.3   1 <1>  -0.2000 
  8 C        3.2410    -1.3510     1.6980 C.2   1 <1>   0.9470 
  9 C        4.4120     0.2130     0.1190 C.3   1 <1>   0.2350 
 10 N        4.4790     1.6830    -0.1180 N.am  1 <1>  -0.6600 
 11 O        4.2610    -1.6500     2.3330 O.co2 1 <1>  -0.9000 
 12 O        2.3440    -2.1840     1.5030 O.co2 1 <1>  -0.9000 
 13 C        5.1590     2.2340    -1.1680 C.2   1 <1>   0.5690 
 14 O        5.7180     1.5480    -1.9940 O.2   1 <1>  -0.5700 
 15 C        5.2200     3.7460    -1.3590 C.3   1 <1>   0.0440 
 16 C        6.4130     4.4340    -0.6930 C.ar  1 <1>  -0.1430 
 17 C        6.9870     5.5410    -1.2990 C.ar  1 <1>  -0.1500 
 18 C        6.9330     3.9900     0.5120 C.ar  1 <1>  -0.1500 
 19 C        8.0630     6.2010    -0.7240 C.ar  1 <1>  -0.1430 
 20 C        8.0050     4.6420     1.0940 C.ar  1 <1>  -0.1500 
 21 C        8.5780     5.7480     0.4860 C.ar  1 <1>  -0.1430 
 22 C        8.6560     7.4080    -1.4360 C.3   1 <1>  -0.0970 
 23 C        9.7560     6.4350     1.1600 C.3   1 <1>  -0.0970 
 24 H        4.3140     2.7530     1.6960 H     1 <1>   0.0800 
 25 H        3.1090     3.2120     0.4970 H     1 <1>   0.0800 
 26 H        1.7090     0.8510    -0.4760 H     1 <1>   0.1000 
 27 H        0.9600     0.0830     0.9560 H     1 <1>   0.1000 
 28 H        4.3300    -0.3290    -0.8060 H     1 <1>   0.0800 
 29 H        5.2970    -0.1010     0.6460 H     1 <1>   0.0800 
 30 H        5.2650     3.9250    -2.4170 H     1 <1>   0.0800 
 31 H        4.3150     4.2000    -1.0080 H     1 <1>   0.0800 
 32 H        6.5910     5.8930    -2.2340 H     1 <1>   0.1500 
 33 H        6.5160     3.1330     1.0130 H     1 <1>   0.1500 
 34 H        8.3860     4.2750     2.0300 H     1 <1>   0.1500 
 35 H        8.1300     7.6160    -2.3490 H     1 <1>   0.0800 
 36 H        9.6880     7.2230    -1.6760 H     1 <1>   0.0800 
 37 H        8.5930     8.2760    -0.8040 H     1 <1>   0.0800 
 38 H       10.0190     5.9370     2.0760 H     1 <1>   0.0800 
 39 H        9.5040     7.4540     1.3900 H     1 <1>   0.0800 
 40 H       10.6120     6.4210     0.5100 H     1 <1>   0.0800 
@<TRIPOS>BOND
  1   1   2  ar  
  2   2   3  ar  
  3   2   4  1   
  4   4   5  1   
  5   4   6  1   
  6   4   7  1   
  7   5   7  1   
  8   5   8  1   
  9   5   9  1   
 10   6  10  1   
 11   6  24  1   
 12   6  25  1   
 13   7  26  1   
 14   7  27  1   
 15   8  11  ar  
 16   8  12  ar  
 17   9  10  1   
 18   9  28  1   
 19   9  29  1   
 20  10  13  am  
 21  13  14  2   
 22  13  15  1   
 23  15  16  1   
 24  15  30  1   
 25  15  31  1   
 26  16  17  ar  
 27  16  18  ar  
 28  17  19  ar  
 29  17  32  1   
 30  18  20  ar  
 31  18  33  1   
 32  19  21  ar  
 33  19  22  1   
 34  20  21  ar  
 35  20  34  1   
 36  21  23  1   
 37  22  35  1   
 38  22  36  1   
 39  22  37  1   
 40  23  38  1   
 41  23  39  1   
 42  23  40  1   
@<TRIPOS>SUBSTRUCTURE
  1 ****  10 GROUP 4 **** **** 0

# MOE 2024.06 (io_trps.svl 2023.06)
