@<TRIPOS>MOLECULE
NONAME
42 44 1 0 0 
SMALL
USER_CHARGES


@<TRIPOS>ATOM
  1 O       -3.2310     1.0350    -1.9780 O.2   1 <1>  -0.5700 
  2 C       -2.5120     0.9400    -1.0120 C.2   1 <1>   0.5690 
  3 N       -2.1600    -0.2670    -0.5040 N.am  1 <1>  -0.7300 
  4 C       -1.9970     2.2080    -0.3340 C.3   1 <1>   0.1810 
  5 C       -2.6130    -1.5780    -1.0130 C.3   1 <1>   0.2200 
  6 O       -1.2930     1.9200     0.8530 O.3   1 <1>  -0.5600 
  7 C       -3.8380    -2.0170    -0.2310 C.3   1 <1>  -0.0800 
  8 C       -1.5950    -2.6660    -0.6700 C.3   1 <1>   0.1200 
  9 C       -0.8080     3.0480     1.5080 C.3   1 <1>   0.0400 
 10 C       -3.2000    -2.6860     0.9850 C.3   1 <1>   0.1200 
 11 C       -4.7070    -2.9940    -1.0470 C.3   1 <1>  -0.0170 
 12 O       -1.9950    -3.2370     0.5430 O.3   1 <1>  -0.5600 
 13 C       -5.9850    -3.3630    -0.3010 C.ar  1 <1>  -0.1440 
 14 C       -7.0870    -2.4800    -0.2050 C.ar  1 <1>   0.0000 
 15 C       -6.0960    -4.5800     0.3040 C.ar  1 <1>  -0.1500 
 16 C       -8.2180    -2.9200     0.5250 C.ar  1 <1>   0.3100 
 17 C       -7.1350    -1.1920    -0.7880 C.ar  1 <1>  -0.1500 
 18 C       -7.2630    -4.9180     0.9980 C.ar  1 <1>   0.1600 
 19 N       -8.2900    -4.1380     1.1200 N.ar  1 <1>  -0.6200 
 20 C       -9.3250    -2.0650     0.6440 C.ar  1 <1>  -0.1500 
 21 C       -8.2310    -0.3840    -0.6540 C.ar  1 <1>  -0.1500 
 22 C       -9.3410    -0.8220     0.0710 C.ar  1 <1>  -0.1500 
 23 H       -1.6060    -0.2670     0.3600 H     1 <1>   0.3700 
 24 H       -2.8320     2.8400    -0.0940 H     1 <1>   0.0800 
 25 H       -1.3370     2.7220    -1.0090 H     1 <1>   0.0800 
 26 H       -2.7920    -1.5120    -2.0740 H     1 <1>   0.0800 
 27 H       -4.4330    -1.1730     0.0670 H     1 <1>   0.0800 
 28 H       -0.5960    -2.2780    -0.5720 H     1 <1>   0.0800 
 29 H       -1.6110    -3.4440    -1.4120 H     1 <1>   0.0800 
 30 H       -0.2900     2.7250     2.3940 H     1 <1>   0.0800 
 31 H       -1.6320     3.6840     1.7820 H     1 <1>   0.0800 
 32 H       -0.1240     3.5700     0.8600 H     1 <1>   0.0800 
 33 H       -3.8090    -3.4600     1.4170 H     1 <1>   0.0800 
 34 H       -2.9640    -1.9530     1.7380 H     1 <1>   0.0800 
 35 H       -4.1440    -3.8860    -1.2610 H     1 <1>   0.0800 
 36 H       -4.9660    -2.5540    -1.9940 H     1 <1>   0.0800 
 37 H       -5.3000    -5.3020     0.2680 H     1 <1>   0.1500 
 38 H       -6.2950    -0.8320    -1.3530 H     1 <1>   0.1500 
 39 H       -7.3080    -5.8890     1.4620 H     1 <1>   0.1500 
 40 H      -10.1670    -2.4240     1.2060 H     1 <1>   0.1500 
 41 H       -8.2520     0.5950    -1.1030 H     1 <1>   0.1500 
 42 H      -10.1970    -0.1770     0.1710 H     1 <1>   0.1500 
@<TRIPOS>BOND
  1   1   2  2   
  2   2   3  am  
  3   2   4  1   
  4   3   5  1   
  5   3  23  1   
  6   4   6  1   
  7   4  24  1   
  8   4  25  1   
  9   5   7  1   
 10   5   8  1   
 11   5  26  1   
 12   6   9  1   
 13   7  10  1   
 14   7  11  1   
 15   7  27  1   
 16   8  12  1   
 17   8  28  1   
 18   8  29  1   
 19   9  30  1   
 20   9  31  1   
 21   9  32  1   
 22  10  12  1   
 23  10  33  1   
 24  10  34  1   
 25  11  13  1   
 26  11  35  1   
 27  11  36  1   
 28  13  14  ar  
 29  13  15  ar  
 30  14  16  ar  
 31  14  17  ar  
 32  15  18  ar  
 33  15  37  1   
 34  16  19  ar  
 35  16  20  ar  
 36  17  21  ar  
 37  17  38  1   
 38  18  19  ar  
 39  18  39  1   
 40  20  22  ar  
 41  20  40  1   
 42  21  22  ar  
 43  21  41  1   
 44  22  42  1   
@<TRIPOS>SUBSTRUCTURE
  1 ****   7 GROUP 4 **** **** 0

# MOE 2024.06 (io_trps.svl 2023.06)
