@<TRIPOS>MOLECULE
NONAME
44 48 1 0 0 
SMALL
USER_CHARGES


@<TRIPOS>ATOM
  1 S        0.1630     0.6790    -1.6180 S.3   1 <1>  -0.0800 
  2 C        1.1200    -0.7220    -1.0790 C.2   1 <1>  -0.0450 
  3 C        1.0700     1.7940    -0.6040 C.2   1 <1>  -0.1100 
  4 C        2.0480    -0.2850    -0.1890 C.2   1 <1>   0.0620 
  5 C        0.8390    -2.0170    -1.6260 C.2   1 <1>   0.7150 
  6 C        2.0150     1.1230     0.0770 C.2   1 <1>   0.0620 
  7 O        2.9470    -1.0760     0.4350 O.3   1 <1>  -0.3420 
  8 O        1.7470    -2.6880    -2.0880 O.2   1 <1>  -0.5700 
  9 N       -0.4410    -2.5410    -1.6450 N.am  1 <1>  -0.6600 
 10 O        2.8850     1.6950     0.9530 O.3   1 <1>  -0.3420 
 11 C        4.0430    -0.4390     1.0610 C.3   1 <1>   0.1200 
 12 C       -0.7910    -3.7330    -2.4660 C.3   1 <1>   0.1400 
 13 C       -1.5120    -2.1220    -0.7020 C.3   1 <1>   0.1400 
 14 C        3.5680     0.8090     1.8230 C.3   1 <1>   0.1200 
 15 C       -1.0980    -4.9090    -1.5380 C.3   1 <1>  -0.1600 
 16 C       -1.8240    -3.2830     0.2430 C.3   1 <1>  -0.1600 
 17 C       -2.1940    -4.5600    -0.5250 C.3   1 <1>   0.4610 
 18 O       -3.3650    -4.3190    -1.2860 O.3   1 <1>  -0.5600 
 19 C       -2.4270    -5.7310     0.4330 C.2   1 <1>  -0.1810 
 20 C       -4.6150    -4.3810    -0.6400 C.3   1 <1>   0.1200 
 21 C       -3.6460    -6.2630     0.5890 C.2   1 <1>  -0.1400 
 22 C       -1.4290    -6.3720     1.2410 C.2   1 <1>  -0.1500 
 23 C       -4.8960    -5.7940    -0.1040 C.3   1 <1>   0.0200 
 24 S       -3.6370    -7.5970     1.7230 S.3   1 <1>  -0.0800 
 25 C       -1.9110    -7.3870     1.9860 C.2   1 <1>  -0.1100 
 26 H        0.8040     2.8340    -0.6230 H     1 <1>   0.1500 
 27 H        4.7520    -0.1670     0.2990 H     1 <1>   0.0800 
 28 H        4.4970    -1.1460     1.7310 H     1 <1>   0.0800 
 29 H        0.0160    -3.9920    -3.1300 H     1 <1>   0.0800 
 30 H       -1.6540    -3.5050    -3.0680 H     1 <1>   0.0800 
 31 H       -2.3910    -1.8530    -1.2640 H     1 <1>   0.0800 
 32 H       -1.2060    -1.2690    -0.1230 H     1 <1>   0.0800 
 33 H        2.8940     0.5300     2.6130 H     1 <1>   0.0800 
 34 H        4.4030     1.3390     2.2430 H     1 <1>   0.0800 
 35 H       -0.1930    -5.1760    -1.0230 H     1 <1>   0.0800 
 36 H       -1.4070    -5.7610    -2.1150 H     1 <1>   0.0800 
 37 H       -2.6160    -3.0120     0.9150 H     1 <1>   0.0800 
 38 H       -0.9540    -3.4750     0.8430 H     1 <1>   0.0800 
 39 H       -5.3690    -4.0980    -1.3530 H     1 <1>   0.0800 
 40 H       -4.6190    -3.6680     0.1660 H     1 <1>   0.0800 
 41 H       -0.4030    -6.0470     1.2260 H     1 <1>   0.1500 
 42 H       -5.1390    -6.4590    -0.9130 H     1 <1>   0.0800 
 43 H       -5.7210    -5.7660     0.5850 H     1 <1>   0.0800 
 44 H       -1.4340    -8.0550     2.6800 H     1 <1>   0.1500 
@<TRIPOS>BOND
  1   1   2  1   
  2   1   3  1   
  3   2   4  2   
  4   2   5  1   
  5   3   6  2   
  6   3  26  1   
  7   4   6  1   
  8   4   7  1   
  9   5   8  2   
 10   5   9  am  
 11   6  10  1   
 12   7  11  1   
 13   9  12  1   
 14   9  13  1   
 15  10  14  1   
 16  11  14  1   
 17  11  27  1   
 18  11  28  1   
 19  12  15  1   
 20  12  29  1   
 21  12  30  1   
 22  13  16  1   
 23  13  31  1   
 24  13  32  1   
 25  14  33  1   
 26  14  34  1   
 27  15  17  1   
 28  15  35  1   
 29  15  36  1   
 30  16  17  1   
 31  16  37  1   
 32  16  38  1   
 33  17  18  1   
 34  17  19  1   
 35  18  20  1   
 36  19  21  2   
 37  19  22  1   
 38  20  23  1   
 39  20  39  1   
 40  20  40  1   
 41  21  23  1   
 42  21  24  1   
 43  22  25  2   
 44  22  41  1   
 45  23  42  1   
 46  23  43  1   
 47  24  25  1   
 48  25  44  1   
@<TRIPOS>SUBSTRUCTURE
  1 ****  13 GROUP 4 **** **** 0

# MOE 2024.06 (io_trps.svl 2023.06)
