@<TRIPOS>MOLECULE
NONAME
54 57 1 0 0 
SMALL
USER_CHARGES


@<TRIPOS>ATOM
  1 O       -0.9050     0.7130     1.8200 O.2   1 <1>  -0.5700 
  2 C       -1.7370     1.1350     1.0490 C.2   1 <1>   0.5690 
  3 N       -2.8800     0.4110     0.7830 N.am  1 <1>  -0.6600 
  4 C       -1.4200     2.4980     0.4140 C.3   1 <1>  -0.0190 
  5 C       -3.0760    -0.9040     1.4760 C.3   1 <1>   0.1400 
  6 C       -3.9460     0.8030    -0.1920 C.3   1 <1>   0.1400 
  7 C       -2.4850     3.5870     0.6720 C.3   1 <1>  -0.1600 
  8 C       -1.0020     2.3920    -1.0740 C.3   1 <1>  -0.1600 
  9 C       -4.5630    -1.2330     1.6280 C.3   1 <1>  -0.1600 
 10 C       -4.6050    -0.4360    -0.7990 C.3   1 <1>  -0.1600 
 11 C       -2.0180     4.9790     0.2010 C.3   1 <1>   0.2000 
 12 C       -1.2900     3.6720    -1.8810 C.3   1 <1>  -0.1600 
 13 C       -5.3070    -1.2900     0.2760 C.3   1 <1>   0.1430 
 14 O       -3.1640     5.7230    -0.1340 O.3   1 <1>  -0.5600 
 15 C       -1.0640     4.9200    -1.0240 C.3   1 <1>   0.2000 
 16 C       -5.4590    -2.7060    -0.2560 C.ar  1 <1>  -0.1440 
 17 C       -6.7830    -0.8580     0.4530 C.3   1 <1>  -0.1600 
 18 C       -3.8050     6.3380     0.9400 C.3   1 <1>   0.0400 
 19 O       -1.2770     6.0260    -1.8210 O.3   1 <1>  -0.6800 
 20 C       -6.7440    -2.9440    -0.6840 C.ar  1 <1>  -0.1440 
 21 C       -4.5010    -3.7020    -0.3540 C.ar  1 <1>  -0.1500 
 22 C       -7.6200    -1.7340    -0.4920 C.3   1 <1>  -0.0170 
 23 C       -7.1070    -4.1690    -1.2130 C.ar  1 <1>  -0.1500 
 24 C       -4.8530    -4.9340    -0.8820 C.ar  1 <1>  -0.1500 
 25 C       -6.1510    -5.1670    -1.3100 C.ar  1 <1>  -0.1500 
 26 H       -0.5430     2.8480     0.9340 H     1 <1>   0.0800 
 27 H       -2.5810    -1.6710     0.9060 H     1 <1>   0.0800 
 28 H       -2.6230    -0.8750     2.4530 H     1 <1>   0.0800 
 29 H       -4.6890     1.3900     0.3200 H     1 <1>   0.0800 
 30 H       -3.5360     1.3980    -0.9860 H     1 <1>   0.0800 
 31 H       -2.7050     3.6220     1.7240 H     1 <1>   0.0800 
 32 H       -3.3880     3.3430     0.1470 H     1 <1>   0.0800 
 33 H        0.0550     2.1880    -1.1060 H     1 <1>   0.0800 
 34 H       -1.4840     1.5600    -1.5540 H     1 <1>   0.0800 
 35 H       -4.6760    -2.1700     2.1450 H     1 <1>   0.0800 
 36 H       -4.9920    -0.4710     2.2550 H     1 <1>   0.0800 
 37 H       -5.3080    -0.1430    -1.5580 H     1 <1>   0.0800 
 38 H       -3.8400    -1.0150    -1.2870 H     1 <1>   0.0800 
 39 H       -1.4940     5.4820     0.9970 H     1 <1>   0.0800 
 40 H       -2.3140     3.6610    -2.2140 H     1 <1>   0.0800 
 41 H       -0.6510     3.7010    -2.7470 H     1 <1>   0.0800 
 42 H       -0.0390     4.9420    -0.6980 H     1 <1>   0.0800 
 43 H       -7.1000    -1.0790     1.4580 H     1 <1>   0.0800 
 44 H       -6.9360     0.1900     0.2710 H     1 <1>   0.0800 
 45 H       -4.6560     6.8750     0.5590 H     1 <1>   0.0800 
 46 H       -3.1260     7.0280     1.4110 H     1 <1>   0.0800 
 47 H       -4.1350     5.5920     1.6410 H     1 <1>   0.0800 
 48 H       -2.2040     6.3050    -1.6420 H     1 <1>   0.4000 
 49 H       -3.4920    -3.5270    -0.0280 H     1 <1>   0.1500 
 50 H       -7.7690    -1.2450    -1.4380 H     1 <1>   0.0800 
 51 H       -8.5690    -1.9940    -0.0570 H     1 <1>   0.0800 
 52 H       -8.1150    -4.3440    -1.5440 H     1 <1>   0.1500 
 53 H       -4.1150    -5.7130    -0.9600 H     1 <1>   0.1500 
 54 H       -6.4180    -6.1260    -1.7180 H     1 <1>   0.1500 
@<TRIPOS>BOND
  1   1   2  2   
  2   2   3  am  
  3   2   4  1   
  4   3   5  1   
  5   3   6  1   
  6   4   7  1   
  7   4   8  1   
  8   4  26  1   
  9   5   9  1   
 10   5  27  1   
 11   5  28  1   
 12   6  10  1   
 13   6  29  1   
 14   6  30  1   
 15   7  11  1   
 16   7  31  1   
 17   7  32  1   
 18   8  12  1   
 19   8  33  1   
 20   8  34  1   
 21   9  13  1   
 22   9  35  1   
 23   9  36  1   
 24  10  13  1   
 25  10  37  1   
 26  10  38  1   
 27  11  14  1   
 28  11  15  1   
 29  11  39  1   
 30  12  15  1   
 31  12  40  1   
 32  12  41  1   
 33  13  16  1   
 34  13  17  1   
 35  14  18  1   
 36  15  19  1   
 37  15  42  1   
 38  16  20  ar  
 39  16  21  ar  
 40  17  22  1   
 41  17  43  1   
 42  17  44  1   
 43  18  45  1   
 44  18  46  1   
 45  18  47  1   
 46  19  48  1   
 47  20  22  1   
 48  20  23  ar  
 49  21  24  ar  
 50  21  49  1   
 51  22  50  1   
 52  22  51  1   
 53  23  25  ar  
 54  23  52  1   
 55  24  25  ar  
 56  24  53  1   
 57  25  54  1   
@<TRIPOS>SUBSTRUCTURE
  1 ****   6 GROUP 4 **** **** 0

# MOE 2024.06 (io_trps.svl 2023.06)
