@<TRIPOS>MOLECULE
NONAME
46 48 1 0 0 
SMALL
USER_CHARGES


@<TRIPOS>ATOM
  1 F       -1.5000     3.0740     3.0030 F     1 <1>  -0.3400 
  2 C       -0.7790     3.6340     2.0420 C.3   1 <1>   0.8800 
  3 F       -0.3030     2.6330     1.3130 F     1 <1>  -0.3400 
  4 O        0.3010     4.3090     2.6450 O.3   1 <1>  -0.3630 
  5 C        1.1060     5.1400     1.9450 C.ar  1 <1>   0.0830 
  6 C        1.0360     5.3280     0.5670 C.ar  1 <1>  -0.1500 
  7 C        2.0590     5.8390     2.6680 C.ar  1 <1>  -0.1500 
  8 C        1.9040     6.2070    -0.0570 C.ar  1 <1>  -0.1500 
  9 C        2.9230     6.7130     2.0360 C.ar  1 <1>  -0.1500 
 10 C        2.8660     6.9260     0.6570 C.ar  1 <1>   0.0860 
 11 C        3.7750     7.8500     0.0000 C.2   1 <1>   0.5440 
 12 O        4.8550     8.1450     0.4890 O.2   1 <1>  -0.5700 
 13 N        3.4400     8.5040    -1.1650 N.am  1 <1>  -0.6600 
 14 C        4.4630     8.7040    -2.2470 C.3   1 <1>   0.1400 
 15 C        2.2790     9.4360    -1.1880 C.3   1 <1>   0.1400 
 16 C        5.1830    10.0680    -2.1590 C.3   1 <1>   0.3430 
 17 C        2.5620    10.6690    -0.3100 C.3   1 <1>  -0.1600 
 18 N        4.9930    10.6570    -0.8060 N.4   1 <1>  -0.9590 
 19 C        3.7810    11.5140    -0.7030 C.3   1 <1>   0.3430 
 20 C        6.2020    11.2710    -0.2000 C.3   1 <1>   0.5230 
 21 C        5.9620    11.4110     1.2910 C.2   1 <1>   0.0060 
 22 N        5.7250    12.5430     1.8690 N.2   1 <1>  -0.5650 
 23 N        5.9400    10.3530     2.1370 N.pl3 1 <1>   0.0330 
 24 C        5.5530    12.2140     3.1640 C.2   1 <1>   0.0770 
 25 C        5.6760    10.8810     3.3440 C.2   1 <1>  -0.3020 
 26 H       -1.4000     4.2760     1.4430 H     1 <1>   0.0800 
 27 H        0.3260     4.7950    -0.0380 H     1 <1>   0.1500 
 28 H        2.1200     5.6880     3.7320 H     1 <1>   0.1500 
 29 H        1.8410     6.3300    -1.1240 H     1 <1>   0.1500 
 30 H        3.6570     7.2390     2.6220 H     1 <1>   0.1500 
 31 H        3.9980     8.6000    -3.2130 H     1 <1>   0.0800 
 32 H        5.2030     7.9240    -2.1700 H     1 <1>   0.0800 
 33 H        1.4060     8.9270    -0.8140 H     1 <1>   0.0800 
 34 H        2.0710     9.7380    -2.2010 H     1 <1>   0.0800 
 35 H        4.7940    10.7360    -2.9100 H     1 <1>   0.0800 
 36 H        6.2310     9.9180    -2.3620 H     1 <1>   0.0800 
 37 H        2.6660    10.3620     0.7160 H     1 <1>   0.0800 
 38 H        1.6970    11.3080    -0.3450 H     1 <1>   0.0800 
 39 H        4.7890     9.8280    -0.2120 H     1 <1>   0.4500 
 40 H        3.9280    12.2710     0.0520 H     1 <1>   0.0800 
 41 H        3.6020    12.0130    -1.6410 H     1 <1>   0.0800 
 42 H        6.3850    12.2430    -0.6270 H     1 <1>   0.0800 
 43 H        7.0650    10.6470    -0.3640 H     1 <1>   0.0800 
 44 H        6.0520     9.3550     1.9060 H     1 <1>   0.2700 
 45 H        5.3450    12.9640     3.9120 H     1 <1>   0.1500 
 46 H        5.5930    10.2980     4.2440 H     1 <1>   0.1500 
@<TRIPOS>BOND
  1   1   2  1   
  2   2   3  1   
  3   2   4  1   
  4   2  26  1   
  5   4   5  1   
  6   5   6  ar  
  7   5   7  ar  
  8   6   8  ar  
  9   6  27  1   
 10   7   9  ar  
 11   7  28  1   
 12   8  10  ar  
 13   8  29  1   
 14   9  10  ar  
 15   9  30  1   
 16  10  11  1   
 17  11  12  2   
 18  11  13  am  
 19  13  14  1   
 20  13  15  1   
 21  14  16  1   
 22  14  31  1   
 23  14  32  1   
 24  15  17  1   
 25  15  33  1   
 26  15  34  1   
 27  16  18  1   
 28  16  35  1   
 29  16  36  1   
 30  17  19  1   
 31  17  37  1   
 32  17  38  1   
 33  18  19  1   
 34  18  20  1   
 35  18  39  1   
 36  19  40  1   
 37  19  41  1   
 38  20  21  1   
 39  20  42  1   
 40  20  43  1   
 41  21  22  2   
 42  21  23  1   
 43  22  24  1   
 44  23  25  1   
 45  23  44  1   
 46  24  25  2   
 47  24  45  1   
 48  25  46  1   
@<TRIPOS>SUBSTRUCTURE
  1 ****  11 GROUP 4 **** **** 0

# MOE 2024.06 (io_trps.svl 2023.06)
