@<TRIPOS>MOLECULE
NONAME
50 53 1 0 0 
SMALL
USER_CHARGES


@<TRIPOS>ATOM
  1 F       -3.1210     1.9070    -2.2780 F     1 <1>  -0.1900 
  2 C       -2.4240     2.6020    -1.4210 C.ar  1 <1>   0.1900 
  3 C       -2.4830     2.2730    -0.0660 C.ar  1 <1>   0.0860 
  4 C       -1.6570     3.6380    -1.9150 C.ar  1 <1>  -0.1500 
  5 C       -3.2870     1.1880     0.4470 C.2   1 <1>   0.5440 
  6 C       -1.6970     3.0440     0.7960 C.ar  1 <1>  -0.1500 
  7 C       -0.9000     4.3830    -1.0290 C.ar  1 <1>   0.0830 
  8 O       -2.7240     0.2710     1.0160 O.2   1 <1>  -0.5700 
  9 N       -4.6650     1.1710     0.3660 N.am  1 <1>  -0.6600 
 10 C       -0.9170     4.0860     0.3270 C.ar  1 <1>  -0.1500 
 11 O       -0.1470     5.3850    -1.4950 O.3   1 <1>  -0.5330 
 12 C       -5.4960     2.2950    -0.1670 C.3   1 <1>   0.1400 
 13 C       -5.4400    -0.0110     0.8600 C.3   1 <1>   0.1400 
 14 C       -6.4560     2.8400     0.9140 C.3   1 <1>   0.1440 
 15 C       -6.9150     0.3330     1.1330 C.3   1 <1>  -0.1600 
 16 C       -7.5320     3.6390     0.1990 C.ar  1 <1>   0.1670 
 17 C       -7.0430     1.7100     1.8020 C.3   1 <1>  -0.1600 
 18 C       -5.7650     3.9290     1.7770 C.3   1 <1>  -0.1600 
 19 N       -8.5340     3.1310    -0.4750 N.ar  1 <1>  -0.6200 
 20 C       -7.3260     4.9800     0.3220 C.ar  1 <1>  -0.1430 
 21 C       -6.0920     5.2870     1.1320 C.3   1 <1>  -0.0170 
 22 C       -9.3590     4.0220    -1.0310 C.ar  1 <1>   0.7200 
 23 C       -8.2240     5.8210    -0.2840 C.ar  1 <1>   0.1600 
 24 N       -9.2450     5.3530    -0.9620 N.ar  1 <1>  -0.6200 
 25 N      -10.4290     3.5210    -1.7470 N.pl3 1 <1>  -0.8380 
 26 C      -10.5200     2.0860    -2.1330 C.3   1 <1>   0.1290 
 27 C      -11.5670     4.3800    -2.1720 C.3   1 <1>   0.1290 
 28 H       -1.6420     3.8610    -2.9660 H     1 <1>   0.1500 
 29 H       -1.7020     2.8050     1.8460 H     1 <1>   0.1500 
 30 H       -0.3220     4.6600     1.0150 H     1 <1>   0.1500 
 31 H        0.4010     5.8240    -0.8200 H     1 <1>   0.4500 
 32 H       -6.0720     1.9180    -0.9960 H     1 <1>   0.0800 
 33 H       -4.8870     3.0960    -0.5430 H     1 <1>   0.0800 
 34 H       -4.9910    -0.3600     1.7750 H     1 <1>   0.0800 
 35 H       -5.3740    -0.8050     0.1360 H     1 <1>   0.0800 
 36 H       -7.3430    -0.4250     1.7650 H     1 <1>   0.0800 
 37 H       -7.4650     0.3270     0.2070 H     1 <1>   0.0800 
 38 H       -8.0750     1.9160     2.0280 H     1 <1>   0.0800 
 39 H       -6.5080     1.6650     2.7340 H     1 <1>   0.0800 
 40 H       -4.7060     3.7670     1.8670 H     1 <1>   0.0800 
 41 H       -6.1930     3.9280     2.7650 H     1 <1>   0.0800 
 42 H       -5.2970     5.6010     0.4780 H     1 <1>   0.0800 
 43 H       -6.2790     6.0440     1.8740 H     1 <1>   0.0800 
 44 H       -8.1050     6.8880    -0.2140 H     1 <1>   0.1500 
 45 H       -9.5370     1.6700    -2.2740 H     1 <1>   0.0800 
 46 H      -11.0650     1.9830    -3.0550 H     1 <1>   0.0800 
 47 H      -11.0240     1.5370    -1.3570 H     1 <1>   0.0800 
 48 H      -11.7090     5.1900    -1.4770 H     1 <1>   0.0800 
 49 H      -12.4750     3.8040    -2.2070 H     1 <1>   0.0800 
 50 H      -11.3640     4.7880    -3.1470 H     1 <1>   0.0800 
@<TRIPOS>BOND
  1   1   2  1   
  2   2   3  ar  
  3   2   4  ar  
  4   3   5  1   
  5   3   6  ar  
  6   4   7  ar  
  7   4  28  1   
  8   5   8  2   
  9   5   9  am  
 10   6  10  ar  
 11   6  29  1   
 12   7  10  ar  
 13   7  11  1   
 14   9  12  1   
 15   9  13  1   
 16  10  30  1   
 17  11  31  1   
 18  12  14  1   
 19  12  32  1   
 20  12  33  1   
 21  13  15  1   
 22  13  34  1   
 23  13  35  1   
 24  14  16  1   
 25  14  17  1   
 26  14  18  1   
 27  15  17  1   
 28  15  36  1   
 29  15  37  1   
 30  16  19  ar  
 31  16  20  ar  
 32  17  38  1   
 33  17  39  1   
 34  18  21  1   
 35  18  40  1   
 36  18  41  1   
 37  19  22  ar  
 38  20  21  1   
 39  20  23  ar  
 40  21  42  1   
 41  21  43  1   
 42  22  24  ar  
 43  22  25  1   
 44  23  24  ar  
 45  23  44  1   
 46  25  26  1   
 47  25  27  1   
 48  26  45  1   
 49  26  46  1   
 50  26  47  1   
 51  27  48  1   
 52  27  49  1   
 53  27  50  1   
@<TRIPOS>SUBSTRUCTURE
  1 ****  12 GROUP 4 **** **** 0

# MOE 2024.06 (io_trps.svl 2023.06)
