@<TRIPOS>MOLECULE
NONAME
62 64 1 0 0 
SMALL
USER_CHARGES


@<TRIPOS>ATOM
  1 O       -3.3870     1.1410    -2.0280 O.2   1 <1>  -0.5700 
  2 C       -3.0130     0.6000    -1.0130 C.2   1 <1>   0.5690 
  3 N       -3.5140    -0.6360    -0.6630 N.am  1 <1>  -0.6600 
  4 C       -2.0220     1.3890    -0.1430 C.3   1 <1>  -0.0190 
  5 C       -3.0150    -1.4970     0.4750 C.3   1 <1>   0.3640 
  6 C       -4.8430    -1.0140    -1.2540 C.3   1 <1>   0.1400 
  7 C       -2.5750     2.7760     0.2370 C.3   1 <1>  -0.1600 
  8 C       -0.6630     1.5660    -0.8470 C.3   1 <1>  -0.1600 
  9 C       -1.4900    -1.6320     0.4470 C.ar  1 <1>  -0.1430 
 10 C       -3.5980    -2.9360     0.4870 C.3   1 <1>   0.2000 
 11 C       -5.1790    -2.5050    -1.1550 C.3   1 <1>   0.1200 
 12 C       -1.5830     3.5540     1.1070 C.3   1 <1>   0.1400 
 13 C        0.3220     2.3320     0.0350 C.3   1 <1>   0.1400 
 14 C       -0.8340    -1.9920    -0.7220 C.ar  1 <1>  -0.1500 
 15 C       -0.7450    -1.4080     1.5980 C.ar  1 <1>  -0.1500 
 16 O       -4.9590    -2.9560     0.1430 O.3   1 <1>  -0.5600 
 17 C       -3.4320    -3.6060     1.8600 C.3   1 <1>   0.1200 
 18 N       -0.2650     3.6490     0.4160 N.am  1 <1>  -0.6600 
 19 C        0.5440    -2.1210    -0.7520 C.ar  1 <1>   0.0830 
 20 C        0.6350    -1.5170     1.5730 C.ar  1 <1>  -0.1500 
 21 O       -4.1360    -4.7980     1.8790 O.3   1 <1>  -0.6800 
 22 C        0.3110     4.8730     0.1710 C.2   1 <1>   0.5690 
 23 O        1.1080    -2.5080    -1.9200 O.3   1 <1>  -0.3630 
 24 C        1.2910    -1.8520     0.4010 C.ar  1 <1>   0.0830 
 25 O       -0.1860     5.8990     0.5760 O.2   1 <1>  -0.5700 
 26 C        1.6130     4.9650    -0.6250 C.3   1 <1>  -0.0990 
 27 C        1.6940    -3.7920    -1.9300 C.3   1 <1>   0.0400 
 28 O        2.6450    -1.8980     0.4400 O.3   1 <1>  -0.3630 
 29 C        2.1120     6.3960    -0.8980 C.3   1 <1>  -0.2400 
 30 C        3.3430    -1.0150    -0.4110 C.3   1 <1>   0.0400 
 31 H       -1.8630     0.8760     0.7800 H     1 <1>   0.0800 
 32 H       -3.3100    -1.0170     1.3910 H     1 <1>   0.0800 
 33 H       -5.6120    -0.4560    -0.7480 H     1 <1>   0.0800 
 34 H       -4.8740    -0.7320    -2.2920 H     1 <1>   0.0800 
 35 H       -3.5020     2.6640     0.7690 H     1 <1>   0.0800 
 36 H       -2.7770     3.3480    -0.6520 H     1 <1>   0.0800 
 37 H       -0.7990     2.1000    -1.7720 H     1 <1>   0.0800 
 38 H       -0.2450     0.6080    -1.0880 H     1 <1>   0.0800 
 39 H       -3.0710    -3.5360    -0.2350 H     1 <1>   0.0800 
 40 H       -4.5790    -3.0810    -1.8390 H     1 <1>   0.0800 
 41 H       -6.2170    -2.6650    -1.3900 H     1 <1>   0.0800 
 42 H       -1.4460     3.0550     2.0510 H     1 <1>   0.0800 
 43 H       -1.9820     4.5350     1.3070 H     1 <1>   0.0800 
 44 H        1.2510     2.4500    -0.4920 H     1 <1>   0.0800 
 45 H        0.5220     1.7680     0.9310 H     1 <1>   0.0800 
 46 H       -1.3880    -2.1740    -1.6270 H     1 <1>   0.1500 
 47 H       -1.2280    -1.1430     2.5230 H     1 <1>   0.1500 
 48 H       -3.8270    -2.9760     2.6380 H     1 <1>   0.0800 
 49 H       -2.3980    -3.8220     2.0680 H     1 <1>   0.0800 
 50 H        1.2140    -1.3380     2.4610 H     1 <1>   0.1500 
 51 H       -4.9870    -4.6480     1.4100 H     1 <1>   0.4000 
 52 H        2.3750     4.4360    -0.0840 H     1 <1>   0.0800 
 53 H        1.4620     4.4750    -1.5690 H     1 <1>   0.0800 
 54 H        2.0470    -3.9930    -2.9250 H     1 <1>   0.0800 
 55 H        0.9500    -4.5150    -1.6480 H     1 <1>   0.0800 
 56 H        2.5160    -3.8140    -1.2370 H     1 <1>   0.0800 
 57 H        2.2930     6.9090     0.0310 H     1 <1>   0.0800 
 58 H        1.3710     6.9470    -1.4510 H     1 <1>   0.0800 
 59 H        3.0250     6.3740    -1.4660 H     1 <1>   0.0800 
 60 H        4.3820    -1.0360    -0.1370 H     1 <1>   0.0800 
 61 H        2.9480    -0.0230    -0.2830 H     1 <1>   0.0800 
 62 H        3.2300    -1.3350    -1.4300 H     1 <1>   0.0800 
@<TRIPOS>BOND
  1   1   2  2   
  2   2   3  am  
  3   2   4  1   
  4   3   5  1   
  5   3   6  1   
  6   4   7  1   
  7   4   8  1   
  8   4  31  1   
  9   5   9  1   
 10   5  10  1   
 11   5  32  1   
 12   6  11  1   
 13   6  33  1   
 14   6  34  1   
 15   7  12  1   
 16   7  35  1   
 17   7  36  1   
 18   8  13  1   
 19   8  37  1   
 20   8  38  1   
 21   9  14  ar  
 22   9  15  ar  
 23  10  16  1   
 24  10  17  1   
 25  10  39  1   
 26  11  16  1   
 27  11  40  1   
 28  11  41  1   
 29  12  18  1   
 30  12  42  1   
 31  12  43  1   
 32  13  18  1   
 33  13  44  1   
 34  13  45  1   
 35  14  19  ar  
 36  14  46  1   
 37  15  20  ar  
 38  15  47  1   
 39  17  21  1   
 40  17  48  1   
 41  17  49  1   
 42  18  22  am  
 43  19  23  1   
 44  19  24  ar  
 45  20  24  ar  
 46  20  50  1   
 47  21  51  1   
 48  22  25  2   
 49  22  26  1   
 50  23  27  1   
 51  24  28  1   
 52  26  29  1   
 53  26  52  1   
 54  26  53  1   
 55  27  54  1   
 56  27  55  1   
 57  27  56  1   
 58  28  30  1   
 59  29  57  1   
 60  29  58  1   
 61  29  59  1   
 62  30  60  1   
 63  30  61  1   
 64  30  62  1   
@<TRIPOS>SUBSTRUCTURE
  1 ****   4 GROUP 4 **** **** 0

# MOE 2024.06 (io_trps.svl 2023.06)
