@<TRIPOS>MOLECULE
NONAME
59 62 1 0 0 
SMALL
USER_CHARGES


@<TRIPOS>ATOM
  1 O       -0.0780    -1.4900    -2.0090 O.2   1 <1>  -0.5700 
  2 C       -0.3800    -1.9760    -0.9360 C.2   1 <1>   0.5440 
  3 N        0.5280    -1.9290     0.1010 N.am  1 <1>  -0.6600 
  4 C       -1.6800    -2.5980    -0.7830 C.ar  1 <1>   0.0860 
  5 C        1.7990    -1.1460     0.0120 C.3   1 <1>   0.1400 
  6 C        0.4790    -2.8270     1.2950 C.3   1 <1>   0.1400 
  7 C       -2.5500    -2.2340     0.2450 C.ar  1 <1>  -0.1500 
  8 C       -2.1090    -3.5910    -1.6610 C.ar  1 <1>  -0.1500 
  9 C        3.0160    -2.0650     0.1990 C.3   1 <1>   0.1200 
 10 C        1.7750    -3.6470     1.4090 C.3   1 <1>   0.1200 
 11 C       -3.7810    -2.8440     0.3950 C.ar  1 <1>  -0.1500 
 12 C       -3.3400    -4.2020    -1.5100 C.ar  1 <1>  -0.1500 
 13 O        2.8950    -2.8100     1.3800 O.3   1 <1>  -0.5600 
 14 C       -4.2080    -3.8410    -0.4820 C.ar  1 <1>   0.0860 
 15 C       -5.4990    -4.4840    -0.3320 C.2   1 <1>   0.5440 
 16 O       -5.5590    -5.6990    -0.2940 O.2   1 <1>  -0.5700 
 17 N       -6.6640    -3.7540    -0.2390 N.am  1 <1>  -0.6600 
 18 C       -7.9370    -4.4140     0.1750 C.3   1 <1>   0.1400 
 19 C       -6.7520    -2.3300    -0.6780 C.3   1 <1>   0.1400 
 20 C       -8.8750    -3.4020     0.8380 C.3   1 <1>  -0.1600 
 21 C       -8.1610    -2.0250    -1.1840 C.3   1 <1>  -0.1600 
 22 C       -9.2020    -2.1780    -0.0550 C.3   1 <1>   0.2800 
 23 O       -9.0850    -1.0650     0.7990 O.3   1 <1>  -0.5600 
 24 C      -10.6380    -2.2660    -0.6330 C.3   1 <1>  -0.1600 
 25 C       -9.7330     0.1220     0.4350 C.3   1 <1>   0.1200 
 26 C      -11.6700    -1.5380     0.2330 C.3   1 <1>   0.2800 
 27 C      -11.2570    -0.0720     0.3980 C.3   1 <1>  -0.1600 
 28 O      -11.6520    -2.1020     1.4810 O.3   1 <1>  -0.6800 
 29 C      -13.0930    -1.6860    -0.2960 C.3   1 <1>  -0.2400 
 30 H        1.8040    -0.3930     0.7810 H     1 <1>   0.0800 
 31 H        1.8750    -0.6450    -0.9370 H     1 <1>   0.0800 
 32 H       -0.3530    -3.5050     1.2330 H     1 <1>   0.0800 
 33 H        0.3610    -2.2300     2.1830 H     1 <1>   0.0800 
 34 H       -2.2470    -1.4610     0.9300 H     1 <1>   0.1500 
 35 H       -1.4600    -3.8810    -2.4700 H     1 <1>   0.1500 
 36 H        3.9150    -1.4800     0.2690 H     1 <1>   0.0800 
 37 H        3.1070    -2.7430    -0.6320 H     1 <1>   0.0800 
 38 H        1.8500    -4.3510     0.5980 H     1 <1>   0.0800 
 39 H        1.7930    -4.1870     2.3380 H     1 <1>   0.0800 
 40 H       -4.4290    -2.5530     1.2030 H     1 <1>   0.1500 
 41 H       -3.6450    -4.9760    -2.1950 H     1 <1>   0.1500 
 42 H       -7.7210    -5.2120     0.8670 H     1 <1>   0.0800 
 43 H       -8.4070    -4.8450    -0.6930 H     1 <1>   0.0800 
 44 H       -6.0410    -2.1460    -1.4650 H     1 <1>   0.0800 
 45 H       -6.5220    -1.6850     0.1540 H     1 <1>   0.0800 
 46 H       -8.3990    -3.0760     1.7470 H     1 <1>   0.0800 
 47 H       -9.7730    -3.9170     1.1230 H     1 <1>   0.0800 
 48 H       -8.3830    -2.7100    -1.9840 H     1 <1>   0.0800 
 49 H       -8.1900    -1.0370    -1.6010 H     1 <1>   0.0800 
 50 H      -10.9270    -3.2920    -0.7770 H     1 <1>   0.0800 
 51 H      -10.6530    -1.8140    -1.6080 H     1 <1>   0.0800 
 52 H       -9.3670     0.4340    -0.5270 H     1 <1>   0.0800 
 53 H       -9.4700     0.8750     1.1580 H     1 <1>   0.0800 
 54 H      -11.6330     0.5010    -0.4290 H     1 <1>   0.0800 
 55 H      -11.7060     0.3390     1.2860 H     1 <1>   0.0800 
 56 H      -10.7580    -1.9360     1.8490 H     1 <1>   0.4000 
 57 H      -13.1720    -1.2680    -1.2820 H     1 <1>   0.0800 
 58 H      -13.7840    -1.1730     0.3490 H     1 <1>   0.0800 
 59 H      -13.3650    -2.7260    -0.3440 H     1 <1>   0.0800 
@<TRIPOS>BOND
  1   1   2  2   
  2   2   3  am  
  3   2   4  1   
  4   3   5  1   
  5   3   6  1   
  6   4   7  ar  
  7   4   8  ar  
  8   5   9  1   
  9   5  30  1   
 10   5  31  1   
 11   6  10  1   
 12   6  32  1   
 13   6  33  1   
 14   7  11  ar  
 15   7  34  1   
 16   8  12  ar  
 17   8  35  1   
 18   9  13  1   
 19   9  36  1   
 20   9  37  1   
 21  10  13  1   
 22  10  38  1   
 23  10  39  1   
 24  11  14  ar  
 25  11  40  1   
 26  12  14  ar  
 27  12  41  1   
 28  14  15  1   
 29  15  16  2   
 30  15  17  am  
 31  17  18  1   
 32  17  19  1   
 33  18  20  1   
 34  18  42  1   
 35  18  43  1   
 36  19  21  1   
 37  19  44  1   
 38  19  45  1   
 39  20  22  1   
 40  20  46  1   
 41  20  47  1   
 42  21  22  1   
 43  21  48  1   
 44  21  49  1   
 45  22  23  1   
 46  22  24  1   
 47  23  25  1   
 48  24  26  1   
 49  24  50  1   
 50  24  51  1   
 51  25  27  1   
 52  25  52  1   
 53  25  53  1   
 54  26  27  1   
 55  26  28  1   
 56  26  29  1   
 57  27  54  1   
 58  27  55  1   
 59  28  56  1   
 60  29  57  1   
 61  29  58  1   
 62  29  59  1   
@<TRIPOS>SUBSTRUCTURE
  1 ****  11 GROUP 4 **** **** 0

# MOE 2024.06 (io_trps.svl 2023.06)
