@<TRIPOS>MOLECULE
NONAME
61 64 1 0 0 
SMALL
USER_CHARGES


@<TRIPOS>ATOM
  1 O       -3.2000     1.0210    -1.7500 O.co2 1 <1>  -0.9000 
  2 C       -1.9950     1.1140    -1.4690 C.2   1 <1>   0.9060 
  3 O       -1.2170     0.2380    -1.8530 O.co2 1 <1>  -0.9000 
  4 C       -1.5540     1.9620    -0.2470 C.3   1 <1>   0.4600 
  5 N       -2.0860     1.4250     1.0900 N.4   1 <1>  -0.9590 
  6 C       -1.8350     3.4650    -0.2900 C.ar  1 <1>  -0.1430 
  7 C       -1.5440     0.0310     1.3720 C.3   1 <1>   0.3430 
  8 C       -3.5830     1.6030     1.1720 C.3   1 <1>   0.3430 
  9 C       -3.0050     3.9960    -0.8170 C.ar  1 <1>  -0.1500 
 10 C       -0.8920     4.3350     0.2380 C.ar  1 <1>  -0.1500 
 11 C       -2.1020    -1.1760     0.5510 C.3   1 <1>   0.3430 
 12 C       -4.3080     0.4580     1.8880 C.3   1 <1>  -0.1600 
 13 C       -3.2500     5.3570    -0.7970 C.ar  1 <1>   0.0830 
 14 C       -1.1220     5.7000     0.2620 C.ar  1 <1>  -0.1500 
 15 N       -3.4980    -1.0320     0.0080 N.4   1 <1>  -0.9590 
 16 C       -4.5900    -0.7540     0.9910 C.3   1 <1>   0.3430 
 17 O       -4.4430     5.7410    -1.3240 O.3   1 <1>  -0.3620 
 18 C       -2.3060     6.2320    -0.2420 C.ar  1 <1>   0.0830 
 19 C       -3.7940    -2.1180    -0.9910 C.3   1 <1>   0.4230 
 20 C       -4.4970     6.8540    -2.1900 C.3   1 <1>   0.0400 
 21 O       -2.5730     7.5690    -0.1910 O.3   1 <1>  -0.3630 
 22 C       -5.0520    -1.7670    -1.8110 C.3   1 <1>  -0.0170 
 23 C       -4.1340    -3.4570    -0.3010 C.3   1 <1>  -0.0170 
 24 C       -1.6800     8.4950     0.3870 C.3   1 <1>   0.0400 
 25 C       -6.1570    -2.4720    -1.0590 C.ar  1 <1>  -0.1430 
 26 C       -5.6410    -3.4210    -0.2100 C.ar  1 <1>  -0.1430 
 27 C       -7.5190    -2.2540    -1.1350 C.ar  1 <1>  -0.1500 
 28 C       -6.4730    -4.1820     0.5900 C.ar  1 <1>  -0.1500 
 29 C       -8.3610    -3.0090    -0.3340 C.ar  1 <1>  -0.1500 
 30 C       -7.8400    -3.9680     0.5240 C.ar  1 <1>  -0.1500 
 31 H       -0.4830     1.8600    -0.2360 H     1 <1>   0.0800 
 32 H       -1.6910     2.0720     1.7840 H     1 <1>   0.4500 
 33 H       -1.7170    -0.1900     2.4110 H     1 <1>   0.0800 
 34 H       -0.4740     0.0400     1.2440 H     1 <1>   0.0800 
 35 H       -4.0030     1.7080     0.1850 H     1 <1>   0.0800 
 36 H       -3.7890     2.5270     1.6900 H     1 <1>   0.0800 
 37 H       -3.7570     3.3670    -1.2630 H     1 <1>   0.1500 
 38 H        0.0380     3.9640     0.6370 H     1 <1>   0.1500 
 39 H       -2.0430    -2.0600     1.1610 H     1 <1>   0.0800 
 40 H       -1.4340    -1.3340    -0.2810 H     1 <1>   0.0800 
 41 H       -5.2670     0.8300     2.2010 H     1 <1>   0.0800 
 42 H       -3.7990     0.1690     2.7880 H     1 <1>   0.0800 
 43 H       -0.3630     6.3330     0.6810 H     1 <1>   0.1500 
 44 H       -3.4640    -0.2080    -0.6430 H     1 <1>   0.4500 
 45 H       -5.4980    -0.5590     0.4420 H     1 <1>   0.0800 
 46 H       -4.7700    -1.6240     1.6020 H     1 <1>   0.0800 
 47 H       -2.9510    -2.2250    -1.6550 H     1 <1>   0.0800 
 48 H       -5.3630     6.7490    -2.8180 H     1 <1>   0.0800 
 49 H       -3.6050     6.8770    -2.7920 H     1 <1>   0.0800 
 50 H       -4.5820     7.7490    -1.6010 H     1 <1>   0.0800 
 51 H       -4.9720    -2.1930    -2.7950 H     1 <1>   0.0800 
 52 H       -5.2120    -0.7070    -1.9010 H     1 <1>   0.0800 
 53 H       -3.6670    -3.5720     0.6590 H     1 <1>   0.0800 
 54 H       -3.8490    -4.2750    -0.9390 H     1 <1>   0.0800 
 55 H       -2.1210     9.4720     0.3160 H     1 <1>   0.0800 
 56 H       -0.7530     8.4740    -0.1570 H     1 <1>   0.0800 
 57 H       -1.5290     8.2380     1.4210 H     1 <1>   0.0800 
 58 H       -7.9220    -1.5130    -1.8040 H     1 <1>   0.1500 
 59 H       -6.0740    -4.9320     1.2520 H     1 <1>   0.1500 
 60 H       -9.4250    -2.8540    -0.3800 H     1 <1>   0.1500 
 61 H       -8.5050    -4.5510     1.1380 H     1 <1>   0.1500 
@<TRIPOS>BOND
  1   1   2  ar  
  2   2   3  ar  
  3   2   4  1   
  4   4   5  1   
  5   4   6  1   
  6   4  31  1   
  7   5   7  1   
  8   5   8  1   
  9   5  32  1   
 10   6   9  ar  
 11   6  10  ar  
 12   7  11  1   
 13   7  33  1   
 14   7  34  1   
 15   8  12  1   
 16   8  35  1   
 17   8  36  1   
 18   9  13  ar  
 19   9  37  1   
 20  10  14  ar  
 21  10  38  1   
 22  11  15  1   
 23  11  39  1   
 24  11  40  1   
 25  12  16  1   
 26  12  41  1   
 27  12  42  1   
 28  13  17  1   
 29  13  18  ar  
 30  14  18  ar  
 31  14  43  1   
 32  15  16  1   
 33  15  19  1   
 34  15  44  1   
 35  16  45  1   
 36  16  46  1   
 37  17  20  1   
 38  18  21  1   
 39  19  22  1   
 40  19  23  1   
 41  19  47  1   
 42  20  48  1   
 43  20  49  1   
 44  20  50  1   
 45  21  24  1   
 46  22  25  1   
 47  22  51  1   
 48  22  52  1   
 49  23  26  1   
 50  23  53  1   
 51  23  54  1   
 52  24  55  1   
 53  24  56  1   
 54  24  57  1   
 55  25  26  ar  
 56  25  27  ar  
 57  26  28  ar  
 58  27  29  ar  
 59  27  58  1   
 60  28  30  ar  
 61  28  59  1   
 62  29  30  ar  
 63  29  60  1   
 64  30  61  1   
@<TRIPOS>SUBSTRUCTURE
  1 ****   8 GROUP 4 **** **** 0

# MOE 2024.06 (io_trps.svl 2023.06)
