@<TRIPOS>MOLECULE
NONAME
39 41 1 0 0 
SMALL
USER_CHARGES


@<TRIPOS>ATOM
  1 O        0.3180     0.5620     0.7630 O.3   1 <1>  -0.0190 
  2 N        1.1620    -0.4230     0.6570 N.2   1 <1>  -0.4100 
  3 C        0.7530     1.6460     0.1780 C.2   1 <1>  -0.0400 
  4 C        2.1590     0.0340    -0.0100 C.2   1 <1>   0.1080 
  5 C        1.9560     1.3670    -0.3520 C.2   1 <1>  -0.1500 
  6 C       -0.1190     2.8910     0.2100 C.3   1 <1>   0.0200 
  7 C        3.3840    -0.7770    -0.3710 C.3   1 <1>  -0.0590 
  8 C        0.5790     4.1340    -0.3740 C.3   1 <1>  -0.0800 
  9 C       -0.3120     5.3730    -0.5040 C.3   1 <1>   0.2000 
 10 C        1.7770     4.6190     0.4520 C.3   1 <1>   0.2090 
 11 O       -1.0330     5.5430     0.6700 O.3   1 <1>  -0.6800 
 12 C        0.6920     6.5190    -0.6130 C.3   1 <1>   0.2090 
 13 N        1.8270     6.0890     0.2440 N.pl3 1 <1>  -0.8380 
 14 C        2.9990     6.8060     0.3210 C.ar  1 <1>   0.7200 
 15 N        2.9970     8.0210    -0.2250 N.ar  1 <1>  -0.6200 
 16 N        4.0220     6.2190     0.9380 N.ar  1 <1>  -0.6200 
 17 C        4.1180     8.6990    -0.1320 C.ar  1 <1>   0.1600 
 18 C        5.1290     6.9230     1.0150 C.ar  1 <1>   0.1600 
 19 C        5.2430     8.1920     0.4910 C.ar  1 <1>   0.0820 
 20 O        6.4340     8.8470     0.6200 O.3   1 <1>  -0.3620 
 21 C        6.5860    10.1570     0.1170 C.3   1 <1>   0.0400 
 22 H        2.6330     1.9840    -0.9120 H     1 <1>   0.1500 
 23 H       -1.0160     2.6910    -0.3480 H     1 <1>   0.0800 
 24 H       -0.4070     3.0780     1.2300 H     1 <1>   0.0800 
 25 H        4.2610    -0.3170     0.0450 H     1 <1>   0.0800 
 26 H        3.4840    -0.8330    -1.4390 H     1 <1>   0.0800 
 27 H        3.2940    -1.7730     0.0230 H     1 <1>   0.0800 
 28 H        0.9390     3.8930    -1.3590 H     1 <1>   0.0800 
 29 H       -1.0000     5.3280    -1.3300 H     1 <1>   0.0800 
 30 H        2.6910     4.1490     0.1290 H     1 <1>   0.0800 
 31 H        1.6300     4.4210     1.5010 H     1 <1>   0.0800 
 32 H       -0.4040     5.8360     1.3640 H     1 <1>   0.4000 
 33 H        0.2750     7.4540    -0.2790 H     1 <1>   0.0800 
 34 H        1.0340     6.6200    -1.6280 H     1 <1>   0.0800 
 35 H        4.1300     9.6810    -0.5660 H     1 <1>   0.1500 
 36 H        5.9780     6.4860     1.5100 H     1 <1>   0.1500 
 37 H        7.5880    10.4830     0.3330 H     1 <1>   0.0800 
 38 H        5.8800    10.8050     0.6060 H     1 <1>   0.0800 
 39 H        6.4290    10.1460    -0.9470 H     1 <1>   0.0800 
@<TRIPOS>BOND
  1   1   2  1   
  2   1   3  1   
  3   2   4  2   
  4   3   5  2   
  5   3   6  1   
  6   4   5  1   
  7   4   7  1   
  8   5  22  1   
  9   6   8  1   
 10   6  23  1   
 11   6  24  1   
 12   7  25  1   
 13   7  26  1   
 14   7  27  1   
 15   8   9  1   
 16   8  10  1   
 17   8  28  1   
 18   9  11  1   
 19   9  12  1   
 20   9  29  1   
 21  10  13  1   
 22  10  30  1   
 23  10  31  1   
 24  11  32  1   
 25  12  13  1   
 26  12  33  1   
 27  12  34  1   
 28  13  14  1   
 29  14  15  ar  
 30  14  16  ar  
 31  15  17  ar  
 32  16  18  ar  
 33  17  19  ar  
 34  17  35  1   
 35  18  19  ar  
 36  18  36  1   
 37  19  20  1   
 38  20  21  1   
 39  21  37  1   
 40  21  38  1   
 41  21  39  1   
@<TRIPOS>SUBSTRUCTURE
  1 ****  10 GROUP 4 **** **** 0

# MOE 2024.06 (io_trps.svl 2023.06)
