@<TRIPOS>MOLECULE
NONAME
38 41 1 0 0 
SMALL
USER_CHARGES


@<TRIPOS>ATOM
  1 S        0.0200     0.3500     0.9610 S.3   1 <1>  -0.0800 
  2 C       -1.4770     1.0370     0.3120 C.2   1 <1>  -0.0450 
  3 C       -0.6250    -1.2710     0.9440 C.2   1 <1>  -0.1100 
  4 C       -2.3690     0.0260     0.1180 C.2   1 <1>  -0.1810 
  5 C       -1.5260     2.4620     0.0810 C.2   1 <1>   0.7150 
  6 C       -1.8880    -1.2730     0.4830 C.2   1 <1>  -0.1810 
  7 C       -3.7620     0.2070    -0.4780 C.3   1 <1>   0.0210 
  8 O       -2.5090     2.9870    -0.4100 O.2   1 <1>  -0.5700 
  9 N       -0.4390     3.2350     0.4140 N.am  1 <1>  -0.4940 
 10 C       -2.7550    -2.5170     0.3700 C.3   1 <1>   0.0210 
 11 C       -4.6680    -1.0130    -0.2670 C.3   1 <1>  -0.1600 
 12 C       -0.1830     4.6210     0.2700 C.2   1 <1>  -0.0880 
 13 C       -3.9240    -2.3130    -0.5990 C.3   1 <1>  -0.1600 
 14 N       -1.0580     5.6640     0.4090 N.pl3 1 <1>   0.3140 
 15 C        1.0130     5.1840    -0.0160 C.2   1 <1>  -0.1810 
 16 N       -0.4410     6.8590     0.2210 N.2   1 <1>  -0.7070 
 17 C       -2.4730     5.6340     0.8040 C.3   1 <1>   0.0160 
 18 C        0.7880     6.5440    -0.0350 C.2   1 <1>   0.1080 
 19 C        2.4180     4.7100    -0.3050 C.3   1 <1>   0.2510 
 20 C        1.9660     7.4390    -0.3370 C.3   1 <1>   0.2510 
 21 S        3.3370     6.2590    -0.5580 S.3   1 <1>  -0.4600 
 22 H        0.0110    -2.0660     1.2920 H     1 <1>   0.1500 
 23 H       -3.6510     0.3800    -1.5350 H     1 <1>   0.0800 
 24 H       -4.2350     1.0750    -0.0540 H     1 <1>   0.0800 
 25 H        0.3540     2.6770     0.7280 H     1 <1>   0.3700 
 26 H       -3.1470    -2.7440     1.3460 H     1 <1>   0.0800 
 27 H       -2.1570    -3.3530     0.0520 H     1 <1>   0.0800 
 28 H       -5.5400    -0.9210    -0.8900 H     1 <1>   0.0800 
 29 H       -4.9930    -1.0390     0.7590 H     1 <1>   0.0800 
 30 H       -4.5970    -3.1490    -0.5290 H     1 <1>   0.0800 
 31 H       -3.5500    -2.2670    -1.6070 H     1 <1>   0.0800 
 32 H       -2.6330     4.8340     1.5000 H     1 <1>   0.0800 
 33 H       -3.0760     5.4830    -0.0720 H     1 <1>   0.0800 
 34 H       -2.7320     6.5690     1.2620 H     1 <1>   0.0800 
 35 H        2.4770     4.1340    -1.2110 H     1 <1>   0.0800 
 36 H        2.8580     4.1920     0.5280 H     1 <1>   0.0800 
 37 H        2.2020     8.0890     0.4850 H     1 <1>   0.0800 
 38 H        1.8330     7.9850    -1.2530 H     1 <1>   0.0800 
@<TRIPOS>BOND
  1   1   2  1   
  2   1   3  1   
  3   2   4  2   
  4   2   5  1   
  5   3   6  2   
  6   3  22  1   
  7   4   6  1   
  8   4   7  1   
  9   5   8  2   
 10   5   9  am  
 11   6  10  1   
 12   7  11  1   
 13   7  23  1   
 14   7  24  1   
 15   9  12  1   
 16   9  25  1   
 17  10  13  1   
 18  10  26  1   
 19  10  27  1   
 20  11  13  1   
 21  11  28  1   
 22  11  29  1   
 23  12  14  1   
 24  12  15  2   
 25  13  30  1   
 26  13  31  1   
 27  14  16  1   
 28  14  17  1   
 29  15  18  1   
 30  15  19  1   
 31  16  18  2   
 32  17  32  1   
 33  17  33  1   
 34  17  34  1   
 35  18  20  1   
 36  19  21  1   
 37  19  35  1   
 38  19  36  1   
 39  20  21  1   
 40  20  37  1   
 41  20  38  1   
@<TRIPOS>SUBSTRUCTURE
  1 ****   5 GROUP 4 **** **** 0

# MOE 2024.06 (io_trps.svl 2023.06)
