@<TRIPOS>MOLECULE
NONAME
53 54 1 0 0 
SMALL
USER_CHARGES


@<TRIPOS>ATOM
  1 O        0.4210    -1.1340     0.5790 O.2   1 <1>  -0.5700 
  2 C        1.5760    -1.4840     0.4820 C.2   1 <1>   0.5690 
  3 N        2.5450    -0.6790    -0.0630 N.am  1 <1>  -0.4940 
  4 C        1.9660    -2.9080     0.9740 C.3   1 <1>   0.4840 
  5 C        2.3700     0.5700    -0.7090 C.2   1 <1>  -0.0880 
  6 N        0.8280    -3.9170     1.0840 N.4   1 <1>  -0.9590 
  7 C        2.7440    -2.8590     2.2950 C.3   1 <1>  -0.2400 
  8 N        3.1550     1.6640    -0.5010 N.pl3 1 <1>   0.3140 
  9 C        1.4500     0.9380    -1.6350 C.2   1 <1>  -0.1810 
 10 C        0.0790    -4.0720    -0.2120 C.3   1 <1>   0.4230 
 11 C       -0.1180    -3.5450     2.1980 C.3   1 <1>   0.2630 
 12 N        2.7690     2.7060    -1.2650 N.2   1 <1>  -0.7070 
 13 C        4.2700     1.8030     0.4580 C.3   1 <1>   0.0960 
 14 C        1.7490     2.2640    -1.9310 C.2   1 <1>   0.1390 
 15 C        0.3200     0.1450    -2.2640 C.3   1 <1>  -0.0590 
 16 C       -0.9750    -5.1900    -0.0870 C.3   1 <1>  -0.1600 
 17 C        1.0450    -4.3890    -1.3730 C.3   1 <1>  -0.1600 
 18 C        5.5760     1.2470    -0.1280 C.3   1 <1>  -0.1600 
 19 C       -1.7130    -5.4420    -1.4090 C.3   1 <1>  -0.1600 
 20 C        0.3010    -4.6420    -2.6920 C.3   1 <1>  -0.1600 
 21 C        6.7170     1.3170     0.8920 C.3   1 <1>  -0.2400 
 22 C       -0.7340    -5.7590    -2.5410 C.3   1 <1>  -0.1600 
 23 H        3.5180    -0.9820     0.0010 H     1 <1>   0.3700 
 24 H        2.6550    -3.2890     0.2400 H     1 <1>   0.0800 
 25 H        1.2370    -4.8330     1.3020 H     1 <1>   0.4500 
 26 H        2.1930    -2.3290     3.0510 H     1 <1>   0.0800 
 27 H        3.6710    -2.3350     2.1480 H     1 <1>   0.0800 
 28 H        2.9770    -3.8500     2.6410 H     1 <1>   0.0800 
 29 H       -0.4330    -3.1490    -0.4400 H     1 <1>   0.0800 
 30 H       -0.6320    -2.6260     1.9650 H     1 <1>   0.0800 
 31 H        0.4140    -3.4140     3.1250 H     1 <1>   0.0800 
 32 H       -0.8520    -4.3180     2.3490 H     1 <1>   0.0800 
 33 H        4.0080     1.2890     1.3630 H     1 <1>   0.0800 
 34 H        4.3860     2.8480     0.6840 H     1 <1>   0.0800 
 35 H        1.2030     2.8670    -2.6370 H     1 <1>   0.1500 
 36 H        0.5280    -0.9070    -2.2180 H     1 <1>   0.0800 
 37 H        0.2000     0.4270    -3.2940 H     1 <1>   0.0800 
 38 H       -0.5960     0.3440    -1.7380 H     1 <1>   0.0800 
 39 H       -1.7230    -4.9310     0.6400 H     1 <1>   0.0800 
 40 H       -0.5000    -6.1060     0.2190 H     1 <1>   0.0800 
 41 H        1.6240    -5.2650    -1.1350 H     1 <1>   0.0800 
 42 H        1.7130    -3.5690    -1.5550 H     1 <1>   0.0800 
 43 H        5.8440     1.8280    -0.9960 H     1 <1>   0.0800 
 44 H        5.4400     0.2260    -0.4350 H     1 <1>   0.0800 
 45 H       -2.2930    -4.5720    -1.6720 H     1 <1>   0.0800 
 46 H       -2.3990    -6.2650    -1.2910 H     1 <1>   0.0800 
 47 H        1.0060    -4.9130    -3.4610 H     1 <1>   0.0800 
 48 H       -0.1940    -3.7390    -3.0090 H     1 <1>   0.0800 
 49 H        6.8920     2.3370     1.1910 H     1 <1>   0.0800 
 50 H        7.6240     0.9340     0.4570 H     1 <1>   0.0800 
 51 H        6.4870     0.7350     1.7670 H     1 <1>   0.0800 
 52 H       -1.2770    -5.8740    -3.4650 H     1 <1>   0.0800 
 53 H       -0.2360    -6.6920    -2.3400 H     1 <1>   0.0800 
@<TRIPOS>BOND
  1   1   2  2   
  2   2   3  am  
  3   2   4  1   
  4   3   5  1   
  5   3  23  1   
  6   4   6  1   
  7   4   7  1   
  8   4  24  1   
  9   5   8  1   
 10   5   9  2   
 11   6  10  1   
 12   6  11  1   
 13   6  25  1   
 14   7  26  1   
 15   7  27  1   
 16   7  28  1   
 17   8  12  1   
 18   8  13  1   
 19   9  14  1   
 20   9  15  1   
 21  10  16  1   
 22  10  17  1   
 23  10  29  1   
 24  11  30  1   
 25  11  31  1   
 26  11  32  1   
 27  12  14  2   
 28  13  18  1   
 29  13  33  1   
 30  13  34  1   
 31  14  35  1   
 32  15  36  1   
 33  15  37  1   
 34  15  38  1   
 35  16  19  1   
 36  16  39  1   
 37  16  40  1   
 38  17  20  1   
 39  17  41  1   
 40  17  42  1   
 41  18  21  1   
 42  18  43  1   
 43  18  44  1   
 44  19  22  1   
 45  19  45  1   
 46  19  46  1   
 47  20  22  1   
 48  20  47  1   
 49  20  48  1   
 50  21  49  1   
 51  21  50  1   
 52  21  51  1   
 53  22  52  1   
 54  22  53  1   
@<TRIPOS>SUBSTRUCTURE
  1 ****   2 GROUP 4 **** **** 0

# MOE 2024.06 (io_trps.svl 2023.06)
