@<TRIPOS>MOLECULE
NONAME
50 53 1 0 0 
SMALL
USER_CHARGES


@<TRIPOS>ATOM
  1 O       -0.5720     0.1140     1.4140 O.2   1 <1>  -0.5700 
  2 C       -1.5230     0.6640     0.8920 C.2   1 <1>   0.7160 
  3 N       -2.4860    -0.1070     0.2870 N.am  1 <1>  -0.6600 
  4 C       -1.6190     2.0990     0.8820 C.2   1 <1>  -0.0860 
  5 C       -3.4180     0.4000    -0.7530 C.3   1 <1>   0.1400 
  6 C       -2.3990    -1.5860     0.2390 C.3   1 <1>   0.1400 
  7 C       -0.6880     2.9940     0.3800 C.2   1 <1>   0.1080 
  8 C       -2.5840     2.9370     1.3140 C.2   1 <1>  -0.0400 
  9 C       -3.7340    -0.8180    -1.6200 C.3   1 <1>   0.2000 
 10 C       -3.5060    -2.0300    -0.7180 C.3   1 <1>  -0.0800 
 11 N       -1.1110     4.1960     0.5050 N.2   1 <1>  -0.4100 
 12 C        0.6490     2.6280    -0.2430 C.3   1 <1>   0.0210 
 13 O       -2.2900     4.1940     1.0840 O.3   1 <1>  -0.0190 
 14 C       -3.8940     2.6280     2.0120 C.3   1 <1>  -0.0600 
 15 O       -5.0450    -0.7990    -2.0690 O.3   1 <1>  -0.6800 
 16 C       -3.1600    -3.3050    -1.5040 C.3   1 <1>  -0.0170 
 17 C        0.4730     2.0110    -1.6360 C.3   1 <1>  -0.2400 
 18 C       -2.9490    -4.4850    -0.5600 C.ar  1 <1>  -0.1440 
 19 C       -4.0280    -5.1840     0.0310 C.ar  1 <1>   0.0000 
 20 C       -1.6850    -4.8940    -0.2480 C.ar  1 <1>  -0.1500 
 21 C       -3.7170    -6.2410     0.9210 C.ar  1 <1>   0.3100 
 22 C       -5.3930    -4.8990    -0.2080 C.ar  1 <1>  -0.1500 
 23 C       -1.4880    -5.9600     0.6370 C.ar  1 <1>   0.1600 
 24 N       -2.4460    -6.6160     1.2110 N.ar  1 <1>  -0.6200 
 25 C       -4.7660    -6.9420     1.5360 C.ar  1 <1>  -0.1500 
 26 C       -6.3920    -5.6040     0.4060 C.ar  1 <1>  -0.1500 
 27 C       -6.0780    -6.6370     1.2920 C.ar  1 <1>  -0.1500 
 28 H       -4.3080     0.7730    -0.2790 H     1 <1>   0.0800 
 29 H       -2.9560     1.1760    -1.3390 H     1 <1>   0.0800 
 30 H       -1.4290    -1.8670    -0.1350 H     1 <1>   0.0800 
 31 H       -2.5340    -2.0080     1.2210 H     1 <1>   0.0800 
 32 H       -3.0810    -0.8360    -2.4760 H     1 <1>   0.0800 
 33 H       -4.3850    -2.1980    -0.1220 H     1 <1>   0.0800 
 34 H        1.2500     3.5170    -0.3210 H     1 <1>   0.0800 
 35 H        1.1660     1.9390     0.4020 H     1 <1>   0.0800 
 36 H       -3.9950     1.5710     2.1810 H     1 <1>   0.0800 
 37 H       -4.7170     2.9710     1.4120 H     1 <1>   0.0800 
 38 H       -3.9230     3.1320     2.9610 H     1 <1>   0.0800 
 39 H       -5.6680    -0.8120    -1.3170 H     1 <1>   0.4000 
 40 H       -2.2650    -3.1380    -2.0780 H     1 <1>   0.0800 
 41 H       -3.9410    -3.5320    -2.2080 H     1 <1>   0.0800 
 42 H       -0.0570     2.6940    -2.2760 H     1 <1>   0.0800 
 43 H       -0.0780     1.0900    -1.5740 H     1 <1>   0.0800 
 44 H        1.4360     1.8070    -2.0700 H     1 <1>   0.0800 
 45 H       -0.8160    -4.4170    -0.6630 H     1 <1>   0.1500 
 46 H       -5.6590    -4.1140    -0.8900 H     1 <1>   0.1500 
 47 H       -0.4750    -6.2510     0.8570 H     1 <1>   0.1500 
 48 H       -4.5000    -7.7340     2.2110 H     1 <1>   0.1500 
 49 H       -7.4280    -5.3780     0.2160 H     1 <1>   0.1500 
 50 H       -6.8720    -7.1840     1.7710 H     1 <1>   0.1500 
@<TRIPOS>BOND
  1   1   2  2   
  2   2   3  am  
  3   2   4  1   
  4   3   5  1   
  5   3   6  1   
  6   4   7  1   
  7   4   8  2   
  8   5   9  1   
  9   5  28  1   
 10   5  29  1   
 11   6  10  1   
 12   6  30  1   
 13   6  31  1   
 14   7  11  2   
 15   7  12  1   
 16   8  13  1   
 17   8  14  1   
 18   9  10  1   
 19   9  15  1   
 20   9  32  1   
 21  10  16  1   
 22  10  33  1   
 23  11  13  1   
 24  12  17  1   
 25  12  34  1   
 26  12  35  1   
 27  14  36  1   
 28  14  37  1   
 29  14  38  1   
 30  15  39  1   
 31  16  18  1   
 32  16  40  1   
 33  16  41  1   
 34  17  42  1   
 35  17  43  1   
 36  17  44  1   
 37  18  19  ar  
 38  18  20  ar  
 39  19  21  ar  
 40  19  22  ar  
 41  20  23  ar  
 42  20  45  1   
 43  21  24  ar  
 44  21  25  ar  
 45  22  26  ar  
 46  22  46  1   
 47  23  24  ar  
 48  23  47  1   
 49  25  27  ar  
 50  25  48  1   
 51  26  27  ar  
 52  26  49  1   
 53  27  50  1   
@<TRIPOS>SUBSTRUCTURE
  1 ****   6 GROUP 4 **** **** 0

# MOE 2024.06 (io_trps.svl 2023.06)
