@<TRIPOS>MOLECULE
NONAME
42 44 1 0 0 
SMALL
USER_CHARGES


@<TRIPOS>ATOM
  1 CL       3.2380     1.6040    -2.2010 Cl    1 <1>  -0.1770 
  2 C        2.8470     0.2980    -1.1090 C.ar  1 <1>   0.1770 
  3 C        3.2420     0.3740     0.2280 C.ar  1 <1>   0.0860 
  4 C        2.1700    -0.7940    -1.6170 C.ar  1 <1>  -0.1500 
  5 C        3.9370     1.5310     0.7360 C.2   1 <1>   0.5440 
  6 C        2.9400    -0.7080     1.0590 C.ar  1 <1>  -0.1500 
  7 C        1.8900    -1.8380    -0.7580 C.ar  1 <1>   0.1900 
  8 O        3.3270     2.5480     1.0020 O.2   1 <1>  -0.5700 
  9 N        5.3020     1.5540     0.8900 N.am  1 <1>  -0.6600 
 10 C        2.2650    -1.8160     0.5730 C.ar  1 <1>  -0.1500 
 11 F        1.2560    -2.8790    -1.2170 F     1 <1>  -0.1900 
 12 C        5.9400     2.5060     1.8760 C.3   1 <1>   0.1400 
 13 C        6.2080     0.9970    -0.1610 C.3   1 <1>   0.1400 
 14 C        6.3990     3.8370     1.2270 C.3   1 <1>   0.4230 
 15 C        6.8700     2.0720    -1.0630 C.3   1 <1>  -0.0800 
 16 N        5.5870     4.0510    -0.0270 N.4   1 <1>  -0.9590 
 17 C        7.9410     3.8710     1.0560 C.3   1 <1>   0.1200 
 18 C        8.3350     2.3370    -0.6850 C.3   1 <1>   0.1200 
 19 C        6.1230     3.4070    -1.2650 C.3   1 <1>   0.3430 
 20 C        5.3350     5.5320    -0.2730 C.3   1 <1>   0.2370 
 21 O        8.4580     2.6300     0.6640 O.3   1 <1>  -0.5600 
 22 C        6.5990     6.3770    -0.4410 C.2   1 <1>   0.9060 
 23 O        7.1650     6.3650    -1.5380 O.co2 1 <1>  -0.9000 
 24 O        7.0840     6.8870     0.5720 O.co2 1 <1>  -0.9000 
 25 H        1.8690    -0.8370    -2.6480 H     1 <1>   0.1500 
 26 H        3.2350    -0.6730     2.0950 H     1 <1>   0.1500 
 27 H        2.0280    -2.6500     1.2110 H     1 <1>   0.1500 
 28 H        5.2240     2.7420     2.6440 H     1 <1>   0.0800 
 29 H        6.7650     2.0200     2.3680 H     1 <1>   0.0800 
 30 H        6.9700     0.4050     0.3180 H     1 <1>   0.0800 
 31 H        5.6480     0.3280    -0.7910 H     1 <1>   0.0800 
 32 H        6.1590     4.6340     1.9120 H     1 <1>   0.0800 
 33 H        6.9310     1.6380    -2.0440 H     1 <1>   0.0800 
 34 H        4.6820     3.5900     0.1910 H     1 <1>   0.4500 
 35 H        8.3790     4.0930     2.0120 H     1 <1>   0.0800 
 36 H        8.2700     4.6330     0.3710 H     1 <1>   0.0800 
 37 H        8.7580     3.1470    -1.2590 H     1 <1>   0.0800 
 38 H        8.9250     1.4550    -0.8660 H     1 <1>   0.0800 
 39 H        5.3010     3.2450    -1.9420 H     1 <1>   0.0800 
 40 H        6.7980     4.0940    -1.7510 H     1 <1>   0.0800 
 41 H        4.7450     5.6580    -1.1620 H     1 <1>   0.0800 
 42 H        4.7900     5.9470     0.5550 H     1 <1>   0.0800 
@<TRIPOS>BOND
  1   1   2  1   
  2   2   3  ar  
  3   2   4  ar  
  4   3   5  1   
  5   3   6  ar  
  6   4   7  ar  
  7   4  25  1   
  8   5   8  2   
  9   5   9  am  
 10   6  10  ar  
 11   6  26  1   
 12   7  10  ar  
 13   7  11  1   
 14   9  12  1   
 15   9  13  1   
 16  10  27  1   
 17  12  14  1   
 18  12  28  1   
 19  12  29  1   
 20  13  15  1   
 21  13  30  1   
 22  13  31  1   
 23  14  16  1   
 24  14  17  1   
 25  14  32  1   
 26  15  18  1   
 27  15  19  1   
 28  15  33  1   
 29  16  19  1   
 30  16  20  1   
 31  16  34  1   
 32  17  21  1   
 33  17  35  1   
 34  17  36  1   
 35  18  21  1   
 36  18  37  1   
 37  18  38  1   
 38  19  39  1   
 39  19  40  1   
 40  20  22  1   
 41  20  41  1   
 42  20  42  1   
 43  22  23  ar  
 44  22  24  ar  
@<TRIPOS>SUBSTRUCTURE
  1 ****   9 GROUP 4 **** **** 0

# MOE 2024.06 (io_trps.svl 2023.06)
