@<TRIPOS>MOLECULE
NONAME
47 48 1 0 0 
SMALL
USER_CHARGES


@<TRIPOS>ATOM
  1 O       -0.1880    -1.2940     1.1000 O.2   1 <1>  -0.5700 
  2 C       -1.1170    -0.7940     0.4930 C.2   1 <1>   0.7150 
  3 N       -1.0510     0.5360     0.1740 N.am  1 <1>  -0.7300 
  4 C       -2.2750    -1.5750     0.1090 C.2   1 <1>   0.0550 
  5 C        0.0710     1.4540     0.5050 C.3   1 <1>   0.0600 
  6 O       -2.3400    -2.8760     0.3750 O.3   1 <1>  -0.2800 
  7 C       -3.4270    -1.2210    -0.5290 C.2   1 <1>  -0.1500 
  8 C       -3.4780    -3.3600    -0.0620 C.2   1 <1>  -0.0400 
  9 C       -4.2030    -2.3750    -0.6400 C.2   1 <1>  -0.1500 
 10 C       -3.7310    -4.8440     0.1550 C.3   1 <1>   0.5230 
 11 N       -5.1370    -5.1890    -0.1530 N.4   1 <1>  -0.9590 
 12 C       -5.3120    -6.6650    -0.3510 C.3   1 <1>   0.3430 
 13 C       -6.0750    -4.6690     0.8920 C.3   1 <1>   0.3430 
 14 C       -6.7440    -6.9280    -0.8600 C.3   1 <1>   0.2000 
 15 C       -7.5280    -4.9520     0.4820 C.3   1 <1>  -0.1600 
 16 O       -6.9090    -6.1930    -2.0380 O.3   1 <1>  -0.6800 
 17 C       -7.7520    -6.4720     0.2230 C.3   1 <1>  -0.1060 
 18 C       -7.3640    -7.2730     1.4820 C.2   1 <1>   0.9060 
 19 C       -9.2370    -6.8010    -0.1060 C.3   1 <1>  -0.1600 
 20 O       -7.2870    -6.6950     2.5690 O.co2 1 <1>  -0.9000 
 21 O       -6.9750    -8.4360     1.3390 O.co2 1 <1>  -0.9000 
 22 C       -9.9170    -6.0320    -1.2550 C.3   1 <1>  -0.1600 
 23 C      -11.3990    -6.4050    -1.3470 C.3   1 <1>  -0.2400 
 24 H       -1.8210     0.9480    -0.3520 H     1 <1>   0.3700 
 25 H        0.8340     0.9360     1.0610 H     1 <1>   0.0800 
 26 H       -0.2920     2.2740     1.1000 H     1 <1>   0.0800 
 27 H        0.5060     1.8390    -0.4010 H     1 <1>   0.0800 
 28 H       -3.7130    -0.2490    -0.8910 H     1 <1>   0.1500 
 29 H       -5.1740    -2.4180    -1.1030 H     1 <1>   0.1500 
 30 H       -3.5110    -5.0990     1.1790 H     1 <1>   0.0800 
 31 H       -3.0650    -5.4020    -0.4820 H     1 <1>   0.0800 
 32 H       -5.4170    -4.7850    -1.0560 H     1 <1>   0.4500 
 33 H       -4.6140    -7.0350    -1.0810 H     1 <1>   0.0800 
 34 H       -5.1440    -7.1940     0.5740 H     1 <1>   0.0800 
 35 H       -5.8680    -5.1450     1.8380 H     1 <1>   0.0800 
 36 H       -5.9410    -3.6080     1.0190 H     1 <1>   0.0800 
 37 H       -6.8710    -7.9740    -1.0890 H     1 <1>   0.0800 
 38 H       -8.1740    -4.6300     1.2810 H     1 <1>   0.0800 
 39 H       -7.7680    -4.3640    -0.3830 H     1 <1>   0.0800 
 40 H       -7.8210    -6.3380    -2.3650 H     1 <1>   0.4000 
 41 H       -9.3130    -7.8580    -0.3010 H     1 <1>   0.0800 
 42 H       -9.8070    -6.6190     0.7920 H     1 <1>   0.0800 
 43 H       -9.8440    -4.9710    -1.0920 H     1 <1>   0.0800 
 44 H       -9.4590    -6.2680    -2.1970 H     1 <1>   0.0800 
 45 H      -11.9070    -6.1550    -0.4320 H     1 <1>   0.0800 
 46 H      -11.5110    -7.4610    -1.5260 H     1 <1>   0.0800 
 47 H      -11.8660    -5.8700    -2.1540 H     1 <1>   0.0800 
@<TRIPOS>BOND
  1   1   2  2   
  2   2   3  am  
  3   2   4  1   
  4   3   5  1   
  5   3  24  1   
  6   4   6  1   
  7   4   7  2   
  8   5  25  1   
  9   5  26  1   
 10   5  27  1   
 11   6   8  1   
 12   7   9  1   
 13   7  28  1   
 14   8   9  2   
 15   8  10  1   
 16   9  29  1   
 17  10  11  1   
 18  10  30  1   
 19  10  31  1   
 20  11  12  1   
 21  11  13  1   
 22  11  32  1   
 23  12  14  1   
 24  12  33  1   
 25  12  34  1   
 26  13  15  1   
 27  13  35  1   
 28  13  36  1   
 29  14  16  1   
 30  14  17  1   
 31  14  37  1   
 32  15  17  1   
 33  15  38  1   
 34  15  39  1   
 35  16  40  1   
 36  17  18  1   
 37  17  19  1   
 38  18  20  ar  
 39  18  21  ar  
 40  19  22  1   
 41  19  41  1   
 42  19  42  1   
 43  22  23  1   
 44  22  43  1   
 45  22  44  1   
 46  23  45  1   
 47  23  46  1   
 48  23  47  1   
@<TRIPOS>SUBSTRUCTURE
  1 ****  11 GROUP 4 **** **** 0

# MOE 2024.06 (io_trps.svl 2023.06)
