@<TRIPOS>MOLECULE
NONAME
58 61 1 0 0 
SMALL
USER_CHARGES


@<TRIPOS>ATOM
  1 O       -0.7320     0.3840     0.4660 O.2   1 <1>  -0.5700 
  2 C       -1.6790     0.9070    -0.0700 C.2   1 <1>   0.5690 
  3 N       -2.7550     0.1680    -0.4730 N.am  1 <1>  -0.6600 
  4 C       -1.6810     2.4160    -0.2910 C.3   1 <1>  -0.0990 
  5 C       -4.0250     0.6710    -1.0530 C.3   1 <1>   0.1400 
  6 C       -2.8250    -1.3020    -0.2770 C.3   1 <1>   0.1400 
  7 C       -0.3160     3.0940    -0.0670 C.3   1 <1>  -0.1600 
  8 C       -5.0330    -0.4400    -0.7630 C.3   1 <1>   0.2000 
  9 C       -4.1920    -1.7210    -0.8400 C.3   1 <1>  -0.0800 
 10 C       -0.3870     4.6060    -0.3090 C.3   1 <1>  -0.0160 
 11 O       -5.5000    -0.2630     0.5310 O.3   1 <1>  -0.6800 
 12 C       -4.8190    -2.9430    -0.1340 C.3   1 <1>  -0.0170 
 13 C        0.9710     5.2500    -0.0800 C.ar  1 <1>  -0.1440 
 14 C       -4.1040    -4.2880    -0.3110 C.ar  1 <1>  -0.1440 
 15 C        1.3530     5.6400     1.1940 C.ar  1 <1>  -0.1500 
 16 C        1.8400     5.4520    -1.1410 C.ar  1 <1>  -0.1500 
 17 C       -4.5230    -5.4090     0.4490 C.ar  1 <1>   0.0000 
 18 C       -3.0690    -4.4870    -1.1840 C.ar  1 <1>  -0.1500 
 19 C        2.5880     6.2290     1.4090 C.ar  1 <1>  -0.1500 
 20 C        3.0740     6.0400    -0.9290 C.ar  1 <1>  -0.1500 
 21 C       -3.8320    -6.6330     0.2690 C.ar  1 <1>   0.3100 
 22 C       -5.5940    -5.3900     1.3750 C.ar  1 <1>  -0.1500 
 23 C       -2.4570    -5.7410    -1.2870 C.ar  1 <1>   0.1600 
 24 C        3.4580     6.4330     0.3420 C.ar  1 <1>   0.0820 
 25 N       -2.8030    -6.7820    -0.6000 N.ar  1 <1>  -0.6200 
 26 C       -4.2240    -7.7550     1.0170 C.ar  1 <1>  -0.1500 
 27 C       -5.9520    -6.5020     2.0860 C.ar  1 <1>  -0.1500 
 28 O        4.6830     7.0020     0.4640 O.3   1 <1>  -0.3630 
 29 C       -5.2590    -7.7010     1.9090 C.ar  1 <1>  -0.1500 
 30 C        5.1730     7.4200     1.7180 C.3   1 <1>   0.0400 
 31 H       -2.0000     2.6100    -1.2980 H     1 <1>   0.0800 
 32 H       -2.4010     2.8460     0.3810 H     1 <1>   0.0800 
 33 H       -4.3320     1.6060    -0.6180 H     1 <1>   0.0800 
 34 H       -3.9030     0.7860    -2.1160 H     1 <1>   0.0800 
 35 H       -2.0110    -1.7860    -0.7870 H     1 <1>   0.0800 
 36 H       -2.7570    -1.5190     0.7760 H     1 <1>   0.0800 
 37 H        0.0140     2.9110     0.9420 H     1 <1>   0.0800 
 38 H        0.4130     2.6590    -0.7310 H     1 <1>   0.0800 
 39 H       -5.8740    -0.4360    -1.4350 H     1 <1>   0.0800 
 40 H       -4.0690    -1.9480    -1.8840 H     1 <1>   0.0800 
 41 H       -1.1060     5.0490     0.3570 H     1 <1>   0.0800 
 42 H       -0.7100     4.8000    -1.3170 H     1 <1>   0.0800 
 43 H       -4.7330    -0.1440     1.1290 H     1 <1>   0.4000 
 44 H       -5.8300    -3.0550    -0.4880 H     1 <1>   0.0800 
 45 H       -4.8700    -2.7290     0.9190 H     1 <1>   0.0800 
 46 H        0.6890     5.4830     2.0250 H     1 <1>   0.1500 
 47 H        1.5620     5.1510    -2.1360 H     1 <1>   0.1500 
 48 H       -2.6850    -3.7140    -1.8190 H     1 <1>   0.1500 
 49 H        2.8510     6.5180     2.4080 H     1 <1>   0.1500 
 50 H        3.7500     6.1980    -1.7500 H     1 <1>   0.1500 
 51 H       -6.1480    -4.4830     1.5280 H     1 <1>   0.1500 
 52 H       -1.6430    -5.8470    -1.9850 H     1 <1>   0.1500 
 53 H       -3.6770    -8.6660     0.8610 H     1 <1>   0.1500 
 54 H       -6.7690    -6.4690     2.7880 H     1 <1>   0.1500 
 55 H       -5.5490    -8.5700     2.4750 H     1 <1>   0.1500 
 56 H        6.1560     7.8300     1.5720 H     1 <1>   0.0800 
 57 H        5.2250     6.5690     2.3730 H     1 <1>   0.0800 
 58 H        4.5170     8.1750     2.1150 H     1 <1>   0.0800 
@<TRIPOS>BOND
  1   1   2  2   
  2   2   3  am  
  3   2   4  1   
  4   3   5  1   
  5   3   6  1   
  6   4   7  1   
  7   4  31  1   
  8   4  32  1   
  9   5   8  1   
 10   5  33  1   
 11   5  34  1   
 12   6   9  1   
 13   6  35  1   
 14   6  36  1   
 15   7  10  1   
 16   7  37  1   
 17   7  38  1   
 18   8   9  1   
 19   8  11  1   
 20   8  39  1   
 21   9  12  1   
 22   9  40  1   
 23  10  13  1   
 24  10  41  1   
 25  10  42  1   
 26  11  43  1   
 27  12  14  1   
 28  12  44  1   
 29  12  45  1   
 30  13  15  ar  
 31  13  16  ar  
 32  14  17  ar  
 33  14  18  ar  
 34  15  19  ar  
 35  15  46  1   
 36  16  20  ar  
 37  16  47  1   
 38  17  21  ar  
 39  17  22  ar  
 40  18  23  ar  
 41  18  48  1   
 42  19  24  ar  
 43  19  49  1   
 44  20  24  ar  
 45  20  50  1   
 46  21  25  ar  
 47  21  26  ar  
 48  22  27  ar  
 49  22  51  1   
 50  23  25  ar  
 51  23  52  1   
 52  24  28  1   
 53  26  29  ar  
 54  26  53  1   
 55  27  29  ar  
 56  27  54  1   
 57  28  30  1   
 58  29  55  1   
 59  30  56  1   
 60  30  57  1   
 61  30  58  1   
@<TRIPOS>SUBSTRUCTURE
  1 ****   2 GROUP 4 **** **** 0

# MOE 2024.06 (io_trps.svl 2023.06)
