@<TRIPOS>MOLECULE
NONAME
44 47 1 0 0 
SMALL
USER_CHARGES


@<TRIPOS>ATOM
  1 S       -0.3610    -0.3530     0.7210 S.o2  1 <1>   1.5000 
  2 O        0.1310    -1.5990     1.2720 O.2   1 <1>  -0.6500 
  3 O       -1.1430     0.5230     1.5680 O.2   1 <1>  -0.6500 
  4 N       -1.2760    -0.7100    -0.6690 N.am  1 <1>  -0.8490 
  5 C        1.0420     0.5650     0.0420 C.2   1 <1>  -0.0220 
  6 C       -2.6140    -0.0830    -0.7010 C.3   1 <1>   0.1960 
  7 C       -1.3830    -2.1470    -0.9890 C.3   1 <1>   0.1960 
  8 S        0.7160     2.0910    -0.7770 S.3   1 <1>  -0.0800 
  9 C        2.3700     0.3200     0.0170 C.2   1 <1>  -0.1500 
 10 C       -3.6310    -0.8080     0.2120 C.3   1 <1>   0.1900 
 11 C       -2.4030    -2.8810    -0.0910 C.3   1 <1>   0.1100 
 12 C        2.4170     2.3410    -1.1250 C.2   1 <1>  -0.1100 
 13 C        3.1500     1.3240    -0.6420 C.2   1 <1>  -0.1500 
 14 N       -3.7330    -2.2390    -0.1660 N.3   1 <1>  -0.8100 
 15 C       -5.0140    -0.1350     0.1340 C.3   1 <1>   0.1200 
 16 C       -4.7340    -2.9120     0.6930 C.3   1 <1>   0.3330 
 17 O       -5.9330    -0.8020     0.9540 O.3   1 <1>  -0.5600 
 18 C       -4.9390    -4.3630     0.2620 C.ar  1 <1>  -0.1430 
 19 C       -6.0830    -2.1610     0.6360 C.3   1 <1>   0.1200 
 20 C       -4.9030    -5.3810     1.2050 C.ar  1 <1>  -0.1500 
 21 C       -5.1640    -4.6860    -1.0690 C.ar  1 <1>  -0.1500 
 22 C       -5.0910    -6.6980     0.8240 C.ar  1 <1>  -0.1500 
 23 C       -5.3530    -6.0020    -1.4530 C.ar  1 <1>  -0.1500 
 24 C       -5.3160    -7.0090    -0.5050 C.ar  1 <1>  -0.1500 
 25 H       -2.5400     0.9540    -0.4200 H     1 <1>   0.0800 
 26 H       -2.9840    -0.1140    -1.7110 H     1 <1>   0.0800 
 27 H       -1.7040    -2.2510    -2.0110 H     1 <1>   0.0800 
 28 H       -0.4190    -2.6190    -0.9100 H     1 <1>   0.0800 
 29 H        2.8400    -0.5480     0.4470 H     1 <1>   0.1500 
 30 H       -3.2950    -0.7290     1.2320 H     1 <1>   0.0800 
 31 H       -2.0530    -2.8950     0.9270 H     1 <1>   0.0800 
 32 H       -2.4730    -3.9010    -0.4270 H     1 <1>   0.0800 
 33 H        2.6880     3.2340    -1.6600 H     1 <1>   0.1500 
 34 H        4.2200     1.2310    -0.7200 H     1 <1>   0.1500 
 35 H       -5.3860    -0.1430    -0.8760 H     1 <1>   0.0800 
 36 H       -4.9530     0.8830     0.4770 H     1 <1>   0.0800 
 37 H       -4.3880    -2.8940     1.7130 H     1 <1>   0.0800 
 38 H       -6.7700    -2.5900     1.3420 H     1 <1>   0.0800 
 39 H       -6.5090    -2.2370    -0.3480 H     1 <1>   0.0800 
 40 H       -4.7290    -5.1540     2.2430 H     1 <1>   0.1500 
 41 H       -5.1860    -3.9050    -1.8100 H     1 <1>   0.1500 
 42 H       -5.0630    -7.4820     1.5610 H     1 <1>   0.1500 
 43 H       -5.5270    -6.2420    -2.4870 H     1 <1>   0.1500 
 44 H       -5.4620    -8.0330    -0.8020 H     1 <1>   0.1500 
@<TRIPOS>BOND
  1   1   2  2   
  2   1   3  2   
  3   1   4  am  
  4   1   5  1   
  5   4   6  1   
  6   4   7  1   
  7   5   8  1   
  8   5   9  2   
  9   6  10  1   
 10   6  25  1   
 11   6  26  1   
 12   7  11  1   
 13   7  27  1   
 14   7  28  1   
 15   8  12  1   
 16   9  13  1   
 17   9  29  1   
 18  10  14  1   
 19  10  15  1   
 20  10  30  1   
 21  11  14  1   
 22  11  31  1   
 23  11  32  1   
 24  12  13  2   
 25  12  33  1   
 26  13  34  1   
 27  14  16  1   
 28  15  17  1   
 29  15  35  1   
 30  15  36  1   
 31  16  18  1   
 32  16  19  1   
 33  16  37  1   
 34  17  19  1   
 35  18  20  ar  
 36  18  21  ar  
 37  19  38  1   
 38  19  39  1   
 39  20  22  ar  
 40  20  40  1   
 41  21  23  ar  
 42  21  41  1   
 43  22  24  ar  
 44  22  42  1   
 45  23  24  ar  
 46  23  43  1   
 47  24  44  1   
@<TRIPOS>SUBSTRUCTURE
  1 ****  11 GROUP 4 **** **** 0

# MOE 2024.06 (io_trps.svl 2023.06)
