@<TRIPOS>MOLECULE
NONAME
56 58 1 0 0 
SMALL
USER_CHARGES


@<TRIPOS>ATOM
  1 O        0.7250     0.1600     1.5120 O.3   1 <1>  -0.6800 
  2 C        0.9690    -0.3130     0.2270 C.3   1 <1>   0.2000 
  3 C        2.0210    -1.4120     0.3100 C.3   1 <1>  -0.0800 
  4 C        1.6890     0.7850    -0.5580 C.3   1 <1>   0.3430 
  5 C        3.3620    -0.6600     0.3380 C.3   1 <1>   0.3430 
  6 C        1.9320    -2.3830    -0.8850 C.3   1 <1>  -0.0170 
  7 N        3.1240     0.7670    -0.0920 N.4   1 <1>  -0.9590 
  8 C        3.1490    -3.2930    -0.9380 C.ar  1 <1>  -0.1440 
  9 C        3.3510     1.6770     1.1110 C.3   1 <1>   0.3430 
 10 C        3.4320    -4.1930     0.0710 C.ar  1 <1>  -0.1500 
 11 C        4.0370    -3.2650    -1.9960 C.ar  1 <1>  -0.1500 
 12 C        3.5680     3.2220     0.8830 C.3   1 <1>   0.5030 
 13 C        4.5720    -4.9770    -0.0090 C.ar  1 <1>   0.1600 
 14 C        5.1470    -4.0940    -1.9810 C.ar  1 <1>   0.1600 
 15 N        4.6640     3.5320    -0.1130 N.4   1 <1>  -0.9590 
 16 C        2.2680     3.8630     0.3770 C.3   1 <1>  -0.2400 
 17 C        3.9150     3.8410     2.2460 C.3   1 <1>  -0.2400 
 18 N        5.4400    -4.9340    -1.0040 N.ar  1 <1>  -0.6200 
 19 C        5.9750     2.8610     0.1880 C.3   1 <1>   0.3430 
 20 C        4.9080     5.0050    -0.3150 C.3   1 <1>   0.3430 
 21 C        6.9200     3.0070    -1.0050 C.3   1 <1>  -0.1600 
 22 C        5.8270     5.2180    -1.5200 C.3   1 <1>  -0.1600 
 23 C        7.1600     4.4790    -1.3560 C.3   1 <1>  -0.1600 
 24 H        0.0880    -0.4200     1.9860 H     1 <1>   0.4000 
 25 H        0.0360    -0.6140    -0.2210 H     1 <1>   0.0800 
 26 H        1.9060    -1.9870     1.2130 H     1 <1>   0.0800 
 27 H        1.2050     1.7340    -0.4030 H     1 <1>   0.0800 
 28 H        1.6470     0.5400    -1.6070 H     1 <1>   0.0800 
 29 H        4.0760    -1.1410    -0.3120 H     1 <1>   0.0800 
 30 H        3.7550    -0.6870     1.3420 H     1 <1>   0.0800 
 31 H        1.8550    -1.8420    -1.8120 H     1 <1>   0.0800 
 32 H        1.0470    -2.9920    -0.7950 H     1 <1>   0.0800 
 33 H        3.7560     0.9800    -0.8720 H     1 <1>   0.4500 
 34 H        2.5210     1.5650     1.7890 H     1 <1>   0.0800 
 35 H        4.2150     1.3190     1.6460 H     1 <1>   0.0800 
 36 H        2.7830    -4.3040     0.9200 H     1 <1>   0.1500 
 37 H        3.8840    -2.6190    -2.8410 H     1 <1>   0.1500 
 38 H        4.7800    -5.6750     0.7850 H     1 <1>   0.1500 
 39 H        5.8300    -4.0660    -2.8140 H     1 <1>   0.1500 
 40 H        4.3580     3.2060    -1.0340 H     1 <1>   0.4500 
 41 H        1.4350     3.5200     0.9670 H     1 <1>   0.0800 
 42 H        2.0800     3.6170    -0.6520 H     1 <1>   0.0800 
 43 H        2.2880     4.9340     0.4750 H     1 <1>   0.0800 
 44 H        3.1340     3.6250     2.9540 H     1 <1>   0.0800 
 45 H        3.9980     4.9120     2.1950 H     1 <1>   0.0800 
 46 H        4.8300     3.4410     2.6450 H     1 <1>   0.0800 
 47 H        6.4270     3.3160     1.0560 H     1 <1>   0.0800 
 48 H        5.8310     1.8130     0.3920 H     1 <1>   0.0800 
 49 H        3.9820     5.5250    -0.4940 H     1 <1>   0.0800 
 50 H        5.3690     5.4270     0.5630 H     1 <1>   0.0800 
 51 H        7.8640     2.5470    -0.7640 H     1 <1>   0.0800 
 52 H        6.5200     2.4860    -1.8570 H     1 <1>   0.0800 
 53 H        5.3300     4.8920    -2.4170 H     1 <1>   0.0800 
 54 H        6.0200     6.2720    -1.6300 H     1 <1>   0.0800 
 55 H        7.7350     4.5540    -2.2640 H     1 <1>   0.0800 
 56 H        7.7330     4.9470    -0.5710 H     1 <1>   0.0800 
@<TRIPOS>BOND
  1   1   2  1   
  2   1  24  1   
  3   2   3  1   
  4   2   4  1   
  5   2  25  1   
  6   3   5  1   
  7   3   6  1   
  8   3  26  1   
  9   4   7  1   
 10   4  27  1   
 11   4  28  1   
 12   5   7  1   
 13   5  29  1   
 14   5  30  1   
 15   6   8  1   
 16   6  31  1   
 17   6  32  1   
 18   7   9  1   
 19   7  33  1   
 20   8  10  ar  
 21   8  11  ar  
 22   9  12  1   
 23   9  34  1   
 24   9  35  1   
 25  10  13  ar  
 26  10  36  1   
 27  11  14  ar  
 28  11  37  1   
 29  12  15  1   
 30  12  16  1   
 31  12  17  1   
 32  13  18  ar  
 33  13  38  1   
 34  14  18  ar  
 35  14  39  1   
 36  15  19  1   
 37  15  20  1   
 38  15  40  1   
 39  16  41  1   
 40  16  42  1   
 41  16  43  1   
 42  17  44  1   
 43  17  45  1   
 44  17  46  1   
 45  19  21  1   
 46  19  47  1   
 47  19  48  1   
 48  20  22  1   
 49  20  49  1   
 50  20  50  1   
 51  21  23  1   
 52  21  51  1   
 53  21  52  1   
 54  22  23  1   
 55  22  53  1   
 56  22  54  1   
 57  23  55  1   
 58  23  56  1   
@<TRIPOS>SUBSTRUCTURE
  1 ****   7 GROUP 4 **** **** 0

# MOE 2024.06 (io_trps.svl 2023.06)
