@<TRIPOS>MOLECULE
NONAME
50 52 1 0 0 
SMALL
USER_CHARGES


@<TRIPOS>ATOM
  1 S        0.8900     1.4380     1.8950 S.o2  1 <1>   1.3330 
  2 O        0.1360     0.3870     1.2560 O.2   1 <1>  -0.6500 
  3 O        0.3010     2.2590     2.9230 O.2   1 <1>  -0.6500 
  4 N        1.4070     2.4670     0.6390 N.am  1 <1>  -0.8490 
  5 C        2.4050     0.7700     2.5550 C.3   1 <1>  -0.1350 
  6 C        1.7870     1.6730    -0.5650 C.3   1 <1>   0.1960 
  7 C        0.3150     3.4120     0.2980 C.3   1 <1>   0.1960 
  8 C        2.8560     2.3660    -1.4370 C.3   1 <1>   0.3430 
  9 C        0.8280     4.7140    -0.3310 C.3   1 <1>  -0.1600 
 10 N        2.9450     3.8230    -1.1270 N.4   1 <1>  -0.9590 
 11 C        1.7210     4.5480    -1.5550 C.3   1 <1>   0.3430 
 12 C        4.2220     4.4550    -1.5680 C.3   1 <1>   0.4860 
 13 C        4.2920     5.8720    -1.0490 C.ar  1 <1>  -0.1440 
 14 C        4.4570     6.1500     0.2860 C.ar  1 <1>   0.1600 
 15 C        4.1830     6.9500    -1.8950 C.ar  1 <1>   0.1600 
 16 N        4.4840     7.3740     0.7440 N.ar  1 <1>  -0.6200 
 17 N        4.2040     8.1820    -1.4570 N.ar  1 <1>  -0.6200 
 18 C        4.3580     8.3700    -0.1410 C.ar  1 <1>   0.6200 
 19 C        4.3850     9.7400     0.3580 C.ar  1 <1>   0.0000 
 20 C        4.9910    10.0660     1.5760 C.ar  1 <1>  -0.1500 
 21 C        3.8070    10.7930    -0.3560 C.ar  1 <1>  -0.1500 
 22 C        5.0200    11.3620     2.0610 C.ar  1 <1>  -0.1440 
 23 C        3.8310    12.0920     0.1160 C.ar  1 <1>  -0.1500 
 24 C        4.4370    12.3780     1.3250 C.ar  1 <1>  -0.1500 
 25 C        5.6880    11.6740     3.3880 C.3   1 <1>  -0.0970 
 26 H        2.1820     0.1230     3.3810 H     1 <1>   0.0800 
 27 H        3.0350     1.5620     2.9080 H     1 <1>   0.0800 
 28 H        2.9310     0.2020     1.8140 H     1 <1>   0.0800 
 29 H        0.9150     1.4500    -1.1590 H     1 <1>   0.0800 
 30 H        2.1920     0.7190    -0.2710 H     1 <1>   0.0800 
 31 H       -0.2220     3.7050     1.1850 H     1 <1>   0.0800 
 32 H       -0.4070     2.9350    -0.3470 H     1 <1>   0.0800 
 33 H        2.6390     2.2070    -2.4810 H     1 <1>   0.0800 
 34 H        3.8050     1.8990    -1.2280 H     1 <1>   0.0800 
 35 H        1.3420     5.2910     0.4180 H     1 <1>   0.0800 
 36 H       -0.0300     5.2950    -0.6220 H     1 <1>   0.0800 
 37 H        2.8900     3.8480    -0.0930 H     1 <1>   0.4500 
 38 H        1.9710     5.5250    -1.9360 H     1 <1>   0.0800 
 39 H        1.2030     4.0030    -2.3280 H     1 <1>   0.0800 
 40 H        4.2800     4.4560    -2.6450 H     1 <1>   0.0800 
 41 H        5.0620     3.8960    -1.1860 H     1 <1>   0.0800 
 42 H        4.5660     5.3570     1.0080 H     1 <1>   0.1500 
 43 H        4.0700     6.8120    -2.9580 H     1 <1>   0.1500 
 44 H        5.4510     9.2850     2.1550 H     1 <1>   0.1500 
 45 H        3.3290    10.5960    -1.3000 H     1 <1>   0.1500 
 46 H        3.3780    12.8820    -0.4570 H     1 <1>   0.1500 
 47 H        4.4540    13.3910     1.6870 H     1 <1>   0.1500 
 48 H        5.7480    10.7930     4.0000 H     1 <1>   0.0800 
 49 H        5.1250    12.4190     3.9220 H     1 <1>   0.0800 
 50 H        6.6820    12.0450     3.2150 H     1 <1>   0.0800 
@<TRIPOS>BOND
  1   1   2  2   
  2   1   3  2   
  3   1   4  am  
  4   1   5  1   
  5   4   6  1   
  6   4   7  1   
  7   5  26  1   
  8   5  27  1   
  9   5  28  1   
 10   6   8  1   
 11   6  29  1   
 12   6  30  1   
 13   7   9  1   
 14   7  31  1   
 15   7  32  1   
 16   8  10  1   
 17   8  33  1   
 18   8  34  1   
 19   9  11  1   
 20   9  35  1   
 21   9  36  1   
 22  10  11  1   
 23  10  12  1   
 24  10  37  1   
 25  11  38  1   
 26  11  39  1   
 27  12  13  1   
 28  12  40  1   
 29  12  41  1   
 30  13  14  ar  
 31  13  15  ar  
 32  14  16  ar  
 33  14  42  1   
 34  15  17  ar  
 35  15  43  1   
 36  16  18  ar  
 37  17  18  ar  
 38  18  19  1   
 39  19  20  ar  
 40  19  21  ar  
 41  20  22  ar  
 42  20  44  1   
 43  21  23  ar  
 44  21  45  1   
 45  22  24  ar  
 46  22  25  1   
 47  23  24  ar  
 48  23  46  1   
 49  24  47  1   
 50  25  48  1   
 51  25  49  1   
 52  25  50  1   
@<TRIPOS>SUBSTRUCTURE
  1 ****  14 GROUP 4 **** **** 0

# MOE 2024.06 (io_trps.svl 2023.06)
