@<TRIPOS>MOLECULE
NONAME
49 50 1 0 0 
SMALL
USER_CHARGES


@<TRIPOS>ATOM
  1 O       -3.5000    -0.5980     1.7570 O.3   1 <1>  -0.3630 
  2 C       -3.4500    -1.1730     0.5320 C.ar  1 <1>   0.0830 
  3 C       -3.8770     0.7520     1.9190 C.3   1 <1>   0.0400 
  4 C       -3.0000    -2.4810     0.4840 C.ar  1 <1>  -0.1500 
  5 C       -3.8230    -0.5320    -0.6450 C.ar  1 <1>  -0.1500 
  6 C       -2.9380    -3.1690    -0.7180 C.ar  1 <1>  -0.1430 
  7 C       -3.7390    -1.2040    -1.8510 C.ar  1 <1>  -0.1500 
  8 C       -3.2960    -2.5150    -1.8900 C.ar  1 <1>  -0.1500 
  9 C       -2.4870    -4.6220    -0.7500 C.3   1 <1>   0.4860 
 10 N       -3.6390    -5.5390    -0.4920 N.4   1 <1>  -0.9590 
 11 C       -4.7530    -5.3540    -1.4890 C.3   1 <1>   0.3430 
 12 C       -4.1100    -5.5090     0.9360 C.3   1 <1>   0.3430 
 13 C       -5.9880    -6.1730    -1.0720 C.3   1 <1>   0.2000 
 14 C       -5.4980    -4.8700     1.0820 C.3   1 <1>  -0.1600 
 15 O       -5.5540    -7.4940    -0.9060 O.3   1 <1>  -0.6800 
 16 C       -6.6010    -5.5870     0.2430 C.3   1 <1>   0.0000 
 17 C       -7.2380    -6.7340     1.0820 C.3   1 <1>   0.1200 
 18 C       -7.7270    -4.5680    -0.1110 C.3   1 <1>  -0.1600 
 19 O       -7.9500    -6.2560     2.1740 O.3   1 <1>  -0.6800 
 20 C       -7.3910    -3.4540    -1.1260 C.3   1 <1>  -0.1600 
 21 C       -8.5840    -2.5110    -1.3000 C.3   1 <1>  -0.2400 
 22 H       -3.8180     0.9930     2.9650 H     1 <1>   0.0800 
 23 H       -4.8870     0.8790     1.5720 H     1 <1>   0.0800 
 24 H       -3.1970     1.3740     1.3630 H     1 <1>   0.0800 
 25 H       -2.7040    -2.9380     1.4100 H     1 <1>   0.1500 
 26 H       -4.1740     0.4830    -0.6410 H     1 <1>   0.1500 
 27 H       -4.0180    -0.7010    -2.7620 H     1 <1>   0.1500 
 28 H       -3.2340    -3.0110    -2.8430 H     1 <1>   0.1500 
 29 H       -1.7200    -4.7750    -0.0090 H     1 <1>   0.0800 
 30 H       -2.0610    -4.8350    -1.7170 H     1 <1>   0.0800 
 31 H       -3.3300    -6.5100    -0.6470 H     1 <1>   0.4500 
 32 H       -5.0290    -4.3150    -1.5400 H     1 <1>   0.0800 
 33 H       -4.4330    -5.6640    -2.4690 H     1 <1>   0.0800 
 34 H       -4.1690    -6.5220     1.3020 H     1 <1>   0.0800 
 35 H       -3.4010    -4.9800     1.5510 H     1 <1>   0.0800 
 36 H       -6.7190    -6.1730    -1.8640 H     1 <1>   0.0800 
 37 H       -5.7630    -4.8610     2.1230 H     1 <1>   0.0800 
 38 H       -5.4100    -3.8370     0.8020 H     1 <1>   0.0800 
 39 H       -6.3140    -8.1150    -0.9200 H     1 <1>   0.4000 
 40 H       -6.4900    -7.4140     1.4550 H     1 <1>   0.0800 
 41 H       -7.9360    -7.2900     0.4790 H     1 <1>   0.0800 
 42 H       -8.5740    -5.1140    -0.4930 H     1 <1>   0.0800 
 43 H       -8.0610    -4.0940     0.7970 H     1 <1>   0.0800 
 44 H       -7.3720    -5.8330     2.8360 H     1 <1>   0.4000 
 45 H       -6.5510    -2.8680    -0.7970 H     1 <1>   0.0800 
 46 H       -7.1600    -3.8730    -2.0890 H     1 <1>   0.0800 
 47 H       -8.8340    -2.0410    -0.3640 H     1 <1>   0.0800 
 48 H       -9.4460    -3.0500    -1.6560 H     1 <1>   0.0800 
 49 H       -8.3470    -1.7410    -2.0130 H     1 <1>   0.0800 
@<TRIPOS>BOND
  1   1   2  1   
  2   1   3  1   
  3   2   4  ar  
  4   2   5  ar  
  5   3  22  1   
  6   3  23  1   
  7   3  24  1   
  8   4   6  ar  
  9   4  25  1   
 10   5   7  ar  
 11   5  26  1   
 12   6   8  ar  
 13   6   9  1   
 14   7   8  ar  
 15   7  27  1   
 16   8  28  1   
 17   9  10  1   
 18   9  29  1   
 19   9  30  1   
 20  10  11  1   
 21  10  12  1   
 22  10  31  1   
 23  11  13  1   
 24  11  32  1   
 25  11  33  1   
 26  12  14  1   
 27  12  34  1   
 28  12  35  1   
 29  13  15  1   
 30  13  16  1   
 31  13  36  1   
 32  14  16  1   
 33  14  37  1   
 34  14  38  1   
 35  15  39  1   
 36  16  17  1   
 37  16  18  1   
 38  17  19  1   
 39  17  40  1   
 40  17  41  1   
 41  18  20  1   
 42  18  42  1   
 43  18  43  1   
 44  19  44  1   
 45  20  21  1   
 46  20  45  1   
 47  20  46  1   
 48  21  47  1   
 49  21  48  1   
 50  21  49  1   
@<TRIPOS>SUBSTRUCTURE
  1 ****  14 GROUP 4 **** **** 0

# MOE 2024.06 (io_trps.svl 2023.06)
