@<TRIPOS>MOLECULE
NONAME
56 58 1 0 0 
SMALL
USER_CHARGES


@<TRIPOS>ATOM
  1 S        0.5060    -0.8130    -0.9390 S.o2  1 <1>   1.3330 
  2 O        0.9220    -0.2660    -2.2040 O.2   1 <1>  -0.6500 
  3 O        0.6160    -0.0410     0.2710 O.2   1 <1>  -0.6500 
  4 N        1.5430    -2.0750    -0.6860 N.am  1 <1>  -0.9780 
  5 C       -1.1120    -1.5830    -1.0890 C.3   1 <1>  -0.0550 
  6 C       -1.5510    -2.3820     0.1520 C.3   1 <1>  -0.1600 
  7 C       -2.9370    -3.0290    -0.0420 C.3   1 <1>  -0.0990 
  8 C       -3.4230    -3.8470     1.1520 C.2   1 <1>   0.5690 
  9 O       -2.7020    -3.9320     2.1190 O.2   1 <1>  -0.5700 
 10 N       -4.6440    -4.4720     1.1090 N.am  1 <1>  -0.6600 
 11 C       -5.1550    -5.2520     2.2710 C.3   1 <1>   0.1400 
 12 C       -5.5660    -4.5080    -0.0600 C.3   1 <1>   0.1400 
 13 C       -5.3120    -6.7160     1.8560 C.3   1 <1>  -0.1600 
 14 C       -5.7250    -5.9610    -0.5160 C.3   1 <1>  -0.1600 
 15 C       -6.2190    -6.8680     0.6220 C.3   1 <1>   0.4240 
 16 O       -7.4950    -6.3720     0.9530 O.3   1 <1>  -0.5600 
 17 C       -6.2770    -8.3380     0.1490 C.ar  1 <1>  -0.1430 
 18 C       -8.3750    -7.2370     1.6030 C.3   1 <1>   0.1200 
 19 C       -7.4710    -9.0460     0.1590 C.ar  1 <1>  -0.1430 
 20 C       -5.1260    -8.9840    -0.2890 C.ar  1 <1>  -0.1500 
 21 C       -8.7360    -8.3760     0.6550 C.3   1 <1>  -0.0170 
 22 C       -7.5100   -10.3580    -0.2800 C.ar  1 <1>  -0.1500 
 23 C       -5.1470   -10.3080    -0.7200 C.ar  1 <1>   0.0830 
 24 C       -6.3690   -10.9970    -0.7300 C.ar  1 <1>   0.0830 
 25 O       -4.0030   -10.9420    -1.1110 O.3   1 <1>  -0.3630 
 26 O       -6.5530   -12.2830    -1.1460 O.3   1 <1>  -0.3620 
 27 C       -2.7250   -10.4440    -0.7770 C.3   1 <1>   0.0400 
 28 C       -5.8010   -12.8100    -2.2160 C.3   1 <1>   0.0400 
 29 H        1.8080    -1.9750     0.2930 H     1 <1>   0.4200 
 30 H        2.3680    -1.8190    -1.2240 H     1 <1>   0.4200 
 31 H       -1.0990    -2.2400    -1.9370 H     1 <1>   0.0800 
 32 H       -1.8380    -0.8180    -1.2820 H     1 <1>   0.0800 
 33 H       -1.5790    -1.7270     1.0080 H     1 <1>   0.0800 
 34 H       -0.8280    -3.1550     0.3550 H     1 <1>   0.0800 
 35 H       -2.8990    -3.6800    -0.8960 H     1 <1>   0.0800 
 36 H       -3.6590    -2.2570    -0.2310 H     1 <1>   0.0800 
 37 H       -6.1060    -4.8490     2.5770 H     1 <1>   0.0800 
 38 H       -4.4810    -5.1830     3.1080 H     1 <1>   0.0800 
 39 H       -5.1990    -3.9120    -0.8740 H     1 <1>   0.0800 
 40 H       -6.5230    -4.1100     0.2350 H     1 <1>   0.0800 
 41 H       -5.7010    -7.2900     2.6750 H     1 <1>   0.0800 
 42 H       -4.3340    -7.1030     1.6390 H     1 <1>   0.0800 
 43 H       -4.7760    -6.3030    -0.8810 H     1 <1>   0.0800 
 44 H       -6.4230    -6.0140    -1.3320 H     1 <1>   0.0800 
 45 H       -9.2530    -6.6750     1.8700 H     1 <1>   0.0800 
 46 H       -7.9100    -7.6100     2.4980 H     1 <1>   0.0800 
 47 H       -4.2040    -8.4390    -0.2900 H     1 <1>   0.1500 
 48 H       -9.2930    -7.9870    -0.1780 H     1 <1>   0.0800 
 49 H       -9.3540    -9.0860     1.1740 H     1 <1>   0.0800 
 50 H       -8.4360   -10.9040    -0.2800 H     1 <1>   0.1500 
 51 H       -1.9970   -11.1880    -1.0470 H     1 <1>   0.0800 
 52 H       -2.6860   -10.2630     0.2830 H     1 <1>   0.0800 
 53 H       -2.5450    -9.5410    -1.3320 H     1 <1>   0.0800 
 54 H       -6.3390   -13.6470    -2.6220 H     1 <1>   0.0800 
 55 H       -4.8480   -13.1370    -1.8430 H     1 <1>   0.0800 
 56 H       -5.6770   -12.0500    -2.9670 H     1 <1>   0.0800 
@<TRIPOS>BOND
  1   1   2  2   
  2   1   3  2   
  3   1   4  am  
  4   1   5  1   
  5   4  29  1   
  6   4  30  1   
  7   5   6  1   
  8   5  31  1   
  9   5  32  1   
 10   6   7  1   
 11   6  33  1   
 12   6  34  1   
 13   7   8  1   
 14   7  35  1   
 15   7  36  1   
 16   8   9  2   
 17   8  10  am  
 18  10  11  1   
 19  10  12  1   
 20  11  13  1   
 21  11  37  1   
 22  11  38  1   
 23  12  14  1   
 24  12  39  1   
 25  12  40  1   
 26  13  15  1   
 27  13  41  1   
 28  13  42  1   
 29  14  15  1   
 30  14  43  1   
 31  14  44  1   
 32  15  16  1   
 33  15  17  1   
 34  16  18  1   
 35  17  19  ar  
 36  17  20  ar  
 37  18  21  1   
 38  18  45  1   
 39  18  46  1   
 40  19  21  1   
 41  19  22  ar  
 42  20  23  ar  
 43  20  47  1   
 44  21  48  1   
 45  21  49  1   
 46  22  24  ar  
 47  22  50  1   
 48  23  24  ar  
 49  23  25  1   
 50  24  26  1   
 51  25  27  1   
 52  26  28  1   
 53  27  51  1   
 54  27  52  1   
 55  27  53  1   
 56  28  54  1   
 57  28  55  1   
 58  28  56  1   
@<TRIPOS>SUBSTRUCTURE
  1 ****  14 GROUP 4 **** **** 0

# MOE 2024.06 (io_trps.svl 2023.06)
