@<TRIPOS>MOLECULE
NONAME
54 56 1 0 0 
SMALL
USER_CHARGES


@<TRIPOS>ATOM
  1 O        0.7160     2.3620    -1.6070 O.2   1 <1>  -0.5700 
  2 C        0.5600     2.5110    -0.4190 C.2   1 <1>   0.5690 
  3 N       -0.1250     3.5820     0.0910 N.am  1 <1>  -0.6600 
  4 C        1.1970     1.4850     0.5040 C.3   1 <1>  -0.0990 
  5 C       -0.3580     3.8050     1.5460 C.3   1 <1>   0.1400 
  6 C       -0.8070     4.5760    -0.8100 C.3   1 <1>   0.2010 
  7 C        0.6790     1.5410     1.9470 C.3   1 <1>  -0.1600 
  8 C        0.6150     2.9980     2.4100 C.3   1 <1>  -0.1600 
  9 C       -0.2460     5.9970    -0.6920 C.2   1 <1>   0.5690 
 10 O       -0.8770     6.7810    -0.0180 O.2   1 <1>  -0.5700 
 11 N        0.9310     6.3700    -1.2970 N.am  1 <1>  -0.6600 
 12 C        1.8060     5.4640    -2.1110 C.3   1 <1>   0.1400 
 13 C        1.4990     7.7270    -1.0870 C.3   1 <1>   0.1400 
 14 C        2.9960     4.9140    -1.3060 C.3   1 <1>   0.1400 
 15 C        2.2720     7.8020     0.2370 C.3   1 <1>  -0.1600 
 16 N        3.7770     5.9960    -0.6240 N.am  1 <1>  -0.6600 
 17 C        3.1030     6.5570     0.5810 C.3   1 <1>   0.1400 
 18 C        5.0280     6.3670    -1.0650 C.2   1 <1>   0.5690 
 19 O        5.5330     5.8270    -2.0290 O.2   1 <1>  -0.5700 
 20 C        5.8400     7.4730    -0.3480 C.3   1 <1>   0.4040 
 21 O        6.8230     8.0030    -1.1820 O.3   1 <1>  -0.6800 
 22 C        6.5250     6.9790     0.9270 C.ar  1 <1>  -0.1440 
 23 C        6.5820     7.8060     2.0400 C.ar  1 <1>  -0.1500 
 24 C        7.0880     5.7110     1.0000 C.ar  1 <1>  -0.1500 
 25 C        7.1800     7.3710     3.2100 C.ar  1 <1>  -0.1500 
 26 C        7.6850     5.2750     2.1700 C.ar  1 <1>  -0.1500 
 27 C        7.7300     6.1040     3.2770 C.ar  1 <1>  -0.1500 
 28 H        2.2570     1.6630     0.5000 H     1 <1>   0.0800 
 29 H        1.0290     0.5030     0.0980 H     1 <1>   0.0800 
 30 H       -1.3690     3.5160     1.7780 H     1 <1>   0.0800 
 31 H       -0.2500     4.8520     1.7780 H     1 <1>   0.0800 
 32 H       -1.8500     4.6080    -0.5530 H     1 <1>   0.0800 
 33 H       -0.7530     4.2610    -1.8350 H     1 <1>   0.0800 
 34 H        1.3260     0.9710     2.5910 H     1 <1>   0.0800 
 35 H       -0.3070     1.1080     1.9910 H     1 <1>   0.0800 
 36 H        0.2910     3.0410     3.4360 H     1 <1>   0.0800 
 37 H        1.5920     3.4450     2.3580 H     1 <1>   0.0800 
 38 H        2.1880     6.0060    -2.9580 H     1 <1>   0.0800 
 39 H        1.2400     4.6410    -2.5040 H     1 <1>   0.0800 
 40 H        0.7060     8.4560    -1.0850 H     1 <1>   0.0800 
 41 H        2.1590     7.9680    -1.9030 H     1 <1>   0.0800 
 42 H        3.6310     4.3570    -1.9730 H     1 <1>   0.0800 
 43 H        2.6350     4.2210    -0.5690 H     1 <1>   0.0800 
 44 H        1.5660     7.9630     1.0320 H     1 <1>   0.0800 
 45 H        2.9080     8.6670     0.2120 H     1 <1>   0.0800 
 46 H        2.4470     5.8080     0.9920 H     1 <1>   0.0800 
 47 H        3.8250     6.7930     1.3440 H     1 <1>   0.0800 
 48 H        5.1810     8.2850    -0.1080 H     1 <1>   0.0800 
 49 H        7.1320     7.2700    -1.7550 H     1 <1>   0.4000 
 50 H        6.1670     8.7980     2.0000 H     1 <1>   0.1500 
 51 H        7.0690     5.0530     0.1480 H     1 <1>   0.1500 
 52 H        7.2200     8.0190     4.0680 H     1 <1>   0.1500 
 53 H        8.1180     4.2910     2.2170 H     1 <1>   0.1500 
 54 H        8.1950     5.7640     4.1860 H     1 <1>   0.1500 
@<TRIPOS>BOND
  1   1   2  2   
  2   2   3  am  
  3   2   4  1   
  4   3   5  1   
  5   3   6  1   
  6   4   7  1   
  7   4  28  1   
  8   4  29  1   
  9   5   8  1   
 10   5  30  1   
 11   5  31  1   
 12   6   9  1   
 13   6  32  1   
 14   6  33  1   
 15   7   8  1   
 16   7  34  1   
 17   7  35  1   
 18   8  36  1   
 19   8  37  1   
 20   9  10  2   
 21   9  11  am  
 22  11  12  1   
 23  11  13  1   
 24  12  14  1   
 25  12  38  1   
 26  12  39  1   
 27  13  15  1   
 28  13  40  1   
 29  13  41  1   
 30  14  16  1   
 31  14  42  1   
 32  14  43  1   
 33  15  17  1   
 34  15  44  1   
 35  15  45  1   
 36  16  17  1   
 37  16  18  am  
 38  17  46  1   
 39  17  47  1   
 40  18  19  2   
 41  18  20  1   
 42  20  21  1   
 43  20  22  1   
 44  20  48  1   
 45  21  49  1   
 46  22  23  ar  
 47  22  24  ar  
 48  23  25  ar  
 49  23  50  1   
 50  24  26  ar  
 51  24  51  1   
 52  25  27  ar  
 53  25  52  1   
 54  26  27  ar  
 55  26  53  1   
 56  27  54  1   
@<TRIPOS>SUBSTRUCTURE
  1 ****  17 GROUP 4 **** **** 0

# MOE 2024.06 (io_trps.svl 2023.06)
