@<TRIPOS>MOLECULE
NONAME
50 52 1 0 0 
SMALL
USER_CHARGES


@<TRIPOS>ATOM
  1 CL       0.1260     0.4160     0.3560 Cl    1 <1>  -0.1770 
  2 C       -1.5630     0.8120     0.1830 C.ar  1 <1>   0.1770 
  3 C       -2.4660     0.3780     1.1340 C.ar  1 <1>  -0.1500 
  4 C       -1.9790     1.5570    -0.9030 C.ar  1 <1>  -0.1500 
  5 C       -3.8040     0.6970     0.9920 C.ar  1 <1>  -0.1500 
  6 C       -3.3210     1.8680    -1.0360 C.ar  1 <1>  -0.1500 
  7 C       -4.2630     1.4430    -0.0960 C.ar  1 <1>   0.0530 
  8 C       -5.6530     1.7930    -0.2510 C.2   1 <1>   0.0870 
  9 O       -5.9610     3.0130    -0.6170 O.3   1 <1>  -0.0190 
 10 C       -6.8260     1.1150    -0.1060 C.2   1 <1>  -0.0860 
 11 N       -7.2470     3.2110    -0.7130 N.2   1 <1>  -0.4100 
 12 C       -7.7870     2.0940    -0.3990 C.2   1 <1>   0.3720 
 13 C       -7.0880    -0.2590     0.2140 C.2   1 <1>   0.7160 
 14 N       -9.1700     1.9690    -0.3880 N.pl3 1 <1>  -0.8520 
 15 O       -6.1830    -1.0410     0.4380 O.2   1 <1>  -0.5700 
 16 N       -8.3750    -0.7030     0.2580 N.am  1 <1>  -0.5790 
 17 C       -9.7860     2.1090     0.9620 C.3   1 <1>   0.2090 
 18 C       -8.8790    -2.0520     0.5570 C.3   1 <1>   0.0540 
 19 C      -11.1910     1.5070     0.9610 C.3   1 <1>   0.1200 
 20 C       -8.9720    -2.9190    -0.7240 C.3   1 <1>   0.0150 
 21 C       -9.9090    -2.1030     1.6400 C.3   1 <1>  -0.2000 
 22 C       -8.5180    -2.6020     1.9010 C.3   1 <1>  -0.2000 
 23 O      -11.6790     1.5230     2.2640 O.3   1 <1>  -0.5600 
 24 C       -9.9460    -2.2950    -1.7370 C.3   1 <1>  -0.2400 
 25 C       -9.3820    -4.3800    -0.4780 C.3   1 <1>  -0.2400 
 26 C      -12.9440     0.9610     2.4020 C.3   1 <1>   0.0400 
 27 H       -2.1230    -0.2030     1.9710 H     1 <1>   0.1500 
 28 H       -1.2600     1.8860    -1.6320 H     1 <1>   0.1500 
 29 H       -4.5060     0.3600     1.7350 H     1 <1>   0.1500 
 30 H       -3.6480     2.4490    -1.8810 H     1 <1>   0.1500 
 31 H       -9.5320     2.7300    -0.9760 H     1 <1>   0.4000 
 32 H       -9.0750    -0.0270    -0.0670 H     1 <1>   0.3700 
 33 H       -9.8390     3.1520     1.2270 H     1 <1>   0.0800 
 34 H       -9.1840     1.5960     1.6940 H     1 <1>   0.0800 
 35 H      -11.1600     0.4860     0.6210 H     1 <1>   0.0800 
 36 H      -11.8490     2.0890     0.3390 H     1 <1>   0.0800 
 37 H       -7.9900    -2.9390    -1.1660 H     1 <1>   0.0800 
 38 H      -10.6980    -2.8320     1.6030 H     1 <1>   0.1000 
 39 H      -10.2130    -1.1970     2.1340 H     1 <1>   0.1000 
 40 H       -7.8580    -2.0240     2.5240 H     1 <1>   0.1000 
 41 H       -8.3840    -3.6580     2.0460 H     1 <1>   0.1000 
 42 H      -10.9310    -2.2220    -1.3130 H     1 <1>   0.0800 
 43 H       -9.9970    -2.8980    -2.6260 H     1 <1>   0.0800 
 44 H       -9.6200    -1.3120    -2.0250 H     1 <1>   0.0800 
 45 H      -10.3540    -4.4410    -0.0260 H     1 <1>   0.0800 
 46 H       -8.6670    -4.8700     0.1580 H     1 <1>   0.0800 
 47 H       -9.4080    -4.9170    -1.4090 H     1 <1>   0.0800 
 48 H      -13.2280     1.0260     3.4380 H     1 <1>   0.0800 
 49 H      -12.9110    -0.0710     2.1010 H     1 <1>   0.0800 
 50 H      -13.6460     1.5110     1.8000 H     1 <1>   0.0800 
@<TRIPOS>BOND
  1   1   2  1   
  2   2   3  ar  
  3   2   4  ar  
  4   3   5  ar  
  5   3  27  1   
  6   4   6  ar  
  7   4  28  1   
  8   5   7  ar  
  9   5  29  1   
 10   6   7  ar  
 11   6  30  1   
 12   7   8  1   
 13   8   9  1   
 14   8  10  2   
 15   9  11  1   
 16  10  12  1   
 17  10  13  1   
 18  11  12  2   
 19  12  14  1   
 20  13  15  2   
 21  13  16  am  
 22  14  17  1   
 23  14  31  1   
 24  16  18  1   
 25  16  32  1   
 26  17  19  1   
 27  17  33  1   
 28  17  34  1   
 29  18  20  1   
 30  18  21  1   
 31  18  22  1   
 32  19  23  1   
 33  19  35  1   
 34  19  36  1   
 35  20  24  1   
 36  20  25  1   
 37  20  37  1   
 38  21  22  1   
 39  21  38  1   
 40  21  39  1   
 41  22  40  1   
 42  22  41  1   
 43  23  26  1   
 44  24  42  1   
 45  24  43  1   
 46  24  44  1   
 47  25  45  1   
 48  25  46  1   
 49  25  47  1   
 50  26  48  1   
 51  26  49  1   
 52  26  50  1   
@<TRIPOS>SUBSTRUCTURE
  1 ****  13 GROUP 4 **** **** 0

# MOE 2024.06 (io_trps.svl 2023.06)
