@<TRIPOS>MOLECULE
NONAME
41 43 1 0 0 
SMALL
USER_CHARGES


@<TRIPOS>ATOM
  1 S       -1.7110    -0.4800     1.6700 S.3   1 <1>  -0.0800 
  2 C       -2.1780     0.7570     0.5230 C.2   1 <1>   0.1980 
  3 C       -1.9820    -1.6790     0.4400 C.2   1 <1>  -0.1100 
  4 N       -2.4980     0.3150    -0.6260 N.2   1 <1>  -0.5650 
  5 C       -2.1550     2.1900     0.9990 C.3   1 <1>  -0.0600 
  6 C       -2.3890    -1.0660    -0.6840 C.2   1 <1>   0.0460 
  7 C       -2.7460    -1.7280    -2.0030 C.3   1 <1>   0.0820 
  8 C       -3.1640    -3.1760    -1.8180 C.2   1 <1>   0.5690 
  9 O       -2.4080    -4.0430    -2.1870 O.2   1 <1>  -0.5700 
 10 N       -4.3700    -3.4830    -1.2450 N.am  1 <1>  -0.6600 
 11 C       -5.3660    -2.5140    -0.7150 C.3   1 <1>   0.1400 
 12 C       -4.7960    -4.8750    -0.9740 C.3   1 <1>   0.1400 
 13 C       -6.4960    -3.3770    -0.1520 C.3   1 <1>   0.2000 
 14 C       -5.8840    -4.7550     0.0940 C.3   1 <1>  -0.0800 
 15 O       -6.9910    -2.8580     1.0330 O.3   1 <1>  -0.6800 
 16 C       -6.9210    -5.8870     0.0510 C.3   1 <1>  -0.0170 
 17 C       -6.2690    -7.2380     0.2960 C.ar  1 <1>  -0.1440 
 18 C       -5.9880    -7.6840     1.5710 C.ar  1 <1>  -0.1500 
 19 C       -5.9220    -8.0870    -0.7360 C.ar  1 <1>  -0.1500 
 20 C       -5.3880    -8.9200     1.7480 C.ar  1 <1>   0.1600 
 21 C       -5.3250    -9.3040    -0.4510 C.ar  1 <1>   0.1600 
 22 N       -5.0490    -9.7400     0.7670 N.ar  1 <1>  -0.6200 
 23 H       -1.8060    -2.7100     0.6870 H     1 <1>   0.1500 
 24 H       -2.4610     2.8420     0.2020 H     1 <1>   0.0800 
 25 H       -1.1600     2.4550     1.3060 H     1 <1>   0.0800 
 26 H       -2.8280     2.3090     1.8280 H     1 <1>   0.0800 
 27 H       -1.8980    -1.6780    -2.6600 H     1 <1>   0.0800 
 28 H       -3.5520    -1.1930    -2.4670 H     1 <1>   0.0800 
 29 H       -4.9140    -1.9200     0.0600 H     1 <1>   0.0800 
 30 H       -5.7300    -1.8800    -1.5040 H     1 <1>   0.0800 
 31 H       -5.1900    -5.2990    -1.8820 H     1 <1>   0.0800 
 32 H       -3.9690    -5.4750    -0.6310 H     1 <1>   0.0800 
 33 H       -7.3040    -3.4270    -0.8630 H     1 <1>   0.0800 
 34 H       -5.3890    -4.7610     1.0490 H     1 <1>   0.0800 
 35 H       -6.2800    -2.7900     1.7000 H     1 <1>   0.4000 
 36 H       -7.4220    -5.8930    -0.9020 H     1 <1>   0.0800 
 37 H       -7.6690    -5.7120     0.8060 H     1 <1>   0.0800 
 38 H       -6.2290    -7.0830     2.4290 H     1 <1>   0.1500 
 39 H       -6.1090    -7.8170    -1.7590 H     1 <1>   0.1500 
 40 H       -5.1770    -9.2520     2.7510 H     1 <1>   0.1500 
 41 H       -5.0600    -9.9520    -1.2680 H     1 <1>   0.1500 
@<TRIPOS>BOND
  1   1   2  1   
  2   1   3  1   
  3   2   4  2   
  4   2   5  1   
  5   3   6  2   
  6   3  23  1   
  7   4   6  1   
  8   5  24  1   
  9   5  25  1   
 10   5  26  1   
 11   6   7  1   
 12   7   8  1   
 13   7  27  1   
 14   7  28  1   
 15   8   9  2   
 16   8  10  am  
 17  10  11  1   
 18  10  12  1   
 19  11  13  1   
 20  11  29  1   
 21  11  30  1   
 22  12  14  1   
 23  12  31  1   
 24  12  32  1   
 25  13  14  1   
 26  13  15  1   
 27  13  33  1   
 28  14  16  1   
 29  14  34  1   
 30  15  35  1   
 31  16  17  1   
 32  16  36  1   
 33  16  37  1   
 34  17  18  ar  
 35  17  19  ar  
 36  18  20  ar  
 37  18  38  1   
 38  19  21  ar  
 39  19  39  1   
 40  20  22  ar  
 41  20  40  1   
 42  21  22  ar  
 43  21  41  1   
@<TRIPOS>SUBSTRUCTURE
  1 ****  10 GROUP 4 **** **** 0

# MOE 2024.06 (io_trps.svl 2023.06)
