@<TRIPOS>MOLECULE
NONAME
45 46 1 0 0 
SMALL
USER_CHARGES


@<TRIPOS>ATOM
  1 O       -0.9680    -0.3500    -3.0640 O.2   1 <1>  -0.5700 
  2 C       -1.5770     0.4920    -2.4450 C.2   1 <1>   0.5690 
  3 N       -2.7440     0.1870    -1.7860 N.am  1 <1>  -0.6600 
  4 C       -0.9770     1.8930    -2.4200 C.3   1 <1>   0.0450 
  5 C       -3.2050    -1.2300    -1.7040 C.3   1 <1>   0.3200 
  6 C       -3.6010     1.1880    -1.0750 C.3   1 <1>   0.1400 
  7 C       -0.1930     2.1320    -1.1340 C.ar  1 <1>  -0.1440 
  8 C       -3.3610    -1.6500    -0.2540 C.2   1 <1>  -0.3320 
  9 C       -4.7390     1.6580    -1.9830 C.3   1 <1>   0.1200 
 10 C       -0.5890     3.0910    -0.2160 C.ar  1 <1>  -0.1500 
 11 C        0.9340     1.3720    -0.8700 C.ar  1 <1>  -0.1500 
 12 N       -2.3860    -1.6030     0.6780 N.pl3 1 <1>   0.0480 
 13 C       -4.4620    -2.1280     0.3690 C.2   1 <1>   0.0770 
 14 O       -5.4560     2.6560    -1.3380 O.3   1 <1>  -0.6800 
 15 C        0.1140     3.2820     0.9650 C.ar  1 <1>  -0.1430 
 16 C        1.6420     1.5580     0.3020 C.ar  1 <1>  -0.1500 
 17 C       -2.9740    -2.0510     1.8090 C.2   1 <1>   0.0360 
 18 C       -0.9930    -1.1360     0.5340 C.3   1 <1>   0.0160 
 19 N       -4.2180    -2.3760     1.6670 N.2   1 <1>  -0.5650 
 20 C        1.2380     2.5070     1.2280 C.ar  1 <1>  -0.1430 
 21 C       -0.3650     4.3440     1.9450 C.3   1 <1>  -0.0970 
 22 C        2.0430     2.6800     2.5080 C.3   1 <1>  -0.0970 
 23 H       -1.7470     2.6290    -2.5470 H     1 <1>   0.0800 
 24 H       -0.3060     1.9920    -3.2540 H     1 <1>   0.0800 
 25 H       -2.5070    -1.8940    -2.1840 H     1 <1>   0.0800 
 26 H       -4.1470    -1.3240    -2.2160 H     1 <1>   0.0800 
 27 H       -3.0130     2.0350    -0.7790 H     1 <1>   0.0800 
 28 H       -4.0120     0.7570    -0.1790 H     1 <1>   0.0800 
 29 H       -5.4130     0.8510    -2.2130 H     1 <1>   0.0800 
 30 H       -4.3460     2.0760    -2.8940 H     1 <1>   0.0800 
 31 H       -1.4530     3.6990    -0.4190 H     1 <1>   0.1500 
 32 H        1.2620     0.6280    -1.5780 H     1 <1>   0.1500 
 33 H       -5.4370    -2.3090    -0.0530 H     1 <1>   0.1500 
 34 H       -5.9390     2.2980    -0.5670 H     1 <1>   0.4000 
 35 H        2.5150     0.9570     0.4860 H     1 <1>   0.1500 
 36 H       -2.4370    -2.1220     2.7380 H     1 <1>   0.1500 
 37 H       -0.6120    -1.4280    -0.4280 H     1 <1>   0.0800 
 38 H       -0.3840    -1.5690     1.3050 H     1 <1>   0.0800 
 39 H       -0.9710    -0.0650     0.6180 H     1 <1>   0.0800 
 40 H       -1.2390     4.8470     1.5750 H     1 <1>   0.0800 
 41 H        0.4060     5.0770     2.0980 H     1 <1>   0.0800 
 42 H       -0.6110     3.8900     2.8880 H     1 <1>   0.0800 
 43 H        1.4180     2.5040     3.3640 H     1 <1>   0.0800 
 44 H        2.4380     3.6790     2.5600 H     1 <1>   0.0800 
 45 H        2.8660     1.9900     2.5430 H     1 <1>   0.0800 
@<TRIPOS>BOND
  1   1   2  2   
  2   2   3  am  
  3   2   4  1   
  4   3   5  1   
  5   3   6  1   
  6   4   7  1   
  7   4  23  1   
  8   4  24  1   
  9   5   8  1   
 10   5  25  1   
 11   5  26  1   
 12   6   9  1   
 13   6  27  1   
 14   6  28  1   
 15   7  10  ar  
 16   7  11  ar  
 17   8  12  1   
 18   8  13  2   
 19   9  14  1   
 20   9  29  1   
 21   9  30  1   
 22  10  15  ar  
 23  10  31  1   
 24  11  16  ar  
 25  11  32  1   
 26  12  17  1   
 27  12  18  1   
 28  13  19  1   
 29  13  33  1   
 30  14  34  1   
 31  15  20  ar  
 32  15  21  1   
 33  16  20  ar  
 34  16  35  1   
 35  17  19  2   
 36  17  36  1   
 37  18  37  1   
 38  18  38  1   
 39  18  39  1   
 40  20  22  1   
 41  21  40  1   
 42  21  41  1   
 43  21  42  1   
 44  22  43  1   
 45  22  44  1   
 46  22  45  1   
@<TRIPOS>SUBSTRUCTURE
  1 ****   3 GROUP 4 **** **** 0

# MOE 2024.06 (io_trps.svl 2023.06)
