@<TRIPOS>MOLECULE
NONAME
47 49 1 0 0 
SMALL
USER_CHARGES


@<TRIPOS>ATOM
  1 O        2.5830    -1.4130     2.8510 O.2   1 <1>  -0.5700 
  2 C        1.5670    -1.4670     2.1990 C.2   1 <1>   0.5690 
  3 N        1.1780    -0.4820     1.3350 N.am  1 <1>  -0.4930 
  4 C        0.6990    -2.7190     2.3590 C.3   1 <1>   0.2370 
  5 C        1.8750     0.6700     0.9010 C.2   1 <1>   0.0630 
  6 N       -0.1570    -2.9120     1.1590 N.pl3 1 <1>   0.0480 
  7 C       -0.1290    -2.6790     3.6570 C.3   1 <1>  -0.2400 
  8 C        2.6230     1.6070     1.6210 C.2   1 <1>   0.1080 
  9 C        1.9200     1.1010    -0.3780 C.2   1 <1>  -0.3320 
 10 C        0.3040    -3.1330    -0.1030 C.ar  1 <1>  -0.1520 
 11 C       -1.4840    -2.6500     1.0070 C.2   1 <1>   0.0360 
 12 N        3.0960     2.5430     0.8580 N.2   1 <1>  -0.7070 
 13 C        2.8780     1.6010     3.1110 C.3   1 <1>  -0.0590 
 14 N        2.6670     2.2350    -0.3780 N.pl3 1 <1>   0.3140 
 15 C        1.2940     0.4840    -1.6230 C.3   1 <1>  -0.0600 
 16 C       -0.7920    -2.9960    -0.9340 C.ar  1 <1>   0.2270 
 17 C        1.5710    -3.4150    -0.6240 C.ar  1 <1>  -0.1500 
 18 N       -1.8990    -2.6870    -0.2090 N.2   1 <1>  -0.5650 
 19 C        3.0180     3.0840    -1.5350 C.3   1 <1>   0.0960 
 20 C       -0.6500    -3.1520    -2.3110 C.ar  1 <1>  -0.1500 
 21 C        1.7030    -3.5640    -1.9870 C.ar  1 <1>  -0.1500 
 22 C        1.9410     4.1500    -1.7820 C.3   1 <1>  -0.1600 
 23 C        0.5940    -3.4350    -2.8310 C.ar  1 <1>  -0.1500 
 24 C        2.2910     5.0310    -2.9860 C.3   1 <1>  -0.2400 
 25 H        0.3730    -0.6970     0.7430 H     1 <1>   0.3700 
 26 H        1.3640    -3.5620     2.4130 H     1 <1>   0.0800 
 27 H       -0.7640    -1.8110     3.6810 H     1 <1>   0.0800 
 28 H        0.5360    -2.6260     4.5020 H     1 <1>   0.0800 
 29 H       -0.7230    -3.5700     3.7540 H     1 <1>   0.0800 
 30 H       -2.1220    -2.4220     1.8440 H     1 <1>   0.1500 
 31 H        2.0320     1.1930     3.6310 H     1 <1>   0.0800 
 32 H        3.0520     2.6030     3.4550 H     1 <1>   0.0800 
 33 H        3.7450     1.0030     3.3220 H     1 <1>   0.0800 
 34 H        0.7520    -0.4120    -1.3780 H     1 <1>   0.0800 
 35 H        2.0580     0.2260    -2.3330 H     1 <1>   0.0800 
 36 H        0.6100     1.1760    -2.0800 H     1 <1>   0.0800 
 37 H        2.4250    -3.5120     0.0240 H     1 <1>   0.1500 
 38 H        3.1370     2.4590    -2.3990 H     1 <1>   0.0800 
 39 H        3.9600     3.5570    -1.3240 H     1 <1>   0.0800 
 40 H       -1.5190    -3.0470    -2.9330 H     1 <1>   0.1500 
 41 H        2.6660    -3.7830    -2.4170 H     1 <1>   0.1500 
 42 H        1.8540     4.7680    -0.9030 H     1 <1>   0.0800 
 43 H        0.9930     3.6730    -1.9550 H     1 <1>   0.0800 
 44 H        0.7220    -3.5600    -3.8930 H     1 <1>   0.1500 
 45 H        3.2270     5.5370    -2.8230 H     1 <1>   0.0800 
 46 H        1.5260     5.7730    -3.1330 H     1 <1>   0.0800 
 47 H        2.3670     4.4380    -3.8810 H     1 <1>   0.0800 
@<TRIPOS>BOND
  1   1   2  2   
  2   2   3  am  
  3   2   4  1   
  4   3   5  1   
  5   3  25  1   
  6   4   6  1   
  7   4   7  1   
  8   4  26  1   
  9   5   8  1   
 10   5   9  2   
 11   6  10  1   
 12   6  11  1   
 13   7  27  1   
 14   7  28  1   
 15   7  29  1   
 16   8  12  2   
 17   8  13  1   
 18   9  14  1   
 19   9  15  1   
 20  10  16  ar  
 21  10  17  ar  
 22  11  18  2   
 23  11  30  1   
 24  12  14  1   
 25  13  31  1   
 26  13  32  1   
 27  13  33  1   
 28  14  19  1   
 29  15  34  1   
 30  15  35  1   
 31  15  36  1   
 32  16  18  1   
 33  16  20  ar  
 34  17  21  ar  
 35  17  37  1   
 36  19  22  1   
 37  19  38  1   
 38  19  39  1   
 39  20  23  ar  
 40  20  40  1   
 41  21  23  ar  
 42  21  41  1   
 43  22  24  1   
 44  22  42  1   
 45  22  43  1   
 46  23  44  1   
 47  24  45  1   
 48  24  46  1   
 49  24  47  1   
@<TRIPOS>SUBSTRUCTURE
  1 ****   3 GROUP 4 **** **** 0

# MOE 2024.06 (io_trps.svl 2023.06)
