@<TRIPOS>MOLECULE
NONAME
51 53 1 0 0 
SMALL
USER_CHARGES


@<TRIPOS>ATOM
  1 O       -0.5170     0.0930     0.1280 O.2   1 <1>  -0.5700 
  2 C       -1.4940     0.7640     0.3970 C.2   1 <1>   0.5440 
  3 N       -2.6970     0.1330     0.6240 N.am  1 <1>  -0.6600 
  4 C       -1.3820     2.2040     0.4680 C.ar  1 <1>   0.0860 
  5 C       -2.8230    -1.3590     0.6660 C.3   1 <1>   0.1400 
  6 C       -4.0250     0.8180     0.5690 C.3   1 <1>   0.1400 
  7 C       -1.0750     3.0080    -0.6280 C.ar  1 <1>  -0.1440 
  8 C       -1.6090     2.8390     1.6870 C.ar  1 <1>   0.1600 
  9 C       -3.7650    -1.8630    -0.4400 C.3   1 <1>   0.3440 
 10 C       -4.9020     0.2140    -0.5530 C.3   1 <1>   0.2000 
 11 C       -1.0310     4.3710    -0.4160 C.ar  1 <1>  -0.1500 
 12 C       -0.7970     2.4210    -2.0040 C.3   1 <1>  -0.0960 
 13 N       -1.5830     4.1440     1.9020 N.ar  1 <1>  -0.6200 
 14 O       -4.9900    -1.1780    -0.3780 O.3   1 <1>  -0.5600 
 15 C       -4.0100    -3.3620    -0.2950 C.ar  1 <1>  -0.1430 
 16 C       -6.3380     0.8120    -0.6500 C.3   1 <1>   0.0000 
 17 C       -1.2900     4.8810     0.8440 C.ar  1 <1>   0.1600 
 18 C       -3.1730    -4.2580    -0.9470 C.ar  1 <1>  -0.1500 
 19 C       -5.0450    -3.8550     0.4880 C.ar  1 <1>  -0.1500 
 20 C       -6.2860     2.3330    -0.8870 C.3   1 <1>  -0.2400 
 21 C       -7.1660     0.5450     0.6220 C.3   1 <1>  -0.2400 
 22 C       -7.0760     0.1810    -1.8450 C.3   1 <1>  -0.2400 
 23 C       -3.3670    -5.6220    -0.8170 C.ar  1 <1>  -0.1500 
 24 C       -5.2400    -5.2190     0.6180 C.ar  1 <1>  -0.1500 
 25 C       -4.4000    -6.1040    -0.0340 C.ar  1 <1>  -0.1500 
 26 H       -1.8630    -1.8300     0.5510 H     1 <1>   0.0800 
 27 H       -3.2160    -1.6540     1.6220 H     1 <1>   0.0800 
 28 H       -4.5160     0.7000     1.5180 H     1 <1>   0.0800 
 29 H       -3.8970     1.8690     0.3890 H     1 <1>   0.0800 
 30 H       -1.8330     2.2150     2.5360 H     1 <1>   0.1500 
 31 H       -3.3260    -1.6670    -1.4030 H     1 <1>   0.0800 
 32 H       -4.4090     0.3880    -1.4940 H     1 <1>   0.0800 
 33 H       -0.7960     5.0460    -1.2190 H     1 <1>   0.1500 
 34 H       -0.6580     3.1960    -2.7360 H     1 <1>   0.0800 
 35 H       -1.6170     1.7990    -2.3160 H     1 <1>   0.0800 
 36 H        0.0950     1.8200    -1.9700 H     1 <1>   0.0800 
 37 H       -1.2520     5.9480     0.9900 H     1 <1>   0.1500 
 38 H       -2.3640    -3.8980    -1.5580 H     1 <1>   0.1500 
 39 H       -5.7050    -3.1740     0.9970 H     1 <1>   0.1500 
 40 H       -7.2760     2.7200    -1.0550 H     1 <1>   0.0800 
 41 H       -5.6860     2.5610    -1.7500 H     1 <1>   0.0800 
 42 H       -5.8770     2.8480    -0.0370 H     1 <1>   0.0800 
 43 H       -8.1700     0.9100     0.5010 H     1 <1>   0.0800 
 44 H       -6.7370     1.0320     1.4780 H     1 <1>   0.0800 
 45 H       -7.2170    -0.5110     0.8210 H     1 <1>   0.0800 
 46 H       -8.0610     0.6000    -1.9530 H     1 <1>   0.0800 
 47 H       -7.1800    -0.8820    -1.7070 H     1 <1>   0.0800 
 48 H       -6.5330     0.3490    -2.7580 H     1 <1>   0.0800 
 49 H       -2.7130    -6.3090    -1.3260 H     1 <1>   0.1500 
 50 H       -6.0460    -5.5900     1.2270 H     1 <1>   0.1500 
 51 H       -4.5520    -7.1640     0.0670 H     1 <1>   0.1500 
@<TRIPOS>BOND
  1   1   2  2   
  2   2   3  am  
  3   2   4  1   
  4   3   5  1   
  5   3   6  1   
  6   4   7  ar  
  7   4   8  ar  
  8   5   9  1   
  9   5  26  1   
 10   5  27  1   
 11   6  10  1   
 12   6  28  1   
 13   6  29  1   
 14   7  11  ar  
 15   7  12  1   
 16   8  13  ar  
 17   8  30  1   
 18   9  14  1   
 19   9  15  1   
 20   9  31  1   
 21  10  14  1   
 22  10  16  1   
 23  10  32  1   
 24  11  17  ar  
 25  11  33  1   
 26  12  34  1   
 27  12  35  1   
 28  12  36  1   
 29  13  17  ar  
 30  15  18  ar  
 31  15  19  ar  
 32  16  20  1   
 33  16  21  1   
 34  16  22  1   
 35  17  37  1   
 36  18  23  ar  
 37  18  38  1   
 38  19  24  ar  
 39  19  39  1   
 40  20  40  1   
 41  20  41  1   
 42  20  42  1   
 43  21  43  1   
 44  21  44  1   
 45  21  45  1   
 46  22  46  1   
 47  22  47  1   
 48  22  48  1   
 49  23  25  ar  
 50  23  49  1   
 51  24  25  ar  
 52  24  50  1   
 53  25  51  1   
@<TRIPOS>SUBSTRUCTURE
  1 ****   3 GROUP 4 **** **** 0

# MOE 2024.06 (io_trps.svl 2023.06)
