@<TRIPOS>MOLECULE
NONAME
48 50 1 0 0 
SMALL
USER_CHARGES


@<TRIPOS>ATOM
  1 S       -0.1320    -1.1810    -0.5480 S.3   1 <1>  -0.0800 
  2 C       -1.8400    -1.3710    -0.7770 C.2   1 <1>   0.4420 
  3 C       -0.3420     0.4880    -0.9450 C.2   1 <1>   0.2280 
  4 N       -2.4100    -0.2690    -1.1070 N.2   1 <1>  -0.3380 
  5 N       -2.3500    -2.6380    -0.5820 N.am  1 <1>  -0.4940 
  6 N       -1.5480     0.7900    -1.2010 N.2   1 <1>  -0.3380 
  7 C       -3.6380    -3.0760    -0.6880 C.2   1 <1>   0.5690 
  8 O       -4.5700    -2.3730    -0.9760 O.2   1 <1>  -0.5700 
  9 C       -3.9040    -4.5380    -0.4050 C.3   1 <1>  -0.0990 
 10 C       -4.2780    -4.7570     1.0690 C.3   1 <1>  -0.0990 
 11 C       -4.4040    -6.2340     1.3820 C.2   1 <1>   0.5690 
 12 O       -3.4010    -6.8100     1.7310 O.2   1 <1>  -0.5700 
 13 N       -5.6010    -6.8790     1.2500 N.am  1 <1>  -0.6600 
 14 C       -6.8590    -6.2970     0.7260 C.3   1 <1>   0.1400 
 15 C       -5.7350    -8.3360     1.4490 C.3   1 <1>   0.1400 
 16 C       -7.8930    -7.4350     0.7650 C.3   1 <1>  -0.0800 
 17 C       -7.0540    -8.7270     0.7810 C.3   1 <1>  -0.0800 
 18 C       -9.0110    -7.3910    -0.3240 C.3   1 <1>   0.2800 
 19 C       -6.8540    -9.2720    -0.6420 C.3   1 <1>  -0.1600 
 20 O       -8.5510    -6.7510    -1.4600 O.3   1 <1>  -0.6800 
 21 C       -9.3890    -8.8200    -0.7540 C.3   1 <1>  -0.1600 
 22 C      -10.2710    -6.6280     0.1430 C.3   1 <1>  -0.1600 
 23 C       -8.1970    -9.6360    -1.3010 C.3   1 <1>  -0.1600 
 24 C      -10.0560    -5.1510     0.5180 C.3   1 <1>  -0.2400 
 25 H        0.5260     1.1230    -0.9460 H     1 <1>   0.1500 
 26 H       -1.6660    -3.3390    -0.3140 H     1 <1>   0.3700 
 27 H       -4.7090    -4.8700    -1.0360 H     1 <1>   0.0800 
 28 H       -3.0350    -5.1210    -0.6510 H     1 <1>   0.0800 
 29 H       -5.1910    -4.2420     1.3000 H     1 <1>   0.0800 
 30 H       -3.5100    -4.3480     1.7010 H     1 <1>   0.0800 
 31 H       -7.1770    -5.4680     1.3320 H     1 <1>   0.0800 
 32 H       -6.6770    -5.9540    -0.2770 H     1 <1>   0.0800 
 33 H       -4.8960    -8.8600     1.0230 H     1 <1>   0.0800 
 34 H       -5.7770    -8.5360     2.5060 H     1 <1>   0.0800 
 35 H       -8.3710    -7.3860     1.7270 H     1 <1>   0.0800 
 36 H       -7.5370    -9.4880     1.3700 H     1 <1>   0.0800 
 37 H       -6.3670    -8.5150    -1.2350 H     1 <1>   0.0800 
 38 H       -6.2120   -10.1360    -0.6280 H     1 <1>   0.0800 
 39 H       -9.2380    -6.7880    -2.1500 H     1 <1>   0.4000 
 40 H       -9.7780    -9.3320     0.1100 H     1 <1>   0.0800 
 41 H      -10.1790    -8.8000    -1.4840 H     1 <1>   0.0800 
 42 H      -11.0150    -6.6780    -0.6330 H     1 <1>   0.0800 
 43 H      -10.6840    -7.1360     0.9970 H     1 <1>   0.0800 
 44 H       -8.4000   -10.6830    -1.1530 H     1 <1>   0.0800 
 45 H       -8.1080    -9.4730    -2.3620 H     1 <1>   0.0800 
 46 H       -9.5930    -4.6140    -0.2920 H     1 <1>   0.0800 
 47 H       -9.4380    -5.0630     1.3920 H     1 <1>   0.0800 
 48 H      -11.0030    -4.6880     0.7320 H     1 <1>   0.0800 
@<TRIPOS>BOND
  1   1   2  1   
  2   1   3  1   
  3   2   4  2   
  4   2   5  1   
  5   3   6  2   
  6   3  25  1   
  7   4   6  1   
  8   5   7  am  
  9   5  26  1   
 10   7   8  2   
 11   7   9  1   
 12   9  10  1   
 13   9  27  1   
 14   9  28  1   
 15  10  11  1   
 16  10  29  1   
 17  10  30  1   
 18  11  12  2   
 19  11  13  am  
 20  13  14  1   
 21  13  15  1   
 22  14  16  1   
 23  14  31  1   
 24  14  32  1   
 25  15  17  1   
 26  15  33  1   
 27  15  34  1   
 28  16  17  1   
 29  16  18  1   
 30  16  35  1   
 31  17  19  1   
 32  17  36  1   
 33  18  20  1   
 34  18  21  1   
 35  18  22  1   
 36  19  23  1   
 37  19  37  1   
 38  19  38  1   
 39  20  39  1   
 40  21  23  1   
 41  21  40  1   
 42  21  41  1   
 43  22  24  1   
 44  22  42  1   
 45  22  43  1   
 46  23  44  1   
 47  23  45  1   
 48  24  46  1   
 49  24  47  1   
 50  24  48  1   
@<TRIPOS>SUBSTRUCTURE
  1 ****   9 GROUP 4 **** **** 0

# MOE 2024.06 (io_trps.svl 2023.06)
