@<TRIPOS>MOLECULE
NONAME
53 56 1 0 0 
SMALL
USER_CHARGES


@<TRIPOS>ATOM
  1 O       -1.3030    -0.6630     0.6570 O.3   1 <1>  -0.3630 
  2 C       -2.2530    -1.6160     0.5050 C.ar  1 <1>   0.0830 
  3 C       -0.1550    -0.6290    -0.1620 C.3   1 <1>   0.0400 
  4 C       -3.3330    -1.5700     1.3700 C.ar  1 <1>  -0.1500 
  5 C       -2.2010    -2.6210    -0.4550 C.ar  1 <1>  -0.1500 
  6 C       -4.3460    -2.5060     1.2810 C.ar  1 <1>  -0.1500 
  7 C       -3.2190    -3.5540    -0.5380 C.ar  1 <1>  -0.1500 
  8 C       -4.3160    -3.5170     0.3220 C.ar  1 <1>   0.0280 
  9 C       -5.3630    -4.5080     0.1990 C.2   1 <1>  -0.1780 
 10 C       -6.5750    -4.5040     0.7830 C.2   1 <1>  -0.2880 
 11 C       -7.6220    -5.5770     0.6040 C.3   1 <1>   0.4810 
 12 N       -8.6480    -5.0310    -0.3120 N.4   1 <1>  -0.9590 
 13 C       -9.5000    -3.9910     0.3630 C.3   1 <1>   0.3430 
 14 C       -9.4850    -6.1150    -0.9000 C.3   1 <1>   0.3430 
 15 C      -10.4940    -3.3350    -0.6120 C.3   1 <1>   0.1430 
 16 C      -10.4520    -5.5240    -1.9300 C.3   1 <1>  -0.1600 
 17 C      -11.3900    -2.4110     0.1770 C.ar  1 <1>   0.1670 
 18 C      -11.3330    -4.4140    -1.3280 C.3   1 <1>  -0.1600 
 19 C       -9.8100    -2.3640    -1.6140 C.3   1 <1>  -0.1600 
 20 N      -11.9820    -2.7350     1.2990 N.ar  1 <1>  -0.6200 
 21 C      -11.4960    -1.1840    -0.4060 C.ar  1 <1>  -0.1430 
 22 C      -10.6920    -1.1010    -1.6790 C.3   1 <1>  -0.0170 
 23 C      -12.7030    -1.7520     1.8230 C.ar  1 <1>   0.7200 
 24 C      -12.2790    -0.2480     0.2250 C.ar  1 <1>   0.1600 
 25 N      -12.8940    -0.5280     1.3520 N.ar  1 <1>  -0.6200 
 26 N      -13.3300    -2.0330     2.9650 N.pl3 1 <1>  -0.9000 
 27 H        0.4500     0.2040     0.1470 H     1 <1>   0.0800 
 28 H       -0.4600    -0.5000    -1.1850 H     1 <1>   0.0800 
 29 H        0.3920    -1.5460    -0.0340 H     1 <1>   0.0800 
 30 H       -3.3670    -0.7940     2.1130 H     1 <1>   0.1500 
 31 H       -1.3780    -2.6900    -1.1410 H     1 <1>   0.1500 
 32 H       -5.1610    -2.4400     1.9770 H     1 <1>   0.1500 
 33 H       -3.1560    -4.3220    -1.2870 H     1 <1>   0.1500 
 34 H       -5.0890    -5.3220    -0.4510 H     1 <1>   0.1500 
 35 H       -6.8950    -3.7180     1.4430 H     1 <1>   0.1500 
 36 H       -8.0530    -5.8580     1.5520 H     1 <1>   0.0800 
 37 H       -7.1630    -6.4460     0.1610 H     1 <1>   0.0800 
 38 H       -8.1310    -4.5680    -1.0700 H     1 <1>   0.4500 
 39 H      -10.0620    -4.4470     1.1620 H     1 <1>   0.0800 
 40 H       -8.8830    -3.2200     0.7950 H     1 <1>   0.0800 
 41 H       -8.8580    -6.8510    -1.3790 H     1 <1>   0.0800 
 42 H      -10.0490    -6.6040    -0.1210 H     1 <1>   0.0800 
 43 H       -9.8940    -5.1480    -2.7700 H     1 <1>   0.0800 
 44 H      -11.0870    -6.3100    -2.3010 H     1 <1>   0.0800 
 45 H      -12.0070    -4.8580    -0.6140 H     1 <1>   0.0800 
 46 H      -11.9390    -3.9630    -2.0960 H     1 <1>   0.0800 
 47 H       -8.8440    -2.0730    -1.2370 H     1 <1>   0.0800 
 48 H       -9.6780    -2.7910    -2.5930 H     1 <1>   0.0800 
 49 H      -11.3540    -1.1380    -2.5270 H     1 <1>   0.0800 
 50 H      -10.1000    -0.2020    -1.7190 H     1 <1>   0.0800 
 51 H      -12.4020     0.7370    -0.1940 H     1 <1>   0.1500 
 52 H      -13.5280    -3.0130     3.1390 H     1 <1>   0.4000 
 53 H      -14.0610    -1.3740     3.2210 H     1 <1>   0.4000 
@<TRIPOS>BOND
  1   1   2  1   
  2   1   3  1   
  3   2   4  ar  
  4   2   5  ar  
  5   3  27  1   
  6   3  28  1   
  7   3  29  1   
  8   4   6  ar  
  9   4  30  1   
 10   5   7  ar  
 11   5  31  1   
 12   6   8  ar  
 13   6  32  1   
 14   7   8  ar  
 15   7  33  1   
 16   8   9  1   
 17   9  10  2   
 18   9  34  1   
 19  10  11  1   
 20  10  35  1   
 21  11  12  1   
 22  11  36  1   
 23  11  37  1   
 24  12  13  1   
 25  12  14  1   
 26  12  38  1   
 27  13  15  1   
 28  13  39  1   
 29  13  40  1   
 30  14  16  1   
 31  14  41  1   
 32  14  42  1   
 33  15  17  1   
 34  15  18  1   
 35  15  19  1   
 36  16  18  1   
 37  16  43  1   
 38  16  44  1   
 39  17  20  ar  
 40  17  21  ar  
 41  18  45  1   
 42  18  46  1   
 43  19  22  1   
 44  19  47  1   
 45  19  48  1   
 46  20  23  ar  
 47  21  22  1   
 48  21  24  ar  
 49  22  49  1   
 50  22  50  1   
 51  23  25  ar  
 52  23  26  1   
 53  24  25  ar  
 54  24  51  1   
 55  26  52  1   
 56  26  53  1   
@<TRIPOS>SUBSTRUCTURE
  1 ****  13 GROUP 4 **** **** 0

# MOE 2024.06 (io_trps.svl 2023.06)
