@<TRIPOS>MOLECULE
NONAME
52 55 1 0 0 
SMALL
USER_CHARGES


@<TRIPOS>ATOM
  1 O       -1.3430    -0.3940    -1.3390 O.3   1 <1>  -0.5600 
  2 C       -2.4240    -0.7410    -2.1530 C.3   1 <1>   0.1200 
  3 C       -1.4290     0.9040    -0.8300 C.3   1 <1>   0.1200 
  4 C       -3.7410    -0.6370    -1.3630 C.3   1 <1>   0.1100 
  5 C       -2.7140     1.0670     0.0030 C.3   1 <1>   0.1100 
  6 N       -3.9190     0.7170    -0.7840 N.3   1 <1>  -0.8100 
  7 C       -5.1350     0.8350     0.0290 C.3   1 <1>   0.1100 
  8 C       -6.3800     0.9000    -0.8740 C.3   1 <1>   0.3430 
  9 N       -7.6410     1.2330    -0.1350 N.4   1 <1>  -0.9590 
 10 C       -7.6650     2.6420     0.3750 C.3   1 <1>   0.3430 
 11 C       -8.0100     0.2430     0.9150 C.3   1 <1>   0.3430 
 12 C       -9.0830     3.0210     0.8430 C.3   1 <1>   0.1430 
 13 C       -9.4170     0.5480     1.4400 C.3   1 <1>  -0.1600 
 14 C      -10.0270     3.0820    -0.3490 C.ar  1 <1>   0.1670 
 15 C       -9.5770     2.0090     1.9030 C.3   1 <1>  -0.1600 
 16 C       -9.1580     4.4680     1.3940 C.3   1 <1>  -0.1600 
 17 N      -10.1030     2.1920    -1.3190 N.ar  1 <1>  -0.6200 
 18 C      -10.8010     4.2030    -0.3080 C.ar  1 <1>  -0.1430 
 19 C      -10.4890     5.0590     0.8940 C.3   1 <1>  -0.0170 
 20 C      -11.0180     2.4710    -2.2420 C.ar  1 <1>   0.4770 
 21 C      -11.7080     4.3940    -1.3190 C.ar  1 <1>   0.1600 
 22 N      -11.8230     3.5220    -2.2980 N.ar  1 <1>  -0.6200 
 23 C      -11.1570     1.4770    -3.3700 C.3   1 <1>  -0.0970 
 24 H       -2.2680    -1.7500    -2.4910 H     1 <1>   0.0800 
 25 H       -2.4380    -0.0860    -3.0070 H     1 <1>   0.0800 
 26 H       -1.4190     1.5990    -1.6520 H     1 <1>   0.0800 
 27 H       -0.5610     1.0750    -0.2190 H     1 <1>   0.0800 
 28 H       -3.7270    -1.3770    -0.5800 H     1 <1>   0.0800 
 29 H       -4.5550    -0.8640    -2.0280 H     1 <1>   0.0800 
 30 H       -2.7810     2.0880     0.3350 H     1 <1>   0.0800 
 31 H       -2.6410     0.4340     0.8720 H     1 <1>   0.0800 
 32 H       -5.0730     1.7460     0.5990 H     1 <1>   0.0800 
 33 H       -5.1970     0.0030     0.7090 H     1 <1>   0.0800 
 34 H       -6.4980    -0.0500    -1.3670 H     1 <1>   0.0800 
 35 H       -6.2080     1.6470    -1.6310 H     1 <1>   0.0800 
 36 H       -8.4250     1.2230    -0.8230 H     1 <1>   0.4500 
 37 H       -7.3690     3.3180    -0.4110 H     1 <1>   0.0800 
 38 H       -6.9760     2.7480     1.1960 H     1 <1>   0.0800 
 39 H       -7.3040     0.2900     1.7270 H     1 <1>   0.0800 
 40 H       -7.9920    -0.7550     0.5040 H     1 <1>   0.0800 
 41 H       -9.6320    -0.1100     2.2640 H     1 <1>   0.0800 
 42 H      -10.1350     0.3280     0.6700 H     1 <1>   0.0800 
 43 H      -10.6130     2.1980     2.1320 H     1 <1>   0.0800 
 44 H       -9.0140     2.1440     2.8110 H     1 <1>   0.0800 
 45 H       -8.3590     5.0560     0.9770 H     1 <1>   0.0800 
 46 H       -9.0870     4.5140     2.4680 H     1 <1>   0.0800 
 47 H      -10.3900     6.0990     0.6310 H     1 <1>   0.0800 
 48 H      -11.2640     4.9420     1.6320 H     1 <1>   0.0800 
 49 H      -12.3450     5.2630    -1.3320 H     1 <1>   0.1500 
 50 H      -10.9660     0.4820    -3.0150 H     1 <1>   0.0800 
 51 H      -10.4580     1.7200    -4.1470 H     1 <1>   0.0800 
 52 H      -12.1520     1.5140    -3.7730 H     1 <1>   0.0800 
@<TRIPOS>BOND
  1   1   2  1   
  2   1   3  1   
  3   2   4  1   
  4   2  24  1   
  5   2  25  1   
  6   3   5  1   
  7   3  26  1   
  8   3  27  1   
  9   4   6  1   
 10   4  28  1   
 11   4  29  1   
 12   5   6  1   
 13   5  30  1   
 14   5  31  1   
 15   6   7  1   
 16   7   8  1   
 17   7  32  1   
 18   7  33  1   
 19   8   9  1   
 20   8  34  1   
 21   8  35  1   
 22   9  10  1   
 23   9  11  1   
 24   9  36  1   
 25  10  12  1   
 26  10  37  1   
 27  10  38  1   
 28  11  13  1   
 29  11  39  1   
 30  11  40  1   
 31  12  14  1   
 32  12  15  1   
 33  12  16  1   
 34  13  15  1   
 35  13  41  1   
 36  13  42  1   
 37  14  17  ar  
 38  14  18  ar  
 39  15  43  1   
 40  15  44  1   
 41  16  19  1   
 42  16  45  1   
 43  16  46  1   
 44  17  20  ar  
 45  18  19  1   
 46  18  21  ar  
 47  19  47  1   
 48  19  48  1   
 49  20  22  ar  
 50  20  23  1   
 51  21  22  ar  
 52  21  49  1   
 53  23  50  1   
 54  23  51  1   
 55  23  52  1   
@<TRIPOS>SUBSTRUCTURE
  1 ****   9 GROUP 4 **** **** 0

# MOE 2024.06 (io_trps.svl 2023.06)
