@<TRIPOS>MOLECULE
NONAME
56 59 1 0 0 
SMALL
USER_CHARGES


@<TRIPOS>ATOM
  1 O        0.0880    -2.7050    -2.5000 O.2   1 <1>  -0.5700 
  2 C        0.8810    -2.4200    -1.6140 C.2   1 <1>   0.7670 
  3 N        0.8550    -1.1340    -1.1490 N.2   1 <1>  -0.6610 
  4 C        1.8020    -3.3820    -1.0870 C.2   1 <1>  -0.1240 
  5 C        1.7040    -0.8100    -0.2510 C.2   1 <1>   0.4390 
  6 C        2.6950    -2.9740    -0.1470 C.2   1 <1>  -0.0380 
  7 C        1.7360    -4.8270    -1.6030 C.3   1 <1>   0.0390 
  8 N        2.6230    -1.6720     0.2610 N.pl3 1 <1>  -0.5500 
  9 C        1.7190     0.5970     0.2930 C.3   1 <1>  -0.1790 
 10 C        3.7780    -3.8090     0.5190 C.3   1 <1>  -0.1020 
 11 C        1.3450    -5.8220    -0.5150 C.2   1 <1>   0.5690 
 12 O        2.2190    -6.5620    -0.1230 O.2   1 <1>  -0.5700 
 13 N        0.0730    -5.8870     0.0020 N.am  1 <1>  -0.6600 
 14 C       -0.2300    -6.7240     1.2000 C.3   1 <1>   0.1400 
 15 C       -1.1160    -5.1510    -0.5140 C.3   1 <1>   0.1400 
 16 C       -1.3240    -7.7360     0.8580 C.3   1 <1>  -0.1600 
 17 C       -2.2200    -6.1480    -0.8680 C.3   1 <1>  -0.1600 
 18 C       -2.5880    -7.0510     0.3210 C.3   1 <1>   0.4240 
 19 O       -3.0400    -6.2310     1.3720 O.3   1 <1>  -0.5600 
 20 C       -3.6460    -8.1020    -0.0810 C.ar  1 <1>  -0.1430 
 21 C       -4.3740    -5.8280     1.3460 C.3   1 <1>   0.1200 
 22 C       -4.9130    -8.1050     0.4960 C.ar  1 <1>  -0.1430 
 23 C       -3.3530    -9.0660    -1.0390 C.ar  1 <1>  -0.1500 
 24 C       -5.2610    -7.0550     1.5320 C.3   1 <1>  -0.0170 
 25 C       -5.8550    -9.0540     0.1320 C.ar  1 <1>  -0.1500 
 26 C       -4.2930   -10.0120    -1.4060 C.ar  1 <1>  -0.1500 
 27 C       -5.5480   -10.0170    -0.8240 C.ar  1 <1>   0.0830 
 28 O       -6.4100   -10.9790    -1.2370 O.3   1 <1>  -0.3630 
 29 C       -7.7060   -11.0850    -0.6910 C.3   1 <1>   0.0400 
 30 H        2.7040    -5.0980    -1.9800 H     1 <1>   0.0800 
 31 H        1.0580    -4.9360    -2.4280 H     1 <1>   0.0800 
 32 H        3.2650    -1.3230     0.9750 H     1 <1>   0.4000 
 33 H        2.6690     1.0560     0.0970 H     1 <1>   0.0800 
 34 H        1.5360     0.5820     1.3520 H     1 <1>   0.0800 
 35 H        0.9500     1.1820    -0.1800 H     1 <1>   0.0800 
 36 H        4.6920    -3.2480     0.5850 H     1 <1>   0.0800 
 37 H        3.9890    -4.7040    -0.0330 H     1 <1>   0.0800 
 38 H        3.4670    -4.0860     1.5110 H     1 <1>   0.0800 
 39 H       -0.5590    -6.0830     2.0000 H     1 <1>   0.0800 
 40 H        0.6490    -7.2460     1.5370 H     1 <1>   0.0800 
 41 H       -0.8770    -4.5890    -1.3930 H     1 <1>   0.0800 
 42 H       -1.4640    -4.4650     0.2410 H     1 <1>   0.0800 
 43 H       -1.5790    -8.3070     1.7320 H     1 <1>   0.0800 
 44 H       -0.9290    -8.4190     0.1300 H     1 <1>   0.0800 
 45 H       -1.8720    -6.7540    -1.6840 H     1 <1>   0.0800 
 46 H       -3.0890    -5.6250    -1.2180 H     1 <1>   0.0800 
 47 H       -4.5800    -5.3380     0.4110 H     1 <1>   0.0800 
 48 H       -4.5240    -5.1300     2.1500 H     1 <1>   0.0800 
 49 H       -2.3880    -9.0910    -1.5120 H     1 <1>   0.1500 
 50 H       -6.2910    -6.7640     1.4360 H     1 <1>   0.0800 
 51 H       -5.1120    -7.4570     2.5190 H     1 <1>   0.0800 
 52 H       -6.8200    -9.0340     0.5980 H     1 <1>   0.1500 
 53 H       -4.0580   -10.7550    -2.1460 H     1 <1>   0.1500 
 54 H       -8.1980   -11.9180    -1.1600 H     1 <1>   0.0800 
 55 H       -8.2460   -10.1780    -0.8980 H     1 <1>   0.0800 
 56 H       -7.6260   -11.2550     0.3680 H     1 <1>   0.0800 
@<TRIPOS>BOND
  1   1   2  2   
  2   2   3  1   
  3   2   4  1   
  4   3   5  2   
  5   4   6  2   
  6   4   7  1   
  7   5   8  1   
  8   5   9  1   
  9   6   8  1   
 10   6  10  1   
 11   7  11  1   
 12   7  30  1   
 13   7  31  1   
 14   8  32  1   
 15   9  33  1   
 16   9  34  1   
 17   9  35  1   
 18  10  36  1   
 19  10  37  1   
 20  10  38  1   
 21  11  12  2   
 22  11  13  am  
 23  13  14  1   
 24  13  15  1   
 25  14  16  1   
 26  14  39  1   
 27  14  40  1   
 28  15  17  1   
 29  15  41  1   
 30  15  42  1   
 31  16  18  1   
 32  16  43  1   
 33  16  44  1   
 34  17  18  1   
 35  17  45  1   
 36  17  46  1   
 37  18  19  1   
 38  18  20  1   
 39  19  21  1   
 40  20  22  ar  
 41  20  23  ar  
 42  21  24  1   
 43  21  47  1   
 44  21  48  1   
 45  22  24  1   
 46  22  25  ar  
 47  23  26  ar  
 48  23  49  1   
 49  24  50  1   
 50  24  51  1   
 51  25  27  ar  
 52  25  52  1   
 53  26  27  ar  
 54  26  53  1   
 55  27  28  1   
 56  28  29  1   
 57  29  54  1   
 58  29  55  1   
 59  29  56  1   
@<TRIPOS>SUBSTRUCTURE
  1 ****  15 GROUP 4 **** **** 0

# MOE 2024.06 (io_trps.svl 2023.06)
