@<TRIPOS>MOLECULE
NONAME
43 45 1 0 0 
SMALL
USER_CHARGES


@<TRIPOS>ATOM
  1 O        0.7680     4.2460    -0.7110 O.2   1 <1>  -0.5700 
  2 C        0.1300     3.4080    -0.1180 C.2   1 <1>   0.5690 
  3 N       -1.2270     3.3100    -0.2710 N.am  1 <1>  -0.6600 
  4 C        0.8760     2.4920     0.8380 C.3   1 <1>  -0.0990 
  5 C       -2.0900     2.3610     0.4860 C.3   1 <1>   0.1400 
  6 C       -1.9500     4.1840    -1.2570 C.3   1 <1>   0.2010 
  7 C        0.0460     1.2900     1.3100 C.3   1 <1>  -0.1600 
  8 C       -1.3600     1.7590     1.6920 C.3   1 <1>  -0.1600 
  9 C       -2.2000     5.6000    -0.7400 C.2   1 <1>   0.5690 
 10 O       -3.3420     5.9900    -0.6490 O.2   1 <1>  -0.5700 
 11 N       -1.1170     6.3600    -0.4140 N.am  1 <1>  -0.4930 
 12 C       -1.0610     7.6890     0.0690 C.2   1 <1>   0.0630 
 13 C       -2.0980     8.5890     0.3160 C.2   1 <1>   0.1390 
 14 C        0.0580     8.3670     0.3930 C.2   1 <1>  -0.3020 
 15 N       -1.6660     9.7340     0.7580 N.2   1 <1>  -0.7070 
 16 N       -0.3250     9.5990     0.8020 N.pl3 1 <1>   0.3140 
 17 C        0.5420    10.6970     1.2850 C.3   1 <1>   0.2390 
 18 C        1.8890    10.7210     0.5700 C.ar  1 <1>  -0.1440 
 19 C        3.0570    10.4160     1.2540 C.ar  1 <1>  -0.1500 
 20 C        1.9540    11.0490    -0.7760 C.ar  1 <1>  -0.1500 
 21 C        4.2760    10.4400     0.5980 C.ar  1 <1>  -0.1500 
 22 C        3.1730    11.0720    -1.4320 C.ar  1 <1>  -0.1500 
 23 C        4.3340    10.7670    -0.7450 C.ar  1 <1>  -0.1500 
 24 H        1.1630     3.0820     1.6890 H     1 <1>   0.0800 
 25 H        1.7740     2.1470     0.3590 H     1 <1>   0.0800 
 26 H       -2.3920     1.5700    -0.1790 H     1 <1>   0.0800 
 27 H       -2.9750     2.8730     0.8270 H     1 <1>   0.0800 
 28 H       -2.8930     3.7380    -1.5150 H     1 <1>   0.0800 
 29 H       -1.3670     4.2540    -2.1580 H     1 <1>   0.0800 
 30 H        0.5270     0.8230     2.1520 H     1 <1>   0.0800 
 31 H       -0.0210     0.5650     0.5160 H     1 <1>   0.0800 
 32 H       -1.9320     0.9300     2.0710 H     1 <1>   0.0800 
 33 H       -1.3010     2.4970     2.4740 H     1 <1>   0.0800 
 34 H       -0.2110     5.8760    -0.4990 H     1 <1>   0.3700 
 35 H       -3.1400     8.3630     0.1610 H     1 <1>   0.1500 
 36 H        1.0840     8.0540     0.3520 H     1 <1>   0.1500 
 37 H        0.6780    10.5730     2.3430 H     1 <1>   0.0800 
 38 H        0.0290    11.6260     1.1180 H     1 <1>   0.0800 
 39 H        3.0270    10.1580     2.2980 H     1 <1>   0.1500 
 40 H        1.0550    11.2830    -1.3210 H     1 <1>   0.1500 
 41 H        5.1800    10.2040     1.1320 H     1 <1>   0.1500 
 42 H        3.2160    11.3250    -2.4770 H     1 <1>   0.1500 
 43 H        5.2820    10.7850    -1.2550 H     1 <1>   0.1500 
@<TRIPOS>BOND
  1   1   2  2   
  2   2   3  am  
  3   2   4  1   
  4   3   5  1   
  5   3   6  1   
  6   4   7  1   
  7   4  24  1   
  8   4  25  1   
  9   5   8  1   
 10   5  26  1   
 11   5  27  1   
 12   6   9  1   
 13   6  28  1   
 14   6  29  1   
 15   7   8  1   
 16   7  30  1   
 17   7  31  1   
 18   8  32  1   
 19   8  33  1   
 20   9  10  2   
 21   9  11  am  
 22  11  12  1   
 23  11  34  1   
 24  12  13  1   
 25  12  14  2   
 26  13  15  2   
 27  13  35  1   
 28  14  16  1   
 29  14  36  1   
 30  15  16  1   
 31  16  17  1   
 32  17  18  1   
 33  17  37  1   
 34  17  38  1   
 35  18  19  ar  
 36  18  20  ar  
 37  19  21  ar  
 38  19  39  1   
 39  20  22  ar  
 40  20  40  1   
 41  21  23  ar  
 42  21  41  1   
 43  22  23  ar  
 44  22  42  1   
 45  23  43  1   
@<TRIPOS>SUBSTRUCTURE
  1 ****  12 GROUP 4 **** **** 0

# MOE 2024.06 (io_trps.svl 2023.06)
