@<TRIPOS>MOLECULE
NONAME
43 45 1 0 0 
SMALL
USER_CHARGES


@<TRIPOS>ATOM
  1 CL      -2.9860     0.0590    -1.1090 Cl    1 <1>  -0.1230 
  2 C       -2.4020     1.5160    -0.3280 C.2   1 <1>   0.1230 
  3 C       -2.4510     1.8010     0.9940 C.2   1 <1>  -0.3020 
  4 C       -1.8050     2.5770    -0.9890 C.2   1 <1>  -0.1500 
  5 N       -1.8960     3.0240     1.1890 N.pl3 1 <1>   0.0480 
  6 C       -1.4910     3.5200    -0.0360 C.2   1 <1>  -0.2370 
  7 C       -1.7930     3.6830     2.5070 C.3   1 <1>   0.0160 
  8 C       -0.8620     4.7980    -0.2360 C.2   1 <1>   0.7150 
  9 O       -0.2550     5.3610     0.6580 O.2   1 <1>  -0.5700 
 10 N       -0.9590     5.3760    -1.4750 N.am  1 <1>  -0.4940 
 11 C       -0.5380     6.6340    -1.9760 C.2   1 <1>  -0.0880 
 12 N        0.6230     7.3090    -1.7270 N.pl3 1 <1>   0.3140 
 13 C       -1.2420     7.4050    -2.8370 C.2   1 <1>  -0.1500 
 14 N        0.6570     8.4870    -2.3990 N.2   1 <1>  -0.7070 
 15 C        1.7830     6.8970    -0.8940 C.3   1 <1>   0.1760 
 16 C       -0.4600     8.5290    -3.0550 C.2   1 <1>   0.1390 
 17 C        1.8410     7.7600     0.3750 C.3   1 <1>  -0.1600 
 18 C        3.1040     7.0060    -1.6750 C.3   1 <1>  -0.1600 
 19 C        3.0430     7.3850     1.2300 C.3   1 <1>   0.3430 
 20 C        4.2910     6.6580    -0.7830 C.3   1 <1>   0.3430 
 21 N        4.2900     7.5380     0.4230 N.4   1 <1>  -0.9590 
 22 C        5.5010     7.2970     1.2630 C.3   1 <1>   0.2630 
 23 H       -2.8520     1.1960     1.7870 H     1 <1>   0.1500 
 24 H       -1.6360     2.6020    -2.0510 H     1 <1>   0.1500 
 25 H       -2.3110     3.1010     3.2470 H     1 <1>   0.0800 
 26 H       -2.2320     4.6630     2.4520 H     1 <1>   0.0800 
 27 H       -0.7580     3.7700     2.7810 H     1 <1>   0.0800 
 28 H       -1.6280     4.8860    -2.0690 H     1 <1>   0.3700 
 29 H       -2.2070     7.2200    -3.2730 H     1 <1>   0.1500 
 30 H        1.6550     5.8660    -0.6260 H     1 <1>   0.0800 
 31 H       -0.7400     9.3510    -3.6950 H     1 <1>   0.1500 
 32 H        0.9450     7.6150     0.9530 H     1 <1>   0.0800 
 33 H        1.8960     8.8030     0.1140 H     1 <1>   0.0800 
 34 H        3.2350     8.0030    -2.0590 H     1 <1>   0.0800 
 35 H        3.0800     6.3290    -2.5110 H     1 <1>   0.0800 
 36 H        2.9420     6.3650     1.5660 H     1 <1>   0.0800 
 37 H        3.0800     8.0270     2.0960 H     1 <1>   0.0800 
 38 H        5.2060     6.7940    -1.3380 H     1 <1>   0.0800 
 39 H        4.2270     5.6250    -0.4820 H     1 <1>   0.0800 
 40 H        4.3140     8.5140     0.0870 H     1 <1>   0.4500 
 41 H        5.5060     6.2840     1.6330 H     1 <1>   0.0800 
 42 H        5.5130     7.9710     2.1050 H     1 <1>   0.0800 
 43 H        6.3970     7.4570     0.6850 H     1 <1>   0.0800 
@<TRIPOS>BOND
  1   1   2  1   
  2   2   3  2   
  3   2   4  1   
  4   3   5  1   
  5   3  23  1   
  6   4   6  2   
  7   4  24  1   
  8   5   6  1   
  9   5   7  1   
 10   6   8  1   
 11   7  25  1   
 12   7  26  1   
 13   7  27  1   
 14   8   9  2   
 15   8  10  am  
 16  10  11  1   
 17  10  28  1   
 18  11  12  1   
 19  11  13  2   
 20  12  14  1   
 21  12  15  1   
 22  13  16  1   
 23  13  29  1   
 24  14  16  2   
 25  15  17  1   
 26  15  18  1   
 27  15  30  1   
 28  16  31  1   
 29  17  19  1   
 30  17  32  1   
 31  17  33  1   
 32  18  20  1   
 33  18  34  1   
 34  18  35  1   
 35  19  21  1   
 36  19  36  1   
 37  19  37  1   
 38  20  21  1   
 39  20  38  1   
 40  20  39  1   
 41  21  22  1   
 42  21  40  1   
 43  22  41  1   
 44  22  42  1   
 45  22  43  1   
@<TRIPOS>SUBSTRUCTURE
  1 ****   9 GROUP 4 **** **** 0

# MOE 2024.06 (io_trps.svl 2023.06)
