@<TRIPOS>MOLECULE
NONAME
48 50 1 0 0 
SMALL
USER_CHARGES


@<TRIPOS>ATOM
  1 S        0.7600    -0.0790    -0.4520 S.o2  1 <1>   1.3330 
  2 O        0.5050    -0.1730    -1.8690 O.2   1 <1>  -0.6500 
  3 O       -0.2360    -0.4730     0.5130 O.2   1 <1>  -0.6500 
  4 N        1.1400     1.5540    -0.1520 N.am  1 <1>  -0.8490 
  5 C        2.2580    -0.9590    -0.0540 C.3   1 <1>  -0.1350 
  6 C        1.9920     2.1090    -1.2370 C.3   1 <1>   0.1960 
  7 C       -0.0990     2.3530    -0.0230 C.3   1 <1>   0.1960 
  8 C        2.6420     3.4640    -0.8790 C.3   1 <1>   0.3430 
  9 C        0.0570     3.4240     1.0610 C.3   1 <1>  -0.1600 
 10 N        2.4320     3.8020     0.5660 N.4   1 <1>  -0.9590 
 11 C        1.1300     4.4760     0.7940 C.3   1 <1>   0.3430 
 12 C        3.5860     4.5130     1.1890 C.3   1 <1>   0.5230 
 13 C        3.8870     5.8360     0.5130 C.2   1 <1>  -0.1400 
 14 S        5.3580     6.6160     1.0050 S.3   1 <1>  -0.0800 
 15 C        3.3020     6.6150    -0.4120 C.2   1 <1>   0.0770 
 16 C        5.0480     7.9440    -0.1090 C.2   1 <1>   0.3250 
 17 N        3.9470     7.7780    -0.7570 N.2   1 <1>  -0.5650 
 18 C        6.0160     9.0190    -0.1710 C.ar  1 <1>   0.0530 
 19 C        5.6540    10.3750    -0.1960 C.ar  1 <1>  -0.1440 
 20 C        7.3790     8.7150    -0.2070 C.ar  1 <1>  -0.1500 
 21 C        6.6270    11.3600    -0.2550 C.ar  1 <1>  -0.1500 
 22 C        4.1940    10.8090    -0.1560 C.3   1 <1>  -0.0970 
 23 C        8.3450     9.7010    -0.2620 C.ar  1 <1>  -0.1500 
 24 C        7.9690    11.0290    -0.2870 C.ar  1 <1>  -0.1500 
 25 H        2.0960    -2.0130    -0.1710 H     1 <1>   0.0800 
 26 H        2.5380    -0.7720     0.9640 H     1 <1>   0.0800 
 27 H        3.0590    -0.6680    -0.7010 H     1 <1>   0.0800 
 28 H        1.4260     2.2090    -2.1490 H     1 <1>   0.0800 
 29 H        2.7910     1.4200    -1.4520 H     1 <1>   0.0800 
 30 H       -0.9300     1.7340     0.2740 H     1 <1>   0.0800 
 31 H       -0.3750     2.7950    -0.9670 H     1 <1>   0.0800 
 32 H        2.2310     4.2370    -1.5060 H     1 <1>   0.0800 
 33 H        3.6960     3.4030    -1.0960 H     1 <1>   0.0800 
 34 H        0.2450     2.9420     2.0050 H     1 <1>   0.0800 
 35 H       -0.8850     3.9320     1.1620 H     1 <1>   0.0800 
 36 H        2.3180     2.8750     1.0160 H     1 <1>   0.4500 
 37 H        1.1960     5.1300     1.6500 H     1 <1>   0.0800 
 38 H        0.8610     5.0720    -0.0630 H     1 <1>   0.0800 
 39 H        4.4640     3.8900     1.1250 H     1 <1>   0.0800 
 40 H        3.3870     4.6900     2.2340 H     1 <1>   0.0800 
 41 H        2.3730     6.4230    -0.9180 H     1 <1>   0.1500 
 42 H        7.6950     7.6880    -0.1990 H     1 <1>   0.1500 
 43 H        6.3480    12.3990    -0.2770 H     1 <1>   0.1500 
 44 H        3.6810    10.3190     0.6520 H     1 <1>   0.0800 
 45 H        3.7110    10.5510    -1.0810 H     1 <1>   0.0800 
 46 H        4.1070    11.8700    -0.0120 H     1 <1>   0.0800 
 47 H        9.3880     9.4370    -0.2890 H     1 <1>   0.1500 
 48 H        8.7150    11.8030    -0.3320 H     1 <1>   0.1500 
@<TRIPOS>BOND
  1   1   2  2   
  2   1   3  2   
  3   1   4  am  
  4   1   5  1   
  5   4   6  1   
  6   4   7  1   
  7   5  25  1   
  8   5  26  1   
  9   5  27  1   
 10   6   8  1   
 11   6  28  1   
 12   6  29  1   
 13   7   9  1   
 14   7  30  1   
 15   7  31  1   
 16   8  10  1   
 17   8  32  1   
 18   8  33  1   
 19   9  11  1   
 20   9  34  1   
 21   9  35  1   
 22  10  11  1   
 23  10  12  1   
 24  10  36  1   
 25  11  37  1   
 26  11  38  1   
 27  12  13  1   
 28  12  39  1   
 29  12  40  1   
 30  13  14  1   
 31  13  15  2   
 32  14  16  1   
 33  15  17  1   
 34  15  41  1   
 35  16  17  2   
 36  16  18  1   
 37  18  19  ar  
 38  18  20  ar  
 39  19  21  ar  
 40  19  22  1   
 41  20  23  ar  
 42  20  42  1   
 43  21  24  ar  
 44  21  43  1   
 45  22  44  1   
 46  22  45  1   
 47  22  46  1   
 48  23  24  ar  
 49  23  47  1   
 50  24  48  1   
@<TRIPOS>SUBSTRUCTURE
  1 ****  13 GROUP 4 **** **** 0

# MOE 2024.06 (io_trps.svl 2023.06)
