@<TRIPOS>MOLECULE
NONAME
45 48 1 0 0 
SMALL
USER_CHARGES


@<TRIPOS>ATOM
  1 S       -0.0170     0.0100     1.0690 S.3   1 <1>  -0.0800 
  2 C       -0.2800    -1.7170     1.1380 C.ar  1 <1>   0.0400 
  3 C        1.0970    -0.2330    -0.2720 C.2   1 <1>   0.1980 
  4 C        0.4890    -2.3090     0.1540 C.ar  1 <1>   0.2270 
  5 C       -1.0930    -2.4330     1.9940 C.ar  1 <1>  -0.1500 
  6 N        1.2520    -1.4420    -0.6240 N.2   1 <1>  -0.5650 
  7 C        1.7430     1.0020    -0.8570 C.3   1 <1>  -0.0600 
  8 C        0.4400    -3.6860     0.0190 C.ar  1 <1>  -0.1500 
  9 C       -1.1270    -3.8080     1.8390 C.ar  1 <1>  -0.1500 
 10 C       -0.3730    -4.4580     0.8490 C.ar  1 <1>   0.0860 
 11 C       -0.4280    -5.8990     0.6900 C.2   1 <1>   0.5440 
 12 O        0.6040    -6.5380     0.6210 O.2   1 <1>  -0.5700 
 13 N       -1.6260    -6.5700     0.5990 N.am  1 <1>  -0.6600 
 14 C       -2.9160    -5.9480     0.2050 C.3   1 <1>   0.1400 
 15 C       -1.6920    -8.0450     0.4460 C.3   1 <1>   0.1400 
 16 C       -3.7020    -7.0750    -0.4630 C.3   1 <1>   0.2000 
 17 C       -3.1600    -8.3600     0.1560 C.3   1 <1>  -0.0800 
 18 O       -5.0620    -6.9610    -0.2250 O.3   1 <1>  -0.6800 
 19 C       -3.3600    -9.5950    -0.7350 C.3   1 <1>   0.0210 
 20 C       -2.7270   -10.8210    -0.1080 C.2   1 <1>   0.1080 
 21 N       -3.1290   -11.3200     1.0190 N.2   1 <1>  -0.7070 
 22 C       -1.6590   -11.5300    -0.6470 C.2   1 <1>  -0.1500 
 23 N       -2.3200   -12.3760     1.2310 N.pl3 1 <1>   0.3000 
 24 C       -1.4200   -12.5220     0.2360 C.2   1 <1>  -0.3320 
 25 C       -0.3700   -13.6170     0.1910 C.3   1 <1>  -0.0600 
 26 H       -1.6700    -1.9310     2.7510 H     1 <1>   0.1500 
 27 H        2.3960     0.7210    -1.6630 H     1 <1>   0.0800 
 28 H        2.3150     1.5060    -0.1010 H     1 <1>   0.0800 
 29 H        0.9870     1.6650    -1.2340 H     1 <1>   0.0800 
 30 H        1.0420    -4.1580    -0.7360 H     1 <1>   0.1500 
 31 H       -1.7400    -4.4020     2.4950 H     1 <1>   0.1500 
 32 H       -3.4260    -5.6030     1.0870 H     1 <1>   0.0800 
 33 H       -2.7570    -5.1340    -0.4800 H     1 <1>   0.0800 
 34 H       -1.0620    -8.3420    -0.3760 H     1 <1>   0.0800 
 35 H       -1.3550    -8.5380     1.3430 H     1 <1>   0.0800 
 36 H       -3.5380    -7.0490    -1.5270 H     1 <1>   0.0800 
 37 H       -3.6370    -8.5320     1.1060 H     1 <1>   0.0800 
 38 H       -5.2620    -7.1810     0.7060 H     1 <1>   0.4000 
 39 H       -2.9280    -9.4260    -1.7050 H     1 <1>   0.0800 
 40 H       -4.4120    -9.7790    -0.8630 H     1 <1>   0.0800 
 41 H       -1.1510   -11.3120    -1.5690 H     1 <1>   0.1500 
 42 H       -2.4080   -12.9730     2.0610 H     1 <1>   0.2700 
 43 H        0.2260   -13.5200    -0.7000 H     1 <1>   0.0800 
 44 H       -0.8400   -14.5840     0.1850 H     1 <1>   0.0800 
 45 H        0.2790   -13.5460     1.0460 H     1 <1>   0.0800 
@<TRIPOS>BOND
  1   1   2  1   
  2   1   3  1   
  3   2   4  ar  
  4   2   5  ar  
  5   3   6  2   
  6   3   7  1   
  7   4   6  1   
  8   4   8  ar  
  9   5   9  ar  
 10   5  26  1   
 11   7  27  1   
 12   7  28  1   
 13   7  29  1   
 14   8  10  ar  
 15   8  30  1   
 16   9  10  ar  
 17   9  31  1   
 18  10  11  1   
 19  11  12  2   
 20  11  13  am  
 21  13  14  1   
 22  13  15  1   
 23  14  16  1   
 24  14  32  1   
 25  14  33  1   
 26  15  17  1   
 27  15  34  1   
 28  15  35  1   
 29  16  17  1   
 30  16  18  1   
 31  16  36  1   
 32  17  19  1   
 33  17  37  1   
 34  18  38  1   
 35  19  20  1   
 36  19  39  1   
 37  19  40  1   
 38  20  21  2   
 39  20  22  1   
 40  21  23  1   
 41  22  24  2   
 42  22  41  1   
 43  23  24  1   
 44  23  42  1   
 45  24  25  1   
 46  25  43  1   
 47  25  44  1   
 48  25  45  1   
@<TRIPOS>SUBSTRUCTURE
  1 ****  13 GROUP 4 **** **** 0

# MOE 2024.06 (io_trps.svl 2023.06)
