@<TRIPOS>MOLECULE
NONAME
54 56 1 0 0 
SMALL
USER_CHARGES


@<TRIPOS>ATOM
  1 O       -0.8230     0.4770    -0.6360 O.2   1 <1>  -0.5700 
  2 C       -1.2190     1.4590    -0.0330 C.2   1 <1>   0.5440 
  3 N       -2.3720     1.3450     0.7220 N.am  1 <1>  -0.6600 
  4 C       -0.4850     2.7020    -0.1390 C.ar  1 <1>   0.0860 
  5 C       -2.9380    -0.0040     1.0170 C.3   1 <1>   0.1400 
  6 C       -3.1750     2.5250     1.1580 C.3   1 <1>   0.1400 
  7 C       -0.1240     3.2190    -1.3840 C.ar  1 <1>  -0.1500 
  8 C       -0.1110     3.4350     0.9890 C.ar  1 <1>  -0.1500 
  9 C       -3.8070    -0.5170    -0.1420 C.3   1 <1>   0.1400 
 10 C       -4.6760     2.3890     0.8660 C.3   1 <1>  -0.1600 
 11 C        0.5530     4.4170    -1.4980 C.ar  1 <1>  -0.1500 
 12 C        0.5630     4.6340     0.8760 C.ar  1 <1>  -0.1500 
 13 N       -5.0990     0.2280    -0.2700 N.am  1 <1>  -0.6600 
 14 C       -4.9970     1.7010    -0.4650 C.3   1 <1>   0.1400 
 15 C        0.9030     5.1520    -0.3690 C.ar  1 <1>   0.1000 
 16 C       -6.3320    -0.3810    -0.1400 C.2   1 <1>   0.7160 
 17 N        1.5760     6.3620    -0.4610 N.pl3 1 <1>  -0.8380 
 18 O       -7.2880     0.3050     0.1760 O.2   1 <1>  -0.5700 
 19 C       -6.5070    -1.7980    -0.3670 C.2   1 <1>  -0.0860 
 20 C        2.9030     6.5140     0.1930 C.3   1 <1>   0.1290 
 21 C        1.2790     7.3270    -1.5520 C.3   1 <1>   0.1290 
 22 C       -7.3320    -2.6710     0.3540 C.2   1 <1>   0.1080 
 23 C       -5.9490    -2.6160    -1.3040 C.2   1 <1>  -0.3020 
 24 N       -7.2770    -3.8900    -0.0790 N.2   1 <1>  -0.7070 
 25 C       -8.2100    -2.2810     1.5230 C.3   1 <1>  -0.0590 
 26 N       -6.4240    -3.8530    -1.1100 N.pl3 1 <1>   0.3140 
 27 C       -6.1110    -5.0600    -1.8820 C.3   1 <1>   0.0160 
 28 H       -3.5110     0.0190     1.9270 H     1 <1>   0.0800 
 29 H       -2.1240    -0.6930     1.1630 H     1 <1>   0.0800 
 30 H       -2.8220     3.4030     0.6440 H     1 <1>   0.0800 
 31 H       -3.0280     2.6830     2.2130 H     1 <1>   0.0800 
 32 H       -0.3800     2.6610    -2.2680 H     1 <1>   0.1500 
 33 H       -0.3550     3.0520     1.9630 H     1 <1>   0.1500 
 34 H       -3.9990    -1.5570     0.0440 H     1 <1>   0.0800 
 35 H       -3.2560    -0.4460    -1.0630 H     1 <1>   0.0800 
 36 H       -5.0900     3.3800     0.8430 H     1 <1>   0.0800 
 37 H       -5.1670     1.8700     1.6700 H     1 <1>   0.0800 
 38 H        0.8240     4.7870    -2.4680 H     1 <1>   0.1500 
 39 H        0.8320     5.1910     1.7540 H     1 <1>   0.1500 
 40 H       -4.2450     1.9240    -1.2030 H     1 <1>   0.0800 
 41 H       -5.9370     2.0750    -0.8360 H     1 <1>   0.0800 
 42 H        3.1290     5.6440     0.7850 H     1 <1>   0.0800 
 43 H        2.8950     7.3790     0.8310 H     1 <1>   0.0800 
 44 H        3.6680     6.6290    -0.5540 H     1 <1>   0.0800 
 45 H        0.2770     7.1750    -1.9140 H     1 <1>   0.0800 
 46 H        1.9730     7.1890    -2.3620 H     1 <1>   0.0800 
 47 H        1.3600     8.3330    -1.1790 H     1 <1>   0.0800 
 48 H       -5.2560    -2.3640    -2.0840 H     1 <1>   0.1500 
 49 H       -7.6420    -1.7190     2.2400 H     1 <1>   0.0800 
 50 H       -8.6030    -3.1610     1.9980 H     1 <1>   0.0800 
 51 H       -9.0280    -1.6780     1.1720 H     1 <1>   0.0800 
 52 H       -5.3650    -4.8350    -2.6200 H     1 <1>   0.0800 
 53 H       -7.0080    -5.4060    -2.3600 H     1 <1>   0.0800 
 54 H       -5.7470    -5.8160    -1.2110 H     1 <1>   0.0800 
@<TRIPOS>BOND
  1   1   2  2   
  2   2   3  am  
  3   2   4  1   
  4   3   5  1   
  5   3   6  1   
  6   4   7  ar  
  7   4   8  ar  
  8   5   9  1   
  9   5  28  1   
 10   5  29  1   
 11   6  10  1   
 12   6  30  1   
 13   6  31  1   
 14   7  11  ar  
 15   7  32  1   
 16   8  12  ar  
 17   8  33  1   
 18   9  13  1   
 19   9  34  1   
 20   9  35  1   
 21  10  14  1   
 22  10  36  1   
 23  10  37  1   
 24  11  15  ar  
 25  11  38  1   
 26  12  15  ar  
 27  12  39  1   
 28  13  14  1   
 29  13  16  am  
 30  14  40  1   
 31  14  41  1   
 32  15  17  1   
 33  16  18  2   
 34  16  19  1   
 35  17  20  1   
 36  17  21  1   
 37  19  22  1   
 38  19  23  2   
 39  20  42  1   
 40  20  43  1   
 41  20  44  1   
 42  21  45  1   
 43  21  46  1   
 44  21  47  1   
 45  22  24  2   
 46  22  25  1   
 47  23  26  1   
 48  23  48  1   
 49  24  26  1   
 50  25  49  1   
 51  25  50  1   
 52  25  51  1   
 53  26  27  1   
 54  27  52  1   
 55  27  53  1   
 56  27  54  1   
@<TRIPOS>SUBSTRUCTURE
  1 ****   3 GROUP 4 **** **** 0

# MOE 2024.06 (io_trps.svl 2023.06)
