@<TRIPOS>MOLECULE
NONAME
48 50 1 0 0 
SMALL
USER_CHARGES


@<TRIPOS>ATOM
  1 O        0.9800     0.4300    -2.9830 O.2   1 <1>  -0.5700 
  2 C        0.7770    -0.1420    -1.9370 C.2   1 <1>   0.5690 
  3 N        0.8060     0.5120    -0.7500 N.am  1 <1>  -0.7300 
  4 C        0.5210    -1.6540    -1.9300 C.3   1 <1>   0.1710 
  5 C        1.0680     1.9450    -0.5550 C.3   1 <1>   0.3200 
  6 N       -0.1250    -2.1610    -0.6840 N.3   1 <1>  -0.8100 
  7 C        2.5530     2.1840    -0.6810 C.2   1 <1>  -0.3320 
  8 C       -1.5640    -1.8050    -0.6450 C.3   1 <1>   0.1100 
  9 C        0.0090    -3.6310    -0.5790 C.3   1 <1>   0.1100 
 10 N        3.2280     1.8920    -1.8090 N.pl3 1 <1>   0.3000 
 11 C        3.4530     2.6940     0.1880 C.2   1 <1>  -0.1500 
 12 C       -2.2520    -2.2900     0.6440 C.3   1 <1>   0.2090 
 13 C       -0.6190    -4.1840     0.7140 C.3   1 <1>   0.2090 
 14 N        4.5370     2.1940    -1.6990 N.2   1 <1>  -0.7070 
 15 C        4.6650     2.6780    -0.4980 C.2   1 <1>   0.1080 
 16 N       -2.0480    -3.7580     0.8520 N.pl3 1 <1>  -0.8380 
 17 C        6.0030     3.1560     0.0530 C.3   1 <1>   0.3010 
 18 C       -3.0210    -4.5770     1.3900 C.ar  1 <1>   0.7200 
 19 O        5.8540     3.7470     1.3160 O.3   1 <1>  -0.5600 
 20 N       -2.7060    -5.8590     1.5770 N.ar  1 <1>  -0.6200 
 21 N       -4.1960    -4.0170     1.6810 N.ar  1 <1>  -0.6200 
 22 C        7.0430     4.2190     1.8610 C.3   1 <1>   0.0400 
 23 C       -3.6390    -6.6230     2.0890 C.ar  1 <1>   0.1600 
 24 C       -5.1100    -4.8040     2.1930 C.ar  1 <1>   0.1600 
 25 C       -4.8790    -6.1380     2.4210 C.ar  1 <1>  -0.1500 
 26 H        0.7090    -0.0670     0.0900 H     1 <1>   0.3700 
 27 H        1.4790    -2.1280    -2.0480 H     1 <1>   0.0800 
 28 H       -0.0790    -1.9090    -2.7860 H     1 <1>   0.0800 
 29 H        0.7210     2.2480     0.4180 H     1 <1>   0.0800 
 30 H        0.5410     2.5140    -1.3030 H     1 <1>   0.0800 
 31 H       -2.0730    -2.2420    -1.4870 H     1 <1>   0.0800 
 32 H       -1.6760    -0.7370    -0.7090 H     1 <1>   0.0800 
 33 H        1.0520    -3.8970    -0.5900 H     1 <1>   0.0800 
 34 H       -0.4660    -4.1050    -1.4210 H     1 <1>   0.0800 
 35 H        2.8020     1.4710    -2.6500 H     1 <1>   0.2700 
 36 H        3.3130     3.0490     1.1940 H     1 <1>   0.1500 
 37 H       -3.2990    -2.0530     0.5750 H     1 <1>   0.0800 
 38 H       -1.8470    -1.7580     1.4860 H     1 <1>   0.0800 
 39 H       -0.0640    -3.8200     1.5600 H     1 <1>   0.0800 
 40 H       -0.5330    -5.2550     0.6990 H     1 <1>   0.0800 
 41 H        6.4220     3.8820    -0.6210 H     1 <1>   0.0800 
 42 H        6.6700     2.3170     0.1410 H     1 <1>   0.0800 
 43 H        6.8220     4.6490     2.8220 H     1 <1>   0.0800 
 44 H        7.4570     4.9720     1.2140 H     1 <1>   0.0800 
 45 H        7.7300     3.3990     1.9810 H     1 <1>   0.0800 
 46 H       -3.4080    -7.6630     2.2480 H     1 <1>   0.1500 
 47 H       -6.0660    -4.3750     2.4360 H     1 <1>   0.1500 
 48 H       -5.6350    -6.7740     2.8400 H     1 <1>   0.1500 
@<TRIPOS>BOND
  1   1   2  2   
  2   2   3  am  
  3   2   4  1   
  4   3   5  1   
  5   3  26  1   
  6   4   6  1   
  7   4  27  1   
  8   4  28  1   
  9   5   7  1   
 10   5  29  1   
 11   5  30  1   
 12   6   8  1   
 13   6   9  1   
 14   7  10  1   
 15   7  11  2   
 16   8  12  1   
 17   8  31  1   
 18   8  32  1   
 19   9  13  1   
 20   9  33  1   
 21   9  34  1   
 22  10  14  1   
 23  10  35  1   
 24  11  15  1   
 25  11  36  1   
 26  12  16  1   
 27  12  37  1   
 28  12  38  1   
 29  13  16  1   
 30  13  39  1   
 31  13  40  1   
 32  14  15  2   
 33  15  17  1   
 34  16  18  1   
 35  17  19  1   
 36  17  41  1   
 37  17  42  1   
 38  18  20  ar  
 39  18  21  ar  
 40  19  22  1   
 41  20  23  ar  
 42  21  24  ar  
 43  22  43  1   
 44  22  44  1   
 45  22  45  1   
 46  23  25  ar  
 47  23  46  1   
 48  24  25  ar  
 49  24  47  1   
 50  25  48  1   
@<TRIPOS>SUBSTRUCTURE
  1 ****   6 GROUP 4 **** **** 0

# MOE 2024.06 (io_trps.svl 2023.06)
