@<TRIPOS>MOLECULE
NONAME
46 48 1 0 0 
SMALL
USER_CHARGES


@<TRIPOS>ATOM
  1 CL      -1.3340    -1.3010    -1.2950 Cl    1 <1>  -0.1240 
  2 C       -2.6100    -0.1830    -0.8620 C.2   1 <1>  -0.0280 
  3 N       -2.7550     1.0310    -1.4230 N.pl3 1 <1>   0.3140 
  4 C       -3.5940    -0.3630     0.0390 C.2   1 <1>  -0.1810 
  5 N       -3.8370     1.6460    -0.9060 N.2   1 <1>  -0.7070 
  6 C       -1.9080     1.6610    -2.4440 C.3   1 <1>   0.0160 
  7 C       -4.3280     0.8190    -0.0320 C.2   1 <1>   0.1080 
  8 C       -3.8590    -1.5600     0.9180 C.3   1 <1>   0.5240 
  9 C       -5.5650     1.1540     0.7850 C.3   1 <1>   0.0210 
 10 N       -4.0330    -2.7480     0.0440 N.4   1 <1>  -0.9590 
 11 C       -5.1920     1.5870     2.2070 C.3   1 <1>  -0.2400 
 12 C       -5.2560    -2.6010    -0.8060 C.3   1 <1>   0.3430 
 13 C       -4.2110    -3.9890     0.8600 C.3   1 <1>   0.3430 
 14 C       -6.3370    -3.4290    -0.1070 C.3   1 <1>   0.2000 
 15 C       -5.5540    -4.6160     0.4490 C.3   1 <1>  -0.0800 
 16 O       -6.8310    -2.6930     0.9670 O.3   1 <1>  -0.6800 
 17 C       -5.3920    -5.7300    -0.6100 C.3   1 <1>  -0.0170 
 18 C       -4.6540    -6.9440    -0.0650 C.ar  1 <1>   0.1670 
 19 N       -3.3420    -6.8230     0.0600 N.ar  1 <1>  -0.6200 
 20 C       -5.3550    -8.1040     0.2650 C.ar  1 <1>   0.1600 
 21 C       -2.7820    -7.9320     0.5220 C.ar  1 <1>   0.1600 
 22 N       -4.7980    -9.2040     0.7390 N.ar  1 <1>  -0.6200 
 23 C       -3.4860    -9.0830     0.8520 C.ar  1 <1>   0.1600 
 24 H       -1.8870     1.0430    -3.3210 H     1 <1>   0.0800 
 25 H       -0.9140     1.7790    -2.0550 H     1 <1>   0.0800 
 26 H       -2.3130     2.6250    -2.6920 H     1 <1>   0.0800 
 27 H       -4.7480    -1.3980     1.5060 H     1 <1>   0.0800 
 28 H       -3.0230    -1.7050     1.5830 H     1 <1>   0.0800 
 29 H       -6.0920     1.9570     0.2990 H     1 <1>   0.0800 
 30 H       -6.2240     0.3050     0.8190 H     1 <1>   0.0800 
 31 H       -3.1940    -2.8110    -0.5510 H     1 <1>   0.4500 
 32 H       -4.5450     2.4460     2.1660 H     1 <1>   0.0800 
 33 H       -4.6850     0.7980     2.7300 H     1 <1>   0.0800 
 34 H       -6.0780     1.8540     2.7550 H     1 <1>   0.0800 
 35 H       -5.5620    -1.5740    -0.9190 H     1 <1>   0.0800 
 36 H       -5.0660    -3.0190    -1.7810 H     1 <1>   0.0800 
 37 H       -3.3860    -4.6640     0.7130 H     1 <1>   0.0800 
 38 H       -4.2550    -3.7330     1.9060 H     1 <1>   0.0800 
 39 H       -7.1540    -3.6910    -0.7600 H     1 <1>   0.0800 
 40 H       -6.0460    -5.0390     1.3080 H     1 <1>   0.0800 
 41 H       -7.6460    -3.1010     1.3320 H     1 <1>   0.4000 
 42 H       -4.8530    -5.3660    -1.4680 H     1 <1>   0.0800 
 43 H       -6.3640    -6.0400    -0.9520 H     1 <1>   0.0800 
 44 H       -6.4220    -8.1290     0.1330 H     1 <1>   0.1500 
 45 H       -1.7130    -7.9330     0.6470 H     1 <1>   0.1500 
 46 H       -2.9440    -9.9350     1.2220 H     1 <1>   0.1500 
@<TRIPOS>BOND
  1   1   2  1   
  2   2   3  1   
  3   2   4  2   
  4   3   5  1   
  5   3   6  1   
  6   4   7  1   
  7   4   8  1   
  8   5   7  2   
  9   6  24  1   
 10   6  25  1   
 11   6  26  1   
 12   7   9  1   
 13   8  10  1   
 14   8  27  1   
 15   8  28  1   
 16   9  11  1   
 17   9  29  1   
 18   9  30  1   
 19  10  12  1   
 20  10  13  1   
 21  10  31  1   
 22  11  32  1   
 23  11  33  1   
 24  11  34  1   
 25  12  14  1   
 26  12  35  1   
 27  12  36  1   
 28  13  15  1   
 29  13  37  1   
 30  13  38  1   
 31  14  15  1   
 32  14  16  1   
 33  14  39  1   
 34  15  17  1   
 35  15  40  1   
 36  16  41  1   
 37  17  18  1   
 38  17  42  1   
 39  17  43  1   
 40  18  19  ar  
 41  18  20  ar  
 42  19  21  ar  
 43  20  22  ar  
 44  20  44  1   
 45  21  23  ar  
 46  21  45  1   
 47  22  23  ar  
 48  23  46  1   
@<TRIPOS>SUBSTRUCTURE
  1 ****  10 GROUP 4 **** **** 0

# MOE 2024.06 (io_trps.svl 2023.06)
