@<TRIPOS>MOLECULE
NONAME
42 44 1 0 0 
SMALL
USER_CHARGES


@<TRIPOS>ATOM
  1 F       -0.6660    -0.2590     0.6110 F     1 <1>  -0.1900 
  2 C       -1.8070    -0.8780     0.3970 C.ar  1 <1>   0.1900 
  3 C       -2.9110    -0.2720    -0.1910 C.ar  1 <1>   0.3920 
  4 C       -1.9100    -2.1890     0.7750 C.ar  1 <1>   0.1600 
  5 O       -2.9760     1.0100    -0.6230 O.3   1 <1>  -0.3630 
  6 N       -4.0230    -0.9490    -0.3730 N.ar  1 <1>  -0.6200 
  7 N       -3.0170    -2.8740     0.5940 N.ar  1 <1>  -0.6200 
  8 C       -1.9160     1.9380    -0.5450 C.3   1 <1>   0.0400 
  9 C       -4.0340    -2.2190     0.0300 C.ar  1 <1>   0.7200 
 10 N       -5.2050    -2.9250    -0.1580 N.pl3 1 <1>  -0.8380 
 11 C       -5.2000    -4.3960    -0.3940 C.3   1 <1>   0.2090 
 12 C       -6.4930    -2.2370    -0.4550 C.3   1 <1>   0.2090 
 13 C       -6.3460    -5.0600     0.3720 C.3   1 <1>  -0.1600 
 14 C       -7.6400    -2.9100     0.3040 C.3   1 <1>  -0.1600 
 15 C       -7.7080    -4.4240     0.0250 C.3   1 <1>  -0.0800 
 16 C       -8.9120    -5.0830     0.7400 C.3   1 <1>   0.3430 
 17 O       -8.7610    -4.9930     2.1130 O.3   1 <1>  -0.6800 
 18 C       -9.0930    -6.5640     0.3690 C.ar  1 <1>   0.1670 
 19 N       -8.5030    -7.4790     1.1390 N.ar  1 <1>  -0.6200 
 20 C       -9.8600    -6.8800    -0.7440 C.ar  1 <1>  -0.1500 
 21 C       -8.6850    -8.7400     0.7800 C.ar  1 <1>   0.1600 
 22 C      -10.0400    -8.1980    -1.1040 C.ar  1 <1>  -0.1500 
 23 C       -9.4300    -9.1470    -0.3130 C.ar  1 <1>  -0.1500 
 24 H       -1.0710    -2.6840     1.2320 H     1 <1>   0.1500 
 25 H       -2.2570     2.8670    -0.9650 H     1 <1>   0.0800 
 26 H       -1.0810     1.5670    -1.1120 H     1 <1>   0.0800 
 27 H       -1.6510     2.0820     0.4880 H     1 <1>   0.0800 
 28 H       -4.2700    -4.8410    -0.0860 H     1 <1>   0.0800 
 29 H       -5.3170    -4.5760    -1.4490 H     1 <1>   0.0800 
 30 H       -6.6730    -2.2770    -1.5150 H     1 <1>   0.0800 
 31 H       -6.4500    -1.2010    -0.1610 H     1 <1>   0.0800 
 32 H       -6.1510    -4.9650     1.4260 H     1 <1>   0.0800 
 33 H       -6.3520    -6.1070     0.1330 H     1 <1>   0.0800 
 34 H       -8.5650    -2.4410     0.0220 H     1 <1>   0.0800 
 35 H       -7.4950    -2.7390     1.3570 H     1 <1>   0.0800 
 36 H       -7.8660    -4.5510    -1.0310 H     1 <1>   0.0800 
 37 H       -9.8090    -4.5450     0.4900 H     1 <1>   0.0800 
 38 H       -8.4320    -5.8770     2.3910 H     1 <1>   0.4000 
 39 H      -10.3160    -6.1010    -1.3270 H     1 <1>   0.1500 
 40 H       -8.2150    -9.4920     1.3910 H     1 <1>   0.1500 
 41 H      -10.6290    -8.4740    -1.9610 H     1 <1>   0.1500 
 42 H       -9.5300   -10.1930    -0.5380 H     1 <1>   0.1500 
@<TRIPOS>BOND
  1   1   2  1   
  2   2   3  ar  
  3   2   4  ar  
  4   3   5  1   
  5   3   6  ar  
  6   4   7  ar  
  7   4  24  1   
  8   5   8  1   
  9   6   9  ar  
 10   7   9  ar  
 11   8  25  1   
 12   8  26  1   
 13   8  27  1   
 14   9  10  1   
 15  10  11  1   
 16  10  12  1   
 17  11  13  1   
 18  11  28  1   
 19  11  29  1   
 20  12  14  1   
 21  12  30  1   
 22  12  31  1   
 23  13  15  1   
 24  13  32  1   
 25  13  33  1   
 26  14  15  1   
 27  14  34  1   
 28  14  35  1   
 29  15  16  1   
 30  15  36  1   
 31  16  17  1   
 32  16  18  1   
 33  16  37  1   
 34  17  38  1   
 35  18  19  ar  
 36  18  20  ar  
 37  19  21  ar  
 38  20  22  ar  
 39  20  39  1   
 40  21  23  ar  
 41  21  40  1   
 42  22  23  ar  
 43  22  41  1   
 44  23  42  1   
@<TRIPOS>SUBSTRUCTURE
  1 ****  10 GROUP 4 **** **** 0

# MOE 2024.06 (io_trps.svl 2023.06)
