@<TRIPOS>MOLECULE
NONAME
54 57 1 0 0 
SMALL
USER_CHARGES


@<TRIPOS>ATOM
  1 O       -0.5520    -0.1770     3.6890 O.2   1 <1>  -0.5700 
  2 C       -0.1600     0.7730     3.0500 C.2   1 <1>   0.5690 
  3 N       -1.0320     1.5590     2.3340 N.am  1 <1>  -0.6600 
  4 C        1.3390     1.0590     3.0950 C.3   1 <1>   0.0440 
  5 C       -0.6100     2.7600     1.5500 C.3   1 <1>   0.1400 
  6 C       -2.4710     1.1700     2.2300 C.3   1 <1>   0.1400 
  7 C        2.0070     1.1240     1.7230 C.ar  1 <1>  -0.1440 
  8 C       -1.7830     3.7290     1.4140 C.3   1 <1>  -0.1600 
  9 C       -3.0470     1.5860     0.8740 C.3   1 <1>  -0.1600 
 10 C        2.8260     2.1670     1.3780 C.ar  1 <1>  -0.1500 
 11 C        1.7740     0.1000     0.7940 C.ar  1 <1>  -0.1500 
 12 C       -2.9420     3.1060     0.6070 C.3   1 <1>   0.2800 
 13 C        3.4300     2.2450     0.1070 C.ar  1 <1>   0.0000 
 14 C        2.3460     0.1490    -0.4470 C.ar  1 <1>  -0.1500 
 15 O       -2.6130     3.2010    -0.7520 O.3   1 <1>  -0.5600 
 16 C       -4.2780     3.8270     0.9220 C.3   1 <1>  -0.1600 
 17 C        3.1830     1.2170    -0.8260 C.ar  1 <1>   0.0000 
 18 C        4.2710     3.3120    -0.2690 C.ar  1 <1>  -0.1500 
 19 C       -2.9020     4.3750    -1.4600 C.3   1 <1>   0.1200 
 20 C       -5.1880     4.0200    -0.2980 C.3   1 <1>   0.2800 
 21 C        3.7810     1.2980    -2.1000 C.ar  1 <1>  -0.1500 
 22 C        4.8400     3.3660    -1.5120 C.ar  1 <1>  -0.1500 
 23 C       -4.3970     4.7550    -1.4170 C.3   1 <1>   0.2000 
 24 O       -5.5720     2.7770    -0.7650 O.3   1 <1>  -0.6800 
 25 C       -6.5020     4.7120     0.0910 C.3   1 <1>  -0.2400 
 26 C        4.5910     2.3470    -2.4390 C.ar  1 <1>  -0.1500 
 27 O       -4.4610     6.1430    -1.2490 O.3   1 <1>  -0.6800 
 28 H        1.4870     1.9790     3.6280 H     1 <1>   0.0800 
 29 H        1.8150     0.2820     3.6630 H     1 <1>   0.0800 
 30 H        0.2030     3.2590     2.0460 H     1 <1>   0.0800 
 31 H       -0.2770     2.4500     0.5730 H     1 <1>   0.0800 
 32 H       -2.5700     0.1030     2.3420 H     1 <1>   0.0800 
 33 H       -3.0200     1.6410     3.0270 H     1 <1>   0.0800 
 34 H       -1.4500     4.6380     0.9510 H     1 <1>   0.0800 
 35 H       -2.1150     3.9780     2.4060 H     1 <1>   0.0800 
 36 H       -4.0680     1.2610     0.8150 H     1 <1>   0.0800 
 37 H       -2.5040     1.0450     0.1190 H     1 <1>   0.0800 
 38 H        3.0270     2.9590     2.0750 H     1 <1>   0.1500 
 39 H        1.1360    -0.7250     1.0660 H     1 <1>   0.1500 
 40 H        2.1620    -0.6350    -1.1580 H     1 <1>   0.1500 
 41 H       -4.8030     3.3160     1.7090 H     1 <1>   0.0800 
 42 H       -4.0550     4.8040     1.3100 H     1 <1>   0.0800 
 43 H        4.4610     4.0920     0.4460 H     1 <1>   0.1500 
 44 H       -2.2900     5.1620    -1.0590 H     1 <1>   0.0800 
 45 H       -2.6100     4.2040    -2.4810 H     1 <1>   0.0800 
 46 H        3.5860     0.5120    -2.8070 H     1 <1>   0.1500 
 47 H        5.4810     4.1830    -1.7930 H     1 <1>   0.1500 
 48 H       -4.8540     4.5430    -2.3690 H     1 <1>   0.0800 
 49 H       -6.1260     2.3300    -0.1020 H     1 <1>   0.4000 
 50 H       -6.3080     5.6760     0.5250 H     1 <1>   0.0800 
 51 H       -7.0480     4.1290     0.8090 H     1 <1>   0.0800 
 52 H       -7.1100     4.8610    -0.7840 H     1 <1>   0.0800 
 53 H        5.0450     2.4040    -3.4130 H     1 <1>   0.1500 
 54 H       -4.0910     6.3960    -0.3830 H     1 <1>   0.4000 
@<TRIPOS>BOND
  1   1   2  2   
  2   2   3  am  
  3   2   4  1   
  4   3   5  1   
  5   3   6  1   
  6   4   7  1   
  7   4  28  1   
  8   4  29  1   
  9   5   8  1   
 10   5  30  1   
 11   5  31  1   
 12   6   9  1   
 13   6  32  1   
 14   6  33  1   
 15   7  10  ar  
 16   7  11  ar  
 17   8  12  1   
 18   8  34  1   
 19   8  35  1   
 20   9  12  1   
 21   9  36  1   
 22   9  37  1   
 23  10  13  ar  
 24  10  38  1   
 25  11  14  ar  
 26  11  39  1   
 27  12  15  1   
 28  12  16  1   
 29  13  17  ar  
 30  13  18  ar  
 31  14  17  ar  
 32  14  40  1   
 33  15  19  1   
 34  16  20  1   
 35  16  41  1   
 36  16  42  1   
 37  17  21  ar  
 38  18  22  ar  
 39  18  43  1   
 40  19  23  1   
 41  19  44  1   
 42  19  45  1   
 43  20  23  1   
 44  20  24  1   
 45  20  25  1   
 46  21  26  ar  
 47  21  46  1   
 48  22  26  ar  
 49  22  47  1   
 50  23  27  1   
 51  23  48  1   
 52  24  49  1   
 53  25  50  1   
 54  25  51  1   
 55  25  52  1   
 56  26  53  1   
 57  27  54  1   
@<TRIPOS>SUBSTRUCTURE
  1 ****   5 GROUP 4 **** **** 0

# MOE 2024.06 (io_trps.svl 2023.06)
