@<TRIPOS>MOLECULE
NONAME
44 45 1 0 0 
SMALL
USER_CHARGES


@<TRIPOS>ATOM
  1 O        1.2960     0.5540     1.0110 O.3   1 <1>  -0.0190 
  2 N        2.2880     1.2800     0.5690 N.2   1 <1>  -0.4100 
  3 C        1.5270    -0.6360     0.5120 C.2   1 <1>   0.2980 
  4 C        3.0240     0.5130    -0.1390 C.2   1 <1>   0.5990 
  5 N        2.5710    -0.7320    -0.2060 N.2   1 <1>  -0.5650 
  6 C        0.5340    -1.7510     0.8440 C.3   1 <1>   0.1000 
  7 N        4.2020     0.8960    -0.7900 N.pl3 1 <1>  -0.8210 
  8 C        0.6700    -2.1750     2.3140 C.3   1 <1>  -0.2400 
  9 C        0.6970    -2.9780    -0.0680 C.3   1 <1>  -0.2400 
 10 C        4.3190     2.3360    -1.1710 C.3   1 <1>   0.2090 
 11 C        4.7830    -0.0530    -1.7800 C.3   1 <1>   0.1290 
 12 C        4.9860     3.1190    -0.0420 C.3   1 <1>   0.1200 
 13 O        5.2300     4.4380    -0.4870 O.3   1 <1>  -0.3630 
 14 C        5.8320     5.3470     0.3200 C.ar  1 <1>   0.0820 
 15 C        6.0750     6.5990    -0.2230 C.ar  1 <1>  -0.1500 
 16 C        6.2080     5.0860     1.6340 C.ar  1 <1>  -0.1500 
 17 C        6.6880     7.5910     0.5250 C.ar  1 <1>  -0.1430 
 18 C        6.8220     6.0740     2.3840 C.ar  1 <1>  -0.1500 
 19 C        7.0610     7.3200     1.8320 C.ar  1 <1>  -0.1500 
 20 C        6.9490     8.9590    -0.0830 C.3   1 <1>  -0.0170 
 21 C        8.3290     8.9990    -0.7420 C.3   1 <1>  -0.2400 
 22 H       -0.4560    -1.3560     0.6940 H     1 <1>   0.0800 
 23 H        1.6580    -2.5600     2.4990 H     1 <1>   0.0800 
 24 H       -0.0500    -2.9350     2.5550 H     1 <1>   0.0800 
 25 H        0.5060    -1.3310     2.9610 H     1 <1>   0.0800 
 26 H        1.6730    -3.4130     0.0610 H     1 <1>   0.0800 
 27 H        0.5880    -2.6870    -1.0970 H     1 <1>   0.0800 
 28 H       -0.0470    -3.7200     0.1600 H     1 <1>   0.0800 
 29 H        3.3430     2.7470    -1.3660 H     1 <1>   0.0800 
 30 H        4.9140     2.4320    -2.0620 H     1 <1>   0.0800 
 31 H        4.8910    -1.0270    -1.3350 H     1 <1>   0.0800 
 32 H        5.7550     0.2860    -2.0930 H     1 <1>   0.0800 
 33 H        4.1370    -0.1300    -2.6380 H     1 <1>   0.0800 
 34 H        5.9280     2.6690     0.2130 H     1 <1>   0.0800 
 35 H        4.3380     3.1610     0.8150 H     1 <1>   0.0800 
 36 H        5.7800     6.7860    -1.2390 H     1 <1>   0.1500 
 37 H        6.0330     4.1290     2.0880 H     1 <1>   0.1500 
 38 H        7.1140     5.8730     3.4000 H     1 <1>   0.1500 
 39 H        7.5410     8.0800     2.4240 H     1 <1>   0.1500 
 40 H        6.8910     9.7140     0.6830 H     1 <1>   0.0800 
 41 H        6.1920     9.1800    -0.8150 H     1 <1>   0.0800 
 42 H        9.0940     8.7980    -0.0130 H     1 <1>   0.0800 
 43 H        8.5060     9.9680    -1.1740 H     1 <1>   0.0800 
 44 H        8.3890     8.2570    -1.5180 H     1 <1>   0.0800 
@<TRIPOS>BOND
  1   1   2  1   
  2   1   3  1   
  3   2   4  2   
  4   3   5  2   
  5   3   6  1   
  6   4   5  1   
  7   4   7  1   
  8   6   8  1   
  9   6   9  1   
 10   6  22  1   
 11   7  10  1   
 12   7  11  1   
 13   8  23  1   
 14   8  24  1   
 15   8  25  1   
 16   9  26  1   
 17   9  27  1   
 18   9  28  1   
 19  10  12  1   
 20  10  29  1   
 21  10  30  1   
 22  11  31  1   
 23  11  32  1   
 24  11  33  1   
 25  12  13  1   
 26  12  34  1   
 27  12  35  1   
 28  13  14  1   
 29  14  15  ar  
 30  14  16  ar  
 31  15  17  ar  
 32  15  36  1   
 33  16  18  ar  
 34  16  37  1   
 35  17  19  ar  
 36  17  20  1   
 37  18  19  ar  
 38  18  38  1   
 39  19  39  1   
 40  20  21  1   
 41  20  40  1   
 42  20  41  1   
 43  21  42  1   
 44  21  43  1   
 45  21  44  1   
@<TRIPOS>SUBSTRUCTURE
  1 ****  12 GROUP 4 **** **** 0

# MOE 2024.06 (io_trps.svl 2023.06)
