@<TRIPOS>MOLECULE
NONAME
38 40 1 0 0 
SMALL
USER_CHARGES


@<TRIPOS>ATOM
  1 O       -0.5640     0.2250    -0.2140 O.2   1 <1>  -0.5700 
  2 C       -1.6230     0.8290    -0.1350 C.2   1 <1>   0.7160 
  3 N       -2.7820     0.0760    -0.2270 N.am  1 <1>  -0.6600 
  4 C       -1.5970     2.2820     0.0480 C.2   1 <1>   0.1410 
  5 C       -4.1710     0.5930    -0.1610 C.3   1 <1>   0.1400 
  6 C       -2.7800    -1.4000    -0.3600 C.3   1 <1>   0.1400 
  7 N       -2.6830     3.1020     0.2090 N.2   1 <1>  -0.5650 
  8 C       -0.4760     3.0610     0.0910 C.2   1 <1>  -0.3020 
  9 C       -5.0640    -0.6420    -0.2940 C.3   1 <1>   0.2000 
 10 C       -4.1800    -1.8310     0.0780 C.3   1 <1>  -0.0800 
 11 C       -2.1930     4.2880     0.3360 C.2   1 <1>   0.0360 
 12 N       -0.8470     4.3310     0.2730 N.pl3 1 <1>   0.0480 
 13 O       -6.1550    -0.5850     0.5590 O.3   1 <1>  -0.6800 
 14 C       -4.6620    -3.1480    -0.5520 C.3   1 <1>  -0.0170 
 15 C        0.0220     5.5140     0.3800 C.3   1 <1>   0.0160 
 16 C       -3.7760    -4.3150    -0.1480 C.ar  1 <1>   0.1670 
 17 N       -2.7120    -4.5390    -0.9020 N.ar  1 <1>  -0.6200 
 18 C       -4.1020    -5.0790     0.9710 C.ar  1 <1>   0.1600 
 19 C       -2.0010    -5.5650    -0.4650 C.ar  1 <1>   0.1600 
 20 N       -3.3920    -6.1060     1.4100 N.ar  1 <1>  -0.6200 
 21 C       -2.3300    -6.3230     0.6530 C.ar  1 <1>   0.1600 
 22 H       -4.3240     1.0820     0.7850 H     1 <1>   0.0800 
 23 H       -4.3500     1.2840    -0.9670 H     1 <1>   0.0800 
 24 H       -2.6000    -1.6600    -1.3890 H     1 <1>   0.0800 
 25 H       -2.0180    -1.8470     0.2570 H     1 <1>   0.0800 
 26 H        0.5470     2.7410    -0.0010 H     1 <1>   0.1500 
 27 H       -5.4250    -0.7240    -1.3060 H     1 <1>   0.0800 
 28 H       -4.1570    -1.9340     1.1490 H     1 <1>   0.0800 
 29 H       -2.7840     5.1760     0.4810 H     1 <1>   0.1500 
 30 H       -5.8600    -0.3990     1.4710 H     1 <1>   0.4000 
 31 H       -4.6660    -3.0640    -1.6250 H     1 <1>   0.0800 
 32 H       -5.6730    -3.3410    -0.2390 H     1 <1>   0.0800 
 33 H        1.0510     5.2140     0.2950 H     1 <1>   0.0800 
 34 H       -0.1350     5.9860     1.3330 H     1 <1>   0.0800 
 35 H       -0.2160     6.2040    -0.4090 H     1 <1>   0.0800 
 36 H       -4.9870    -4.8290     1.5280 H     1 <1>   0.1500 
 37 H       -1.1140    -5.8200    -1.0180 H     1 <1>   0.1500 
 38 H       -1.6880    -7.1400     0.9300 H     1 <1>   0.1500 
@<TRIPOS>BOND
  1   1   2  2   
  2   2   3  am  
  3   2   4  1   
  4   3   5  1   
  5   3   6  1   
  6   4   7  1   
  7   4   8  2   
  8   5   9  1   
  9   5  22  1   
 10   5  23  1   
 11   6  10  1   
 12   6  24  1   
 13   6  25  1   
 14   7  11  2   
 15   8  12  1   
 16   8  26  1   
 17   9  10  1   
 18   9  13  1   
 19   9  27  1   
 20  10  14  1   
 21  10  28  1   
 22  11  12  1   
 23  11  29  1   
 24  12  15  1   
 25  13  30  1   
 26  14  16  1   
 27  14  31  1   
 28  14  32  1   
 29  15  33  1   
 30  15  34  1   
 31  15  35  1   
 32  16  17  ar  
 33  16  18  ar  
 34  17  19  ar  
 35  18  20  ar  
 36  18  36  1   
 37  19  21  ar  
 38  19  37  1   
 39  20  21  ar  
 40  21  38  1   
@<TRIPOS>SUBSTRUCTURE
  1 ****   6 GROUP 4 **** **** 0

# MOE 2024.06 (io_trps.svl 2023.06)
