@<TRIPOS>MOLECULE
NONAME
49 52 1 0 0 
SMALL
USER_CHARGES


@<TRIPOS>ATOM
  1 O       -0.2090     1.4040     1.8260 O.2   1 <1>  -0.5700 
  2 C        0.0170     2.4690     1.2830 C.2   1 <1>   0.5440 
  3 N       -1.0420     3.2610     0.8830 N.am  1 <1>  -0.6600 
  4 C        1.3980     2.8540     1.0640 C.ar  1 <1>   0.0860 
  5 C       -2.4510     2.9320     1.2620 C.3   1 <1>   0.1400 
  6 C       -0.9240     4.3960    -0.0740 C.3   1 <1>   0.1400 
  7 C        2.2740     1.9950     0.4050 C.ar  1 <1>  -0.1500 
  8 C        1.9020     4.0740     1.5130 C.ar  1 <1>  -0.1500 
  9 C       -3.3180     2.6030     0.0230 C.3   1 <1>   0.0000 
 10 C       -1.7520     4.1060    -1.3290 C.3   1 <1>  -0.1600 
 11 C        3.6020     2.3330     0.1760 C.ar  1 <1>  -0.0230 
 12 C        3.2200     4.4290     1.2930 C.ar  1 <1>  -0.1500 
 13 C       -4.7620     2.3230     0.4900 C.3   1 <1>   0.2000 
 14 C       -3.2130     3.7690    -0.9890 C.3   1 <1>  -0.1600 
 15 C       -2.8970     1.2570    -0.5940 C.3   1 <1>  -0.1600 
 16 N        4.4700     1.4360    -0.5020 N.pl3 1 <1>   0.3260 
 17 C        4.0670     3.5640     0.6250 C.ar  1 <1>  -0.1500 
 18 O       -5.6400     2.4350    -0.5950 O.3   1 <1>  -0.5600 
 19 C       -4.7530     0.8630     0.9620 C.3   1 <1>  -0.1600 
 20 C       -3.5820     0.1750     0.2470 C.3   1 <1>  -0.1600 
 21 C        5.7280     1.0850    -0.2060 C.2   1 <1>   0.0360 
 22 C        4.2540     0.7300    -1.6200 C.2   1 <1>   0.0360 
 23 C       -6.9640     2.7030    -0.2590 C.3   1 <1>   0.0400 
 24 N        6.2250     0.2560    -1.0560 N.2   1 <1>  -0.3380 
 25 N        5.2760     0.0270    -1.9660 N.2   1 <1>  -0.3380 
 26 H       -2.4690     2.1090     1.9550 H     1 <1>   0.0800 
 27 H       -2.8690     3.7840     1.7700 H     1 <1>   0.0800 
 28 H       -1.2860     5.2920     0.4020 H     1 <1>   0.0800 
 29 H        0.0990     4.5570    -0.3620 H     1 <1>   0.0800 
 30 H        1.8930     1.0410     0.0780 H     1 <1>   0.1500 
 31 H        1.2470     4.7440     2.0430 H     1 <1>   0.1500 
 32 H       -1.7260     4.9650    -1.9760 H     1 <1>   0.0800 
 33 H       -1.3040     3.2860    -1.8620 H     1 <1>   0.0800 
 34 H        3.5880     5.3780     1.6460 H     1 <1>   0.1500 
 35 H       -5.0680     3.0080     1.2620 H     1 <1>   0.0800 
 36 H       -3.7390     3.5220    -1.8950 H     1 <1>   0.0800 
 37 H       -3.6870     4.6390    -0.5690 H     1 <1>   0.0800 
 38 H       -3.2750     1.1950    -1.6000 H     1 <1>   0.0800 
 39 H       -1.8300     1.1220    -0.6190 H     1 <1>   0.0800 
 40 H        5.0900     3.8540     0.4550 H     1 <1>   0.1500 
 41 H       -4.5770     0.8350     2.0230 H     1 <1>   0.0800 
 42 H       -5.6840     0.3660     0.7560 H     1 <1>   0.0800 
 43 H       -2.8890    -0.2170     0.9720 H     1 <1>   0.0800 
 44 H       -3.9250    -0.6290    -0.3800 H     1 <1>   0.0800 
 45 H        6.2440     1.4660     0.6560 H     1 <1>   0.1500 
 46 H        3.3230     0.7650    -2.1530 H     1 <1>   0.1500 
 47 H       -7.5380     2.7320    -1.1680 H     1 <1>   0.0800 
 48 H       -7.0180     3.6570     0.2340 H     1 <1>   0.0800 
 49 H       -7.3400     1.9240     0.3800 H     1 <1>   0.0800 
@<TRIPOS>BOND
  1   1   2  2   
  2   2   3  am  
  3   2   4  1   
  4   3   5  1   
  5   3   6  1   
  6   4   7  ar  
  7   4   8  ar  
  8   5   9  1   
  9   5  26  1   
 10   5  27  1   
 11   6  10  1   
 12   6  28  1   
 13   6  29  1   
 14   7  11  ar  
 15   7  30  1   
 16   8  12  ar  
 17   8  31  1   
 18   9  13  1   
 19   9  14  1   
 20   9  15  1   
 21  10  14  1   
 22  10  32  1   
 23  10  33  1   
 24  11  16  1   
 25  11  17  ar  
 26  12  17  ar  
 27  12  34  1   
 28  13  18  1   
 29  13  19  1   
 30  13  35  1   
 31  14  36  1   
 32  14  37  1   
 33  15  20  1   
 34  15  38  1   
 35  15  39  1   
 36  16  21  1   
 37  16  22  1   
 38  17  40  1   
 39  18  23  1   
 40  19  20  1   
 41  19  41  1   
 42  19  42  1   
 43  20  43  1   
 44  20  44  1   
 45  21  24  2   
 46  21  45  1   
 47  22  25  2   
 48  22  46  1   
 49  23  47  1   
 50  23  48  1   
 51  23  49  1   
 52  24  25  1   
@<TRIPOS>SUBSTRUCTURE
  1 ****   2 GROUP 4 **** **** 0

# MOE 2024.06 (io_trps.svl 2023.06)
