@<TRIPOS>MOLECULE
NONAME
41 43 1 0 0 
SMALL
USER_CHARGES


@<TRIPOS>ATOM
  1 O       -0.4710     0.2330     0.6070 O.2   1 <1>  -0.5700 
  2 C       -1.5410     0.8070     0.5040 C.2   1 <1>   0.7150 
  3 N       -2.6770     0.0370     0.3570 N.am  1 <1>  -0.6600 
  4 C       -1.6100     2.2520     0.5500 C.2   1 <1>   0.0550 
  5 C       -3.9800     0.5310    -0.1590 C.3   1 <1>   0.1400 
  6 C       -2.6330    -1.4480     0.2770 C.3   1 <1>   0.1400 
  7 O       -0.7420     2.9990    -0.1270 O.3   1 <1>  -0.2800 
  8 C       -2.4610     3.0880     1.2110 C.2   1 <1>  -0.1500 
  9 C       -4.9090    -0.6770    -0.0530 C.3   1 <1>   0.2000 
 10 C       -3.9800    -1.8630    -0.3260 C.3   1 <1>  -0.0800 
 11 C       -1.0100     4.2690     0.0750 C.2   1 <1>  -0.0400 
 12 C       -2.0730     4.3910     0.9000 C.2   1 <1>  -0.1500 
 13 O       -5.3740    -0.7390     1.2520 O.3   1 <1>  -0.6800 
 14 C       -4.4890    -3.2300     0.1660 C.3   1 <1>   0.0210 
 15 C       -0.1360     5.3100    -0.6030 C.3   1 <1>   0.3000 
 16 C       -3.4900    -4.3240    -0.1570 C.2   1 <1>   0.1080 
 17 O       -0.7540     6.5490    -0.5350 O.3   1 <1>  -0.6800 
 18 N       -3.1500    -4.6310    -1.3700 N.2   1 <1>  -0.7070 
 19 C       -2.8270    -5.1020     0.7870 C.2   1 <1>  -0.1500 
 20 N       -2.2520    -5.6250    -1.2310 N.pl3 1 <1>   0.3000 
 21 C       -2.0390    -5.9270     0.0670 C.2   1 <1>  -0.3320 
 22 C       -1.0800    -7.0010     0.5460 C.3   1 <1>  -0.0600 
 23 H       -4.3600     1.3630     0.4060 H     1 <1>   0.0800 
 24 H       -3.8630     0.8150    -1.1900 H     1 <1>   0.0800 
 25 H       -1.8150    -1.7800    -0.3410 H     1 <1>   0.0800 
 26 H       -2.5110    -1.8500     1.2690 H     1 <1>   0.0800 
 27 H       -3.2730     2.8220     1.8630 H     1 <1>   0.1500 
 28 H       -5.7520    -0.6280    -0.7200 H     1 <1>   0.0800 
 29 H       -3.8410    -1.9290    -1.3910 H     1 <1>   0.0800 
 30 H       -2.5350     5.2920     1.2660 H     1 <1>   0.1500 
 31 H       -4.6090    -0.6660     1.8580 H     1 <1>   0.4000 
 32 H       -5.4200    -3.4620    -0.3180 H     1 <1>   0.0800 
 33 H       -4.6600    -3.2150     1.2260 H     1 <1>   0.0800 
 34 H        0.0050     5.0610    -1.6410 H     1 <1>   0.0800 
 35 H        0.8220     5.3770    -0.1170 H     1 <1>   0.0800 
 36 H       -1.6590     6.4720    -0.8910 H     1 <1>   0.4000 
 37 H       -2.9380    -5.0370     1.8550 H     1 <1>   0.1500 
 38 H       -1.8050    -6.0740    -2.0390 H     1 <1>   0.2700 
 39 H       -1.0870    -7.0500     1.6210 H     1 <1>   0.0800 
 40 H       -0.0790    -6.7790     0.2200 H     1 <1>   0.0800 
 41 H       -1.3720    -7.9600     0.1580 H     1 <1>   0.0800 
@<TRIPOS>BOND
  1   1   2  2   
  2   2   3  am  
  3   2   4  1   
  4   3   5  1   
  5   3   6  1   
  6   4   7  1   
  7   4   8  2   
  8   5   9  1   
  9   5  23  1   
 10   5  24  1   
 11   6  10  1   
 12   6  25  1   
 13   6  26  1   
 14   7  11  1   
 15   8  12  1   
 16   8  27  1   
 17   9  10  1   
 18   9  13  1   
 19   9  28  1   
 20  10  14  1   
 21  10  29  1   
 22  11  12  2   
 23  11  15  1   
 24  12  30  1   
 25  13  31  1   
 26  14  16  1   
 27  14  32  1   
 28  14  33  1   
 29  15  17  1   
 30  15  34  1   
 31  15  35  1   
 32  16  18  2   
 33  16  19  1   
 34  17  36  1   
 35  18  20  1   
 36  19  21  2   
 37  19  37  1   
 38  20  21  1   
 39  20  38  1   
 40  21  22  1   
 41  22  39  1   
 42  22  40  1   
 43  22  41  1   
@<TRIPOS>SUBSTRUCTURE
  1 ****   3 GROUP 4 **** **** 0

# MOE 2024.06 (io_trps.svl 2023.06)
