@<TRIPOS>MOLECULE
NONAME
57 60 1 0 0 
SMALL
USER_CHARGES


@<TRIPOS>ATOM
  1 O       -0.2050     0.6860     0.3260 O.3   1 <1>  -0.5600 
  2 C        0.1930     1.8440    -0.3450 C.3   1 <1>   0.2000 
  3 C       -0.0850    -0.5020    -0.3970 C.3   1 <1>   0.2640 
  4 C        0.5390     2.9060     0.7100 C.3   1 <1>   0.2090 
  5 C       -0.9510     2.3240    -1.2530 C.3   1 <1>  -0.1600 
  6 C       -0.4930    -1.6690     0.4870 C.ar  1 <1>  -0.1440 
  7 N        0.8340     4.2270     0.0660 N.pl3 1 <1>  -0.8380 
  8 C       -0.6200     3.6980    -1.8600 C.3   1 <1>  -0.1600 
  9 C       -0.1160    -1.7140     1.8220 C.ar  1 <1>   0.1600 
 10 C       -1.2370    -2.7140    -0.0270 C.ar  1 <1>  -0.1500 
 11 C        2.1030     4.6930    -0.0290 C.ar  1 <1>   0.4100 
 12 C       -0.2690     4.7390    -0.7910 C.3   1 <1>   0.2090 
 13 N       -0.4050    -2.6970     2.6620 N.ar  1 <1>  -0.6200 
 14 C       -1.5520    -3.7420     0.8350 C.ar  1 <1>  -0.1500 
 15 N        3.0090     3.8270    -0.4350 N.ar  1 <1>  -0.6200 
 16 C        2.4340     6.0330     0.2920 C.ar  1 <1>  -0.1430 
 17 C       -1.1180    -3.6850     2.1480 C.ar  1 <1>   0.1600 
 18 C        4.2530     4.2460    -0.5940 C.ar  1 <1>   0.7710 
 19 C        3.7210     6.4340     0.1150 C.ar  1 <1>   0.2180 
 20 C        1.3800     6.9900     0.8550 C.3   1 <1>  -0.0170 
 21 N        4.6060     5.5150    -0.3370 N.ar  1 <1>  -0.1790 
 22 N        5.2070     3.3720    -1.0240 N.pl3 1 <1>  -0.8380 
 23 C        4.2320     7.8390     0.4220 C.3   1 <1>  -0.0170 
 24 C        2.0040     8.2100     1.5460 C.3   1 <1>  -0.1600 
 25 C        4.9080     1.9060    -1.1530 C.3   1 <1>   0.1290 
 26 C        6.5950     3.7050    -1.4780 C.3   1 <1>   0.1290 
 27 C        3.0910     8.8350     0.6660 C.3   1 <1>  -0.1600 
 28 H        1.0790     1.6340    -0.9190 H     1 <1>   0.0800 
 29 H        0.9400    -0.6190    -0.7050 H     1 <1>   0.0800 
 30 H       -0.7220    -0.4490    -1.2610 H     1 <1>   0.0800 
 31 H        1.3910     2.5760     1.2790 H     1 <1>   0.0800 
 32 H       -0.2930     3.0240     1.3820 H     1 <1>   0.0800 
 33 H       -1.8520     2.4040    -0.6690 H     1 <1>   0.0800 
 34 H       -1.1170     1.6230    -2.0500 H     1 <1>   0.0800 
 35 H       -1.4600     4.0490    -2.4320 H     1 <1>   0.0800 
 36 H        0.2150     3.6020    -2.5320 H     1 <1>   0.0800 
 37 H        0.4570    -0.8940     2.2210 H     1 <1>   0.1500 
 38 H       -1.5600    -2.7330    -1.0530 H     1 <1>   0.1500 
 39 H        0.0280     5.6510    -1.2780 H     1 <1>   0.0800 
 40 H       -1.1300     4.9430    -0.1770 H     1 <1>   0.0800 
 41 H       -2.1300    -4.5830     0.4960 H     1 <1>   0.1500 
 42 H       -1.3700    -4.4950     2.8110 H     1 <1>   0.1500 
 43 H        0.7560     6.4730     1.5650 H     1 <1>   0.0800 
 44 H        0.7510     7.3320     0.0520 H     1 <1>   0.0800 
 45 H        5.5860     5.7240    -0.4640 H     1 <1>   0.4570 
 46 H        4.8380     8.2020    -0.3900 H     1 <1>   0.0800 
 47 H        4.8470     7.7950     1.3040 H     1 <1>   0.0800 
 48 H        2.4280     7.9110     2.4900 H     1 <1>   0.0800 
 49 H        1.2350     8.9360     1.7490 H     1 <1>   0.0800 
 50 H        4.1060     1.6090    -0.4990 H     1 <1>   0.0800 
 51 H        5.7760     1.3240    -0.8920 H     1 <1>   0.0800 
 52 H        4.6280     1.6800    -2.1680 H     1 <1>   0.0800 
 53 H        6.6970     4.7450    -1.7300 H     1 <1>   0.0800 
 54 H        6.8350     3.1320    -2.3600 H     1 <1>   0.0800 
 55 H        7.3040     3.4510    -0.7070 H     1 <1>   0.0800 
 56 H        2.6570     9.1270    -0.2760 H     1 <1>   0.0800 
 57 H        3.4780     9.7230     1.1370 H     1 <1>   0.0800 
@<TRIPOS>BOND
  1   1   2  1   
  2   1   3  1   
  3   2   4  1   
  4   2   5  1   
  5   2  28  1   
  6   3   6  1   
  7   3  29  1   
  8   3  30  1   
  9   4   7  1   
 10   4  31  1   
 11   4  32  1   
 12   5   8  1   
 13   5  33  1   
 14   5  34  1   
 15   6   9  ar  
 16   6  10  ar  
 17   7  11  1   
 18   7  12  1   
 19   8  12  1   
 20   8  35  1   
 21   8  36  1   
 22   9  13  ar  
 23   9  37  1   
 24  10  14  ar  
 25  10  38  1   
 26  11  15  ar  
 27  11  16  ar  
 28  12  39  1   
 29  12  40  1   
 30  13  17  ar  
 31  14  17  ar  
 32  14  41  1   
 33  15  18  ar  
 34  16  19  ar  
 35  16  20  1   
 36  17  42  1   
 37  18  21  ar  
 38  18  22  1   
 39  19  21  ar  
 40  19  23  1   
 41  20  24  1   
 42  20  43  1   
 43  20  44  1   
 44  21  45  1   
 45  22  25  1   
 46  22  26  1   
 47  23  27  1   
 48  23  46  1   
 49  23  47  1   
 50  24  27  1   
 51  24  48  1   
 52  24  49  1   
 53  25  50  1   
 54  25  51  1   
 55  25  52  1   
 56  26  53  1   
 57  26  54  1   
 58  26  55  1   
 59  27  56  1   
 60  27  57  1   
@<TRIPOS>SUBSTRUCTURE
  1 ****   4 GROUP 4 **** **** 0

# MOE 2024.06 (io_trps.svl 2023.06)
