@<TRIPOS>MOLECULE
NONAME
45 48 1 0 0 
SMALL
USER_CHARGES


@<TRIPOS>ATOM
  1 O       -2.7840     0.7380    -1.6560 O.2   1 <1>  -0.5700 
  2 C       -2.6610    -0.2950    -1.0430 C.2   1 <1>   0.5690 
  3 N       -2.2580    -0.2900     0.2470 N.am  1 <1>  -0.7300 
  4 C       -2.9420    -1.6240    -1.7280 C.3   1 <1>  -0.0190 
  5 C       -2.2250    -1.5240     1.0810 C.3   1 <1>   0.2200 
  6 C       -1.6470    -2.4460    -1.8700 C.3   1 <1>   0.1200 
  7 C       -4.0910    -2.4490    -1.0990 C.3   1 <1>   0.1100 
  8 C       -1.3250    -2.6480     0.4930 C.3   1 <1>   0.1200 
  9 C       -3.6590    -2.0460     1.3330 C.3   1 <1>   0.1100 
 10 O       -0.7910    -2.3530    -0.7670 O.3   1 <1>  -0.5600 
 11 N       -4.5950    -1.9320     0.1870 N.3   1 <1>  -0.8100 
 12 C       -5.9340    -2.4660     0.5160 C.3   1 <1>   0.2900 
 13 C       -5.9890    -3.9920     0.5150 C.2   1 <1>  -0.0400 
 14 O       -5.4510    -4.6470     1.5420 O.3   1 <1>  -0.2800 
 15 C       -6.5170    -4.8510    -0.3830 C.2   1 <1>  -0.1810 
 16 C       -5.6180    -5.9500     1.3160 C.ar  1 <1>   0.1400 
 17 C       -6.2820    -6.1490     0.1210 C.ar  1 <1>   0.0000 
 18 C       -7.2340    -4.5850    -1.6940 C.3   1 <1>  -0.0590 
 19 C       -5.2110    -7.0090     2.1150 C.ar  1 <1>  -0.1500 
 20 C       -6.5550    -7.4510    -0.3010 C.ar  1 <1>  -0.1500 
 21 C       -5.4840    -8.2930     1.6890 C.ar  1 <1>  -0.1500 
 22 C       -6.1560    -8.5170     0.4820 C.ar  1 <1>  -0.1430 
 23 C       -6.4370    -9.9450     0.0510 C.3   1 <1>  -0.0970 
 24 H       -2.1210     0.6140     0.6920 H     1 <1>   0.3700 
 25 H       -3.2570    -1.3990    -2.7300 H     1 <1>   0.0800 
 26 H       -1.8110    -1.2680     2.0400 H     1 <1>   0.0800 
 27 H       -1.0880    -2.0700    -2.7090 H     1 <1>   0.0800 
 28 H       -1.8580    -3.4860    -2.0500 H     1 <1>   0.0800 
 29 H       -3.7940    -3.4770    -0.9760 H     1 <1>   0.0800 
 30 H       -4.9060    -2.4400    -1.8030 H     1 <1>   0.0800 
 31 H       -1.8500    -3.5850     0.4310 H     1 <1>   0.0800 
 32 H       -0.4890    -2.7940     1.1530 H     1 <1>   0.0800 
 33 H       -4.0690    -1.4780     2.1500 H     1 <1>   0.0800 
 34 H       -3.6010    -3.0670     1.6640 H     1 <1>   0.0800 
 35 H       -6.2470    -2.0990     1.4780 H     1 <1>   0.0800 
 36 H       -6.6340    -2.0900    -0.2090 H     1 <1>   0.0800 
 37 H       -8.2300    -4.9860    -1.6510 H     1 <1>   0.0800 
 38 H       -6.7030    -5.0570    -2.5010 H     1 <1>   0.0800 
 39 H       -7.2950    -3.5310    -1.8920 H     1 <1>   0.0800 
 40 H       -4.6990    -6.8130     3.0390 H     1 <1>   0.1500 
 41 H       -7.0730    -7.6010    -1.2300 H     1 <1>   0.1500 
 42 H       -5.1800    -9.1320     2.2900 H     1 <1>   0.1500 
 43 H       -7.0450   -10.4370     0.7900 H     1 <1>   0.0800 
 44 H       -5.5130   -10.4840    -0.0550 H     1 <1>   0.0800 
 45 H       -6.9570    -9.9680    -0.8900 H     1 <1>   0.0800 
@<TRIPOS>BOND
  1   1   2  2   
  2   2   3  am  
  3   2   4  1   
  4   3   5  1   
  5   3  24  1   
  6   4   6  1   
  7   4   7  1   
  8   4  25  1   
  9   5   8  1   
 10   5   9  1   
 11   5  26  1   
 12   6  10  1   
 13   6  27  1   
 14   6  28  1   
 15   7  11  1   
 16   7  29  1   
 17   7  30  1   
 18   8  10  1   
 19   8  31  1   
 20   8  32  1   
 21   9  11  1   
 22   9  33  1   
 23   9  34  1   
 24  11  12  1   
 25  12  13  1   
 26  12  35  1   
 27  12  36  1   
 28  13  14  1   
 29  13  15  2   
 30  14  16  1   
 31  15  17  1   
 32  15  18  1   
 33  16  17  ar  
 34  16  19  ar  
 35  17  20  ar  
 36  18  37  1   
 37  18  38  1   
 38  18  39  1   
 39  19  21  ar  
 40  19  40  1   
 41  20  22  ar  
 42  20  41  1   
 43  21  22  ar  
 44  21  42  1   
 45  22  23  1   
 46  23  43  1   
 47  23  44  1   
 48  23  45  1   
@<TRIPOS>SUBSTRUCTURE
  1 ****  13 GROUP 4 **** **** 0

# MOE 2024.06 (io_trps.svl 2023.06)
