@<TRIPOS>MOLECULE
NONAME
44 46 1 0 0 
SMALL
USER_CHARGES


@<TRIPOS>ATOM
  1 S       -0.0480     0.1510    -1.3000 S.3   1 <1>  -0.2030 
  2 C       -0.4150    -1.4800    -0.6820 C.ar  1 <1>   0.4620 
  3 C        1.4700     0.6360    -0.4730 C.ar  1 <1>   0.1020 
  4 N        0.2930    -1.9280     0.3710 N.ar  1 <1>  -0.1790 
  5 C       -1.3770    -2.2600    -1.2250 C.ar  1 <1>  -0.1500 
  6 C        1.4390     1.7160     0.3950 C.ar  1 <1>  -0.1500 
  7 C        2.6310    -0.0880    -0.7050 C.ar  1 <1>  -0.1500 
  8 C        0.0390    -3.1480     0.8670 C.ar  1 <1>   0.7710 
  9 C       -1.5850    -3.5240    -0.6590 C.ar  1 <1>   0.4100 
 10 C        2.5950     2.0690     1.0730 C.ar  1 <1>  -0.1500 
 11 C        3.7880     0.2620    -0.0270 C.ar  1 <1>  -0.1500 
 12 N       -0.8770    -3.9510     0.3730 N.ar  1 <1>  -0.6200 
 13 N        0.7220    -3.6020     1.9140 N.pl3 1 <1>  -0.9000 
 14 N       -2.5420    -4.3490    -1.1400 N.pl3 1 <1>  -0.8380 
 15 C        3.7450     1.3310     0.8520 C.ar  1 <1>   0.1900 
 16 C       -2.3800    -5.8470    -1.1730 C.3   1 <1>   0.2090 
 17 C       -3.9530    -3.9040    -1.3070 C.3   1 <1>   0.2090 
 18 F        4.8310     1.6530     1.4980 F     1 <1>  -0.1900 
 19 C       -3.5380    -6.5760    -0.4520 C.3   1 <1>  -0.0800 
 20 C       -4.7970    -4.3960    -0.1190 C.3   1 <1>  -0.1600 
 21 C       -4.2460    -5.6600     0.5610 C.3   1 <1>   0.2000 
 22 C       -3.0420    -7.8630     0.2220 C.3   1 <1>   0.1200 
 23 O       -3.3250    -5.2640     1.5100 O.3   1 <1>  -0.6800 
 24 O       -2.4660    -8.6870    -0.7330 O.3   1 <1>  -0.6800 
 25 H        1.0100    -1.3560     0.8010 H     1 <1>   0.4570 
 26 H       -1.9650    -1.9470    -2.0670 H     1 <1>   0.1500 
 27 H        0.5300     2.2780     0.5410 H     1 <1>   0.1500 
 28 H        2.6490    -0.8990    -1.4140 H     1 <1>   0.1500 
 29 H        2.6130     2.9010     1.7570 H     1 <1>   0.1500 
 30 H        4.7140    -0.2670    -0.1790 H     1 <1>   0.1500 
 31 H        1.4580    -3.1440     2.4540 H     1 <1>   0.4000 
 32 H        0.4780    -4.5350     2.2650 H     1 <1>   0.4000 
 33 H       -2.3350    -6.1780    -2.1960 H     1 <1>   0.0800 
 34 H       -1.4450    -6.1230    -0.7160 H     1 <1>   0.0800 
 35 H       -4.0180    -2.8320    -1.3780 H     1 <1>   0.0800 
 36 H       -4.3370    -4.3210    -2.2230 H     1 <1>   0.0800 
 37 H       -4.2680    -6.8580    -1.1890 H     1 <1>   0.0800 
 38 H       -5.7840    -4.6050    -0.4880 H     1 <1>   0.0800 
 39 H       -4.9010    -3.6110     0.6090 H     1 <1>   0.0800 
 40 H       -5.0350    -6.1820     1.0770 H     1 <1>   0.0800 
 41 H       -3.8480    -8.3970     0.6950 H     1 <1>   0.0800 
 42 H       -2.2900    -7.6390     0.9610 H     1 <1>   0.0800 
 43 H       -2.5850    -4.8250     1.0260 H     1 <1>   0.4000 
 44 H       -3.1500    -9.1410    -1.2640 H     1 <1>   0.4000 
@<TRIPOS>BOND
  1   1   2  1   
  2   1   3  1   
  3   2   4  ar  
  4   2   5  ar  
  5   3   6  ar  
  6   3   7  ar  
  7   4   8  ar  
  8   4  25  1   
  9   5   9  ar  
 10   5  26  1   
 11   6  10  ar  
 12   6  27  1   
 13   7  11  ar  
 14   7  28  1   
 15   8  12  ar  
 16   8  13  1   
 17   9  12  ar  
 18   9  14  1   
 19  10  15  ar  
 20  10  29  1   
 21  11  15  ar  
 22  11  30  1   
 23  13  31  1   
 24  13  32  1   
 25  14  16  1   
 26  14  17  1   
 27  15  18  1   
 28  16  19  1   
 29  16  33  1   
 30  16  34  1   
 31  17  20  1   
 32  17  35  1   
 33  17  36  1   
 34  19  21  1   
 35  19  22  1   
 36  19  37  1   
 37  20  21  1   
 38  20  38  1   
 39  20  39  1   
 40  21  23  1   
 41  21  40  1   
 42  22  24  1   
 43  22  41  1   
 44  22  42  1   
 45  23  43  1   
 46  24  44  1   
@<TRIPOS>SUBSTRUCTURE
  1 ****   8 GROUP 4 **** **** 0

# MOE 2024.06 (io_trps.svl 2023.06)
