@<TRIPOS>MOLECULE
NONAME
61 64 1 0 0 
SMALL
USER_CHARGES


@<TRIPOS>ATOM
  1 CL      -1.2560     0.4940     2.0260 Cl    1 <1>  -0.1770 
  2 C       -2.2970    -0.3060     0.8710 C.ar  1 <1>   0.1770 
  3 C       -1.8130    -1.3630     0.1110 C.ar  1 <1>  -0.1440 
  4 C       -3.5960     0.1420     0.7420 C.ar  1 <1>  -0.1500 
  5 C       -2.6730    -1.9680    -0.7940 C.ar  1 <1>  -0.1500 
  6 C       -0.3810    -1.8530     0.2610 C.3   1 <1>  -0.0960 
  7 C       -4.4560    -0.4640    -0.1630 C.ar  1 <1>   0.1000 
  8 C       -3.9760    -1.5220    -0.9290 C.ar  1 <1>  -0.1500 
  9 N       -5.7620     0.0010    -0.2860 N.pl3 1 <1>  -0.8380 
 10 C       -6.8640    -0.9850    -0.3100 C.3   1 <1>   0.2090 
 11 C       -5.9620     1.2080    -1.1160 C.3   1 <1>   0.2090 
 12 C       -8.1160    -0.2980     0.2280 C.3   1 <1>  -0.1600 
 13 C       -7.1990     1.9320    -0.5930 C.3   1 <1>  -0.1600 
 14 C       -8.4000     0.9790    -0.5770 C.3   1 <1>   0.4230 
 15 N       -9.6090     1.6930    -0.0760 N.4   1 <1>  -0.9590 
 16 C       -9.5470     2.1540     1.3450 C.3   1 <1>   0.3430 
 17 C      -10.8840     0.9910    -0.3650 C.3   1 <1>   0.3430 
 18 C      -10.8520     2.8490     1.7580 C.3   1 <1>  -0.1600 
 19 C      -12.0560     1.9740    -0.2490 C.3   1 <1>  -0.1600 
 20 C      -11.7400     3.2450     0.5670 C.3   1 <1>   0.2800 
 21 O      -10.9470     4.0670    -0.2620 O.3   1 <1>  -0.5600 
 22 C      -13.0170     3.9620     1.0590 C.3   1 <1>  -0.1600 
 23 C      -11.4300     5.3190    -0.6720 C.3   1 <1>   0.1200 
 24 C      -13.7900     4.6970    -0.0520 C.3   1 <1>   0.2800 
 25 C      -12.8650     5.1750    -1.1780 C.3   1 <1>  -0.1600 
 26 O      -14.3410     5.8140     0.5280 O.3   1 <1>  -0.6800 
 27 C      -14.9730     3.8960    -0.5950 C.3   1 <1>  -0.2400 
 28 H       -3.9450     0.9580     1.3440 H     1 <1>   0.1500 
 29 H       -2.3300    -2.7890    -1.4000 H     1 <1>   0.1500 
 30 H        0.3040    -1.0560     0.0320 H     1 <1>   0.0800 
 31 H       -0.1820    -2.6750    -0.4020 H     1 <1>   0.0800 
 32 H       -0.2090    -2.1780     1.2710 H     1 <1>   0.0800 
 33 H       -4.6250    -1.9960    -1.6400 H     1 <1>   0.1500 
 34 H       -6.6080    -1.8290     0.3100 H     1 <1>   0.0800 
 35 H       -7.0190    -1.3330    -1.3180 H     1 <1>   0.0800 
 36 H       -6.0880     0.9210    -2.1470 H     1 <1>   0.0800 
 37 H       -5.0980     1.8490    -1.0450 H     1 <1>   0.0800 
 38 H       -7.9390    -0.0710     1.2630 H     1 <1>   0.0800 
 39 H       -8.9380    -0.9840     0.1560 H     1 <1>   0.0800 
 40 H       -7.4020     2.7740    -1.2290 H     1 <1>   0.0800 
 41 H       -6.9720     2.2870     0.3950 H     1 <1>   0.0800 
 42 H       -8.5810     0.6840    -1.5980 H     1 <1>   0.0800 
 43 H       -9.6950     2.5840    -0.6020 H     1 <1>   0.4500 
 44 H       -8.7350     2.8540     1.4540 H     1 <1>   0.0800 
 45 H       -9.3610     1.3210     2.0040 H     1 <1>   0.0800 
 46 H      -11.0140     0.1850     0.3390 H     1 <1>   0.0800 
 47 H      -10.8660     0.5740    -1.3590 H     1 <1>   0.0800 
 48 H      -10.6130     3.7180     2.3450 H     1 <1>   0.0800 
 49 H      -11.4030     2.1850     2.4010 H     1 <1>   0.0800 
 50 H      -12.8730     1.4450     0.2080 H     1 <1>   0.0800 
 51 H      -12.3800     2.2490    -1.2350 H     1 <1>   0.0800 
 52 H      -12.7200     4.6720     1.8110 H     1 <1>   0.0800 
 53 H      -13.6660     3.2580     1.5490 H     1 <1>   0.0800 
 54 H      -10.7870     5.6790    -1.4570 H     1 <1>   0.0800 
 55 H      -11.3730     5.9990     0.1610 H     1 <1>   0.0800 
 56 H      -12.8600     4.4650    -1.9850 H     1 <1>   0.0800 
 57 H      -13.2170     6.1070    -1.5840 H     1 <1>   0.0800 
 58 H      -13.6450     6.4250     0.8290 H     1 <1>   0.4000 
 59 H      -14.6430     2.9910    -1.0670 H     1 <1>   0.0800 
 60 H      -15.5080     4.4790    -1.3240 H     1 <1>   0.0800 
 61 H      -15.6480     3.6380     0.2010 H     1 <1>   0.0800 
@<TRIPOS>BOND
  1   1   2  1   
  2   2   3  ar  
  3   2   4  ar  
  4   3   5  ar  
  5   3   6  1   
  6   4   7  ar  
  7   4  28  1   
  8   5   8  ar  
  9   5  29  1   
 10   6  30  1   
 11   6  31  1   
 12   6  32  1   
 13   7   8  ar  
 14   7   9  1   
 15   8  33  1   
 16   9  10  1   
 17   9  11  1   
 18  10  12  1   
 19  10  34  1   
 20  10  35  1   
 21  11  13  1   
 22  11  36  1   
 23  11  37  1   
 24  12  14  1   
 25  12  38  1   
 26  12  39  1   
 27  13  14  1   
 28  13  40  1   
 29  13  41  1   
 30  14  15  1   
 31  14  42  1   
 32  15  16  1   
 33  15  17  1   
 34  15  43  1   
 35  16  18  1   
 36  16  44  1   
 37  16  45  1   
 38  17  19  1   
 39  17  46  1   
 40  17  47  1   
 41  18  20  1   
 42  18  48  1   
 43  18  49  1   
 44  19  20  1   
 45  19  50  1   
 46  19  51  1   
 47  20  21  1   
 48  20  22  1   
 49  21  23  1   
 50  22  24  1   
 51  22  52  1   
 52  22  53  1   
 53  23  25  1   
 54  23  54  1   
 55  23  55  1   
 56  24  25  1   
 57  24  26  1   
 58  24  27  1   
 59  25  56  1   
 60  25  57  1   
 61  26  58  1   
 62  27  59  1   
 63  27  60  1   
 64  27  61  1   
@<TRIPOS>SUBSTRUCTURE
  1 ****  14 GROUP 4 **** **** 0

# MOE 2024.06 (io_trps.svl 2023.06)
