@<TRIPOS>MOLECULE
NONAME
49 52 1 0 0 
SMALL
USER_CHARGES


@<TRIPOS>ATOM
  1 S        1.4710     0.1800     1.4980 S.3   1 <1>  -0.0800 
  2 C        1.3680     1.1320     0.0230 C.2   1 <1>  -0.1400 
  3 C        1.4170    -1.3200     0.5900 C.2   1 <1>  -0.1100 
  4 C        1.2990     0.3210    -1.0520 C.2   1 <1>  -0.1500 
  5 C        1.3790     2.6420     0.1900 C.3   1 <1>   0.3800 
  6 C        1.3270    -1.0730    -0.7290 C.2   1 <1>  -0.1500 
  7 O        1.0570     3.2150    -1.0280 O.3   1 <1>  -0.6800 
  8 C        2.7600     3.1800     0.6350 C.3   1 <1>  -0.0800 
  9 C        2.7410     4.7150     0.8090 C.3   1 <1>  -0.1600 
 10 C        3.8910     2.7420    -0.3250 C.3   1 <1>  -0.1600 
 11 C        4.1270     5.2880     1.0850 C.3   1 <1>   0.3430 
 12 C        5.2280     3.4020    -0.0010 C.3   1 <1>   0.3430 
 13 N        5.0430     4.8830    -0.0250 N.4   1 <1>  -0.9590 
 14 C        6.3680     5.5900     0.0150 C.3   1 <1>   0.5110 
 15 C        6.2860     7.1030    -0.2620 C.2   1 <1>   0.1820 
 16 N        7.2490     8.0050     0.1380 N.pl3 1 <1>  -0.7000 
 17 C        5.3340     7.8080    -0.9130 C.2   1 <1>   0.2000 
 18 C        6.8820     9.2370    -0.2650 C.cat 1 <1>   0.7910 
 19 N        5.6970     9.1370    -0.9140 N.pl3 1 <1>  -0.6290 
 20 C        7.5260    10.4840    -0.1050 C.2   1 <1>  -0.1290 
 21 C        5.0960    10.2610    -1.4390 C.2   1 <1>   0.2290 
 22 C        6.9260    11.6020    -0.6240 C.2   1 <1>  -0.1500 
 23 C        8.8590    10.5880     0.6280 C.3   1 <1>  -0.1020 
 24 C        5.6950    11.4790    -1.3000 C.2   1 <1>  -0.1500 
 25 H        1.4570    -2.2400     1.1480 H     1 <1>   0.1500 
 26 H        1.2320     0.6380    -2.0780 H     1 <1>   0.1500 
 27 H        0.6170     2.9300     0.8960 H     1 <1>   0.0800 
 28 H        1.2770    -1.8210    -1.5020 H     1 <1>   0.1500 
 29 H        0.2440     2.7870    -1.3630 H     1 <1>   0.4000 
 30 H        2.9700     2.7480     1.5990 H     1 <1>   0.0800 
 31 H        2.0880     4.9690     1.6260 H     1 <1>   0.0800 
 32 H        2.3420     5.1900    -0.0710 H     1 <1>   0.0800 
 33 H        3.6270     2.9700    -1.3440 H     1 <1>   0.0800 
 34 H        4.0170     1.6740    -0.2670 H     1 <1>   0.0800 
 35 H        4.4940     4.9100     2.0270 H     1 <1>   0.0800 
 36 H        4.0580     6.3620     1.1530 H     1 <1>   0.0800 
 37 H        5.9570     3.0990    -0.7360 H     1 <1>   0.0800 
 38 H        5.5660     3.0810     0.9720 H     1 <1>   0.0800 
 39 H        4.5600     5.0720    -0.9140 H     1 <1>   0.4500 
 40 H        7.0320     5.1500    -0.7120 H     1 <1>   0.0800 
 41 H        6.8090     5.4430     0.9870 H     1 <1>   0.0800 
 42 H        8.1280     7.8500     0.6430 H     1 <1>   0.4500 
 43 H        4.4230     7.4730    -1.3830 H     1 <1>   0.1500 
 44 H        4.1540    10.1500    -1.9560 H     1 <1>   0.1500 
 45 H        7.3690    12.5820    -0.5340 H     1 <1>   0.1500 
 46 H        9.6110    10.0020     0.1300 H     1 <1>   0.0800 
 47 H        8.7600    10.2460     1.6440 H     1 <1>   0.0800 
 48 H        9.2000    11.6080     0.6560 H     1 <1>   0.0800 
 49 H        5.2390    12.3680    -1.7040 H     1 <1>   0.1500 
@<TRIPOS>BOND
  1   1   2  1   
  2   1   3  1   
  3   2   4  2   
  4   2   5  1   
  5   3   6  2   
  6   3  25  1   
  7   4   6  1   
  8   4  26  1   
  9   5   7  1   
 10   5   8  1   
 11   5  27  1   
 12   6  28  1   
 13   7  29  1   
 14   8   9  1   
 15   8  10  1   
 16   8  30  1   
 17   9  11  1   
 18   9  31  1   
 19   9  32  1   
 20  10  12  1   
 21  10  33  1   
 22  10  34  1   
 23  11  13  1   
 24  11  35  1   
 25  11  36  1   
 26  12  13  1   
 27  12  37  1   
 28  12  38  1   
 29  13  14  1   
 30  13  39  1   
 31  14  15  1   
 32  14  40  1   
 33  14  41  1   
 34  15  16  1   
 35  15  17  2   
 36  16  18  ar  
 37  16  42  1   
 38  17  19  1   
 39  17  43  1   
 40  18  19  ar  
 41  18  20  1   
 42  19  21  1   
 43  20  22  2   
 44  20  23  1   
 45  21  24  2   
 46  21  44  1   
 47  22  24  1   
 48  22  45  1   
 49  23  46  1   
 50  23  47  1   
 51  23  48  1   
 52  24  49  1   
@<TRIPOS>SUBSTRUCTURE
  1 ****  13 GROUP 4 **** **** 0

# MOE 2024.06 (io_trps.svl 2023.06)
