@<TRIPOS>MOLECULE
NONAME
61 64 1 0 0 
SMALL
USER_CHARGES


@<TRIPOS>ATOM
  1 O        1.4170     1.7310    -2.2410 O.3   1 <1>  -0.6800 
  2 C        1.8340     2.3240    -1.0580 C.3   1 <1>   0.2000 
  3 C        1.2480     3.7280    -0.8940 C.3   1 <1>   0.2090 
  4 C        3.3380     2.5350    -1.1040 C.3   1 <1>  -0.1600 
  5 N        2.3240     4.5380    -0.2540 N.pl3 1 <1>  -0.8380 
  6 C        3.5810     3.7430    -0.2070 C.3   1 <1>   0.2090 
  7 C        2.2250     5.8120     0.2010 C.ar  1 <1>   0.4100 
  8 N        3.2720     6.3220     0.8220 N.ar  1 <1>  -0.6200 
  9 C        1.0490     6.5640     0.0190 C.ar  1 <1>  -0.1500 
 10 C        3.2040     7.5640     1.2770 C.ar  1 <1>   0.7710 
 11 C        0.9960     7.8290     0.4950 C.ar  1 <1>   0.2110 
 12 N        2.0950     8.3120     1.1250 N.ar  1 <1>  -0.1790 
 13 N        4.2870     8.0870     1.9180 N.pl3 1 <1>  -0.8380 
 14 C        4.6020     9.5380     2.1210 C.3   1 <1>   0.2090 
 15 C        5.3120     7.1550     2.5120 C.3   1 <1>   0.1290 
 16 C        5.2350    10.1770     0.8620 C.3   1 <1>  -0.0800 
 17 C        6.4990     9.4340     0.3790 C.3   1 <1>  -0.1600 
 18 C        5.5850    11.6520     1.1380 C.3   1 <1>  -0.1600 
 19 C        7.2010    10.1440    -0.7820 C.3   1 <1>   0.3430 
 20 C        6.2970    12.3240    -0.0400 C.3   1 <1>   0.3430 
 21 N        7.5170    11.5460    -0.3990 N.4   1 <1>  -0.9590 
 22 C        8.3110    12.2340    -1.4570 C.3   1 <1>   0.4860 
 23 C        8.8040    13.5550    -0.9030 C.ar  1 <1>  -0.1430 
 24 C        8.2180    14.7460    -1.3110 C.ar  1 <1>  -0.1500 
 25 C        9.8410    13.5860     0.0200 C.ar  1 <1>  -0.1500 
 26 C        8.6530    15.9510    -0.7880 C.ar  1 <1>  -0.1500 
 27 C       10.2740    14.7920     0.5400 C.ar  1 <1>  -0.1500 
 28 C        9.6790    15.9740     0.1390 C.ar  1 <1>  -0.1500 
 29 H        0.4870     1.4390    -2.1790 H     1 <1>   0.4000 
 30 H        1.5580     1.6940    -0.2300 H     1 <1>   0.0800 
 31 H        0.3700     3.7030    -0.2730 H     1 <1>   0.0800 
 32 H        1.0190     4.1470    -1.8600 H     1 <1>   0.0800 
 33 H        3.6500     2.7800    -2.1040 H     1 <1>   0.0800 
 34 H        3.8780     1.6730    -0.7570 H     1 <1>   0.0800 
 35 H        4.4190     4.3230    -0.5570 H     1 <1>   0.0800 
 36 H        3.7610     3.4290     0.8070 H     1 <1>   0.0800 
 37 H        0.2150     6.1240    -0.4930 H     1 <1>   0.1500 
 38 H        0.1230     8.4550     0.3960 H     1 <1>   0.1500 
 39 H        2.1120     9.2240     1.5610 H     1 <1>   0.4570 
 40 H        5.2840     9.6430     2.9500 H     1 <1>   0.0800 
 41 H        3.7100    10.0770     2.3920 H     1 <1>   0.0800 
 42 H        4.8620     6.2130     2.7800 H     1 <1>   0.0800 
 43 H        5.7410     7.5730     3.4060 H     1 <1>   0.0800 
 44 H        6.0980     6.9600     1.8030 H     1 <1>   0.0800 
 45 H        4.5060    10.1510     0.0690 H     1 <1>   0.0800 
 46 H        6.2300     8.4480     0.0430 H     1 <1>   0.0800 
 47 H        7.1960     9.3190     1.1920 H     1 <1>   0.0800 
 48 H        6.2160    11.7290     2.0070 H     1 <1>   0.0800 
 49 H        4.6860    12.2060     1.3490 H     1 <1>   0.0800 
 50 H        6.5580    10.1390    -1.6480 H     1 <1>   0.0800 
 51 H        8.1070     9.6140    -1.0310 H     1 <1>   0.0800 
 52 H        6.5690    13.3320     0.2370 H     1 <1>   0.0800 
 53 H        5.6330    12.3750    -0.8870 H     1 <1>   0.0800 
 54 H        8.1180    11.5350     0.4340 H     1 <1>   0.4500 
 55 H        7.7060    12.4030    -2.3330 H     1 <1>   0.0800 
 56 H        9.1600    11.6310    -1.7380 H     1 <1>   0.0800 
 57 H        7.4220    14.7560    -2.0370 H     1 <1>   0.1500 
 58 H       10.3290    12.6820     0.3420 H     1 <1>   0.1500 
 59 H        8.1990    16.8760    -1.1040 H     1 <1>   0.1500 
 60 H       11.0790    14.8180     1.2560 H     1 <1>   0.1500 
 61 H       10.0180    16.9130     0.5440 H     1 <1>   0.1500 
@<TRIPOS>BOND
  1   1   2  1   
  2   1  29  1   
  3   2   3  1   
  4   2   4  1   
  5   2  30  1   
  6   3   5  1   
  7   3  31  1   
  8   3  32  1   
  9   4   6  1   
 10   4  33  1   
 11   4  34  1   
 12   5   6  1   
 13   5   7  1   
 14   6  35  1   
 15   6  36  1   
 16   7   8  ar  
 17   7   9  ar  
 18   8  10  ar  
 19   9  11  ar  
 20   9  37  1   
 21  10  12  ar  
 22  10  13  1   
 23  11  12  ar  
 24  11  38  1   
 25  12  39  1   
 26  13  14  1   
 27  13  15  1   
 28  14  16  1   
 29  14  40  1   
 30  14  41  1   
 31  15  42  1   
 32  15  43  1   
 33  15  44  1   
 34  16  17  1   
 35  16  18  1   
 36  16  45  1   
 37  17  19  1   
 38  17  46  1   
 39  17  47  1   
 40  18  20  1   
 41  18  48  1   
 42  18  49  1   
 43  19  21  1   
 44  19  50  1   
 45  19  51  1   
 46  20  21  1   
 47  20  52  1   
 48  20  53  1   
 49  21  22  1   
 50  21  54  1   
 51  22  23  1   
 52  22  55  1   
 53  22  56  1   
 54  23  24  ar  
 55  23  25  ar  
 56  24  26  ar  
 57  24  57  1   
 58  25  27  ar  
 59  25  58  1   
 60  26  28  ar  
 61  26  59  1   
 62  27  28  ar  
 63  27  60  1   
 64  28  61  1   
@<TRIPOS>SUBSTRUCTURE
  1 ****  16 GROUP 4 **** **** 0

# MOE 2024.06 (io_trps.svl 2023.06)
