@<TRIPOS>MOLECULE
NONAME
49 51 1 0 0 
SMALL
USER_CHARGES


@<TRIPOS>ATOM
  1 N       -0.2930    -0.2850    -0.5050 N.2   1 <1>  -0.2670 
  2 N       -1.4860    -0.8500    -0.8590 N.pl3 1 <1>  -0.4620 
  3 C        0.0210    -0.8490     0.5950 C.2   1 <1>   0.4800 
  4 C       -1.8600    -1.7470     0.0620 C.cat 1 <1>   1.0690 
  5 C       -2.0880    -0.4470    -2.1570 C.3   1 <1>   0.2670 
  6 N       -0.9130    -1.7620     0.9790 N.pl3 1 <1>  -0.7040 
  7 C        1.2630    -0.5730     1.4140 C.3   1 <1>  -0.0800 
  8 N       -2.9890    -2.5220     0.1070 N.pl3 1 <1>  -0.5960 
  9 C       -3.0690    -3.7730     0.9490 C.3   1 <1>   0.1600 
 10 C       -4.2890    -2.0780    -0.5000 C.3   1 <1>   0.1600 
 11 C       -4.1170    -4.8290     0.4570 C.3   1 <1>   0.4980 
 12 C       -5.5170    -2.6850     0.2140 C.3   1 <1>   0.3370 
 13 N       -5.5060    -4.1980     0.3520 N.4   1 <1>  -0.9610 
 14 C       -4.0570    -6.0400     1.4210 C.3   1 <1>  -0.1670 
 15 C       -3.7060    -5.3340    -0.9450 C.3   1 <1>  -0.1670 
 16 C       -6.4810    -4.5030     1.4610 C.3   1 <1>   0.2560 
 17 C       -4.7990    -7.2870     0.9340 C.3   1 <1>   0.3370 
 18 C       -4.4540    -6.5860    -1.4150 C.3   1 <1>   0.3370 
 19 N       -4.3080    -7.6700    -0.4130 N.4   1 <1>  -0.9610 
 20 C       -5.0070    -8.9100    -0.8860 C.3   1 <1>   0.2560 
 21 H       -1.3230    -0.0490    -2.8030 H     1 <1>   0.0720 
 22 H       -2.8280     0.3180    -1.9960 H     1 <1>   0.0720 
 23 H       -2.5360    -1.2930    -2.6460 H     1 <1>   0.0720 
 24 H       -0.8710    -2.2890     1.8440 H     1 <1>   0.4450 
 25 H        1.8620     0.1790     0.9310 H     1 <1>   0.0720 
 26 H        1.8520    -1.4670     1.5110 H     1 <1>   0.0720 
 27 H        0.9930    -0.2180     2.3920 H     1 <1>   0.0720 
 28 H       -3.3130    -3.4940     1.9600 H     1 <1>   0.0720 
 29 H       -2.0960    -4.2370     0.9740 H     1 <1>   0.0720 
 30 H       -4.3170    -2.3510    -1.5410 H     1 <1>   0.0720 
 31 H       -4.3640    -1.0040    -0.4430 H     1 <1>   0.0720 
 32 H       -6.4120    -2.3800    -0.3050 H     1 <1>   0.0720 
 33 H       -5.5640    -2.2450     1.1980 H     1 <1>   0.0720 
 34 H       -5.9390    -4.5580    -0.5090 H     1 <1>   0.4450 
 35 H       -4.4040    -5.7710     2.4020 H     1 <1>   0.0720 
 36 H       -3.0280    -6.3290     1.5520 H     1 <1>   0.0720 
 37 H       -2.6570    -5.5760    -0.9420 H     1 <1>   0.0720 
 38 H       -3.8340    -4.5660    -1.6840 H     1 <1>   0.0720 
 39 H       -6.0940    -4.1620     2.4080 H     1 <1>   0.0720 
 40 H       -6.6750    -5.5590     1.5270 H     1 <1>   0.0720 
 41 H       -7.4200    -4.0040     1.2800 H     1 <1>   0.0720 
 42 H       -5.8590    -7.1010     0.8900 H     1 <1>   0.0720 
 43 H       -4.6320    -8.0990     1.6250 H     1 <1>   0.0720 
 44 H       -4.0520    -6.9120    -2.3620 H     1 <1>   0.0720 
 45 H       -5.4990    -6.3650    -1.5570 H     1 <1>   0.0720 
 46 H       -3.3080    -7.9230    -0.3400 H     1 <1>   0.4450 
 47 H       -6.0650    -8.7320    -0.9890 H     1 <1>   0.0720 
 48 H       -4.8600    -9.7140    -0.1830 H     1 <1>   0.0720 
 49 H       -4.6160    -9.2200    -1.8420 H     1 <1>   0.0720 
@<TRIPOS>BOND
  1   1   2  1   
  2   1   3  2   
  3   2   4  ar  
  4   2   5  1   
  5   3   6  1   
  6   3   7  1   
  7   4   6  ar  
  8   4   8  ar  
  9   5  21  1   
 10   5  22  1   
 11   5  23  1   
 12   6  24  1   
 13   7  25  1   
 14   7  26  1   
 15   7  27  1   
 16   8   9  1   
 17   8  10  1   
 18   9  11  1   
 19   9  28  1   
 20   9  29  1   
 21  10  12  1   
 22  10  30  1   
 23  10  31  1   
 24  11  13  1   
 25  11  14  1   
 26  11  15  1   
 27  12  13  1   
 28  12  32  1   
 29  12  33  1   
 30  13  16  1   
 31  13  34  1   
 32  14  17  1   
 33  14  35  1   
 34  14  36  1   
 35  15  18  1   
 36  15  37  1   
 37  15  38  1   
 38  16  39  1   
 39  16  40  1   
 40  16  41  1   
 41  17  19  1   
 42  17  42  1   
 43  17  43  1   
 44  18  19  1   
 45  18  44  1   
 46  18  45  1   
 47  19  20  1   
 48  19  46  1   
 49  20  47  1   
 50  20  48  1   
 51  20  49  1   
@<TRIPOS>SUBSTRUCTURE
  1 ****   9 GROUP 4 **** **** 0

# MOE 2024.06 (io_trps.svl 2023.06)
