@<TRIPOS>MOLECULE
NONAME
46 48 1 0 0 
SMALL
USER_CHARGES


@<TRIPOS>ATOM
  1 O       -0.1600    -0.5640     0.1360 O.3   1 <1>  -0.3630 
  2 C       -0.2350    -1.9050    -0.0470 C.ar  1 <1>   0.0830 
  3 C        0.2720     0.3040    -0.8890 C.3   1 <1>   0.0400 
  4 C       -0.6410    -2.6660     1.0160 C.ar  1 <1>  -0.1500 
  5 C        0.0840    -2.5340    -1.2650 C.ar  1 <1>  -0.1500 
  6 C       -0.7510    -4.0660     0.9260 C.ar  1 <1>   0.0000 
  7 C       -0.0150    -3.8940    -1.3790 C.ar  1 <1>  -0.1500 
  8 C       -0.4340    -4.6940    -0.2970 C.ar  1 <1>   0.0000 
  9 C       -1.1630    -4.8660     2.0090 C.ar  1 <1>  -0.1500 
 10 C       -0.5520    -6.0950    -0.3890 C.ar  1 <1>  -0.1500 
 11 C       -1.2670    -6.2240     1.8940 C.ar  1 <1>  -0.1500 
 12 C       -0.9660    -6.8530     0.6750 C.ar  1 <1>  -0.1430 
 13 C       -1.1120    -8.3580     0.5520 C.3   1 <1>   0.4860 
 14 N       -2.5590    -8.6960     0.5580 N.4   1 <1>  -0.9590 
 15 C       -2.7750   -10.1870     0.6960 C.3   1 <1>   0.3430 
 16 C       -3.2590    -8.1280    -0.6310 C.3   1 <1>   0.3430 
 17 C       -4.0960   -10.6980     0.0690 C.3   1 <1>   0.2000 
 18 C       -4.7750    -8.3030    -0.4740 C.3   1 <1>  -0.1600 
 19 O       -3.8650   -10.9530    -1.2790 O.3   1 <1>  -0.6800 
 20 C       -5.1960    -9.6310     0.2080 C.3   1 <1>  -0.0800 
 21 C       -6.5670   -10.1240    -0.2800 C.3   1 <1>   0.1200 
 22 O       -7.4990    -9.1430     0.0050 O.3   1 <1>  -0.6800 
 23 H        0.2560     1.3070    -0.5040 H     1 <1>   0.0800 
 24 H       -0.4020     0.2220    -1.7230 H     1 <1>   0.0800 
 25 H        1.2740     0.0370    -1.1720 H     1 <1>   0.0800 
 26 H       -0.8810    -2.1830     1.9450 H     1 <1>   0.1500 
 27 H        0.4060    -1.9550    -2.1090 H     1 <1>   0.1500 
 28 H        0.2310    -4.3730    -2.3090 H     1 <1>   0.1500 
 29 H       -1.3920    -4.3760     2.9400 H     1 <1>   0.1500 
 30 H       -0.3020    -6.5480    -1.3330 H     1 <1>   0.1500 
 31 H       -1.5750    -6.8060     2.7450 H     1 <1>   0.1500 
 32 H       -0.6130    -8.8300     1.3820 H     1 <1>   0.0800 
 33 H       -0.6550    -8.7000    -0.3620 H     1 <1>   0.0800 
 34 H       -2.9720    -8.2200     1.3690 H     1 <1>   0.4500 
 35 H       -1.9650   -10.7250     0.2320 H     1 <1>   0.0800 
 36 H       -2.7760   -10.4370     1.7440 H     1 <1>   0.0800 
 37 H       -3.0300    -7.0810    -0.7500 H     1 <1>   0.0800 
 38 H       -2.9330    -8.6500    -1.5180 H     1 <1>   0.0800 
 39 H       -4.3840   -11.6270     0.5330 H     1 <1>   0.0800 
 40 H       -5.1790    -7.4740     0.0810 H     1 <1>   0.0800 
 41 H       -5.2050    -8.2480    -1.4600 H     1 <1>   0.0800 
 42 H       -4.6220   -11.4200    -1.6900 H     1 <1>   0.4000 
 43 H       -5.3010    -9.4410     1.2630 H     1 <1>   0.0800 
 44 H       -6.8620   -11.0240     0.2330 H     1 <1>   0.0800 
 45 H       -6.5700   -10.2930    -1.3430 H     1 <1>   0.0800 
 46 H       -8.3970    -9.4100    -0.2810 H     1 <1>   0.4000 
@<TRIPOS>BOND
  1   1   2  1   
  2   1   3  1   
  3   2   4  ar  
  4   2   5  ar  
  5   3  23  1   
  6   3  24  1   
  7   3  25  1   
  8   4   6  ar  
  9   4  26  1   
 10   5   7  ar  
 11   5  27  1   
 12   6   8  ar  
 13   6   9  ar  
 14   7   8  ar  
 15   7  28  1   
 16   8  10  ar  
 17   9  11  ar  
 18   9  29  1   
 19  10  12  ar  
 20  10  30  1   
 21  11  12  ar  
 22  11  31  1   
 23  12  13  1   
 24  13  14  1   
 25  13  32  1   
 26  13  33  1   
 27  14  15  1   
 28  14  16  1   
 29  14  34  1   
 30  15  17  1   
 31  15  35  1   
 32  15  36  1   
 33  16  18  1   
 34  16  37  1   
 35  16  38  1   
 36  17  19  1   
 37  17  20  1   
 38  17  39  1   
 39  18  20  1   
 40  18  40  1   
 41  18  41  1   
 42  19  42  1   
 43  20  21  1   
 44  20  43  1   
 45  21  22  1   
 46  21  44  1   
 47  21  45  1   
 48  22  46  1   
@<TRIPOS>SUBSTRUCTURE
  1 ****  12 GROUP 4 **** **** 0

# MOE 2024.06 (io_trps.svl 2023.06)
