@<TRIPOS>MOLECULE
NONAME
48 51 1 0 0 
SMALL
USER_CHARGES


@<TRIPOS>ATOM
  1 S        2.7400     0.2810     2.1650 S.3   1 <1>  -0.0800 
  2 C        2.9360     1.7770     1.2710 C.2   1 <1>  -0.1100 
  3 C        2.7700    -0.6540     0.6820 C.2   1 <1>  -0.1100 
  4 C        3.0290     1.5410    -0.0520 C.2   1 <1>  -0.1810 
  5 C        2.9250     0.1500    -0.3850 C.2   1 <1>  -0.1500 
  6 C        3.2250     2.5840    -1.1480 C.3   1 <1>   0.0820 
  7 C        3.7610     3.9240    -0.6500 C.2   1 <1>   0.5690 
  8 O        3.1050     4.9080    -0.8910 O.2   1 <1>  -0.5700 
  9 N        4.9660     4.0370     0.0110 N.am  1 <1>  -0.6600 
 10 C        5.9740     2.9420     0.1860 C.3   1 <1>   0.1400 
 11 C        5.3080     5.3090     0.7070 C.3   1 <1>   0.1400 
 12 C        7.2380     3.1440    -0.6810 C.3   1 <1>   0.3430 
 13 C        6.0670     6.2480    -0.2340 C.3   1 <1>  -0.1600 
 14 N        7.8200     4.5280    -0.6140 N.4   1 <1>  -0.9590 
 15 C        6.9480     5.5480    -1.2680 C.3   1 <1>   0.3430 
 16 C        9.2080     4.5850    -1.1470 C.3   1 <1>   0.5230 
 17 C        9.8330     5.8740    -0.6540 C.2   1 <1>  -0.0400 
 18 O        9.7440     6.1370     0.6480 O.3   1 <1>  -0.2800 
 19 C       10.4750     6.8610    -1.3090 C.2   1 <1>  -0.1500 
 20 C       10.3390     7.3140     0.8550 C.ar  1 <1>   0.1400 
 21 C       10.8200     7.8240    -0.3380 C.ar  1 <1>   0.0000 
 22 C       10.4920     7.9900     2.0580 C.ar  1 <1>  -0.1500 
 23 C       11.4770     9.0540    -0.3440 C.ar  1 <1>  -0.1500 
 24 C       11.1430     9.2080     2.0450 C.ar  1 <1>  -0.1500 
 25 C       11.6320     9.7360     0.8470 C.ar  1 <1>  -0.1500 
 26 H        2.9600     2.6880     1.8440 H     1 <1>   0.1500 
 27 H        2.6630    -1.7210     0.7700 H     1 <1>   0.1500 
 28 H        2.9640    -0.1880    -1.4070 H     1 <1>   0.1500 
 29 H        2.2790     2.7490    -1.6330 H     1 <1>   0.0800 
 30 H        3.9030     2.2070    -1.8880 H     1 <1>   0.0800 
 31 H        5.5480     1.9880    -0.0630 H     1 <1>   0.0800 
 32 H        6.2570     2.8870     1.2230 H     1 <1>   0.0800 
 33 H        5.9030     5.0950     1.5780 H     1 <1>   0.0800 
 34 H        4.4070     5.7940     1.0500 H     1 <1>   0.0800 
 35 H        6.9890     2.9130    -1.7030 H     1 <1>   0.0800 
 36 H        7.9760     2.4270    -0.3590 H     1 <1>   0.0800 
 37 H        6.6570     6.9360     0.3460 H     1 <1>   0.0800 
 38 H        5.3430     6.8390    -0.7670 H     1 <1>   0.0800 
 39 H        7.9200     4.8190     0.3700 H     1 <1>   0.4500 
 40 H        7.5460     6.2940    -1.7670 H     1 <1>   0.0800 
 41 H        6.3200     5.0740    -2.0060 H     1 <1>   0.0800 
 42 H        9.2090     4.5490    -2.2240 H     1 <1>   0.0800 
 43 H        9.7830     3.7570    -0.7680 H     1 <1>   0.0800 
 44 H       10.7120     6.9640    -2.3540 H     1 <1>   0.1500 
 45 H       10.1110     7.5660     2.9690 H     1 <1>   0.1500 
 46 H       11.8540     9.4570    -1.2670 H     1 <1>   0.1500 
 47 H       11.2800     9.7590     2.9600 H     1 <1>   0.1500 
 48 H       12.1380    10.6870     0.8610 H     1 <1>   0.1500 
@<TRIPOS>BOND
  1   1   2  1   
  2   1   3  1   
  3   2   4  2   
  4   2  26  1   
  5   3   5  2   
  6   3  27  1   
  7   4   5  1   
  8   4   6  1   
  9   5  28  1   
 10   6   7  1   
 11   6  29  1   
 12   6  30  1   
 13   7   8  2   
 14   7   9  am  
 15   9  10  1   
 16   9  11  1   
 17  10  12  1   
 18  10  31  1   
 19  10  32  1   
 20  11  13  1   
 21  11  33  1   
 22  11  34  1   
 23  12  14  1   
 24  12  35  1   
 25  12  36  1   
 26  13  15  1   
 27  13  37  1   
 28  13  38  1   
 29  14  15  1   
 30  14  16  1   
 31  14  39  1   
 32  15  40  1   
 33  15  41  1   
 34  16  17  1   
 35  16  42  1   
 36  16  43  1   
 37  17  18  1   
 38  17  19  2   
 39  18  20  1   
 40  19  21  1   
 41  19  44  1   
 42  20  21  ar  
 43  20  22  ar  
 44  21  23  ar  
 45  22  24  ar  
 46  22  45  1   
 47  23  25  ar  
 48  23  46  1   
 49  24  25  ar  
 50  24  47  1   
 51  25  48  1   
@<TRIPOS>SUBSTRUCTURE
  1 ****  14 GROUP 4 **** **** 0

# MOE 2024.06 (io_trps.svl 2023.06)
