@<TRIPOS>MOLECULE
NONAME
54 57 1 0 0 
SMALL
USER_CHARGES


@<TRIPOS>ATOM
  1 F       -0.6440     0.0690    -0.6080 F     1 <1>  -0.1900 
  2 C       -1.8870     0.4660    -0.5010 C.ar  1 <1>   0.1900 
  3 C       -2.2260     1.8150    -0.3550 C.ar  1 <1>   0.0830 
  4 C       -2.8520    -0.5210    -0.5440 C.ar  1 <1>  -0.1500 
  5 O       -1.3700     2.8760    -0.3000 O.3   1 <1>  -0.3630 
  6 C       -3.5710     2.1310    -0.2530 C.ar  1 <1>  -0.1500 
  7 C       -4.1860    -0.1700    -0.4400 C.ar  1 <1>  -0.1500 
  8 C        0.0330     2.7350    -0.3390 C.3   1 <1>   0.0400 
  9 C       -4.5780     1.1630    -0.2900 C.ar  1 <1>   0.0530 
 10 C       -5.9670     1.5450    -0.1830 C.2   1 <1>   0.0870 
 11 O       -6.3420     2.7570    -0.5050 O.3   1 <1>  -0.0190 
 12 C       -7.0900     0.8800     0.1990 C.2   1 <1>  -0.0860 
 13 N       -7.6260     2.9520    -0.3630 N.2   1 <1>  -0.4100 
 14 C       -8.1020     1.8380     0.0720 C.2   1 <1>   0.3720 
 15 C       -7.2490    -0.4690     0.6420 C.2   1 <1>   0.7160 
 16 N       -9.4580     1.6400     0.3810 N.pl3 1 <1>  -0.8210 
 17 O       -6.6620    -0.8480     1.6400 O.2   1 <1>  -0.5700 
 18 N       -8.0070    -1.3780    -0.0560 N.am  1 <1>  -0.6600 
 19 C       -9.7380     1.4040     1.8240 C.3   1 <1>   0.1290 
 20 C      -10.4100     2.6160    -0.2220 C.3   1 <1>   0.1290 
 21 C       -8.2010    -2.7830     0.3240 C.3   1 <1>   0.1400 
 22 C       -8.7270    -1.1240    -1.2700 C.3   1 <1>   0.1400 
 23 C       -9.3850    -3.4670    -0.4930 C.3   1 <1>   0.0000 
 24 C       -9.0690    -2.5250    -1.7290 C.3   1 <1>  -0.1600 
 25 C      -10.4750    -4.2390    -1.3510 C.3   1 <1>  -0.1600 
 26 C       -9.7690    -4.3230     0.7910 C.3   1 <1>  -0.1600 
 27 C      -10.8860    -5.5870    -0.7940 C.3   1 <1>  -0.1600 
 28 C      -10.9480    -5.2710     0.6520 C.3   1 <1>  -0.1600 
 29 H       -2.5620    -1.5500    -0.6550 H     1 <1>   0.1500 
 30 H       -3.8380     3.1670    -0.1380 H     1 <1>   0.1500 
 31 H       -4.9260    -0.9480    -0.4790 H     1 <1>   0.1500 
 32 H        0.4690     3.7140    -0.2540 H     1 <1>   0.0800 
 33 H        0.3140     2.2930    -1.2790 H     1 <1>   0.0800 
 34 H        0.3470     2.1230     0.4870 H     1 <1>   0.0800 
 35 H       -9.0320     0.7070     2.2400 H     1 <1>   0.0800 
 36 H      -10.7270     0.9970     1.9410 H     1 <1>   0.0800 
 37 H       -9.6690     2.3310     2.3670 H     1 <1>   0.0800 
 38 H      -10.2000     2.7290    -1.2720 H     1 <1>   0.0800 
 39 H      -10.3090     3.5750     0.2570 H     1 <1>   0.0800 
 40 H      -11.4200     2.2630    -0.1080 H     1 <1>   0.0800 
 41 H       -8.2690    -2.7850     1.4000 H     1 <1>   0.0800 
 42 H       -7.2920    -3.3100     0.0880 H     1 <1>   0.0800 
 43 H       -8.1240    -0.5940    -1.9880 H     1 <1>   0.0800 
 44 H       -9.6230    -0.5680    -1.0480 H     1 <1>   0.0800 
 45 H       -8.2260    -2.9250    -2.2690 H     1 <1>   0.0800 
 46 H       -9.8520    -2.3620    -2.4550 H     1 <1>   0.0800 
 47 H      -10.1540    -4.4640    -2.3580 H     1 <1>   0.0800 
 48 H      -11.3640    -3.6300    -1.4090 H     1 <1>   0.0800 
 49 H      -10.0340    -3.6900     1.6240 H     1 <1>   0.0800 
 50 H       -8.9290    -4.9360     1.0810 H     1 <1>   0.0800 
 51 H      -10.1230    -6.3230    -0.9870 H     1 <1>   0.0800 
 52 H      -11.8310    -5.9270    -1.1830 H     1 <1>   0.0800 
 53 H      -11.8690    -4.7610     0.8810 H     1 <1>   0.0800 
 54 H      -10.8530    -6.1480     1.2710 H     1 <1>   0.0800 
@<TRIPOS>BOND
  1   1   2  1   
  2   2   3  ar  
  3   2   4  ar  
  4   3   5  1   
  5   3   6  ar  
  6   4   7  ar  
  7   4  29  1   
  8   5   8  1   
  9   6   9  ar  
 10   6  30  1   
 11   7   9  ar  
 12   7  31  1   
 13   8  32  1   
 14   8  33  1   
 15   8  34  1   
 16   9  10  1   
 17  10  11  1   
 18  10  12  2   
 19  11  13  1   
 20  12  14  1   
 21  12  15  1   
 22  13  14  2   
 23  14  16  1   
 24  15  17  2   
 25  15  18  am  
 26  16  19  1   
 27  16  20  1   
 28  18  21  1   
 29  18  22  1   
 30  19  35  1   
 31  19  36  1   
 32  19  37  1   
 33  20  38  1   
 34  20  39  1   
 35  20  40  1   
 36  21  23  1   
 37  21  41  1   
 38  21  42  1   
 39  22  24  1   
 40  22  43  1   
 41  22  44  1   
 42  23  24  1   
 43  23  25  1   
 44  23  26  1   
 45  24  45  1   
 46  24  46  1   
 47  25  27  1   
 48  25  47  1   
 49  25  48  1   
 50  26  28  1   
 51  26  49  1   
 52  26  50  1   
 53  27  28  1   
 54  27  51  1   
 55  27  52  1   
 56  28  53  1   
 57  28  54  1   
@<TRIPOS>SUBSTRUCTURE
  1 ****  15 GROUP 4 **** **** 0

# MOE 2024.06 (io_trps.svl 2023.06)
