@<TRIPOS>MOLECULE
NONAME
47 49 1 0 0 
SMALL
USER_CHARGES


@<TRIPOS>ATOM
  1 O        0.3670     0.1460     2.1120 O.co2 1 <1>  -0.9000 
  2 C        0.9170    -0.3030     1.1000 C.2   1 <1>   0.9060 
  3 O        0.5380    -1.3680     0.5840 O.co2 1 <1>  -0.9000 
  4 C        2.1010     0.4330     0.4550 C.3   1 <1>  -0.1060 
  5 C        3.2620    -0.5860     0.3810 C.3   1 <1>   0.2000 
  6 C        2.6010     1.6000     1.3480 C.3   1 <1>  -0.1600 
  7 C        1.6840     0.9280    -0.9660 C.3   1 <1>  -0.0170 
  8 O        2.9190    -1.6160    -0.4830 O.3   1 <1>  -0.6800 
  9 C        4.6050     0.0150    -0.0700 C.3   1 <1>   0.2090 
 10 C        3.8800     2.2560     0.8260 C.3   1 <1>   0.2090 
 11 C        0.8580     2.2140    -1.0060 C.ar  1 <1>  -0.1440 
 12 N        4.9790     1.2550     0.6880 N.pl3 1 <1>  -0.8210 
 13 C       -0.4090     2.2600    -0.4450 C.ar  1 <1>  -0.1500 
 14 C        1.3660     3.3530    -1.6150 C.ar  1 <1>  -0.1500 
 15 C        6.2580     1.7540     0.4260 C.2   1 <1>   0.5990 
 16 C       -1.1540     3.4260    -0.4840 C.ar  1 <1>  -0.1500 
 17 C        0.6230     4.5200    -1.6570 C.ar  1 <1>  -0.1500 
 18 N        7.2450     1.0700    -0.0150 N.2   1 <1>  -0.4100 
 19 N        6.5580     3.0340     0.6210 N.2   1 <1>  -0.5650 
 20 C       -0.6390     4.5580    -1.0900 C.ar  1 <1>  -0.1500 
 21 O        8.2580     1.8870    -0.1260 O.3   1 <1>  -0.0190 
 22 C        7.7760     3.0380     0.2700 C.2   1 <1>   0.2980 
 23 C        8.6920     4.2480     0.2770 C.3   1 <1>   0.0200 
 24 C        9.0850     4.6700    -1.1470 C.3   1 <1>  -0.1600 
 25 C        9.9970     5.9010    -1.1400 C.3   1 <1>  -0.2400 
 26 H        3.3990    -1.0270     1.3540 H     1 <1>   0.0800 
 27 H        2.7940     1.2300     2.3400 H     1 <1>   0.0800 
 28 H        1.8320     2.3440     1.4460 H     1 <1>   0.0800 
 29 H        2.5610     1.0780    -1.5650 H     1 <1>   0.0800 
 30 H        1.1190     0.1540    -1.4570 H     1 <1>   0.0800 
 31 H        1.9690    -1.8430    -0.2510 H     1 <1>   0.4000 
 32 H        4.5630     0.2480    -1.1190 H     1 <1>   0.0800 
 33 H        5.3660    -0.7320     0.0770 H     1 <1>   0.0800 
 34 H        4.1760     3.0230     1.5220 H     1 <1>   0.0800 
 35 H        3.7000     2.7230    -0.1260 H     1 <1>   0.0800 
 36 H       -0.8220     1.3870     0.0330 H     1 <1>   0.1500 
 37 H        2.3440     3.3350    -2.0610 H     1 <1>   0.1500 
 38 H       -2.1320     3.4440    -0.0380 H     1 <1>   0.1500 
 39 H        1.0270     5.3970    -2.1300 H     1 <1>   0.1500 
 40 H       -1.2180     5.4640    -1.1190 H     1 <1>   0.1500 
 41 H        8.1840     5.0600     0.7660 H     1 <1>   0.0800 
 42 H        9.5710     4.0110     0.8470 H     1 <1>   0.0800 
 43 H        9.5910     3.8550    -1.6360 H     1 <1>   0.0800 
 44 H        8.1930     4.8900    -1.7090 H     1 <1>   0.0800 
 45 H       10.9060     5.6960    -0.6010 H     1 <1>   0.0800 
 46 H        9.5010     6.7370    -0.6780 H     1 <1>   0.0800 
 47 H       10.2540     6.1740    -2.1490 H     1 <1>   0.0800 
@<TRIPOS>BOND
  1   1   2  ar  
  2   2   3  ar  
  3   2   4  1   
  4   4   5  1   
  5   4   6  1   
  6   4   7  1   
  7   5   8  1   
  8   5   9  1   
  9   5  26  1   
 10   6  10  1   
 11   6  27  1   
 12   6  28  1   
 13   7  11  1   
 14   7  29  1   
 15   7  30  1   
 16   8  31  1   
 17   9  12  1   
 18   9  32  1   
 19   9  33  1   
 20  10  12  1   
 21  10  34  1   
 22  10  35  1   
 23  11  13  ar  
 24  11  14  ar  
 25  12  15  1   
 26  13  16  ar  
 27  13  36  1   
 28  14  17  ar  
 29  14  37  1   
 30  15  18  2   
 31  15  19  1   
 32  16  20  ar  
 33  16  38  1   
 34  17  20  ar  
 35  17  39  1   
 36  18  21  1   
 37  19  22  2   
 38  20  40  1   
 39  21  22  1   
 40  22  23  1   
 41  23  24  1   
 42  23  41  1   
 43  23  42  1   
 44  24  25  1   
 45  24  43  1   
 46  24  44  1   
 47  25  45  1   
 48  25  46  1   
 49  25  47  1   
@<TRIPOS>SUBSTRUCTURE
  1 ****  10 GROUP 4 **** **** 0

# MOE 2024.06 (io_trps.svl 2023.06)
