@<TRIPOS>MOLECULE
NONAME
53 57 1 0 0 
SMALL
USER_CHARGES


@<TRIPOS>ATOM
  1 O       -0.5780     0.1310    -1.1450 O.2   1 <1>  -0.5700 
  2 C       -1.5770     0.8350    -1.1040 C.2   1 <1>   0.7160 
  3 N       -2.8040     0.1880    -1.1100 N.am  1 <1>  -0.6600 
  4 C       -1.4370     2.2940    -1.0410 C.2   1 <1>   0.2030 
  5 C       -4.0940     0.8380    -0.7230 C.3   1 <1>   0.1400 
  6 C       -2.9550    -1.2470    -1.5020 C.3   1 <1>   0.1400 
  7 N       -2.2870     3.1880    -1.5310 N.2   1 <1>  -0.7070 
  8 C       -0.3540     2.9660    -0.4430 C.2   1 <1>  -0.1810 
  9 C       -4.8660    -0.0130     0.3040 C.3   1 <1>   0.1900 
 10 C       -3.7510    -2.0320    -0.4480 C.3   1 <1>   0.1100 
 11 N       -1.7590     4.3880    -1.2540 N.pl3 1 <1>   0.3000 
 12 C       -0.5980     4.2780    -0.5870 C.2   1 <1>  -0.3320 
 13 C        0.8820     2.4220     0.2580 C.3   1 <1>   0.0210 
 14 N       -5.0630    -1.4020    -0.1840 N.3   1 <1>  -0.8100 
 15 C       -6.2220     0.6440     0.6300 C.3   1 <1>   0.1200 
 16 C        0.2850     5.4080    -0.0920 C.3   1 <1>   0.0200 
 17 C        1.9320     3.5340     0.4470 C.3   1 <1>  -0.1600 
 18 C       -5.8600    -2.1720     0.7990 C.3   1 <1>   0.3330 
 19 O       -6.9250    -0.1200     1.5680 O.3   1 <1>  -0.5600 
 20 C        1.3010     4.8570     0.9250 C.3   1 <1>  -0.1600 
 21 C       -6.1900    -3.5670     0.2690 C.ar  1 <1>  -0.1440 
 22 C       -7.1720    -1.4320     1.1370 C.3   1 <1>   0.1200 
 23 C       -6.6780    -3.7430    -1.0190 C.ar  1 <1>  -0.1500 
 24 C       -6.0070    -4.6800     1.0770 C.ar  1 <1>  -0.1500 
 25 C       -6.9800    -5.0080    -1.4910 C.ar  1 <1>  -0.1500 
 26 C       -6.3080    -5.9470     0.6070 C.ar  1 <1>  -0.1500 
 27 C       -6.7950    -6.1110    -0.6780 C.ar  1 <1>  -0.1500 
 28 H       -3.9160     1.8020    -0.2860 H     1 <1>   0.0800 
 29 H       -4.6950     0.9750    -1.6050 H     1 <1>   0.0800 
 30 H       -3.4760    -1.2980    -2.4420 H     1 <1>   0.0800 
 31 H       -1.9940    -1.7110    -1.6350 H     1 <1>   0.0800 
 32 H       -4.2870    -0.0330     1.2110 H     1 <1>   0.0800 
 33 H       -3.1760    -2.0870     0.4600 H     1 <1>   0.0800 
 34 H       -3.8940    -3.0340    -0.8130 H     1 <1>   0.0800 
 35 H       -2.2090     5.2680    -1.5320 H     1 <1>   0.2700 
 36 H        0.5890     2.0280     1.2150 H     1 <1>   0.0800 
 37 H        1.3150     1.6230    -0.3170 H     1 <1>   0.0800 
 38 H       -6.8220     0.7370    -0.2590 H     1 <1>   0.0800 
 39 H       -6.0710     1.6210     1.0530 H     1 <1>   0.0800 
 40 H        0.8060     5.8380    -0.9290 H     1 <1>   0.0800 
 41 H       -0.3100     6.1750     0.3730 H     1 <1>   0.0800 
 42 H        2.6750     3.2050     1.1530 H     1 <1>   0.0800 
 43 H        2.4250     3.7060    -0.4940 H     1 <1>   0.0800 
 44 H       -5.2930    -2.2690     1.7090 H     1 <1>   0.0800 
 45 H        2.0700     5.5900     1.0950 H     1 <1>   0.0800 
 46 H        0.7970     4.6810     1.8600 H     1 <1>   0.0800 
 47 H       -7.6900    -1.9460     1.9260 H     1 <1>   0.0800 
 48 H       -7.8120    -1.3950     0.2730 H     1 <1>   0.0800 
 49 H       -6.8170    -2.8860    -1.6570 H     1 <1>   0.1500 
 50 H       -5.6300    -4.5680     2.0790 H     1 <1>   0.1500 
 51 H       -7.3580    -5.1320    -2.4910 H     1 <1>   0.1500 
 52 H       -6.1640    -6.8050     1.2400 H     1 <1>   0.1500 
 53 H       -7.0300    -7.0960    -1.0440 H     1 <1>   0.1500 
@<TRIPOS>BOND
  1   1   2  2   
  2   2   3  am  
  3   2   4  1   
  4   3   5  1   
  5   3   6  1   
  6   4   7  2   
  7   4   8  1   
  8   5   9  1   
  9   5  28  1   
 10   5  29  1   
 11   6  10  1   
 12   6  30  1   
 13   6  31  1   
 14   7  11  1   
 15   8  12  2   
 16   8  13  1   
 17   9  14  1   
 18   9  15  1   
 19   9  32  1   
 20  10  14  1   
 21  10  33  1   
 22  10  34  1   
 23  11  12  1   
 24  11  35  1   
 25  12  16  1   
 26  13  17  1   
 27  13  36  1   
 28  13  37  1   
 29  14  18  1   
 30  15  19  1   
 31  15  38  1   
 32  15  39  1   
 33  16  20  1   
 34  16  40  1   
 35  16  41  1   
 36  17  20  1   
 37  17  42  1   
 38  17  43  1   
 39  18  21  1   
 40  18  22  1   
 41  18  44  1   
 42  19  22  1   
 43  20  45  1   
 44  20  46  1   
 45  21  23  ar  
 46  21  24  ar  
 47  22  47  1   
 48  22  48  1   
 49  23  25  ar  
 50  23  49  1   
 51  24  26  ar  
 52  24  50  1   
 53  25  27  ar  
 54  25  51  1   
 55  26  27  ar  
 56  26  52  1   
 57  27  53  1   
@<TRIPOS>SUBSTRUCTURE
  1 ****   3 GROUP 4 **** **** 0

# MOE 2024.06 (io_trps.svl 2023.06)
