@<TRIPOS>MOLECULE
NONAME
46 49 1 0 0 
SMALL
USER_CHARGES


@<TRIPOS>ATOM
  1 O       -1.1490     1.0180     1.6880 O.2   1 <1>  -0.5700 
  2 C       -1.8230     0.9320     0.6790 C.2   1 <1>   0.5440 
  3 N       -1.4610     1.6790    -0.4240 N.am  1 <1>  -0.6600 
  4 C       -2.9780     0.0660     0.6780 C.ar  1 <1>   0.0860 
  5 C       -2.4300     2.1690    -1.4500 C.3   1 <1>   0.1400 
  6 C       -0.1190     2.3310    -0.5290 C.3   1 <1>   0.1400 
  7 C       -3.8190     0.0130     1.7870 C.ar  1 <1>   0.1600 
  8 C       -3.3080    -0.7540    -0.3970 C.ar  1 <1>  -0.1500 
  9 C       -2.4330     3.7080    -1.5040 C.3   1 <1>   0.1200 
 10 C       -0.2660     3.8580    -0.6240 C.3   1 <1>   0.1200 
 11 N       -4.9110    -0.7240     1.9030 N.ar  1 <1>  -0.6200 
 12 C       -4.4350    -1.5320    -0.2930 C.ar  1 <1>  -0.1500 
 13 O       -1.1350     4.2040    -1.6660 O.3   1 <1>  -0.5600 
 14 C       -5.2100    -1.4950     0.8640 C.ar  1 <1>   0.4100 
 15 N       -6.3280    -2.2850     0.9660 N.pl3 1 <1>  -0.8380 
 16 C       -6.1850    -3.7580     0.8710 C.3   1 <1>   0.3530 
 17 C       -7.5170    -1.8320     1.7440 C.3   1 <1>   0.2090 
 18 C       -7.0770    -4.2930    -0.2350 C.ar  1 <1>  -0.1430 
 19 C       -8.8330    -2.1660     1.0280 C.3   1 <1>   0.1200 
 20 C       -8.4590    -4.1830    -0.1340 C.ar  1 <1>   0.0830 
 21 C       -6.5280    -4.9170    -1.3460 C.ar  1 <1>  -0.1500 
 22 O       -9.0380    -3.5640     0.9180 O.3   1 <1>  -0.3630 
 23 C       -9.2800    -4.7140    -1.1160 C.ar  1 <1>  -0.1500 
 24 C       -7.3480    -5.4360    -2.3340 C.ar  1 <1>  -0.1500 
 25 C       -8.7250    -5.3390    -2.2180 C.ar  1 <1>  -0.1500 
 26 H       -3.4250     1.8300    -1.2280 H     1 <1>   0.0800 
 27 H       -2.1500     1.7840    -2.4150 H     1 <1>   0.0800 
 28 H        0.3800     1.9700    -1.4110 H     1 <1>   0.0800 
 29 H        0.4950     2.0840     0.3190 H     1 <1>   0.0800 
 30 H       -3.5600     0.6280     2.6330 H     1 <1>   0.1500 
 31 H       -2.6910    -0.7740    -1.2780 H     1 <1>   0.1500 
 32 H       -2.8470     4.1170    -0.5980 H     1 <1>   0.0800 
 33 H       -3.0210     4.0490    -2.3370 H     1 <1>   0.0800 
 34 H        0.6890     4.3110    -0.8270 H     1 <1>   0.0800 
 35 H       -0.6500     4.2570     0.2990 H     1 <1>   0.0800 
 36 H       -4.7430    -2.1740    -1.0960 H     1 <1>   0.1500 
 37 H       -6.4660    -4.2090     1.8070 H     1 <1>   0.0800 
 38 H       -5.1580    -4.0160     0.6790 H     1 <1>   0.0800 
 39 H       -7.4680    -0.7640     1.8730 H     1 <1>   0.0800 
 40 H       -7.5080    -2.2800     2.7220 H     1 <1>   0.0800 
 41 H       -8.8450    -1.7330     0.0430 H     1 <1>   0.0800 
 42 H       -9.6570    -1.7690     1.5900 H     1 <1>   0.0800 
 43 H       -5.4610    -5.0070    -1.4460 H     1 <1>   0.1500 
 44 H      -10.3460    -4.6320    -1.0120 H     1 <1>   0.1500 
 45 H       -6.9160    -5.9200    -3.1930 H     1 <1>   0.1500 
 46 H       -9.3610    -5.7470    -2.9830 H     1 <1>   0.1500 
@<TRIPOS>BOND
  1   1   2  2   
  2   2   3  am  
  3   2   4  1   
  4   3   5  1   
  5   3   6  1   
  6   4   7  ar  
  7   4   8  ar  
  8   5   9  1   
  9   5  26  1   
 10   5  27  1   
 11   6  10  1   
 12   6  28  1   
 13   6  29  1   
 14   7  11  ar  
 15   7  30  1   
 16   8  12  ar  
 17   8  31  1   
 18   9  13  1   
 19   9  32  1   
 20   9  33  1   
 21  10  13  1   
 22  10  34  1   
 23  10  35  1   
 24  11  14  ar  
 25  12  14  ar  
 26  12  36  1   
 27  14  15  1   
 28  15  16  1   
 29  15  17  1   
 30  16  18  1   
 31  16  37  1   
 32  16  38  1   
 33  17  19  1   
 34  17  39  1   
 35  17  40  1   
 36  18  20  ar  
 37  18  21  ar  
 38  19  22  1   
 39  19  41  1   
 40  19  42  1   
 41  20  22  1   
 42  20  23  ar  
 43  21  24  ar  
 44  21  43  1   
 45  23  25  ar  
 46  23  44  1   
 47  24  25  ar  
 48  24  45  1   
 49  25  46  1   
@<TRIPOS>SUBSTRUCTURE
  1 ****  12 GROUP 4 **** **** 0

# MOE 2024.06 (io_trps.svl 2023.06)
