@<TRIPOS>MOLECULE
NONAME
43 45 1 0 0 
SMALL
USER_CHARGES


@<TRIPOS>ATOM
  1 F        2.1150     0.6880    -0.6470 F     1 <1>  -0.3400 
  2 C        1.6650     0.1070     0.4580 C.3   1 <1>   1.1640 
  3 F        0.5090     0.6930     0.7430 F     1 <1>  -0.3400 
  4 F        2.5060     0.4490     1.4270 F     1 <1>  -0.3400 
  5 C        1.5070    -1.4160     0.3070 C.ar  1 <1>  -0.1440 
  6 C        1.7370    -2.2740     1.3790 C.ar  1 <1>  -0.1500 
  7 C        1.1260    -1.9740    -0.9090 C.ar  1 <1>  -0.1500 
  8 C        1.5890    -3.6410     1.2350 C.ar  1 <1>  -0.1500 
  9 C        0.9810    -3.3420    -1.0460 C.ar  1 <1>  -0.1500 
 10 C        1.2000    -4.2070     0.0240 C.ar  1 <1>   0.0860 
 11 C        1.0370    -5.6430    -0.1110 C.2   1 <1>   0.5440 
 12 O        1.9790    -6.3660     0.1510 O.2   1 <1>  -0.5700 
 13 N       -0.1550    -6.2150    -0.5150 N.am  1 <1>  -0.6600 
 14 C       -1.4500    -5.4740    -0.4390 C.3   1 <1>   0.2200 
 15 C       -0.1900    -7.6690    -0.8650 C.3   1 <1>   0.0600 
 16 C       -2.5350    -6.1870     0.3660 C.3   1 <1>  -0.1600 
 17 C       -2.0860    -5.2380    -1.8060 C.3   1 <1>  -0.1600 
 18 C       -3.8470    -5.5500    -0.1110 C.3   1 <1>  -0.0800 
 19 C       -3.5610    -4.9480    -1.4990 C.3   1 <1>  -0.0800 
 20 C       -4.3240    -4.3910     0.7760 C.3   1 <1>  -0.1600 
 21 C       -3.8780    -3.4490    -1.3940 C.3   1 <1>  -0.1600 
 22 C       -4.8180    -3.3390    -0.2050 C.3   1 <1>   0.2000 
 23 O       -4.7310    -2.0850     0.3570 O.3   1 <1>  -0.6800 
 24 H        2.0370    -1.8820     2.3380 H     1 <1>   0.1500 
 25 H        0.9420    -1.3410    -1.7630 H     1 <1>   0.1500 
 26 H        1.7800    -4.2950     2.0690 H     1 <1>   0.1500 
 27 H        0.6980    -3.7590    -1.9970 H     1 <1>   0.1500 
 28 H       -1.2970    -4.5140     0.0230 H     1 <1>   0.0800 
 29 H       -0.9570    -7.8740    -1.5890 H     1 <1>   0.0800 
 30 H       -0.3740    -8.2480     0.0230 H     1 <1>   0.0800 
 31 H        0.7560    -7.9730    -1.2800 H     1 <1>   0.0800 
 32 H       -2.5690    -7.2330     0.1230 H     1 <1>   0.0800 
 33 H       -2.3820    -6.0760     1.4250 H     1 <1>   0.0800 
 34 H       -1.6130    -4.4320    -2.3370 H     1 <1>   0.0800 
 35 H       -2.0290    -6.1310    -2.4020 H     1 <1>   0.0800 
 36 H       -4.6250    -6.2930    -0.1820 H     1 <1>   0.0800 
 37 H       -4.1990    -5.4030    -2.2390 H     1 <1>   0.0800 
 38 H       -3.5020    -3.9960     1.3470 H     1 <1>   0.0800 
 39 H       -5.1090    -4.7030     1.4410 H     1 <1>   0.0800 
 40 H       -4.3420    -3.0820    -2.2920 H     1 <1>   0.0800 
 41 H       -2.9790    -2.8910    -1.1980 H     1 <1>   0.0800 
 42 H       -5.8390    -3.5260    -0.4960 H     1 <1>   0.0800 
 43 H       -3.8150    -1.9070     0.6360 H     1 <1>   0.4000 
@<TRIPOS>BOND
  1   1   2  1   
  2   2   3  1   
  3   2   4  1   
  4   2   5  1   
  5   5   6  ar  
  6   5   7  ar  
  7   6   8  ar  
  8   6  24  1   
  9   7   9  ar  
 10   7  25  1   
 11   8  10  ar  
 12   8  26  1   
 13   9  10  ar  
 14   9  27  1   
 15  10  11  1   
 16  11  12  2   
 17  11  13  am  
 18  13  14  1   
 19  13  15  1   
 20  14  16  1   
 21  14  17  1   
 22  14  28  1   
 23  15  29  1   
 24  15  30  1   
 25  15  31  1   
 26  16  18  1   
 27  16  32  1   
 28  16  33  1   
 29  17  19  1   
 30  17  34  1   
 31  17  35  1   
 32  18  19  1   
 33  18  20  1   
 34  18  36  1   
 35  19  21  1   
 36  19  37  1   
 37  20  22  1   
 38  20  38  1   
 39  20  39  1   
 40  21  22  1   
 41  21  40  1   
 42  21  41  1   
 43  22  23  1   
 44  22  42  1   
 45  23  43  1   
@<TRIPOS>SUBSTRUCTURE
  1 ****   9 GROUP 4 **** **** 0

# MOE 2024.06 (io_trps.svl 2023.06)
