@<TRIPOS>MOLECULE
NONAME
54 57 1 0 0 
SMALL
USER_CHARGES


@<TRIPOS>ATOM
  1 O        0.4810    -0.2970    -0.2480 O.2   1 <1>  -0.5700 
  2 C        1.1540    -1.2500     0.0420 C.2   1 <1>   0.5690 
  3 N        0.7310    -2.1730     0.9300 N.am  1 <1>  -0.7300 
  4 C        2.5130    -1.4600    -0.5860 C.3   1 <1>  -0.0990 
  5 C        1.5470    -3.3210     1.3690 C.3   1 <1>   0.1400 
  6 C        2.6930    -2.9430    -0.9670 C.3   1 <1>  -0.0800 
  7 C        2.3140    -3.9270     0.1690 C.3   1 <1>  -0.0800 
  8 C        4.1310    -3.2770    -1.3920 C.3   1 <1>  -0.1600 
  9 C        3.6240    -4.6130     0.5750 C.3   1 <1>  -0.1600 
 10 C        4.4610    -4.5990    -0.7040 C.3   1 <1>   0.4230 
 11 N        5.9330    -4.8350    -0.5270 N.4   1 <1>  -0.9590 
 12 C        6.6170    -4.2330     0.6710 C.3   1 <1>   0.4860 
 13 C        6.2040    -6.3060    -0.5640 C.3   1 <1>   0.2630 
 14 C        6.6810    -2.7280     0.5750 C.ar  1 <1>  -0.1440 
 15 C        7.4420    -2.0950    -0.3790 C.ar  1 <1>   0.1600 
 16 C        5.9700    -1.9230     1.4340 C.ar  1 <1>   0.1600 
 17 N        7.4660    -0.7950    -0.4980 N.ar  1 <1>  -0.6200 
 18 N        5.9800    -0.6200     1.3350 N.ar  1 <1>  -0.6200 
 19 C        6.7480    -0.0880     0.3800 C.ar  1 <1>   0.6200 
 20 C        6.7730     1.3510     0.2740 C.ar  1 <1>   0.0000 
 21 C        7.8990     2.0930     0.6500 C.ar  1 <1>   0.0820 
 22 C        5.6590     2.0400    -0.2090 C.ar  1 <1>  -0.1500 
 23 O        8.9640     1.4110     1.1420 O.3   1 <1>  -0.3620 
 24 C        7.8970     3.4800     0.5220 C.ar  1 <1>  -0.1500 
 25 C        5.6620     3.4160    -0.3300 C.ar  1 <1>  -0.1500 
 26 C       10.1690     2.0470     1.5040 C.3   1 <1>   0.0400 
 27 C        6.7840     4.1380     0.0330 C.ar  1 <1>  -0.1500 
 28 H       -0.1720    -2.0050     1.3820 H     1 <1>   0.3700 
 29 H        2.6000    -0.8370    -1.4580 H     1 <1>   0.0800 
 30 H        3.2550    -1.1500     0.1270 H     1 <1>   0.0800 
 31 H        2.2340    -2.9690     2.1200 H     1 <1>   0.0800 
 32 H        0.9120    -4.0680     1.8160 H     1 <1>   0.0800 
 33 H        2.0300    -3.1380    -1.7960 H     1 <1>   0.0800 
 34 H        1.6730    -4.6760    -0.2660 H     1 <1>   0.0800 
 35 H        4.7830    -2.4830    -1.0890 H     1 <1>   0.0800 
 36 H        4.1900    -3.3780    -2.4610 H     1 <1>   0.0800 
 37 H        3.4430    -5.6150     0.9230 H     1 <1>   0.0800 
 38 H        4.0820    -4.0350     1.3510 H     1 <1>   0.0800 
 39 H        4.0650    -5.3720    -1.3440 H     1 <1>   0.0800 
 40 H        6.3750    -4.4180    -1.3580 H     1 <1>   0.4500 
 41 H        6.1070    -4.5240     1.5740 H     1 <1>   0.0800 
 42 H        7.6270    -4.6080     0.7330 H     1 <1>   0.0800 
 43 H        5.7480    -6.7940     0.2830 H     1 <1>   0.0800 
 44 H        7.2660    -6.4960    -0.5410 H     1 <1>   0.0800 
 45 H        5.8020    -6.7390    -1.4660 H     1 <1>   0.0800 
 46 H        8.0470    -2.6560    -1.0720 H     1 <1>   0.1500 
 47 H        5.3700    -2.3420     2.2230 H     1 <1>   0.1500 
 48 H        4.7820     1.4860    -0.4900 H     1 <1>   0.1500 
 49 H        8.7520     4.0670     0.8000 H     1 <1>   0.1500 
 50 H        4.7910     3.9270    -0.7060 H     1 <1>   0.1500 
 51 H       10.8560     1.2930     1.8400 H     1 <1>   0.0800 
 52 H        9.9710     2.7420     2.3010 H     1 <1>   0.0800 
 53 H       10.5700     2.5500     0.6420 H     1 <1>   0.0800 
 54 H        6.7880     5.2100    -0.0630 H     1 <1>   0.1500 
@<TRIPOS>BOND
  1   1   2  2   
  2   2   3  am  
  3   2   4  1   
  4   3   5  1   
  5   3  28  1   
  6   4   6  1   
  7   4  29  1   
  8   4  30  1   
  9   5   7  1   
 10   5  31  1   
 11   5  32  1   
 12   6   7  1   
 13   6   8  1   
 14   6  33  1   
 15   7   9  1   
 16   7  34  1   
 17   8  10  1   
 18   8  35  1   
 19   8  36  1   
 20   9  10  1   
 21   9  37  1   
 22   9  38  1   
 23  10  11  1   
 24  10  39  1   
 25  11  12  1   
 26  11  13  1   
 27  11  40  1   
 28  12  14  1   
 29  12  41  1   
 30  12  42  1   
 31  13  43  1   
 32  13  44  1   
 33  13  45  1   
 34  14  15  ar  
 35  14  16  ar  
 36  15  17  ar  
 37  15  46  1   
 38  16  18  ar  
 39  16  47  1   
 40  17  19  ar  
 41  18  19  ar  
 42  19  20  1   
 43  20  21  ar  
 44  20  22  ar  
 45  21  23  1   
 46  21  24  ar  
 47  22  25  ar  
 48  22  48  1   
 49  23  26  1   
 50  24  27  ar  
 51  24  49  1   
 52  25  27  ar  
 53  25  50  1   
 54  26  51  1   
 55  26  52  1   
 56  26  53  1   
 57  27  54  1   
@<TRIPOS>SUBSTRUCTURE
  1 ****  18 GROUP 4 **** **** 0

# MOE 2024.06 (io_trps.svl 2023.06)
