@<TRIPOS>MOLECULE
NONAME
37 39 1 0 0 
SMALL
USER_CHARGES


@<TRIPOS>ATOM
  1 S        0.0710    -0.0920     0.1670 S.3   1 <1>  -0.0800 
  2 C       -1.4880     0.7230     0.1060 C.2   1 <1>   0.4620 
  3 C        0.8610     1.4490    -0.0090 C.2   1 <1>  -0.1100 
  4 N       -1.3970     1.9970    -0.0290 N.2   1 <1>  -0.5650 
  5 N       -2.6400    -0.0190     0.2030 N.pl3 1 <1>  -0.8220 
  6 C       -0.0760     2.4080    -0.0930 C.2   1 <1>   0.0460 
  7 C       -3.9770     0.5850    -0.0070 C.3   1 <1>   0.2090 
  8 C       -2.6960    -1.4950     0.1160 C.3   1 <1>   0.2090 
  9 C        0.1700     3.9020    -0.2520 C.3   1 <1>   0.3010 
 10 C       -4.8710    -0.5860    -0.4180 C.3   1 <1>   0.2000 
 11 C       -4.1870    -1.8350     0.1360 C.3   1 <1>  -0.0800 
 12 O        1.4880     4.2160     0.0580 O.3   1 <1>  -0.6800 
 13 O       -6.1530    -0.4760     0.1020 O.3   1 <1>  -0.6800 
 14 C       -4.5420    -3.1080    -0.6470 C.3   1 <1>   0.0200 
 15 C       -3.7440    -4.2990    -0.1500 C.2   1 <1>  -0.0400 
 16 O       -3.8460    -4.6820     1.0940 O.3   1 <1>  -0.0190 
 17 C       -2.8740    -5.1140    -0.7640 C.2   1 <1>  -0.1500 
 18 N       -3.0860    -5.7070     1.3480 N.2   1 <1>  -0.4100 
 19 C       -2.4900    -5.9920     0.2460 C.2   1 <1>   0.1080 
 20 C       -1.5050    -7.1280     0.0810 C.3   1 <1>  -0.0590 
 21 H        1.9350     1.4690    -0.0350 H     1 <1>   0.1500 
 22 H       -4.3100     1.0260     0.9170 H     1 <1>   0.0800 
 23 H       -3.9380     1.3330    -0.7800 H     1 <1>   0.0800 
 24 H       -2.2400    -1.8120    -0.8070 H     1 <1>   0.0800 
 25 H       -2.1810    -1.9500     0.9470 H     1 <1>   0.0800 
 26 H       -0.4700     4.4550     0.4140 H     1 <1>   0.0800 
 27 H       -0.0250     4.2080    -1.2650 H     1 <1>   0.0800 
 28 H       -4.9420    -0.6200    -1.4910 H     1 <1>   0.0800 
 29 H       -4.4620    -1.9650     1.1680 H     1 <1>   0.0800 
 30 H        1.6790     3.9260     0.9700 H     1 <1>   0.4000 
 31 H       -6.1220    -0.4580     1.0790 H     1 <1>   0.4000 
 32 H       -4.3430    -2.9640    -1.6940 H     1 <1>   0.0800 
 33 H       -5.5920    -3.3170    -0.5340 H     1 <1>   0.0800 
 34 H       -2.5310    -5.1210    -1.7820 H     1 <1>   0.1500 
 35 H       -1.8530    -7.8060    -0.6770 H     1 <1>   0.0800 
 36 H       -1.4050    -7.6650     1.0080 H     1 <1>   0.0800 
 37 H       -0.5440    -6.7400    -0.2020 H     1 <1>   0.0800 
@<TRIPOS>BOND
  1   1   2  1   
  2   1   3  1   
  3   2   4  2   
  4   2   5  1   
  5   3   6  2   
  6   3  21  1   
  7   4   6  1   
  8   5   7  1   
  9   5   8  1   
 10   6   9  1   
 11   7  10  1   
 12   7  22  1   
 13   7  23  1   
 14   8  11  1   
 15   8  24  1   
 16   8  25  1   
 17   9  12  1   
 18   9  26  1   
 19   9  27  1   
 20  10  11  1   
 21  10  13  1   
 22  10  28  1   
 23  11  14  1   
 24  11  29  1   
 25  12  30  1   
 26  13  31  1   
 27  14  15  1   
 28  14  32  1   
 29  14  33  1   
 30  15  16  1   
 31  15  17  2   
 32  16  18  1   
 33  17  19  1   
 34  17  34  1   
 35  18  19  2   
 36  19  20  1   
 37  20  35  1   
 38  20  36  1   
 39  20  37  1   
@<TRIPOS>SUBSTRUCTURE
  1 ****   8 GROUP 4 **** **** 0

# MOE 2024.06 (io_trps.svl 2023.06)
