@<TRIPOS>MOLECULE
NONAME
49 52 1 0 0 
SMALL
USER_CHARGES


@<TRIPOS>ATOM
  1 O       -0.0490     0.4070     0.5720 O.2   1 <1>  -0.5700 
  2 C       -0.0480     1.6250     0.6040 C.2   1 <1>   0.5440 
  3 N       -1.2590     2.2880     0.5870 N.am  1 <1>  -0.6600 
  4 C        1.2160     2.3350     0.6390 C.ar  1 <1>   0.0860 
  5 C       -1.3820     3.7280     0.2080 C.3   1 <1>   0.1400 
  6 C       -2.5280     1.5270     0.7840 C.3   1 <1>   0.1400 
  7 C        2.2370     2.0170    -0.2570 C.ar  1 <1>  -0.1500 
  8 C        1.4640     3.3500     1.5650 C.ar  1 <1>  -0.1500 
  9 C       -2.6730     3.9470    -0.5750 C.3   1 <1>  -0.1600 
 10 C       -3.6450     2.4570     1.2600 C.3   1 <1>  -0.1600 
 11 C        3.4460     2.6900    -0.2550 C.ar  1 <1>  -0.1430 
 12 C        2.6640     4.0330     1.5780 C.ar  1 <1>  -0.1500 
 13 C       -3.9060     3.6200     0.2860 C.3   1 <1>   0.4180 
 14 C        3.6560     3.7130     0.6650 C.ar  1 <1>   0.0830 
 15 C        4.5350     2.3090    -1.2450 C.3   1 <1>  -0.0160 
 16 O       -4.1910     4.7290     1.1040 O.3   1 <1>  -0.5600 
 17 C       -5.1030     3.2870    -0.6040 C.2   1 <1>  -0.2880 
 18 O        4.8130     4.4090     0.7140 O.3   1 <1>  -0.3630 
 19 C        5.8910     2.8340    -0.7690 C.3   1 <1>  -0.1600 
 20 C       -4.9380     5.7790     0.5530 C.3   1 <1>   0.1200 
 21 C       -6.2160     4.0200    -0.6760 C.2   1 <1>  -0.2760 
 22 C        5.7580     4.2960    -0.3320 C.3   1 <1>   0.1200 
 23 C       -6.3330     5.2960     0.1360 C.3   1 <1>  -0.0220 
 24 C       -7.4250     3.6710    -1.5250 C.3   1 <1>  -0.1020 
 25 H       -0.5420     4.0230    -0.3990 H     1 <1>   0.0800 
 26 H       -1.3920     4.3330     1.0990 H     1 <1>   0.0800 
 27 H       -2.3710     0.7490     1.5130 H     1 <1>   0.0800 
 28 H       -2.8040     1.0600    -0.1470 H     1 <1>   0.0800 
 29 H        2.0640     1.2210    -0.9610 H     1 <1>   0.1500 
 30 H        0.7020     3.5970     2.2840 H     1 <1>   0.1500 
 31 H       -2.6520     3.3030    -1.4360 H     1 <1>   0.0800 
 32 H       -2.7190     4.9550    -0.9370 H     1 <1>   0.0800 
 33 H       -3.3570     2.8440     2.2220 H     1 <1>   0.0800 
 34 H       -4.5470     1.8900     1.3990 H     1 <1>   0.0800 
 35 H        2.8460     4.8150     2.2930 H     1 <1>   0.1500 
 36 H        4.2960     2.7410    -2.2020 H     1 <1>   0.0800 
 37 H        4.5790     1.2400    -1.3570 H     1 <1>   0.0800 
 38 H       -4.9610     2.3810    -1.1650 H     1 <1>   0.1500 
 39 H        6.6140     2.7520    -1.5600 H     1 <1>   0.0800 
 40 H        6.2380     2.2510     0.0670 H     1 <1>   0.0800 
 41 H       -4.4110     6.1720    -0.2960 H     1 <1>   0.0800 
 42 H       -5.0190     6.5510     1.2980 H     1 <1>   0.0800 
 43 H        6.6960     4.6760     0.0320 H     1 <1>   0.0800 
 44 H        5.4180     4.9100    -1.1480 H     1 <1>   0.0800 
 45 H       -6.8020     6.0680    -0.4470 H     1 <1>   0.0800 
 46 H       -6.9350     5.1190     1.0090 H     1 <1>   0.0800 
 47 H       -7.6110     4.4470    -2.2460 H     1 <1>   0.0800 
 48 H       -8.2940     3.5590    -0.9010 H     1 <1>   0.0800 
 49 H       -7.2620     2.7480    -2.0520 H     1 <1>   0.0800 
@<TRIPOS>BOND
  1   1   2  2   
  2   2   3  am  
  3   2   4  1   
  4   3   5  1   
  5   3   6  1   
  6   4   7  ar  
  7   4   8  ar  
  8   5   9  1   
  9   5  25  1   
 10   5  26  1   
 11   6  10  1   
 12   6  27  1   
 13   6  28  1   
 14   7  11  ar  
 15   7  29  1   
 16   8  12  ar  
 17   8  30  1   
 18   9  13  1   
 19   9  31  1   
 20   9  32  1   
 21  10  13  1   
 22  10  33  1   
 23  10  34  1   
 24  11  14  ar  
 25  11  15  1   
 26  12  14  ar  
 27  12  35  1   
 28  13  16  1   
 29  13  17  1   
 30  14  18  1   
 31  15  19  1   
 32  15  36  1   
 33  15  37  1   
 34  16  20  1   
 35  17  21  2   
 36  17  38  1   
 37  18  22  1   
 38  19  22  1   
 39  19  39  1   
 40  19  40  1   
 41  20  23  1   
 42  20  41  1   
 43  20  42  1   
 44  21  23  1   
 45  21  24  1   
 46  22  43  1   
 47  22  44  1   
 48  23  45  1   
 49  23  46  1   
 50  24  47  1   
 51  24  48  1   
 52  24  49  1   
@<TRIPOS>SUBSTRUCTURE
  1 ****   5 GROUP 4 **** **** 0

# MOE 2024.06 (io_trps.svl 2023.06)
