@<TRIPOS>MOLECULE
NONAME
51 54 1 0 0 
SMALL
USER_CHARGES


@<TRIPOS>ATOM
  1 O       -5.7630    -0.3580    -2.5190 O.2   1 <1>  -0.5700 
  2 C       -5.0400    -0.8090    -1.6730 C.2   1 <1>   0.5690 
  3 N       -4.4970    -0.0060    -0.7430 N.am  1 <1>  -0.7300 
  4 C       -4.7740    -2.2890    -1.6320 C.3   1 <1>  -0.0190 
  5 C       -3.6180    -0.4430     0.3670 C.3   1 <1>   0.2200 
  6 C       -3.2720    -2.6080    -1.8000 C.3   1 <1>   0.1200 
  7 C       -5.4690    -2.8710    -0.3950 C.3   1 <1>   0.3430 
  8 C       -2.3310    -1.1010    -0.1900 C.3   1 <1>   0.1200 
  9 C       -4.4020    -1.3480     1.3600 C.3   1 <1>   0.3430 
 10 O       -2.5320    -2.4230    -0.6220 O.3   1 <1>  -0.5600 
 11 N       -4.6810    -2.7480     0.8800 N.4   1 <1>  -0.9590 
 12 C       -5.2490    -3.6060     1.9550 C.3   1 <1>   0.4860 
 13 C       -5.1730    -5.0590     1.5330 C.ar  1 <1>  -0.1430 
 14 C       -6.2930    -5.6690     0.9800 C.ar  1 <1>   0.0830 
 15 C       -3.9990    -5.7800     1.6920 C.ar  1 <1>  -0.1500 
 16 O       -7.3990    -4.8930     0.8300 O.3   1 <1>  -0.3630 
 17 C       -6.2290    -7.0050     0.5930 C.ar  1 <1>  -0.1500 
 18 C       -3.9410    -7.1060     1.3020 C.ar  1 <1>  -0.1500 
 19 C       -8.5800    -5.3480     0.1950 C.3   1 <1>   0.2000 
 20 C       -5.0550    -7.7170     0.7550 C.ar  1 <1>  -0.1500 
 21 C       -8.3920    -5.3020    -1.3230 C.3   1 <1>  -0.1600 
 22 C       -9.6660    -4.3130     0.4570 C.3   1 <1>  -0.1600 
 23 C       -8.7600    -3.8780    -1.7670 C.3   1 <1>  -0.1600 
 24 C       -9.4050    -3.1960    -0.5550 C.3   1 <1>  -0.1600 
 25 H       -4.6760     0.9980    -0.8550 H     1 <1>   0.3700 
 26 H       -5.2750    -2.6990    -2.4900 H     1 <1>   0.0800 
 27 H       -3.3230     0.4460     0.8980 H     1 <1>   0.0800 
 28 H       -2.8360    -2.0080    -2.5820 H     1 <1>   0.0800 
 29 H       -3.1580    -3.6430    -2.0760 H     1 <1>   0.0800 
 30 H       -5.6390    -3.9150    -0.5960 H     1 <1>   0.0800 
 31 H       -6.4360    -2.4100    -0.2750 H     1 <1>   0.0800 
 32 H       -1.5910    -1.1440     0.5900 H     1 <1>   0.0800 
 33 H       -1.9210    -0.5230    -1.0010 H     1 <1>   0.0800 
 34 H       -5.3300    -0.8590     1.6080 H     1 <1>   0.0800 
 35 H       -3.8200    -1.4120     2.2640 H     1 <1>   0.0800 
 36 H       -3.7540    -3.1400     0.6260 H     1 <1>   0.4500 
 37 H       -4.6890    -3.4780     2.8660 H     1 <1>   0.0800 
 38 H       -6.2750    -3.3330     2.1460 H     1 <1>   0.0800 
 39 H       -3.1210    -5.3260     2.1210 H     1 <1>   0.1500 
 40 H       -7.0750    -7.5090     0.1650 H     1 <1>   0.1500 
 41 H       -3.0290    -7.6670     1.4260 H     1 <1>   0.1500 
 42 H       -8.8480    -6.3170     0.5810 H     1 <1>   0.0800 
 43 H       -5.0050    -8.7500     0.4560 H     1 <1>   0.1500 
 44 H       -7.3990    -5.5830    -1.6270 H     1 <1>   0.0800 
 45 H       -9.0890    -5.9890    -1.7700 H     1 <1>   0.0800 
 46 H      -10.6230    -4.7580     0.2470 H     1 <1>   0.0800 
 47 H       -9.6630    -3.9650     1.4740 H     1 <1>   0.0800 
 48 H       -7.8920    -3.3320    -2.0890 H     1 <1>   0.0800 
 49 H       -9.4580    -3.9200    -2.5870 H     1 <1>   0.0800 
 50 H      -10.3140    -2.6840    -0.8220 H     1 <1>   0.0800 
 51 H       -8.7190    -2.4830    -0.1330 H     1 <1>   0.0800 
@<TRIPOS>BOND
  1   1   2  2   
  2   2   3  am  
  3   2   4  1   
  4   3   5  1   
  5   3  25  1   
  6   4   6  1   
  7   4   7  1   
  8   4  26  1   
  9   5   8  1   
 10   5   9  1   
 11   5  27  1   
 12   6  10  1   
 13   6  28  1   
 14   6  29  1   
 15   7  11  1   
 16   7  30  1   
 17   7  31  1   
 18   8  10  1   
 19   8  32  1   
 20   8  33  1   
 21   9  11  1   
 22   9  34  1   
 23   9  35  1   
 24  11  12  1   
 25  11  36  1   
 26  12  13  1   
 27  12  37  1   
 28  12  38  1   
 29  13  14  ar  
 30  13  15  ar  
 31  14  16  1   
 32  14  17  ar  
 33  15  18  ar  
 34  15  39  1   
 35  16  19  1   
 36  17  20  ar  
 37  17  40  1   
 38  18  20  ar  
 39  18  41  1   
 40  19  21  1   
 41  19  22  1   
 42  19  42  1   
 43  20  43  1   
 44  21  23  1   
 45  21  44  1   
 46  21  45  1   
 47  22  24  1   
 48  22  46  1   
 49  22  47  1   
 50  23  24  1   
 51  23  48  1   
 52  23  49  1   
 53  24  50  1   
 54  24  51  1   
@<TRIPOS>SUBSTRUCTURE
  1 ****   7 GROUP 4 **** **** 0

# MOE 2024.06 (io_trps.svl 2023.06)
