@<TRIPOS>MOLECULE
NONAME
61 64 1 0 0 
SMALL
USER_CHARGES


@<TRIPOS>ATOM
  1 O       -2.2280     2.0030    -2.2080 O.2   1 <1>  -0.5700 
  2 C       -1.7690     2.0370    -1.0890 C.2   1 <1>   0.5690 
  3 N       -1.6300     0.9190    -0.3320 N.am  1 <1>  -0.7300 
  4 C       -1.3080     3.3830    -0.4870 C.3   1 <1>   0.2510 
  5 C       -1.9660    -0.4560    -0.7210 C.3   1 <1>   0.2200 
  6 N       -0.0390     3.2650     0.3090 N.3   1 <1>  -0.8100 
  7 C       -2.4430     3.9400     0.3860 C.3   1 <1>  -0.2400 
  8 C       -2.6480    -1.1410     0.4560 C.3   1 <1>  -0.1600 
  9 C       -0.6750    -1.2480    -0.8850 C.3   1 <1>  -0.1600 
 10 C        1.0590     2.7510    -0.5570 C.3   1 <1>   0.1100 
 11 C        0.4000     4.5600     0.8990 C.3   1 <1>   0.1100 
 12 C       -1.5170    -1.5850     1.3920 C.3   1 <1>  -0.1600 
 13 C       -0.2460    -1.6380     0.5340 C.3   1 <1>  -0.1600 
 14 C        2.3890     2.5770     0.1990 C.3   1 <1>   0.2090 
 15 C        1.7130     4.4300     1.6920 C.3   1 <1>   0.2090 
 16 N        2.7940     3.8600     0.8370 N.pl3 1 <1>  -0.7880 
 17 C        3.8610     4.5980     0.4140 C.2   1 <1>   0.4860 
 18 N        3.7150     5.9160     0.3590 N.2   1 <1>  -0.6210 
 19 C        5.0660     3.9720     0.0430 C.2   1 <1>  -0.1360 
 20 C        4.7300     6.6600    -0.0880 C.2   1 <1>   0.2710 
 21 C        6.0970     4.7240    -0.4090 C.2   1 <1>  -0.0380 
 22 N        5.8910     6.0540    -0.4660 N.pl3 1 <1>  -0.6000 
 23 C        4.5980     8.0820    -0.1700 C.2   1 <1>   0.0140 
 24 C        7.4440     4.1860    -0.8390 C.3   1 <1>  -0.1020 
 25 C        5.6480     8.9470    -0.6060 C.2   1 <1>   0.5410 
 26 C        3.3850     8.7110     0.1870 C.2   1 <1>  -0.1500 
 27 O        6.7790     8.5420    -0.9610 O.2   1 <1>  -0.5700 
 28 C        5.4320    10.3410    -0.6530 C.2   1 <1>  -0.1360 
 29 C        3.2000    10.0700     0.1320 C.2   1 <1>  -0.1500 
 30 C        4.2380    10.9000    -0.2940 C.2   1 <1>  -0.1500 
 31 H       -1.1460     1.0260     0.5620 H     1 <1>   0.3700 
 32 H       -1.1440     4.0600    -1.3090 H     1 <1>   0.0800 
 33 H       -2.5720    -0.4610    -1.6130 H     1 <1>   0.0800 
 34 H       -2.5260     3.3730     1.2950 H     1 <1>   0.0800 
 35 H       -3.3740     3.8630    -0.1480 H     1 <1>   0.0800 
 36 H       -2.2900     4.9790     0.6110 H     1 <1>   0.0800 
 37 H       -3.1600    -2.0130     0.0900 H     1 <1>   0.0800 
 38 H       -3.3640    -0.5000     0.9400 H     1 <1>   0.0800 
 39 H        0.0780    -0.6910    -1.4140 H     1 <1>   0.0800 
 40 H       -0.8950    -2.1420    -1.4430 H     1 <1>   0.0800 
 41 H        1.2200     3.4280    -1.3790 H     1 <1>   0.0800 
 42 H        0.7910     1.7940    -0.9690 H     1 <1>   0.0800 
 43 H       -0.3450     4.9270     1.5800 H     1 <1>   0.0800 
 44 H        0.5390     5.2920     0.1210 H     1 <1>   0.0800 
 45 H       -1.7370    -2.5440     1.8290 H     1 <1>   0.0800 
 46 H       -1.3910    -0.8640     2.1820 H     1 <1>   0.0800 
 47 H        0.4710    -0.9260     0.9060 H     1 <1>   0.0800 
 48 H        0.1980    -2.6190     0.5460 H     1 <1>   0.0800 
 49 H        3.1380     2.2490    -0.4990 H     1 <1>   0.0800 
 50 H        2.2760     1.8210     0.9560 H     1 <1>   0.0800 
 51 H        1.5520     3.7820     2.5350 H     1 <1>   0.0800 
 52 H        2.0000     5.3940     2.0740 H     1 <1>   0.0800 
 53 H        5.1490     2.9100     0.1360 H     1 <1>   0.1500 
 54 H        6.6370     6.6900    -0.7930 H     1 <1>   0.4000 
 55 H        7.6290     4.4450    -1.8660 H     1 <1>   0.0800 
 56 H        7.4750     3.1170    -0.7400 H     1 <1>   0.0800 
 57 H        8.2180     4.6130    -0.2270 H     1 <1>   0.0800 
 58 H        2.5650     8.0970     0.5180 H     1 <1>   0.1500 
 59 H        6.2540    10.9470    -0.9850 H     1 <1>   0.1500 
 60 H        2.2580    10.5080     0.4140 H     1 <1>   0.1500 
 61 H        4.0840    11.9650    -0.3330 H     1 <1>   0.1500 
@<TRIPOS>BOND
  1   1   2  2   
  2   2   3  am  
  3   2   4  1   
  4   3   5  1   
  5   3  31  1   
  6   4   6  1   
  7   4   7  1   
  8   4  32  1   
  9   5   8  1   
 10   5   9  1   
 11   5  33  1   
 12   6  10  1   
 13   6  11  1   
 14   7  34  1   
 15   7  35  1   
 16   7  36  1   
 17   8  12  1   
 18   8  37  1   
 19   8  38  1   
 20   9  13  1   
 21   9  39  1   
 22   9  40  1   
 23  10  14  1   
 24  10  41  1   
 25  10  42  1   
 26  11  15  1   
 27  11  43  1   
 28  11  44  1   
 29  12  13  1   
 30  12  45  1   
 31  12  46  1   
 32  13  47  1   
 33  13  48  1   
 34  14  16  1   
 35  14  49  1   
 36  14  50  1   
 37  15  16  1   
 38  15  51  1   
 39  15  52  1   
 40  16  17  1   
 41  17  18  2   
 42  17  19  1   
 43  18  20  1   
 44  19  21  2   
 45  19  53  1   
 46  20  22  1   
 47  20  23  2   
 48  21  22  1   
 49  21  24  1   
 50  22  54  1   
 51  23  25  1   
 52  23  26  1   
 53  24  55  1   
 54  24  56  1   
 55  24  57  1   
 56  25  27  2   
 57  25  28  1   
 58  26  29  2   
 59  26  58  1   
 60  28  30  2   
 61  28  59  1   
 62  29  30  1   
 63  29  60  1   
 64  30  61  1   
@<TRIPOS>SUBSTRUCTURE
  1 ****  16 GROUP 4 **** **** 0

# MOE 2024.06 (io_trps.svl 2023.06)
