@<TRIPOS>MOLECULE
NONAME
47 49 1 0 0 
SMALL
USER_CHARGES


@<TRIPOS>ATOM
  1 O       -0.0410     1.4970     1.7910 O.2   1 <1>  -0.5700 
  2 C       -0.1360     2.5570     1.2280 C.2   1 <1>   0.5690 
  3 N       -1.1280     3.4190     1.5340 N.am  1 <1>  -0.7300 
  4 C        0.8480     2.9330     0.1210 C.3   1 <1>   0.1810 
  5 C       -1.3760     4.6910     0.8080 C.3   1 <1>   0.3640 
  6 O        0.9160     4.3270    -0.0760 O.3   1 <1>  -0.5600 
  7 C       -2.7980     4.6370     0.2510 C.ar  1 <1>  -0.1440 
  8 C       -0.3380     4.9650    -0.3200 C.3   1 <1>   0.2610 
  9 C       -3.6420     5.7290     0.4000 C.ar  1 <1>  -0.1500 
 10 C       -3.2730     3.5100    -0.4110 C.ar  1 <1>  -0.1500 
 11 C       -0.1290     6.4770    -0.4850 C.2   1 <1>   0.5690 
 12 C       -4.9320     5.6970    -0.0980 C.ar  1 <1>  -0.1500 
 13 C       -4.5640     3.4760    -0.9100 C.ar  1 <1>  -0.1500 
 14 O       -1.0810     7.2170    -0.5710 O.2   1 <1>  -0.5700 
 15 N        1.1370     6.9620    -0.5210 N.am  1 <1>  -0.7300 
 16 C       -5.3950     4.5700    -0.7530 C.ar  1 <1>  -0.1500 
 17 C        1.5250     8.3830    -0.5740 C.3   1 <1>   0.2350 
 18 C        2.9310     8.6200     0.0310 C.3   1 <1>  -0.1900 
 19 C        3.2840    10.1340     0.0100 C.3   1 <1>   0.0150 
 20 C        3.9950     7.5770    -0.1880 C.3   1 <1>  -0.2000 
 21 C        3.4010     7.7760     1.1810 C.3   1 <1>  -0.2000 
 22 C        4.7780    10.4570     0.1850 C.3   1 <1>  -0.2400 
 23 C        2.4920    10.8940     1.0850 C.3   1 <1>  -0.2400 
 24 H       -1.8250     3.1380     2.2260 H     1 <1>   0.3700 
 25 H        0.5510     2.4700    -0.8020 H     1 <1>   0.0800 
 26 H        1.8310     2.5900     0.3860 H     1 <1>   0.0800 
 27 H       -1.3140     5.4910     1.5250 H     1 <1>   0.0800 
 28 H       -0.7160     4.5830    -1.2500 H     1 <1>   0.0800 
 29 H       -3.2970     6.6200     0.8980 H     1 <1>   0.1500 
 30 H       -2.6440     2.6470    -0.5420 H     1 <1>   0.1500 
 31 H       -5.5750     6.5520     0.0220 H     1 <1>   0.1500 
 32 H       -4.9220     2.5990    -1.4190 H     1 <1>   0.1500 
 33 H        1.9070     6.3030    -0.3810 H     1 <1>   0.3700 
 34 H       -6.3990     4.5460    -1.1400 H     1 <1>   0.1500 
 35 H        1.5180     8.7020    -1.6020 H     1 <1>   0.0800 
 36 H        0.7860     8.9570    -0.0430 H     1 <1>   0.0800 
 37 H        2.9990    10.5280    -0.9510 H     1 <1>   0.0800 
 38 H        3.7630     6.6740    -0.7240 H     1 <1>   0.1000 
 39 H        5.0310     7.8370    -0.3110 H     1 <1>   0.1000 
 40 H        4.0140     8.2190     1.9460 H     1 <1>   0.1000 
 41 H        2.7550     7.0160     1.5850 H     1 <1>   0.1000 
 42 H        5.1540    10.0710     1.1150 H     1 <1>   0.0800 
 43 H        4.9300    11.5210     0.1770 H     1 <1>   0.0800 
 44 H        5.3500    10.0430    -0.6250 H     1 <1>   0.0800 
 45 H        2.7300    10.5150     2.0630 H     1 <1>   0.0800 
 46 H        1.4340    10.8000     0.9300 H     1 <1>   0.0800 
 47 H        2.7350    11.9410     1.0580 H     1 <1>   0.0800 
@<TRIPOS>BOND
  1   1   2  2   
  2   2   3  am  
  3   2   4  1   
  4   3   5  1   
  5   3  24  1   
  6   4   6  1   
  7   4  25  1   
  8   4  26  1   
  9   5   7  1   
 10   5   8  1   
 11   5  27  1   
 12   6   8  1   
 13   7   9  ar  
 14   7  10  ar  
 15   8  11  1   
 16   8  28  1   
 17   9  12  ar  
 18   9  29  1   
 19  10  13  ar  
 20  10  30  1   
 21  11  14  2   
 22  11  15  am  
 23  12  16  ar  
 24  12  31  1   
 25  13  16  ar  
 26  13  32  1   
 27  15  17  1   
 28  15  33  1   
 29  16  34  1   
 30  17  18  1   
 31  17  35  1   
 32  17  36  1   
 33  18  19  1   
 34  18  20  1   
 35  18  21  1   
 36  19  22  1   
 37  19  23  1   
 38  19  37  1   
 39  20  21  1   
 40  20  38  1   
 41  20  39  1   
 42  21  40  1   
 43  21  41  1   
 44  22  42  1   
 45  22  43  1   
 46  22  44  1   
 47  23  45  1   
 48  23  46  1   
 49  23  47  1   
@<TRIPOS>SUBSTRUCTURE
  1 ****  11 GROUP 4 **** **** 0

# MOE 2024.06 (io_trps.svl 2023.06)
