@<TRIPOS>MOLECULE
NONAME
55 59 1 0 0 
SMALL
USER_CHARGES


@<TRIPOS>ATOM
  1 S       -0.2230     1.7520    -1.7630 S.3   1 <1>  -0.0800 
  2 C       -1.1490     0.9760    -3.0260 C.2   1 <1>   0.2280 
  3 C       -0.6500     0.4470    -0.6960 C.2   1 <1>  -0.1100 
  4 N       -1.6890    -0.1250    -2.6870 N.2   1 <1>  -0.5650 
  5 C       -1.4280    -0.4250    -1.3580 C.2   1 <1>   0.0460 
  6 C       -2.0230    -1.7030    -0.7820 C.3   1 <1>   0.0210 
  7 C       -3.5080    -1.6810    -0.3170 C.3   1 <1>   0.0610 
  8 C       -3.7820    -3.0980     0.2060 C.2   1 <1>   0.5690 
  9 C       -3.7550    -0.6110     0.7800 C.3   1 <1>   0.2200 
 10 C       -4.5060    -1.2010    -1.4210 C.3   1 <1>  -0.1600 
 11 O       -3.4750    -3.3760     1.3410 O.2   1 <1>  -0.5700 
 12 N       -4.3120    -4.0390    -0.6230 N.am  1 <1>  -0.7300 
 13 N       -3.9800     0.5710    -0.0390 N.am  1 <1>  -0.6600 
 14 C       -5.1600    -0.7270     1.4040 C.3   1 <1>  -0.1600 
 15 C       -5.0890     0.0990    -0.8480 C.3   1 <1>   0.2200 
 16 C       -4.5820    -5.4460    -0.2400 C.3   1 <1>   0.1400 
 17 C       -3.4120     1.8150     0.1140 C.2   1 <1>   0.7160 
 18 C       -6.0840    -0.2600     0.2620 C.3   1 <1>  -0.1600 
 19 C       -6.0350    -5.5930     0.2090 C.3   1 <1>  -0.0170 
 20 O       -2.7540     2.0040     1.1250 O.2   1 <1>  -0.5700 
 21 C       -3.5470     2.8960    -0.8510 C.2   1 <1>   0.1410 
 22 C       -6.3290    -7.0420     0.5610 C.ar  1 <1>  -0.1430 
 23 N       -4.0350     2.7730    -2.1100 N.2   1 <1>  -0.2270 
 24 C       -3.1940     4.1940    -0.6890 C.2   1 <1>  -0.3020 
 25 C       -6.9190    -7.8880    -0.3650 C.ar  1 <1>  -0.1500 
 26 C       -6.0010    -7.5300     1.8170 C.ar  1 <1>  -0.1500 
 27 N       -3.9910     3.9160    -2.6940 N.2   1 <1>  -0.4180 
 28 N       -3.4770     4.7970    -1.8360 N.pl3 1 <1>   0.3000 
 29 C       -7.1780    -9.2080    -0.0400 C.ar  1 <1>  -0.1500 
 30 C       -6.2590    -8.8500     2.1430 C.ar  1 <1>  -0.1500 
 31 C       -6.8480    -9.6900     1.2150 C.ar  1 <1>  -0.1500 
 32 H       -1.1930     1.4750    -3.9790 H     1 <1>   0.1500 
 33 H       -0.2840     0.4810     0.3140 H     1 <1>   0.1500 
 34 H       -1.8980    -2.4770    -1.5190 H     1 <1>   0.0800 
 35 H       -1.4180    -1.9840     0.0630 H     1 <1>   0.0800 
 36 H       -2.9580    -0.5090     1.4990 H     1 <1>   0.0800 
 37 H       -5.3020    -1.8940    -1.6170 H     1 <1>   0.0800 
 38 H       -4.0190    -0.9980    -2.3550 H     1 <1>   0.0800 
 39 H       -4.5240    -3.7930    -1.5910 H     1 <1>   0.3700 
 40 H       -5.3980    -1.7160     1.7500 H     1 <1>   0.0800 
 41 H       -5.2290    -0.0520     2.2400 H     1 <1>   0.0800 
 42 H       -5.4670     0.7920    -1.5790 H     1 <1>   0.0800 
 43 H       -4.3880    -6.0910    -1.0800 H     1 <1>   0.0800 
 44 H       -3.9280    -5.7370     0.5650 H     1 <1>   0.0800 
 45 H       -6.6350     0.6160     0.5570 H     1 <1>   0.0800 
 46 H       -6.7760    -1.0230    -0.0450 H     1 <1>   0.0800 
 47 H       -6.2060    -4.9740     1.0720 H     1 <1>   0.0800 
 48 H       -6.6950    -5.2710    -0.5770 H     1 <1>   0.0800 
 49 H       -2.7640     4.6770     0.1680 H     1 <1>   0.1500 
 50 H       -7.1810    -7.5260    -1.3430 H     1 <1>   0.1500 
 51 H       -5.5410    -6.8840     2.5460 H     1 <1>   0.1500 
 52 H       -3.3390     5.7850    -2.0760 H     1 <1>   0.2700 
 53 H       -7.6360    -9.8610    -0.7620 H     1 <1>   0.1500 
 54 H       -6.0010    -9.2220     3.1190 H     1 <1>   0.1500 
 55 H       -7.0490   -10.7160     1.4680 H     1 <1>   0.1500 
@<TRIPOS>BOND
  1   1   2  1   
  2   1   3  1   
  3   2   4  2   
  4   2  32  1   
  5   3   5  2   
  6   3  33  1   
  7   4   5  1   
  8   5   6  1   
  9   6   7  1   
 10   6  34  1   
 11   6  35  1   
 12   7   8  1   
 13   7   9  1   
 14   7  10  1   
 15   8  11  2   
 16   8  12  am  
 17   9  13  1   
 18   9  14  1   
 19   9  36  1   
 20  10  15  1   
 21  10  37  1   
 22  10  38  1   
 23  12  16  1   
 24  12  39  1   
 25  13  15  1   
 26  13  17  am  
 27  14  18  1   
 28  14  40  1   
 29  14  41  1   
 30  15  18  1   
 31  15  42  1   
 32  16  19  1   
 33  16  43  1   
 34  16  44  1   
 35  17  20  2   
 36  17  21  1   
 37  18  45  1   
 38  18  46  1   
 39  19  22  1   
 40  19  47  1   
 41  19  48  1   
 42  21  23  1   
 43  21  24  2   
 44  22  25  ar  
 45  22  26  ar  
 46  23  27  2   
 47  24  28  1   
 48  24  49  1   
 49  25  29  ar  
 50  25  50  1   
 51  26  30  ar  
 52  26  51  1   
 53  27  28  1   
 54  28  52  1   
 55  29  31  ar  
 56  29  53  1   
 57  30  31  ar  
 58  30  54  1   
 59  31  55  1   
@<TRIPOS>SUBSTRUCTURE
  1 ****   7 GROUP 4 **** **** 0

# MOE 2024.06 (io_trps.svl 2023.06)
