@<TRIPOS>MOLECULE
NONAME
52 55 1 0 0 
SMALL
USER_CHARGES


@<TRIPOS>ATOM
  1 O        1.9340    -3.4070     2.0050 O.3   1 <1>  -0.3630 
  2 C        2.4820    -2.4150     1.2550 C.ar  1 <1>   0.0830 
  3 C        0.5250    -3.4950     2.1720 C.3   1 <1>   0.2580 
  4 C        1.7360    -1.7610     0.2710 C.ar  1 <1>   0.0280 
  5 C        3.8070    -2.0840     1.4750 C.ar  1 <1>  -0.1500 
  6 C       -0.2220    -3.0070     0.9300 C.2   1 <1>  -0.2760 
  7 C        0.3730    -2.1690     0.0690 C.2   1 <1>  -0.1780 
  8 C        2.3470    -0.7620    -0.4790 C.ar  1 <1>  -0.1500 
  9 C        4.4020    -1.0900     0.7210 C.ar  1 <1>  -0.1500 
 10 C       -1.6280    -3.5360     0.7890 C.3   1 <1>   0.4810 
 11 C        3.6780    -0.4240    -0.2570 C.ar  1 <1>   0.0830 
 12 N       -1.4890    -4.8390     0.1170 N.4   1 <1>  -0.9590 
 13 O        4.3400     0.5390    -0.9480 O.3   1 <1>  -0.3620 
 14 C       -1.4390    -4.7880    -1.3710 C.3   1 <1>   0.3430 
 15 C       -2.4090    -5.9330     0.4890 C.3   1 <1>   0.3430 
 16 C        3.6910     1.3150    -1.9310 C.3   1 <1>   0.0400 
 17 C       -1.8660    -6.1850    -1.8460 C.3   1 <1>   0.2000 
 18 C       -2.1680    -7.0010    -0.5800 C.3   1 <1>  -0.0800 
 19 O       -3.0270    -6.0800    -2.6040 O.3   1 <1>  -0.6800 
 20 C       -1.0170    -7.9700    -0.2060 C.3   1 <1>   0.0210 
 21 C        0.2320    -7.3220     0.3820 C.2   1 <1>   0.1080 
 22 N        0.8870    -6.3600    -0.1930 N.2   1 <1>  -0.7070 
 23 C        0.8040    -7.6840     1.5970 C.2   1 <1>  -0.1500 
 24 N        1.9290    -6.1040     0.6320 N.pl3 1 <1>   0.3000 
 25 C        1.8810    -6.8830     1.7310 C.2   1 <1>  -0.3320 
 26 C        2.9010    -6.8150     2.8540 C.3   1 <1>  -0.0600 
 27 H        0.3020    -4.5250     2.3850 H     1 <1>   0.0800 
 28 H        0.2610    -2.8980     3.0270 H     1 <1>   0.0800 
 29 H        4.3680    -2.5980     2.2350 H     1 <1>   0.1500 
 30 H       -0.1140    -1.7720    -0.8050 H     1 <1>   0.1500 
 31 H        1.7710    -0.2620    -1.2320 H     1 <1>   0.1500 
 32 H        5.4300    -0.8210     0.8840 H     1 <1>   0.1500 
 33 H       -2.2280    -2.8710     0.1900 H     1 <1>   0.0800 
 34 H       -2.0830    -3.6450     1.7610 H     1 <1>   0.0800 
 35 H       -0.5340    -5.1960     0.3430 H     1 <1>   0.4500 
 36 H       -2.1150    -4.0460    -1.7610 H     1 <1>   0.0800 
 37 H       -0.4330    -4.5750    -1.6970 H     1 <1>   0.0800 
 38 H       -2.2020    -6.3080     1.4780 H     1 <1>   0.0800 
 39 H       -3.4290    -5.5880     0.4380 H     1 <1>   0.0800 
 40 H        4.4010     2.0210    -2.3210 H     1 <1>   0.0800 
 41 H        2.8690     1.8390    -1.4760 H     1 <1>   0.0800 
 42 H        3.3500     0.6670    -2.7190 H     1 <1>   0.0800 
 43 H       -1.1070    -6.6350    -2.4660 H     1 <1>   0.0800 
 44 H       -3.0540    -7.5970    -0.7170 H     1 <1>   0.0800 
 45 H       -3.8120    -5.8380    -2.0770 H     1 <1>   0.4000 
 46 H       -0.7270    -8.5350    -1.0750 H     1 <1>   0.0800 
 47 H       -1.3890    -8.6790     0.5120 H     1 <1>   0.0800 
 48 H        0.4550    -8.4490     2.2690 H     1 <1>   0.1500 
 49 H        2.6400    -5.3830     0.4380 H     1 <1>   0.2700 
 50 H        2.6550    -7.5240     3.6240 H     1 <1>   0.0800 
 51 H        2.9180    -5.8300     3.2860 H     1 <1>   0.0800 
 52 H        3.8820    -7.0470     2.4790 H     1 <1>   0.0800 
@<TRIPOS>BOND
  1   1   2  1   
  2   1   3  1   
  3   2   4  ar  
  4   2   5  ar  
  5   3   6  1   
  6   3  27  1   
  7   3  28  1   
  8   4   7  1   
  9   4   8  ar  
 10   5   9  ar  
 11   5  29  1   
 12   6   7  2   
 13   6  10  1   
 14   7  30  1   
 15   8  11  ar  
 16   8  31  1   
 17   9  11  ar  
 18   9  32  1   
 19  10  12  1   
 20  10  33  1   
 21  10  34  1   
 22  11  13  1   
 23  12  14  1   
 24  12  15  1   
 25  12  35  1   
 26  13  16  1   
 27  14  17  1   
 28  14  36  1   
 29  14  37  1   
 30  15  18  1   
 31  15  38  1   
 32  15  39  1   
 33  16  40  1   
 34  16  41  1   
 35  16  42  1   
 36  17  18  1   
 37  17  19  1   
 38  17  43  1   
 39  18  20  1   
 40  18  44  1   
 41  19  45  1   
 42  20  21  1   
 43  20  46  1   
 44  20  47  1   
 45  21  22  2   
 46  21  23  1   
 47  22  24  1   
 48  23  25  2   
 49  23  48  1   
 50  24  25  1   
 51  24  49  1   
 52  25  26  1   
 53  26  50  1   
 54  26  51  1   
 55  26  52  1   
@<TRIPOS>SUBSTRUCTURE
  1 ****   6 GROUP 4 **** **** 0

# MOE 2024.06 (io_trps.svl 2023.06)
