@<TRIPOS>MOLECULE
NONAME
54 56 1 0 0 
SMALL
USER_CHARGES


@<TRIPOS>ATOM
  1 F        5.7060    -2.8930     1.1110 F     1 <1>  -0.1900 
  2 C        5.2870    -1.7450     0.6480 C.ar  1 <1>   0.1900 
  3 C        4.5720    -0.8960     1.4800 C.ar  1 <1>  -0.1440 
  4 C        5.5850    -1.4270    -0.6630 C.ar  1 <1>  -0.1500 
  5 C        4.1490     0.3140     0.9540 C.ar  1 <1>  -0.1500 
  6 C        4.2590    -1.2740     2.9200 C.3   1 <1>  -0.0960 
  7 C        5.1630    -0.2090    -1.1750 C.ar  1 <1>  -0.1430 
  8 C        4.4430     0.6520    -0.3580 C.ar  1 <1>  -0.1500 
  9 C        5.4960     0.1850    -2.6090 C.3   1 <1>   0.1270 
 10 C        7.0050     0.1640    -2.8350 C.ar  1 <1>  -0.1430 
 11 C        7.8200     1.1710    -2.3000 C.ar  1 <1>   0.0860 
 12 C        7.5650    -0.8750    -3.5640 C.ar  1 <1>  -0.1500 
 13 C        7.2960     2.2820    -1.5240 C.2   1 <1>   0.5440 
 14 C        9.1940     1.0840    -2.5230 C.ar  1 <1>  -0.1500 
 15 C        8.9310    -0.9370    -3.7700 C.ar  1 <1>  -0.1500 
 16 O        6.7020     3.1810    -2.0920 O.2   1 <1>  -0.5700 
 17 N        7.4620     2.3490    -0.1580 N.am  1 <1>  -0.6600 
 18 C        9.7480     0.0450    -3.2450 C.ar  1 <1>  -0.1500 
 19 C        7.9160     1.1750     0.6330 C.3   1 <1>   0.3210 
 20 C        7.2150     3.5990     0.6050 C.3   1 <1>   0.1400 
 21 C        9.4200     1.2100     0.8430 C.2   1 <1>  -0.1810 
 22 C        5.8070     3.5860     1.1940 C.3   1 <1>  -0.2400 
 23 C       10.1820     0.1430     1.3050 C.2   1 <1>   0.1390 
 24 C       10.3200     2.1980     0.6380 C.2   1 <1>  -0.3020 
 25 N       11.4440     0.4340     1.3830 N.2   1 <1>  -0.7070 
 26 N       11.5310     1.7100     0.9660 N.pl3 1 <1>   0.3140 
 27 C       12.8200     2.4230     0.8870 C.3   1 <1>   0.0960 
 28 C       13.3060     2.5270    -0.5640 C.3   1 <1>  -0.2400 
 29 H        6.1450    -2.1210    -1.2630 H     1 <1>   0.1500 
 30 H        3.5890     1.0040     1.5610 H     1 <1>   0.1500 
 31 H        3.6940    -2.1890     2.9420 H     1 <1>   0.0800 
 32 H        3.6860    -0.5050     3.4050 H     1 <1>   0.0800 
 33 H        5.1730    -1.4200     3.4680 H     1 <1>   0.0800 
 34 H        4.1120     1.6020    -0.7430 H     1 <1>   0.1500 
 35 H        5.1110     1.1640    -2.8320 H     1 <1>   0.0800 
 36 H        5.0110    -0.5020    -3.2790 H     1 <1>   0.0800 
 37 H        6.9410    -1.6480    -3.9770 H     1 <1>   0.1500 
 38 H        9.8330     1.8470    -2.1180 H     1 <1>   0.1500 
 39 H        9.3570    -1.7480    -4.3340 H     1 <1>   0.1500 
 40 H       10.8130     0.0010    -3.3970 H     1 <1>   0.1500 
 41 H        7.6520     0.2660     0.1230 H     1 <1>   0.0800 
 42 H        7.4170     1.1660     1.5860 H     1 <1>   0.0800 
 43 H        7.3240     4.4480    -0.0480 H     1 <1>   0.0800 
 44 H        7.9440     3.6910     1.3920 H     1 <1>   0.0800 
 45 H        5.0840     3.5350     0.4010 H     1 <1>   0.0800 
 46 H        5.6400     4.4930     1.7460 H     1 <1>   0.0800 
 47 H        5.6780     2.7520     1.8570 H     1 <1>   0.0800 
 48 H        9.7840    -0.8230     1.5690 H     1 <1>   0.1500 
 49 H       10.1660     3.1980     0.2760 H     1 <1>   0.1500 
 50 H       13.5380     1.8830     1.4770 H     1 <1>   0.0800 
 51 H       12.6940     3.4020     1.3110 H     1 <1>   0.0800 
 52 H       13.4290     1.5430    -0.9810 H     1 <1>   0.0800 
 53 H       14.2540     3.0330    -0.5960 H     1 <1>   0.0800 
 54 H       12.6010     3.0810    -1.1590 H     1 <1>   0.0800 
@<TRIPOS>BOND
  1   1   2  1   
  2   2   3  ar  
  3   2   4  ar  
  4   3   5  ar  
  5   3   6  1   
  6   4   7  ar  
  7   4  29  1   
  8   5   8  ar  
  9   5  30  1   
 10   6  31  1   
 11   6  32  1   
 12   6  33  1   
 13   7   8  ar  
 14   7   9  1   
 15   8  34  1   
 16   9  10  1   
 17   9  35  1   
 18   9  36  1   
 19  10  11  ar  
 20  10  12  ar  
 21  11  13  1   
 22  11  14  ar  
 23  12  15  ar  
 24  12  37  1   
 25  13  16  2   
 26  13  17  am  
 27  14  18  ar  
 28  14  38  1   
 29  15  18  ar  
 30  15  39  1   
 31  17  19  1   
 32  17  20  1   
 33  18  40  1   
 34  19  21  1   
 35  19  41  1   
 36  19  42  1   
 37  20  22  1   
 38  20  43  1   
 39  20  44  1   
 40  21  23  1   
 41  21  24  2   
 42  22  45  1   
 43  22  46  1   
 44  22  47  1   
 45  23  25  2   
 46  23  48  1   
 47  24  26  1   
 48  24  49  1   
 49  25  26  1   
 50  26  27  1   
 51  27  28  1   
 52  27  50  1   
 53  27  51  1   
 54  28  52  1   
 55  28  53  1   
 56  28  54  1   
@<TRIPOS>SUBSTRUCTURE
  1 ****  19 GROUP 4 **** **** 0

# MOE 2024.06 (io_trps.svl 2023.06)
