@<TRIPOS>MOLECULE
NONAME
44 46 1 0 0 
SMALL
USER_CHARGES


@<TRIPOS>ATOM
  1 N        0.0060     0.0230     0.1950 N.ar  1 <1>  -0.6200 
  2 C        1.0680     0.8090     0.0970 C.ar  1 <1>   0.7710 
  3 C       -1.1860     0.5810     0.1720 C.ar  1 <1>   0.4100 
  4 N        0.9480     2.1420    -0.0150 N.ar  1 <1>  -0.1790 
  5 N        2.3150     0.2600     0.1110 N.pl3 1 <1>  -0.8380 
  6 N       -2.2480    -0.2430     0.2410 N.pl3 1 <1>  -0.8690 
  7 C       -1.3650     1.9810     0.0690 C.ar  1 <1>  -0.1430 
  8 C       -0.2560     2.7600    -0.0380 C.ar  1 <1>   0.2170 
  9 C        2.5130    -1.2010     0.3960 C.3   1 <1>   0.1290 
 10 C        3.6080     0.9470    -0.2060 C.3   1 <1>   0.1290 
 11 C       -2.2100    -1.7140     0.3150 C.3   1 <1>   0.3900 
 12 C       -2.7720     2.5850     0.0710 C.3   1 <1>  -0.0170 
 13 C       -0.2920     4.2790    -0.1720 C.3   1 <1>  -0.0170 
 14 C       -3.6420    -2.1920     0.3870 C.2   1 <1>  -0.1810 
 15 C       -2.7630     4.1020     0.3070 C.3   1 <1>  -0.1600 
 16 C       -1.6910     4.7890    -0.5440 C.3   1 <1>  -0.1600 
 17 C       -4.4510    -2.1780     1.5180 C.2   1 <1>   0.1390 
 18 C       -4.4270    -2.7080    -0.5840 C.2   1 <1>  -0.3020 
 19 N       -5.6390    -2.6420     1.2760 N.2   1 <1>  -0.7070 
 20 N       -5.6240    -2.9720    -0.0250 N.pl3 1 <1>   0.3140 
 21 C       -6.8020    -3.5470    -0.6820 C.3   1 <1>   0.0160 
 22 H        1.8200     2.6500    -0.0570 H     1 <1>   0.4570 
 23 H       -3.2060     0.1070     0.1770 H     1 <1>   0.4000 
 24 H        1.7050    -1.6000     0.9870 H     1 <1>   0.0800 
 25 H        3.4260    -1.3550     0.9460 H     1 <1>   0.0800 
 26 H        2.5660    -1.7490    -0.5290 H     1 <1>   0.0800 
 27 H        3.4540     1.8650    -0.7450 H     1 <1>   0.0800 
 28 H        4.2180     0.3070    -0.8230 H     1 <1>   0.0800 
 29 H        4.1460     1.1520     0.7050 H     1 <1>   0.0800 
 30 H       -1.6630    -2.0270     1.1880 H     1 <1>   0.0800 
 31 H       -1.7290    -2.1090    -0.5630 H     1 <1>   0.0800 
 32 H       -3.3710     2.1270     0.8410 H     1 <1>   0.0800 
 33 H       -3.2370     2.3750    -0.8770 H     1 <1>   0.0800 
 34 H        0.4040     4.6060    -0.9260 H     1 <1>   0.0800 
 35 H        0.0010     4.7160     0.7670 H     1 <1>   0.0800 
 36 H       -2.5770     4.3010     1.3490 H     1 <1>   0.0800 
 37 H       -3.7330     4.5050     0.0680 H     1 <1>   0.0800 
 38 H       -1.8850     4.5900    -1.5850 H     1 <1>   0.0800 
 39 H       -1.7380     5.8560    -0.4010 H     1 <1>   0.0800 
 40 H       -4.1410    -1.8250     2.4870 H     1 <1>   0.1500 
 41 H       -4.2070    -2.8980    -1.6180 H     1 <1>   0.1500 
 42 H       -6.6390    -3.5920    -1.7420 H     1 <1>   0.0800 
 43 H       -7.6540    -2.9280    -0.4690 H     1 <1>   0.0800 
 44 H       -6.9690    -4.5340    -0.2930 H     1 <1>   0.0800 
@<TRIPOS>BOND
  1   1   2  ar  
  2   1   3  ar  
  3   2   4  ar  
  4   2   5  1   
  5   3   6  1   
  6   3   7  ar  
  7   4   8  ar  
  8   4  22  1   
  9   5   9  1   
 10   5  10  1   
 11   6  11  1   
 12   6  23  1   
 13   7   8  ar  
 14   7  12  1   
 15   8  13  1   
 16   9  24  1   
 17   9  25  1   
 18   9  26  1   
 19  10  27  1   
 20  10  28  1   
 21  10  29  1   
 22  11  14  1   
 23  11  30  1   
 24  11  31  1   
 25  12  15  1   
 26  12  32  1   
 27  12  33  1   
 28  13  16  1   
 29  13  34  1   
 30  13  35  1   
 31  14  17  1   
 32  14  18  2   
 33  15  16  1   
 34  15  36  1   
 35  15  37  1   
 36  16  38  1   
 37  16  39  1   
 38  17  19  2   
 39  17  40  1   
 40  18  20  1   
 41  18  41  1   
 42  19  20  1   
 43  20  21  1   
 44  21  42  1   
 45  21  43  1   
 46  21  44  1   
@<TRIPOS>SUBSTRUCTURE
  1 ****   3 GROUP 4 **** **** 0

# MOE 2024.06 (io_trps.svl 2023.06)
