@<TRIPOS>MOLECULE
NONAME
45 47 1 0 0 
SMALL
USER_CHARGES


@<TRIPOS>ATOM
  1 CL       0.2060     3.3260    -4.3130 Cl    1 <1>  -0.1230 
  2 C        1.3220     3.6090    -2.9880 C.2   1 <1>   0.1230 
  3 C        1.3010     2.9710    -1.7580 C.2   1 <1>   0.1390 
  4 C        2.3530     4.4710    -2.9540 C.2   1 <1>  -0.3020 
  5 N        2.2600     3.4030    -0.9900 N.2   1 <1>  -0.7070 
  6 N        2.9100     4.3290    -1.7320 N.pl3 1 <1>   0.3140 
  7 C        4.0730     5.0550    -1.1990 C.3   1 <1>   0.0960 
  8 C        3.6220     5.9760    -0.0600 C.3   1 <1>   0.1100 
  9 N        4.7750     6.6660     0.5630 N.3   1 <1>  -0.8100 
 10 C        4.3000     7.9070     1.2430 C.3   1 <1>   0.1100 
 11 C        5.4840     5.7720     1.5090 C.3   1 <1>   0.1100 
 12 C        5.4560     8.7780     1.7740 C.3   1 <1>   0.3430 
 13 C        7.0010     6.0010     1.4260 C.3   1 <1>  -0.1600 
 14 N        6.6980     8.3970     1.0420 N.4   1 <1>  -0.9590 
 15 C        7.4880     7.4050     1.8000 C.3   1 <1>   0.3430 
 16 C        7.4660     9.5330     0.4700 C.3   1 <1>   0.4860 
 17 C        6.5490    10.3480    -0.4180 C.ar  1 <1>  -0.1430 
 18 C        5.9900     9.7780    -1.5540 C.ar  1 <1>   0.1600 
 19 C        6.2400    11.6590    -0.1100 C.ar  1 <1>  -0.1500 
 20 N        5.1510    10.3900    -2.3690 N.ar  1 <1>  -0.6200 
 21 C        5.3760    12.3140    -0.9620 C.ar  1 <1>  -0.1500 
 22 C        4.8660    11.6440    -2.0600 C.ar  1 <1>   0.1600 
 23 H        0.5870     2.2170    -1.4730 H     1 <1>   0.1500 
 24 H        2.7050     5.1520    -3.7060 H     1 <1>   0.1500 
 25 H        4.5160     5.6320    -1.9880 H     1 <1>   0.0800 
 26 H        4.7770     4.3280    -0.8450 H     1 <1>   0.0800 
 27 H        3.0860     5.4090     0.6850 H     1 <1>   0.0800 
 28 H        2.9450     6.7030    -0.4790 H     1 <1>   0.0800 
 29 H        3.6250     7.6640     2.0470 H     1 <1>   0.0800 
 30 H        3.7500     8.5030     0.5330 H     1 <1>   0.0800 
 31 H        5.2930     4.7400     1.2610 H     1 <1>   0.0800 
 32 H        5.1280     5.9210     2.5160 H     1 <1>   0.0800 
 33 H        5.5790     8.6160     2.8320 H     1 <1>   0.0800 
 34 H        5.2130     9.8170     1.6210 H     1 <1>   0.0800 
 35 H        7.3330     5.7630     0.4310 H     1 <1>   0.0800 
 36 H        7.4820     5.2980     2.0840 H     1 <1>   0.0800 
 37 H        6.2900     7.8400     0.2650 H     1 <1>   0.4500 
 38 H        8.5350     7.4900     1.5530 H     1 <1>   0.0800 
 39 H        7.3740     7.5700     2.8590 H     1 <1>   0.0800 
 40 H        8.2930     9.1630    -0.1140 H     1 <1>   0.0800 
 41 H        7.8560    10.1520     1.2610 H     1 <1>   0.0800 
 42 H        6.2340     8.7610    -1.8120 H     1 <1>   0.1500 
 43 H        6.6460    12.1660     0.7500 H     1 <1>   0.1500 
 44 H        5.0970    13.3380    -0.7820 H     1 <1>   0.1500 
 45 H        4.1910    12.1670    -2.7190 H     1 <1>   0.1500 
@<TRIPOS>BOND
  1   1   2  1   
  2   2   3  1   
  3   2   4  2   
  4   3   5  2   
  5   3  23  1   
  6   4   6  1   
  7   4  24  1   
  8   5   6  1   
  9   6   7  1   
 10   7   8  1   
 11   7  25  1   
 12   7  26  1   
 13   8   9  1   
 14   8  27  1   
 15   8  28  1   
 16   9  10  1   
 17   9  11  1   
 18  10  12  1   
 19  10  29  1   
 20  10  30  1   
 21  11  13  1   
 22  11  31  1   
 23  11  32  1   
 24  12  14  1   
 25  12  33  1   
 26  12  34  1   
 27  13  15  1   
 28  13  35  1   
 29  13  36  1   
 30  14  15  1   
 31  14  16  1   
 32  14  37  1   
 33  15  38  1   
 34  15  39  1   
 35  16  17  1   
 36  16  40  1   
 37  16  41  1   
 38  17  18  ar  
 39  17  19  ar  
 40  18  20  ar  
 41  18  42  1   
 42  19  21  ar  
 43  19  43  1   
 44  20  22  ar  
 45  21  22  ar  
 46  21  44  1   
 47  22  45  1   
@<TRIPOS>SUBSTRUCTURE
  1 ****   9 GROUP 4 **** **** 0

# MOE 2024.06 (io_trps.svl 2023.06)
