@<TRIPOS>MOLECULE
NONAME
52 54 1 0 0 
SMALL
USER_CHARGES


@<TRIPOS>ATOM
  1 S       -1.5640    -0.0970     1.6840 S.3   1 <1>  -0.0800 
  2 C       -1.5480    -0.9680     0.1560 C.2   1 <1>  -0.1400 
  3 C       -1.5600     1.4500     0.8590 C.2   1 <1>  -0.1100 
  4 C       -1.5410    -0.0990    -0.8740 C.2   1 <1>  -0.1500 
  5 C       -1.5500    -2.4850     0.2380 C.3   1 <1>   0.3800 
  6 C       -1.5480     1.2760    -0.4750 C.2   1 <1>  -0.1500 
  7 O       -1.2610    -2.9840    -1.0180 O.3   1 <1>  -0.6800 
  8 C       -2.9120    -3.0500     0.7060 C.3   1 <1>  -0.0800 
  9 C       -2.8810    -4.5870     0.8340 C.3   1 <1>  -0.1600 
 10 C       -4.0790    -2.6200    -0.2090 C.3   1 <1>  -0.1600 
 11 C       -4.2340    -5.1570     1.2540 C.3   1 <1>   0.3430 
 12 C       -5.4090    -3.2290     0.2260 C.3   1 <1>   0.3430 
 13 N       -5.2790    -4.7080     0.2920 N.4   1 <1>  -0.9590 
 14 C       -6.5990    -5.4060     0.5360 C.3   1 <1>   0.4040 
 15 C       -6.5790    -6.9060     0.1890 C.2   1 <1>   0.5690 
 16 O       -5.6350    -7.3010    -0.4600 O.2   1 <1>  -0.5700 
 17 N       -7.5870    -7.7420     0.5910 N.am  1 <1>  -0.6600 
 18 C       -8.7690    -7.3500     1.4080 C.3   1 <1>   0.1400 
 19 C       -7.6190    -9.1590     0.1370 C.3   1 <1>   0.1400 
 20 C       -9.9700    -7.0040     0.5210 C.3   1 <1>  -0.1600 
 21 C       -8.2260    -9.2810    -1.2660 C.3   1 <1>  -0.1600 
 22 C      -10.4000    -8.1180    -0.4540 C.3   1 <1>  -0.1600 
 23 C       -9.3970    -8.3360    -1.5990 C.3   1 <1>  -0.1600 
 24 H       -1.5660     2.3380     1.4670 H     1 <1>   0.1500 
 25 H       -1.5360    -0.3620    -1.9190 H     1 <1>   0.1500 
 26 H       -0.7640    -2.8070     0.9010 H     1 <1>   0.0800 
 27 H       -1.5420     2.0640    -1.2080 H     1 <1>   0.1500 
 28 H       -0.4610    -2.5360    -1.3540 H     1 <1>   0.4000 
 29 H       -3.0980    -2.6470     1.6870 H     1 <1>   0.0800 
 30 H       -2.1420    -4.8740     1.5620 H     1 <1>   0.0800 
 31 H       -2.5950    -5.0360    -0.1020 H     1 <1>   0.0800 
 32 H       -3.8800    -2.9090    -1.2270 H     1 <1>   0.0800 
 33 H       -4.1750    -1.5480    -0.1960 H     1 <1>   0.0800 
 34 H       -4.4780    -4.8200     2.2480 H     1 <1>   0.0800 
 35 H       -4.1770    -6.2350     1.2600 H     1 <1>   0.0800 
 36 H       -6.1750    -2.9530    -0.4810 H     1 <1>   0.0800 
 37 H       -5.6820    -2.8410     1.1950 H     1 <1>   0.0800 
 38 H       -4.9590    -5.0540    -0.6290 H     1 <1>   0.4500 
 39 H       -7.3600    -4.9500    -0.0730 H     1 <1>   0.0800 
 40 H       -6.8810    -5.2920     1.5670 H     1 <1>   0.0800 
 41 H       -8.5320    -6.5100     2.0370 H     1 <1>   0.0800 
 42 H       -9.0350    -8.1640     2.0620 H     1 <1>   0.0800 
 43 H       -8.1990    -9.7470     0.8280 H     1 <1>   0.0800 
 44 H       -6.6210    -9.5640     0.1310 H     1 <1>   0.0800 
 45 H       -9.7660    -6.1040    -0.0290 H     1 <1>   0.0800 
 46 H      -10.8030    -6.7910     1.1680 H     1 <1>   0.0800 
 47 H       -8.5530   -10.2980    -1.3910 H     1 <1>   0.0800 
 48 H       -7.4440    -9.1200    -1.9890 H     1 <1>   0.0800 
 49 H      -11.3380    -7.8210    -0.8920 H     1 <1>   0.0800 
 50 H      -10.5750    -9.0400     0.0730 H     1 <1>   0.0800 
 51 H       -9.9220    -8.7500    -2.4430 H     1 <1>   0.0800 
 52 H       -9.0060    -7.3840    -1.9160 H     1 <1>   0.0800 
@<TRIPOS>BOND
  1   1   2  1   
  2   1   3  1   
  3   2   4  2   
  4   2   5  1   
  5   3   6  2   
  6   3  24  1   
  7   4   6  1   
  8   4  25  1   
  9   5   7  1   
 10   5   8  1   
 11   5  26  1   
 12   6  27  1   
 13   7  28  1   
 14   8   9  1   
 15   8  10  1   
 16   8  29  1   
 17   9  11  1   
 18   9  30  1   
 19   9  31  1   
 20  10  12  1   
 21  10  32  1   
 22  10  33  1   
 23  11  13  1   
 24  11  34  1   
 25  11  35  1   
 26  12  13  1   
 27  12  36  1   
 28  12  37  1   
 29  13  14  1   
 30  13  38  1   
 31  14  15  1   
 32  14  39  1   
 33  14  40  1   
 34  15  16  2   
 35  15  17  am  
 36  17  18  1   
 37  17  19  1   
 38  18  20  1   
 39  18  41  1   
 40  18  42  1   
 41  19  21  1   
 42  19  43  1   
 43  19  44  1   
 44  20  22  1   
 45  20  45  1   
 46  20  46  1   
 47  21  23  1   
 48  21  47  1   
 49  21  48  1   
 50  22  23  1   
 51  22  49  1   
 52  22  50  1   
 53  23  51  1   
 54  23  52  1   
@<TRIPOS>SUBSTRUCTURE
  1 ****  13 GROUP 4 **** **** 0

# MOE 2024.06 (io_trps.svl 2023.06)
