@<TRIPOS>MOLECULE
NONAME
48 51 1 0 0 
SMALL
USER_CHARGES


@<TRIPOS>ATOM
  1 S       -0.8070    -0.0260     1.5120 S.o2  1 <1>   1.3330 
  2 O       -1.3510    -1.3440     1.7430 O.2   1 <1>  -0.6500 
  3 O       -0.8560     0.9650     2.5640 O.2   1 <1>  -0.6500 
  4 N       -1.5900     0.6160     0.1530 N.am  1 <1>  -0.8490 
  5 C        0.9060    -0.1830     0.9770 C.3   1 <1>  -0.0550 
  6 C       -2.8300     1.3260     0.5310 C.3   1 <1>   0.1960 
  7 C       -1.8780    -0.4000    -0.8660 C.3   1 <1>   0.1960 
  8 C        1.5580     1.1280     0.4970 C.3   1 <1>  -0.2400 
  9 C       -3.4530     2.0660    -0.6700 C.3   1 <1>   0.1440 
 10 C       -2.4390     0.2600    -2.1320 C.3   1 <1>  -0.1600 
 11 C       -4.7230     2.7540    -0.2080 C.ar  1 <1>   0.1670 
 12 C       -3.7070     1.0700    -1.8210 C.3   1 <1>  -0.1600 
 13 C       -2.5680     3.2620    -1.1170 C.3   1 <1>  -0.1600 
 14 N       -5.8550     2.1540     0.0690 N.ar  1 <1>  -0.6200 
 15 C       -4.5520     4.0990    -0.0930 C.ar  1 <1>  -0.1440 
 16 C       -3.1490     4.5220    -0.4520 C.3   1 <1>  -0.0170 
 17 C       -6.8570     2.9500     0.4670 C.ar  1 <1>   0.6200 
 18 C       -5.6230     4.8450     0.3220 C.ar  1 <1>   0.1600 
 19 N       -6.7770     4.2820     0.6000 N.ar  1 <1>  -0.6200 
 20 C       -8.1320     2.3170     0.7800 C.ar  1 <1>   0.0000 
 21 C       -9.3450     2.9930     0.6180 C.ar  1 <1>  -0.1500 
 22 C       -8.2020     1.0040     1.2560 C.ar  1 <1>  -0.1500 
 23 C      -10.5570     2.3960     0.9130 C.ar  1 <1>  -0.1500 
 24 C       -9.4100     0.4000     1.5530 C.ar  1 <1>  -0.1500 
 25 C      -10.5930     1.0960     1.3810 C.ar  1 <1>  -0.1500 
 26 H        0.9600    -0.9030     0.1850 H     1 <1>   0.0800 
 27 H        1.4820    -0.5680     1.7970 H     1 <1>   0.0800 
 28 H       -2.6190     2.0500     1.3000 H     1 <1>   0.0800 
 29 H       -3.5420     0.6220     0.9310 H     1 <1>   0.0800 
 30 H       -2.5910    -1.1130    -0.4820 H     1 <1>   0.0800 
 31 H       -0.9760    -0.9310    -1.1180 H     1 <1>   0.0800 
 32 H        1.0250     1.5210    -0.3520 H     1 <1>   0.0800 
 33 H        2.5800     0.9530     0.2140 H     1 <1>   0.0800 
 34 H        1.5360     1.8600     1.2850 H     1 <1>   0.0800 
 35 H       -2.6690    -0.5020    -2.8550 H     1 <1>   0.0800 
 36 H       -1.6840     0.8980    -2.5570 H     1 <1>   0.0800 
 37 H       -4.0500     1.5880    -2.6990 H     1 <1>   0.0800 
 38 H       -4.4860     0.3890    -1.5240 H     1 <1>   0.0800 
 39 H       -2.6390     3.3840    -2.1830 H     1 <1>   0.0800 
 40 H       -1.5320     3.1230    -0.8630 H     1 <1>   0.0800 
 41 H       -3.1440     5.3620    -1.1240 H     1 <1>   0.0800 
 42 H       -2.6040     4.7640     0.4440 H     1 <1>   0.0800 
 43 H       -5.5360     5.9130     0.4280 H     1 <1>   0.1500 
 44 H       -9.3370     4.0050     0.2540 H     1 <1>   0.1500 
 45 H       -7.2920     0.4470     1.3970 H     1 <1>   0.1500 
 46 H      -11.4740     2.9440     0.7770 H     1 <1>   0.1500 
 47 H       -9.4300    -0.6120     1.9170 H     1 <1>   0.1500 
 48 H      -11.5350     0.6280     1.6120 H     1 <1>   0.1500 
@<TRIPOS>BOND
  1   1   2  2   
  2   1   3  2   
  3   1   4  am  
  4   1   5  1   
  5   4   6  1   
  6   4   7  1   
  7   5   8  1   
  8   5  26  1   
  9   5  27  1   
 10   6   9  1   
 11   6  28  1   
 12   6  29  1   
 13   7  10  1   
 14   7  30  1   
 15   7  31  1   
 16   8  32  1   
 17   8  33  1   
 18   8  34  1   
 19   9  11  1   
 20   9  12  1   
 21   9  13  1   
 22  10  12  1   
 23  10  35  1   
 24  10  36  1   
 25  11  14  ar  
 26  11  15  ar  
 27  12  37  1   
 28  12  38  1   
 29  13  16  1   
 30  13  39  1   
 31  13  40  1   
 32  14  17  ar  
 33  15  16  1   
 34  15  18  ar  
 35  16  41  1   
 36  16  42  1   
 37  17  19  ar  
 38  17  20  1   
 39  18  19  ar  
 40  18  43  1   
 41  20  21  ar  
 42  20  22  ar  
 43  21  23  ar  
 44  21  44  1   
 45  22  24  ar  
 46  22  45  1   
 47  23  25  ar  
 48  23  46  1   
 49  24  25  ar  
 50  24  47  1   
 51  25  48  1   
@<TRIPOS>SUBSTRUCTURE
  1 ****  11 GROUP 4 **** **** 0

# MOE 2024.06 (io_trps.svl 2023.06)
