@<TRIPOS>MOLECULE
NONAME
36 37 1 0 0 
SMALL
USER_CHARGES


@<TRIPOS>ATOM
  1 S       -0.2740    -0.9330    -1.1350 S.3   1 <1>  -0.0800 
  2 C       -0.4410    -2.6750    -1.2620 C.2   1 <1>  -0.1100 
  3 C       -1.8870    -0.7870    -0.4610 C.2   1 <1>  -0.1100 
  4 C       -1.6450    -3.0760    -0.8130 C.2   1 <1>  -0.1810 
  5 C       -2.4710    -1.9960    -0.3580 C.2   1 <1>  -0.1500 
  6 C       -2.1320    -4.5130    -0.7720 C.3   1 <1>   0.0210 
  7 C       -2.1530    -5.0350     0.6690 C.3   1 <1>  -0.0990 
  8 C       -2.6940    -6.4510     0.7210 C.2   1 <1>   0.5690 
  9 O       -1.9160    -7.3480     0.4940 O.2   1 <1>  -0.5700 
 10 N       -4.0130    -6.7040     0.9860 N.am  1 <1>  -0.6600 
 11 C       -4.4960    -8.1160     1.0590 C.3   1 <1>   0.3200 
 12 C       -5.1030    -5.6830     1.0140 C.3   1 <1>   0.1400 
 13 C       -4.7480    -8.6560    -0.3370 C.2   1 <1>   0.0060 
 14 C       -5.4290    -5.2920     2.4590 C.3   1 <1>   0.1200 
 15 N       -5.9070    -8.9810    -0.8170 N.2   1 <1>  -0.5650 
 16 N       -3.7320    -8.8380    -1.2070 N.pl3 1 <1>   0.0330 
 17 O       -6.3820    -4.2830     2.4620 O.3   1 <1>  -0.6800 
 18 C       -5.6290    -9.3990    -2.0670 C.2   1 <1>   0.0770 
 19 C       -4.3050    -9.3190    -2.3240 C.2   1 <1>  -0.3020 
 20 H        0.3940    -3.2190    -1.6650 H     1 <1>   0.1500 
 21 H       -2.2300     0.2010    -0.2130 H     1 <1>   0.1500 
 22 H       -3.4610    -2.1710     0.0210 H     1 <1>   0.1500 
 23 H       -1.4750    -5.1310    -1.3600 H     1 <1>   0.0800 
 24 H       -3.1130    -4.5700    -1.2090 H     1 <1>   0.0800 
 25 H       -2.7290    -4.3870     1.2990 H     1 <1>   0.0800 
 26 H       -1.1480    -5.0420     1.0510 H     1 <1>   0.0800 
 27 H       -5.4070    -8.1670     1.6310 H     1 <1>   0.0800 
 28 H       -3.7610    -8.7280     1.5520 H     1 <1>   0.0800 
 29 H       -5.9840    -6.0910     0.5450 H     1 <1>   0.0800 
 30 H       -4.8070    -4.8130     0.4580 H     1 <1>   0.0800 
 31 H       -4.5550    -4.9310     2.9730 H     1 <1>   0.0800 
 32 H       -5.8420    -6.1310     2.9900 H     1 <1>   0.0800 
 33 H       -2.7460    -8.6160    -1.0120 H     1 <1>   0.2700 
 34 H       -6.0090    -3.4350     2.1540 H     1 <1>   0.4000 
 35 H       -6.4100    -9.7410    -2.7270 H     1 <1>   0.1500 
 36 H       -3.7560    -9.5690    -3.2130 H     1 <1>   0.1500 
@<TRIPOS>BOND
  1   1   2  1   
  2   1   3  1   
  3   2   4  2   
  4   2  20  1   
  5   3   5  2   
  6   3  21  1   
  7   4   5  1   
  8   4   6  1   
  9   5  22  1   
 10   6   7  1   
 11   6  23  1   
 12   6  24  1   
 13   7   8  1   
 14   7  25  1   
 15   7  26  1   
 16   8   9  2   
 17   8  10  am  
 18  10  11  1   
 19  10  12  1   
 20  11  13  1   
 21  11  27  1   
 22  11  28  1   
 23  12  14  1   
 24  12  29  1   
 25  12  30  1   
 26  13  15  2   
 27  13  16  1   
 28  14  17  1   
 29  14  31  1   
 30  14  32  1   
 31  15  18  1   
 32  16  19  1   
 33  16  33  1   
 34  17  34  1   
 35  18  19  2   
 36  18  35  1   
 37  19  36  1   
@<TRIPOS>SUBSTRUCTURE
  1 ****   8 GROUP 4 **** **** 0

# MOE 2024.06 (io_trps.svl 2023.06)
