@<TRIPOS>MOLECULE
NONAME
49 51 1 0 0 
SMALL
USER_CHARGES


@<TRIPOS>ATOM
  1 O       -1.3720    -2.3220     0.0690 O.co2 1 <1>  -0.9000 
  2 C       -0.3760    -3.0200    -0.1890 C.2   1 <1>   1.0330 
  3 O       -0.4190    -3.6850    -1.2410 O.co2 1 <1>  -0.9000 
  4 C        0.6390    -3.2250     0.7850 C.2   1 <1>  -0.2330 
  5 C        0.7330    -4.3340     1.6270 C.2   1 <1>   0.3720 
  6 C        1.6880    -2.4470     1.1550 C.2   1 <1>   0.0870 
  7 N        1.7350    -4.2260     2.4230 N.2   1 <1>  -0.4100 
  8 N       -0.1230    -5.4440     1.6710 N.pl3 1 <1>  -0.8210 
  9 O        2.3040    -3.0870     2.1220 O.3   1 <1>  -0.0190 
 10 C        2.1760    -1.1660     0.7050 C.ar  1 <1>   0.0530 
 11 C       -0.1480    -6.3290     0.4580 C.3   1 <1>   0.2090 
 12 C       -1.3030    -5.3460     2.5850 C.3   1 <1>   0.2090 
 13 C        1.3390    -0.2200     0.1100 C.ar  1 <1>  -0.1500 
 14 C        3.5200    -0.8200     0.8540 C.ar  1 <1>  -0.1500 
 15 C       -1.5180    -6.3510    -0.2470 C.3   1 <1>   0.2000 
 16 C       -2.6410    -5.6290     1.8790 C.3   1 <1>  -0.1600 
 17 C        1.8150     1.0030    -0.3230 C.ar  1 <1>  -0.1500 
 18 C        4.0040     0.4020     0.4270 C.ar  1 <1>  -0.1500 
 19 O       -1.3910    -6.0370    -1.6010 O.3   1 <1>  -0.6800 
 20 C       -2.4680    -5.3300     0.3960 C.3   1 <1>   0.4230 
 21 C        3.1600     1.3250    -0.1670 C.ar  1 <1>   0.0830 
 22 N       -3.7060    -5.1610    -0.4190 N.4   1 <1>  -0.9590 
 23 O        3.7080     2.4980    -0.5630 O.3   1 <1>  -0.3620 
 24 C       -4.0110    -3.6990    -0.5060 C.3   1 <1>   0.2630 
 25 C       -4.8690    -6.0090    -0.0460 C.3   1 <1>   0.2630 
 26 C        2.9330     3.4930    -1.1940 C.3   1 <1>   0.0400 
 27 H        0.6100    -6.0010    -0.2350 H     1 <1>   0.0800 
 28 H        0.1040    -7.3270     0.7670 H     1 <1>   0.0800 
 29 H       -1.1660    -6.0270     3.4090 H     1 <1>   0.0800 
 30 H       -1.3290    -4.3480     2.9950 H     1 <1>   0.0800 
 31 H        0.2930    -0.4400    -0.0120 H     1 <1>   0.1500 
 32 H        4.1940    -1.5230     1.3100 H     1 <1>   0.1500 
 33 H       -1.9320    -7.3400    -0.1850 H     1 <1>   0.0800 
 34 H       -3.3930    -4.9940     2.3100 H     1 <1>   0.0800 
 35 H       -2.9140    -6.6560     2.0320 H     1 <1>   0.0800 
 36 H        1.1240     1.6880    -0.7750 H     1 <1>   0.1500 
 37 H        5.0430     0.6490     0.5490 H     1 <1>   0.1500 
 38 H       -0.9490    -5.1220    -1.6580 H     1 <1>   0.4000 
 39 H       -1.9640    -4.3950     0.3700 H     1 <1>   0.0800 
 40 H       -3.3550    -5.4320    -1.3610 H     1 <1>   0.4500 
 41 H       -4.1860    -3.2900     0.4740 H     1 <1>   0.0800 
 42 H       -4.8770    -3.5280    -1.1240 H     1 <1>   0.0800 
 43 H       -3.1740    -3.1760    -0.9430 H     1 <1>   0.0800 
 44 H       -5.2270    -5.7400     0.9330 H     1 <1>   0.0800 
 45 H       -4.5840    -7.0480    -0.0420 H     1 <1>   0.0800 
 46 H       -5.6680    -5.8730    -0.7570 H     1 <1>   0.0800 
 47 H        3.5760     4.3230    -1.4210 H     1 <1>   0.0800 
 48 H        2.1530     3.8060    -0.5230 H     1 <1>   0.0800 
 49 H        2.5210     3.0890    -2.1020 H     1 <1>   0.0800 
@<TRIPOS>BOND
  1   1   2  ar  
  2   2   3  ar  
  3   2   4  1   
  4   4   5  1   
  5   4   6  2   
  6   5   7  2   
  7   5   8  1   
  8   6   9  1   
  9   6  10  1   
 10   7   9  1   
 11   8  11  1   
 12   8  12  1   
 13  10  13  ar  
 14  10  14  ar  
 15  11  15  1   
 16  11  27  1   
 17  11  28  1   
 18  12  16  1   
 19  12  29  1   
 20  12  30  1   
 21  13  17  ar  
 22  13  31  1   
 23  14  18  ar  
 24  14  32  1   
 25  15  19  1   
 26  15  20  1   
 27  15  33  1   
 28  16  20  1   
 29  16  34  1   
 30  16  35  1   
 31  17  21  ar  
 32  17  36  1   
 33  18  21  ar  
 34  18  37  1   
 35  19  38  1   
 36  20  22  1   
 37  20  39  1   
 38  21  23  1   
 39  22  24  1   
 40  22  25  1   
 41  22  40  1   
 42  23  26  1   
 43  24  41  1   
 44  24  42  1   
 45  24  43  1   
 46  25  44  1   
 47  25  45  1   
 48  25  46  1   
 49  26  47  1   
 50  26  48  1   
 51  26  49  1   
@<TRIPOS>SUBSTRUCTURE
  1 ****   4 GROUP 4 **** **** 0

# MOE 2024.06 (io_trps.svl 2023.06)
