@<TRIPOS>MOLECULE
NONAME
42 44 1 0 0 
SMALL
USER_CHARGES


@<TRIPOS>ATOM
  1 O       -2.6120    -0.1030    -2.4450 O.2   1 <1>  -0.5700 
  2 C       -2.5110    -0.7430    -1.4210 C.2   1 <1>   0.5690 
  3 N       -2.2650    -0.1560    -0.2070 N.am  1 <1>  -0.6600 
  4 C       -2.6320    -2.2580    -1.5120 C.3   1 <1>  -0.0190 
  5 C       -2.2770    -0.9800     1.0450 C.3   1 <1>   0.2200 
  6 C       -2.0910     1.3090    -0.0470 C.3   1 <1>   0.0600 
  7 C       -1.2810    -2.9290    -1.2040 C.3   1 <1>   0.1200 
  8 C       -3.7940    -2.8830    -0.7050 C.3   1 <1>   0.1100 
  9 C       -1.2590    -2.1540     1.0520 C.3   1 <1>   0.1200 
 10 C       -3.7060    -1.4790     1.3550 C.3   1 <1>   0.1100 
 11 O       -0.5770    -2.3270    -0.1570 O.3   1 <1>  -0.5600 
 12 N       -4.4990    -1.9490     0.1900 N.3   1 <1>  -0.8100 
 13 C       -5.8170    -2.4700     0.6170 C.3   1 <1>   0.2900 
 14 C       -5.8010    -3.9130     1.1440 C.2   1 <1>   0.0060 
 15 N       -4.9970    -4.3520     2.0670 N.2   1 <1>  -0.5650 
 16 N       -6.6560    -4.8660     0.6840 N.pl3 1 <1>   0.0480 
 17 C       -5.3320    -5.6450     2.2090 C.2   1 <1>   0.0770 
 18 C       -6.3390    -5.9760     1.3760 C.2   1 <1>  -0.3020 
 19 C       -7.7450    -4.7740    -0.3140 C.3   1 <1>   0.0960 
 20 C       -7.2100    -4.9850    -1.7330 C.3   1 <1>  -0.2400 
 21 H       -2.8400    -2.4910    -2.5390 H     1 <1>   0.0800 
 22 H       -1.9980    -0.3450     1.8670 H     1 <1>   0.0800 
 23 H       -1.1510     1.5120     0.4330 H     1 <1>   0.0800 
 24 H       -2.8940     1.7060     0.5490 H     1 <1>   0.0800 
 25 H       -2.1000     1.7970    -1.0060 H     1 <1>   0.0800 
 26 H       -0.6480    -2.8500    -2.0710 H     1 <1>   0.0800 
 27 H       -1.4040    -3.9730    -0.9750 H     1 <1>   0.0800 
 28 H       -3.4430    -3.7260    -0.1340 H     1 <1>   0.0800 
 29 H       -4.5040    -3.2610    -1.4180 H     1 <1>   0.0800 
 30 H       -1.7300    -3.0840     1.3180 H     1 <1>   0.0800 
 31 H       -0.5120    -1.9500     1.7970 H     1 <1>   0.0800 
 32 H       -4.2400    -0.6600     1.8030 H     1 <1>   0.0800 
 33 H       -3.6460    -2.2520     2.0990 H     1 <1>   0.0800 
 34 H       -6.2240    -1.8280     1.3780 H     1 <1>   0.0800 
 35 H       -6.4750    -2.4050    -0.2300 H     1 <1>   0.0800 
 36 H       -4.8240    -6.2800     2.9160 H     1 <1>   0.1500 
 37 H       -6.8350    -6.9200     1.2450 H     1 <1>   0.1500 
 38 H       -8.4780    -5.5280    -0.0870 H     1 <1>   0.0800 
 39 H       -8.2210    -3.8130    -0.2310 H     1 <1>   0.0800 
 40 H       -6.7190    -5.9400    -1.8080 H     1 <1>   0.0800 
 41 H       -6.5180    -4.2070    -1.9970 H     1 <1>   0.0800 
 42 H       -8.0240    -4.9650    -2.4350 H     1 <1>   0.0800 
@<TRIPOS>BOND
  1   1   2  2   
  2   2   3  am  
  3   2   4  1   
  4   3   5  1   
  5   3   6  1   
  6   4   7  1   
  7   4   8  1   
  8   4  21  1   
  9   5   9  1   
 10   5  10  1   
 11   5  22  1   
 12   6  23  1   
 13   6  24  1   
 14   6  25  1   
 15   7  11  1   
 16   7  26  1   
 17   7  27  1   
 18   8  12  1   
 19   8  28  1   
 20   8  29  1   
 21   9  11  1   
 22   9  30  1   
 23   9  31  1   
 24  10  12  1   
 25  10  32  1   
 26  10  33  1   
 27  12  13  1   
 28  13  14  1   
 29  13  34  1   
 30  13  35  1   
 31  14  15  2   
 32  14  16  1   
 33  15  17  1   
 34  16  18  1   
 35  16  19  1   
 36  17  18  2   
 37  17  36  1   
 38  18  37  1   
 39  19  20  1   
 40  19  38  1   
 41  19  39  1   
 42  20  40  1   
 43  20  41  1   
 44  20  42  1   
@<TRIPOS>SUBSTRUCTURE
  1 ****   8 GROUP 4 **** **** 0

# MOE 2024.06 (io_trps.svl 2023.06)
