@<TRIPOS>MOLECULE
NONAME
42 43 1 0 0 
SMALL
USER_CHARGES


@<TRIPOS>ATOM
  1 F        0.5050     2.1130     0.4870 F     1 <1>  -0.3400 
  2 C        1.5230     1.6370     1.1880 C.3   1 <1>   1.1640 
  3 F        0.9790     0.9410     2.1790 F     1 <1>  -0.3400 
  4 F        2.1090     2.6730     1.7720 F     1 <1>  -0.3400 
  5 C        2.4860     0.7830     0.3390 C.ar  1 <1>  -0.1440 
  6 C        3.3500     1.3940    -0.5800 C.ar  1 <1>   0.0860 
  7 C        2.4930    -0.6050     0.4640 C.ar  1 <1>  -0.1500 
  8 C        3.4120     2.8300    -0.7800 C.2   1 <1>   0.5440 
  9 C        4.1710     0.5770    -1.3540 C.ar  1 <1>  -0.1500 
 10 C        3.3310    -1.4110    -0.2990 C.ar  1 <1>  -0.1440 
 11 O        2.4910     3.3560    -1.3730 O.2   1 <1>  -0.5700 
 12 N        4.4620     3.6050    -0.3190 N.am  1 <1>  -0.6600 
 13 C        4.1700    -0.7970    -1.2190 C.ar  1 <1>  -0.1500 
 14 C        3.3080    -2.9410    -0.1300 C.3   1 <1>   1.1640 
 15 C        4.4080     5.0910    -0.5470 C.3   1 <1>   0.2200 
 16 C        5.6420     3.0110     0.3920 C.3   1 <1>   0.1400 
 17 F        2.2620    -3.4900    -0.7320 F     1 <1>  -0.3400 
 18 F        4.3840    -3.5380    -0.6280 F     1 <1>  -0.3400 
 19 F        3.2390    -3.3040     1.1450 F     1 <1>  -0.3400 
 20 C        5.7760     5.7750    -0.6630 C.3   1 <1>  -0.1600 
 21 C        3.5620     5.7760     0.5300 C.3   1 <1>  -0.1600 
 22 C        5.5860     3.2790     1.8940 C.3   1 <1>  -0.2400 
 23 C        5.5780     7.2800    -0.8610 C.3   1 <1>   0.1200 
 24 C        3.5180     7.2850     0.2780 C.3   1 <1>   0.1200 
 25 O        4.8190     7.7850     0.1940 O.3   1 <1>  -0.5600 
 26 H        1.8280    -1.0840     1.1680 H     1 <1>   0.1500 
 27 H        4.8210     1.0370    -2.0800 H     1 <1>   0.1500 
 28 H        4.8270    -1.3840    -1.8420 H     1 <1>   0.1500 
 29 H        3.9120     5.2590    -1.4890 H     1 <1>   0.0800 
 30 H        6.5580     3.3970    -0.0200 H     1 <1>   0.0800 
 31 H        5.6720     1.9470     0.2460 H     1 <1>   0.0800 
 32 H        6.3150     5.3740    -1.5010 H     1 <1>   0.0800 
 33 H        6.3560     5.6410     0.2310 H     1 <1>   0.0800 
 34 H        3.9680     5.6050     1.5080 H     1 <1>   0.0800 
 35 H        2.5600     5.3870     0.5060 H     1 <1>   0.0800 
 36 H        5.7250     4.3230     2.1040 H     1 <1>   0.0800 
 37 H        6.3750     2.7380     2.3840 H     1 <1>   0.0800 
 38 H        4.6480     2.9520     2.3020 H     1 <1>   0.0800 
 39 H        5.0680     7.4930    -1.7860 H     1 <1>   0.0800 
 40 H        6.5250     7.7900    -0.8570 H     1 <1>   0.0800 
 41 H        3.0230     7.7890     1.0900 H     1 <1>   0.0800 
 42 H        3.0020     7.5120    -0.6410 H     1 <1>   0.0800 
@<TRIPOS>BOND
  1   1   2  1   
  2   2   3  1   
  3   2   4  1   
  4   2   5  1   
  5   5   6  ar  
  6   5   7  ar  
  7   6   8  1   
  8   6   9  ar  
  9   7  10  ar  
 10   7  26  1   
 11   8  11  2   
 12   8  12  am  
 13   9  13  ar  
 14   9  27  1   
 15  10  13  ar  
 16  10  14  1   
 17  12  15  1   
 18  12  16  1   
 19  13  28  1   
 20  14  17  1   
 21  14  18  1   
 22  14  19  1   
 23  15  20  1   
 24  15  21  1   
 25  15  29  1   
 26  16  22  1   
 27  16  30  1   
 28  16  31  1   
 29  20  23  1   
 30  20  32  1   
 31  20  33  1   
 32  21  24  1   
 33  21  34  1   
 34  21  35  1   
 35  22  36  1   
 36  22  37  1   
 37  22  38  1   
 38  23  25  1   
 39  23  39  1   
 40  23  40  1   
 41  24  25  1   
 42  24  41  1   
 43  24  42  1   
@<TRIPOS>SUBSTRUCTURE
  1 ****   6 GROUP 4 **** **** 0

# MOE 2024.06 (io_trps.svl 2023.06)
