@<TRIPOS>MOLECULE
NONAME
44 46 1 0 0 
SMALL
USER_CHARGES


@<TRIPOS>ATOM
  1 CL       0.3320    -0.0900    -0.1920 Cl    1 <1>  -0.1770 
  2 C        0.0840    -1.7920     0.0980 C.ar  1 <1>   0.1770 
  3 C        0.9940    -2.7040    -0.3980 C.ar  1 <1>  -0.1500 
  4 C       -1.0170    -2.2020     0.8220 C.ar  1 <1>  -0.1500 
  5 C        0.8090    -4.0610    -0.1770 C.ar  1 <1>  -0.1440 
  6 C       -1.2100    -3.5540     1.0430 C.ar  1 <1>  -0.1500 
  7 C       -0.3100    -4.4870     0.5400 C.ar  1 <1>  -0.1430 
  8 C        1.8530    -5.0270    -0.7250 C.3   1 <1>  -0.0960 
  9 C       -0.5850    -5.9590     0.7970 C.3   1 <1>   0.4870 
 10 N       -1.1180    -6.5720    -0.4510 N.4   1 <1>  -0.9590 
 11 C       -2.4930    -6.0590    -0.7560 C.3   1 <1>   0.3430 
 12 C       -1.2340    -8.0560    -0.3050 C.3   1 <1>   0.3430 
 13 C       -3.4580    -7.1130    -0.2060 C.3   1 <1>   0.2000 
 14 C       -2.7120    -8.4110    -0.5090 C.3   1 <1>  -0.0800 
 15 O       -3.5610    -6.9380     1.1720 O.3   1 <1>  -0.6800 
 16 C       -3.1490    -9.6630     0.2760 C.3   1 <1>   0.0200 
 17 C       -2.1810   -10.8030     0.0240 C.2   1 <1>  -0.0400 
 18 O       -1.8070   -11.0800    -1.1960 O.3   1 <1>  -0.0190 
 19 C       -1.5520   -11.6520     0.8510 C.2   1 <1>  -0.1500 
 20 N       -0.9490   -12.0540    -1.2300 N.2   1 <1>  -0.4100 
 21 C       -0.7830   -12.4290    -0.0120 C.2   1 <1>   0.1080 
 22 C        0.1270   -13.5610     0.4130 C.3   1 <1>  -0.0590 
 23 H        1.8420    -2.3370    -0.9500 H     1 <1>   0.1500 
 24 H       -1.7050    -1.4690     1.2040 H     1 <1>   0.1500 
 25 H       -2.0690    -3.8670     1.6140 H     1 <1>   0.1500 
 26 H        2.7510    -4.4980    -0.9950 H     1 <1>   0.0800 
 27 H        1.4860    -5.5220    -1.6050 H     1 <1>   0.0800 
 28 H        2.1250    -5.7600     0.0130 H     1 <1>   0.0800 
 29 H       -1.3000    -6.0670     1.5980 H     1 <1>   0.0800 
 30 H        0.3300    -6.4470     1.0910 H     1 <1>   0.0800 
 31 H       -0.4790    -6.3110    -1.2110 H     1 <1>   0.4500 
 32 H       -2.6810    -5.0910    -0.3220 H     1 <1>   0.0800 
 33 H       -2.6200    -5.9930    -1.8240 H     1 <1>   0.0800 
 34 H       -0.6190    -8.5740    -1.0250 H     1 <1>   0.0800 
 35 H       -0.9310    -8.3540     0.6860 H     1 <1>   0.0800 
 36 H       -4.4380    -7.0510    -0.6490 H     1 <1>   0.0800 
 37 H       -2.8380    -8.6230    -1.5570 H     1 <1>   0.0800 
 38 H       -4.3790    -7.3540     1.5220 H     1 <1>   0.4000 
 39 H       -4.1330    -9.9640    -0.0380 H     1 <1>   0.0800 
 40 H       -3.1770    -9.4720     1.3350 H     1 <1>   0.0800 
 41 H       -1.5970   -11.7480     1.9210 H     1 <1>   0.1500 
 42 H        0.8700   -13.1990     1.0990 H     1 <1>   0.0800 
 43 H        0.6200   -13.9790    -0.4470 H     1 <1>   0.0800 
 44 H       -0.4500   -14.3330     0.8890 H     1 <1>   0.0800 
@<TRIPOS>BOND
  1   1   2  1   
  2   2   3  ar  
  3   2   4  ar  
  4   3   5  ar  
  5   3  23  1   
  6   4   6  ar  
  7   4  24  1   
  8   5   7  ar  
  9   5   8  1   
 10   6   7  ar  
 11   6  25  1   
 12   7   9  1   
 13   8  26  1   
 14   8  27  1   
 15   8  28  1   
 16   9  10  1   
 17   9  29  1   
 18   9  30  1   
 19  10  11  1   
 20  10  12  1   
 21  10  31  1   
 22  11  13  1   
 23  11  32  1   
 24  11  33  1   
 25  12  14  1   
 26  12  34  1   
 27  12  35  1   
 28  13  14  1   
 29  13  15  1   
 30  13  36  1   
 31  14  16  1   
 32  14  37  1   
 33  15  38  1   
 34  16  17  1   
 35  16  39  1   
 36  16  40  1   
 37  17  18  1   
 38  17  19  2   
 39  18  20  1   
 40  19  21  1   
 41  19  41  1   
 42  20  21  2   
 43  21  22  1   
 44  22  42  1   
 45  22  43  1   
 46  22  44  1   
@<TRIPOS>SUBSTRUCTURE
  1 ****  10 GROUP 4 **** **** 0

# MOE 2024.06 (io_trps.svl 2023.06)
