@<TRIPOS>MOLECULE
NONAME
54 56 1 0 0 
SMALL
USER_CHARGES


@<TRIPOS>ATOM
  1 O       -1.8190     0.3220    -1.9390 O.2   1 <1>  -0.5700 
  2 C       -2.0850     0.8610    -0.8940 C.2   1 <1>   0.5690 
  3 N       -2.6570     0.1590     0.1330 N.am  1 <1>  -0.6600 
  4 C       -1.7980     2.3460    -0.7730 C.3   1 <1>  -0.0990 
  5 C       -2.3880    -1.3060     0.2450 C.3   1 <1>   0.3200 
  6 C       -3.5530     0.7770     1.1650 C.3   1 <1>   0.1400 
  7 C       -0.5710     2.6070     0.1130 C.3   1 <1>   0.0630 
  8 C       -3.6860    -2.0460     0.0210 C.2   1 <1>  -0.3320 
  9 C       -4.8810     1.3200     0.5760 C.3   1 <1>   0.3430 
 10 C       -0.2560     4.0800     0.2490 C.ar  1 <1>  -0.1440 
 11 C        0.7280     2.0180    -0.4760 C.3   1 <1>  -0.1600 
 12 N       -4.4470    -2.5970     0.9880 N.pl3 1 <1>   0.0330 
 13 C       -4.3170    -2.2860    -1.1480 C.2   1 <1>   0.0770 
 14 N       -5.4900     0.4000    -0.4380 N.4   1 <1>  -0.9590 
 15 C        1.0870     4.3120     0.0770 C.ar  1 <1>  -0.1440 
 16 C       -1.1170     5.1300     0.5200 C.ar  1 <1>  -0.1500 
 17 C        1.8430     3.0360    -0.1910 C.3   1 <1>  -0.0170 
 18 C       -5.5300    -3.0820     0.3450 C.2   1 <1>   0.0060 
 19 N       -5.5000    -2.8860    -0.9320 N.2   1 <1>  -0.5650 
 20 C       -5.3120     0.8800    -1.8430 C.3   1 <1>   0.2630 
 21 C       -6.9200     0.0720    -0.1730 C.3   1 <1>   0.2630 
 22 C        1.6050     5.5910     0.1600 C.ar  1 <1>  -0.1500 
 23 C       -0.6080     6.4170     0.6050 C.ar  1 <1>  -0.1500 
 24 C       -6.6550    -3.8040     1.0570 C.3   1 <1>  -0.0600 
 25 C        0.7480     6.6470     0.4240 C.ar  1 <1>  -0.1500 
 26 H       -2.6500     2.8600    -0.3800 H     1 <1>   0.0800 
 27 H       -1.6110     2.7460    -1.7540 H     1 <1>   0.0800 
 28 H       -1.9760    -1.5320     1.2140 H     1 <1>   0.0800 
 29 H       -1.6680    -1.6140    -0.4960 H     1 <1>   0.0800 
 30 H       -3.0330     1.5780     1.6620 H     1 <1>   0.0800 
 31 H       -3.7860     0.0460     1.9190 H     1 <1>   0.0800 
 32 H       -0.7260     2.2080     1.1000 H     1 <1>   0.0800 
 33 H       -4.6990     2.2800     0.1230 H     1 <1>   0.0800 
 34 H       -5.5730     1.4790     1.3860 H     1 <1>   0.0800 
 35 H        0.6340     1.9170    -1.5440 H     1 <1>   0.0800 
 36 H        0.9560     1.0530    -0.0590 H     1 <1>   0.0800 
 37 H       -4.2480    -2.6830     1.9910 H     1 <1>   0.2700 
 38 H       -3.9840    -2.0330    -2.1440 H     1 <1>   0.1500 
 39 H       -4.9660    -0.5000    -0.3840 H     1 <1>   0.4500 
 40 H       -2.1670     4.9650     0.6660 H     1 <1>   0.1500 
 41 H        2.5090     3.1390    -1.0300 H     1 <1>   0.0800 
 42 H        2.4000     2.7580     0.6870 H     1 <1>   0.0800 
 43 H       -5.8110     1.8240    -1.9870 H     1 <1>   0.0800 
 44 H       -5.7250     0.1610    -2.5320 H     1 <1>   0.0800 
 45 H       -4.2660     0.9980    -2.0720 H     1 <1>   0.0800 
 46 H       -7.5350     0.9510    -0.2710 H     1 <1>   0.0800 
 47 H       -7.0340    -0.3280     0.8210 H     1 <1>   0.0800 
 48 H       -7.2610    -0.6730    -0.8760 H     1 <1>   0.0800 
 49 H        2.6580     5.7640     0.0220 H     1 <1>   0.1500 
 50 H       -1.2650     7.2430     0.8130 H     1 <1>   0.1500 
 51 H       -7.0960    -3.1740     1.8060 H     1 <1>   0.0800 
 52 H       -6.2810    -4.6990     1.5210 H     1 <1>   0.0800 
 53 H       -7.4150    -4.0840     0.3480 H     1 <1>   0.0800 
 54 H        1.1370     7.6470     0.4910 H     1 <1>   0.1500 
@<TRIPOS>BOND
  1   1   2  2   
  2   2   3  am  
  3   2   4  1   
  4   3   5  1   
  5   3   6  1   
  6   4   7  1   
  7   4  26  1   
  8   4  27  1   
  9   5   8  1   
 10   5  28  1   
 11   5  29  1   
 12   6   9  1   
 13   6  30  1   
 14   6  31  1   
 15   7  10  1   
 16   7  11  1   
 17   7  32  1   
 18   8  12  1   
 19   8  13  2   
 20   9  14  1   
 21   9  33  1   
 22   9  34  1   
 23  10  15  ar  
 24  10  16  ar  
 25  11  17  1   
 26  11  35  1   
 27  11  36  1   
 28  12  18  1   
 29  12  37  1   
 30  13  19  1   
 31  13  38  1   
 32  14  20  1   
 33  14  21  1   
 34  14  39  1   
 35  15  17  1   
 36  15  22  ar  
 37  16  23  ar  
 38  16  40  1   
 39  17  41  1   
 40  17  42  1   
 41  18  19  2   
 42  18  24  1   
 43  20  43  1   
 44  20  44  1   
 45  20  45  1   
 46  21  46  1   
 47  21  47  1   
 48  21  48  1   
 49  22  25  ar  
 50  22  49  1   
 51  23  25  ar  
 52  23  50  1   
 53  24  51  1   
 54  24  52  1   
 55  24  53  1   
 56  25  54  1   
@<TRIPOS>SUBSTRUCTURE
  1 ****   2 GROUP 4 **** **** 0

# MOE 2024.06 (io_trps.svl 2023.06)
