@<TRIPOS>MOLECULE
NONAME
41 42 1 0 0 
SMALL
USER_CHARGES


@<TRIPOS>ATOM
  1 CL      -0.7410    -0.7340     1.5380 Cl    1 <1>  -0.1770 
  2 C       -0.7630    -2.3570     0.9030 C.ar  1 <1>   0.1770 
  3 C       -0.3230    -2.5910    -0.3850 C.ar  1 <1>  -0.1500 
  4 C       -1.2230    -3.3910     1.6940 C.ar  1 <1>  -0.1500 
  5 C       -0.3430    -3.8830    -0.8810 C.ar  1 <1>  -0.1500 
  6 C       -1.2390    -4.6790     1.1860 C.ar  1 <1>  -0.1500 
  7 C       -0.7960    -4.9600    -0.1130 C.ar  1 <1>   0.0860 
  8 C       -0.8000    -6.3090    -0.6600 C.2   1 <1>   0.5440 
  9 O       -0.7140    -6.4980    -1.8570 O.2   1 <1>  -0.5700 
 10 N       -0.9080    -7.4030     0.1480 N.am  1 <1>  -0.7300 
 11 C       -0.8150    -8.8150    -0.2970 C.3   1 <1>   0.2200 
 12 C       -2.1940    -9.4510    -0.3810 C.3   1 <1>  -0.0800 
 13 C       -0.2030    -9.6370     0.8280 C.3   1 <1>   0.1200 
 14 C       -2.4690    -9.8560     1.0740 C.3   1 <1>   0.1200 
 15 C       -3.2770    -8.5670    -1.0380 C.3   1 <1>  -0.0550 
 16 O       -1.2410    -9.8070     1.7450 O.3   1 <1>  -0.5600 
 17 S       -4.8380    -9.4040    -1.3230 S.o2  1 <1>   1.3330 
 18 O       -5.7460    -8.5040    -1.9970 O.2   1 <1>  -0.6500 
 19 O       -4.5540   -10.7000    -1.8990 O.2   1 <1>  -0.6500 
 20 N       -5.4520    -9.6550     0.2420 N.am  1 <1>  -0.8490 
 21 C       -6.3400   -10.8210     0.3070 C.3   1 <1>   0.1160 
 22 C       -6.1400    -8.4810     0.7900 C.3   1 <1>   0.1160 
 23 H        0.0290    -1.7720    -0.9870 H     1 <1>   0.1500 
 24 H       -1.5630    -3.1840     2.6930 H     1 <1>   0.1500 
 25 H       -0.0010    -4.0670    -1.8870 H     1 <1>   0.1500 
 26 H       -1.6070    -5.4720     1.8110 H     1 <1>   0.1500 
 27 H       -0.9670    -7.3050     1.1630 H     1 <1>   0.3700 
 28 H       -0.2580    -8.8940    -1.2160 H     1 <1>   0.0800 
 29 H       -2.1020   -10.3560    -0.9570 H     1 <1>   0.0800 
 30 H        0.6280    -9.1470     1.3030 H     1 <1>   0.0800 
 31 H        0.0930   -10.6100     0.4770 H     1 <1>   0.0800 
 32 H       -2.8680   -10.8530     1.1420 H     1 <1>   0.0800 
 33 H       -3.1330    -9.1650     1.5640 H     1 <1>   0.0800 
 34 H       -2.8980    -8.2340    -1.9860 H     1 <1>   0.0800 
 35 H       -3.4470    -7.6940    -0.4410 H     1 <1>   0.0800 
 36 H       -6.7050   -10.9590     1.3100 H     1 <1>   0.0800 
 37 H       -5.8030   -11.7100     0.0200 H     1 <1>   0.0800 
 38 H       -7.1760   -10.6920    -0.3610 H     1 <1>   0.0800 
 39 H       -6.4270    -8.6640     1.8120 H     1 <1>   0.0800 
 40 H       -7.0230    -8.2580     0.2140 H     1 <1>   0.0800 
 41 H       -5.4890    -7.6240     0.7680 H     1 <1>   0.0800 
@<TRIPOS>BOND
  1   1   2  1   
  2   2   3  ar  
  3   2   4  ar  
  4   3   5  ar  
  5   3  23  1   
  6   4   6  ar  
  7   4  24  1   
  8   5   7  ar  
  9   5  25  1   
 10   6   7  ar  
 11   6  26  1   
 12   7   8  1   
 13   8   9  2   
 14   8  10  am  
 15  10  11  1   
 16  10  27  1   
 17  11  12  1   
 18  11  13  1   
 19  11  28  1   
 20  12  14  1   
 21  12  15  1   
 22  12  29  1   
 23  13  16  1   
 24  13  30  1   
 25  13  31  1   
 26  14  16  1   
 27  14  32  1   
 28  14  33  1   
 29  15  17  1   
 30  15  34  1   
 31  15  35  1   
 32  17  18  2   
 33  17  19  2   
 34  17  20  am  
 35  20  21  1   
 36  20  22  1   
 37  21  36  1   
 38  21  37  1   
 39  21  38  1   
 40  22  39  1   
 41  22  40  1   
 42  22  41  1   
@<TRIPOS>SUBSTRUCTURE
  1 ****  10 GROUP 4 **** **** 0

# MOE 2024.06 (io_trps.svl 2023.06)
