@<TRIPOS>MOLECULE
NONAME
42 43 1 0 0 
SMALL
USER_CHARGES


@<TRIPOS>ATOM
  1 S        0.8400     1.1550    -1.5610 S.3   1 <1>  -0.3320 
  2 C        0.3690     2.5640    -0.5470 C.ar  1 <1>   0.1020 
  3 C       -0.7050     0.5300    -2.3580 C.3   1 <1>  -0.0100 
  4 C        1.3760     3.1590     0.1900 C.ar  1 <1>  -0.1500 
  5 C       -0.9290     3.0450    -0.4970 C.ar  1 <1>  -0.1500 
  6 C        1.0940     4.2590     0.9860 C.ar  1 <1>  -0.1430 
  7 C       -1.2130     4.1370     0.3050 C.ar  1 <1>  -0.1500 
  8 C       -0.2080     4.7410     1.0430 C.ar  1 <1>  -0.1500 
  9 C        2.2020     4.9270     1.7750 C.3   1 <1>   0.4860 
 10 N        3.0870     5.6480     0.8210 N.4   1 <1>  -0.9590 
 11 C        4.3760     6.0370     1.4940 C.3   1 <1>   0.3430 
 12 C        2.3650     6.8250     0.2400 C.3   1 <1>   0.2630 
 13 C        5.4990     6.4990     0.5330 C.3   1 <1>   0.1400 
 14 N        5.2700     7.8170    -0.1310 N.am  1 <1>  -0.6600 
 15 C        4.7530     8.9250     0.4550 C.2   1 <1>   0.5690 
 16 C        6.0060     8.1370    -1.3720 C.3   1 <1>   0.1400 
 17 O        4.1390     8.9360     1.4940 O.2   1 <1>  -0.5700 
 18 C        5.0110    10.1550    -0.3660 C.3   1 <1>  -0.0990 
 19 C        5.9850     9.6710    -1.4520 C.3   1 <1>  -0.1600 
 20 H       -0.4410    -0.3290    -2.9480 H     1 <1>   0.0800 
 21 H       -1.1000     1.3130    -2.9810 H     1 <1>   0.0800 
 22 H       -1.3960     0.2590    -1.5790 H     1 <1>   0.0800 
 23 H        2.3660     2.7430     0.1270 H     1 <1>   0.1500 
 24 H       -1.7160     2.5880    -1.0650 H     1 <1>   0.1500 
 25 H       -2.2210     4.5150     0.3550 H     1 <1>   0.1500 
 26 H       -0.4570     5.5880     1.6610 H     1 <1>   0.1500 
 27 H        2.7600     4.1720     2.3040 H     1 <1>   0.0800 
 28 H        1.7880     5.6150     2.4950 H     1 <1>   0.0800 
 29 H        3.2810     4.9940     0.0520 H     1 <1>   0.4500 
 30 H        4.7510     5.1830     2.0320 H     1 <1>   0.0800 
 31 H        4.1930     6.8110     2.2210 H     1 <1>   0.0800 
 32 H        2.1860     7.5680     1.0010 H     1 <1>   0.0800 
 33 H        1.4200     6.5200    -0.1790 H     1 <1>   0.0800 
 34 H        2.9510     7.2740    -0.5430 H     1 <1>   0.0800 
 35 H        5.6520     5.7430    -0.2170 H     1 <1>   0.0800 
 36 H        6.4100     6.5770     1.1010 H     1 <1>   0.0800 
 37 H        5.5000     7.7030    -2.2180 H     1 <1>   0.0800 
 38 H        7.0180     7.7700    -1.3240 H     1 <1>   0.0800 
 39 H        5.4440    10.9290     0.2410 H     1 <1>   0.0800 
 40 H        4.0880    10.4980    -0.7950 H     1 <1>   0.0800 
 41 H        5.6890    10.0050    -2.4310 H     1 <1>   0.0800 
 42 H        6.9740    10.0470    -1.2500 H     1 <1>   0.0800 
@<TRIPOS>BOND
  1   1   2  1   
  2   1   3  1   
  3   2   4  ar  
  4   2   5  ar  
  5   3  20  1   
  6   3  21  1   
  7   3  22  1   
  8   4   6  ar  
  9   4  23  1   
 10   5   7  ar  
 11   5  24  1   
 12   6   8  ar  
 13   6   9  1   
 14   7   8  ar  
 15   7  25  1   
 16   8  26  1   
 17   9  10  1   
 18   9  27  1   
 19   9  28  1   
 20  10  11  1   
 21  10  12  1   
 22  10  29  1   
 23  11  13  1   
 24  11  30  1   
 25  11  31  1   
 26  12  32  1   
 27  12  33  1   
 28  12  34  1   
 29  13  14  1   
 30  13  35  1   
 31  13  36  1   
 32  14  15  am  
 33  14  16  1   
 34  15  17  2   
 35  15  18  1   
 36  16  19  1   
 37  16  37  1   
 38  16  38  1   
 39  18  19  1   
 40  18  39  1   
 41  18  40  1   
 42  19  41  1   
 43  19  42  1   
@<TRIPOS>SUBSTRUCTURE
  1 ****  10 GROUP 4 **** **** 0

# MOE 2024.06 (io_trps.svl 2023.06)
