@<TRIPOS>MOLECULE
NONAME
48 50 1 0 0 
SMALL
USER_CHARGES


@<TRIPOS>ATOM
  1 O       -1.1890    -0.9700     0.1300 O.3   1 <1>  -0.5600 
  2 C       -0.0410    -1.3180    -0.5850 C.3   1 <1>   0.1200 
  3 C       -2.2320    -1.8980     0.0310 C.3   1 <1>   0.1200 
  4 C        0.5310    -2.6510    -0.0660 C.3   1 <1>   0.2090 
  5 C       -1.7940    -3.2730     0.5670 C.3   1 <1>   0.2090 
  6 N       -0.5140    -3.7320    -0.0800 N.pl3 1 <1>  -0.8380 
  7 C       -0.2870    -5.0590    -0.2890 C.ar  1 <1>   0.7710 
  8 N       -0.9920    -5.9460     0.3690 N.ar  1 <1>  -0.6200 
  9 N        0.6520    -5.4130    -1.1870 N.ar  1 <1>  -0.1790 
 10 C       -0.7470    -7.2370     0.1490 C.ar  1 <1>   0.4100 
 11 C        0.9460    -6.6970    -1.4400 C.ar  1 <1>   0.4610 
 12 N       -1.5010    -8.1320     0.8490 N.pl3 1 <1>  -0.8380 
 13 C        0.2320    -7.6390    -0.7500 C.ar  1 <1>  -0.1500 
 14 N        1.9110    -7.0000    -2.3450 N.pl3 1 <1>  -0.9000 
 15 C       -1.9490    -9.4490     0.2990 C.3   1 <1>   0.3530 
 16 C       -2.1250    -7.7770     2.1630 C.3   1 <1>   0.1290 
 17 C       -3.4690    -9.5220     0.2340 C.ar  1 <1>  -0.1430 
 18 C       -4.1850    -8.5870    -0.5010 C.ar  1 <1>  -0.1500 
 19 C       -4.1550   -10.5230     0.9060 C.ar  1 <1>  -0.1500 
 20 C       -5.5660    -8.6500    -0.5690 C.ar  1 <1>  -0.1500 
 21 C       -5.5350   -10.5870     0.8410 C.ar  1 <1>  -0.1500 
 22 C       -6.2500    -9.6560     0.1060 C.ar  1 <1>   0.0830 
 23 O       -7.5990    -9.7920     0.0950 O.3   1 <1>  -0.3620 
 24 C       -8.4190    -8.9120    -0.6420 C.3   1 <1>   0.0400 
 25 H        0.6760    -0.5280    -0.4510 H     1 <1>   0.0800 
 26 H       -0.2920    -1.3830    -1.6290 H     1 <1>   0.0800 
 27 H       -2.5350    -1.9690    -0.9990 H     1 <1>   0.0800 
 28 H       -3.0590    -1.5220     0.6080 H     1 <1>   0.0800 
 29 H        0.8670    -2.5020     0.9470 H     1 <1>   0.0800 
 30 H        1.3860    -2.9210    -0.6570 H     1 <1>   0.0800 
 31 H       -2.5870    -3.9790     0.3860 H     1 <1>   0.0800 
 32 H       -1.6520    -3.2050     1.6320 H     1 <1>   0.0800 
 33 H        1.0790    -4.6660    -1.7080 H     1 <1>   0.4570 
 34 H        0.4350    -8.6810    -0.8920 H     1 <1>   0.1500 
 35 H        2.1610    -7.9760    -2.5550 H     1 <1>   0.4000 
 36 H        2.4830    -6.3390    -2.8820 H     1 <1>   0.4000 
 37 H       -1.5670   -10.2380     0.9240 H     1 <1>   0.0800 
 38 H       -1.5650    -9.5960    -0.6940 H     1 <1>   0.0800 
 39 H       -1.5560    -7.0080     2.6560 H     1 <1>   0.0800 
 40 H       -2.1570    -8.6400     2.8050 H     1 <1>   0.0800 
 41 H       -3.1280    -7.4200     2.0060 H     1 <1>   0.0800 
 42 H       -3.6620    -7.8020    -1.0190 H     1 <1>   0.1500 
 43 H       -3.6230   -11.2580     1.4850 H     1 <1>   0.1500 
 44 H       -6.0880    -7.9110    -1.1450 H     1 <1>   0.1500 
 45 H       -6.0710   -11.3620     1.3610 H     1 <1>   0.1500 
 46 H       -9.4410    -9.2170    -0.5080 H     1 <1>   0.0800 
 47 H       -8.1510    -8.9740    -1.6820 H     1 <1>   0.0800 
 48 H       -8.2830    -7.9130    -0.2670 H     1 <1>   0.0800 
@<TRIPOS>BOND
  1   1   2  1   
  2   1   3  1   
  3   2   4  1   
  4   2  25  1   
  5   2  26  1   
  6   3   5  1   
  7   3  27  1   
  8   3  28  1   
  9   4   6  1   
 10   4  29  1   
 11   4  30  1   
 12   5   6  1   
 13   5  31  1   
 14   5  32  1   
 15   6   7  1   
 16   7   8  ar  
 17   7   9  ar  
 18   8  10  ar  
 19   9  11  ar  
 20   9  33  1   
 21  10  12  1   
 22  10  13  ar  
 23  11  13  ar  
 24  11  14  1   
 25  12  15  1   
 26  12  16  1   
 27  13  34  1   
 28  14  35  1   
 29  14  36  1   
 30  15  17  1   
 31  15  37  1   
 32  15  38  1   
 33  16  39  1   
 34  16  40  1   
 35  16  41  1   
 36  17  18  ar  
 37  17  19  ar  
 38  18  20  ar  
 39  18  42  1   
 40  19  21  ar  
 41  19  43  1   
 42  20  22  ar  
 43  20  44  1   
 44  21  22  ar  
 45  21  45  1   
 46  22  23  1   
 47  23  24  1   
 48  24  46  1   
 49  24  47  1   
 50  24  48  1   
@<TRIPOS>SUBSTRUCTURE
  1 ****   8 GROUP 4 **** **** 0

# MOE 2024.06 (io_trps.svl 2023.06)
