@<TRIPOS>MOLECULE
NONAME
45 47 1 0 0 
SMALL
USER_CHARGES


@<TRIPOS>ATOM
  1 CL      -1.4430    -2.3380     3.6410 Cl    1 <1>  -0.1770 
  2 C       -2.5530    -2.2730     2.2970 C.ar  1 <1>   0.1770 
  3 C       -3.3750    -3.3530     2.0430 C.ar  1 <1>  -0.1500 
  4 C       -2.5930    -1.1440     1.5060 C.ar  1 <1>  -0.1500 
  5 C       -4.2650    -3.3150     0.9790 C.ar  1 <1>  -0.1440 
  6 C       -3.4790    -1.0970     0.4450 C.ar  1 <1>  -0.1500 
  7 C       -4.3250    -2.1710     0.1810 C.ar  1 <1>  -0.1430 
  8 C       -5.1310    -4.5460     0.7370 C.3   1 <1>  -0.0960 
  9 C       -5.2940    -2.0480    -0.9840 C.3   1 <1>   0.4870 
 10 N       -6.3400    -1.0540    -0.6230 N.4   1 <1>  -0.9590 
 11 C       -7.2590    -1.6010     0.4410 C.3   1 <1>   0.3430 
 12 C       -7.0300    -0.5210    -1.8380 C.3   1 <1>   0.3430 
 13 C       -8.6260    -2.0740    -0.1030 C.3   1 <1>   0.0000 
 14 C       -8.3670     0.1160    -1.4560 C.3   1 <1>  -0.1600 
 15 C       -9.5010    -2.6260     1.0380 C.3   1 <1>   0.2000 
 16 C       -9.3410    -0.8880    -0.8060 C.3   1 <1>  -0.1600 
 17 C       -8.5170    -3.2870    -1.0550 C.3   1 <1>  -0.1600 
 18 O       -8.7100    -3.3910     1.8830 O.3   1 <1>  -0.6800 
 19 C      -10.5070    -3.5520     0.3620 C.3   1 <1>  -0.1600 
 20 C       -9.8180    -4.0850    -0.9000 C.3   1 <1>  -0.1600 
 21 H       -3.3060    -4.2140     2.6830 H     1 <1>   0.1500 
 22 H       -1.9340    -0.3210     1.7220 H     1 <1>   0.1500 
 23 H       -3.4920    -0.2140    -0.1700 H     1 <1>   0.1500 
 24 H       -4.7250    -5.3990     1.2520 H     1 <1>   0.0800 
 25 H       -5.1710    -4.7960    -0.3080 H     1 <1>   0.0800 
 26 H       -6.1280    -4.3870     1.1070 H     1 <1>   0.0800 
 27 H       -5.7450    -2.9980    -1.2120 H     1 <1>   0.0800 
 28 H       -4.7500    -1.7140    -1.8530 H     1 <1>   0.0800 
 29 H       -5.8340    -0.2820    -0.1740 H     1 <1>   0.4500 
 30 H       -6.7800    -2.4100     0.9660 H     1 <1>   0.0800 
 31 H       -7.4500    -0.8290     1.1670 H     1 <1>   0.0800 
 32 H       -6.4030     0.2070    -2.3280 H     1 <1>   0.0800 
 33 H       -7.2170    -1.3220    -2.5340 H     1 <1>   0.0800 
 34 H       -8.1800     0.9340    -0.7810 H     1 <1>   0.0800 
 35 H       -8.8260     0.5330    -2.3360 H     1 <1>   0.0800 
 36 H       -9.9760    -1.8580     1.6270 H     1 <1>   0.0800 
 37 H      -10.0200    -1.2650    -1.5540 H     1 <1>   0.0800 
 38 H       -9.9420    -0.3440    -0.0960 H     1 <1>   0.0800 
 39 H       -8.3570    -3.0140    -2.0820 H     1 <1>   0.0800 
 40 H       -7.7080    -3.9210    -0.7390 H     1 <1>   0.0800 
 41 H       -9.2740    -3.8780     2.5180 H     1 <1>   0.4000 
 42 H      -10.8420    -4.3440     1.0100 H     1 <1>   0.0800 
 43 H      -11.3660    -2.9730     0.0670 H     1 <1>   0.0800 
 44 H       -9.6010    -5.1360    -0.7980 H     1 <1>   0.0800 
 45 H      -10.4570    -3.9480    -1.7560 H     1 <1>   0.0800 
@<TRIPOS>BOND
  1   1   2  1   
  2   2   3  ar  
  3   2   4  ar  
  4   3   5  ar  
  5   3  21  1   
  6   4   6  ar  
  7   4  22  1   
  8   5   7  ar  
  9   5   8  1   
 10   6   7  ar  
 11   6  23  1   
 12   7   9  1   
 13   8  24  1   
 14   8  25  1   
 15   8  26  1   
 16   9  10  1   
 17   9  27  1   
 18   9  28  1   
 19  10  11  1   
 20  10  12  1   
 21  10  29  1   
 22  11  13  1   
 23  11  30  1   
 24  11  31  1   
 25  12  14  1   
 26  12  32  1   
 27  12  33  1   
 28  13  15  1   
 29  13  16  1   
 30  13  17  1   
 31  14  16  1   
 32  14  34  1   
 33  14  35  1   
 34  15  18  1   
 35  15  19  1   
 36  15  36  1   
 37  16  37  1   
 38  16  38  1   
 39  17  20  1   
 40  17  39  1   
 41  17  40  1   
 42  18  41  1   
 43  19  20  1   
 44  19  42  1   
 45  19  43  1   
 46  20  44  1   
 47  20  45  1   
@<TRIPOS>SUBSTRUCTURE
  1 ****  11 GROUP 4 **** **** 0

# MOE 2024.06 (io_trps.svl 2023.06)
