@<TRIPOS>MOLECULE
NONAME
28 29 1 0 0 
SMALL
USER_CHARGES


@<TRIPOS>ATOM
  1 S        0.0180     0.4480     0.1520 S.o2  1 <1>   1.1030 
  2 O       -0.1880     0.8990    -1.2090 O.co2 1 <1>  -0.6500 
  3 O       -0.9250     0.8090     1.1920 O.co2 1 <1>  -0.6500 
  4 N        0.0220    -1.2690     0.0650 N.am  1 <1>  -0.7300 
  5 N        1.5740     0.7740     0.6550 N.2   1 <1>  -0.5380 
  6 C        1.1390    -1.8270    -0.5020 C.2   1 <1>   0.7200 
  7 C       -1.3010    -1.9170     0.1820 C.3   1 <1>   0.2760 
  8 C        2.5970     0.0400     0.2770 C.ar  1 <1>  -0.1270 
  9 O        1.0320    -2.9220    -1.0590 O.2   1 <1>  -0.5700 
 10 C        2.4260    -1.2030    -0.4050 C.ar  1 <1>   0.0860 
 11 C       -1.2100    -3.2050     1.0010 C.3   1 <1>  -0.2400 
 12 C       -1.9330    -2.1440    -1.1920 C.3   1 <1>  -0.2400 
 13 C        3.9350     0.4790     0.5120 C.ar  1 <1>   0.0820 
 14 C        3.5690    -1.8290    -0.9360 C.ar  1 <1>  -0.1500 
 15 O        4.1510     1.5940     1.2490 O.3   1 <1>  -0.5320 
 16 C        5.0190    -0.1800     0.0020 C.ar  1 <1>  -0.1500 
 17 C        4.8380    -1.3410    -0.7490 C.ar  1 <1>  -0.1500 
 18 H       -1.9530    -1.2550     0.7240 H     1 <1>   0.0800 
 19 H       -0.6590    -3.9630     0.4760 H     1 <1>   0.0800 
 20 H       -2.1970    -3.5780     1.1970 H     1 <1>   0.0800 
 21 H       -0.7290    -3.0000     1.9410 H     1 <1>   0.0800 
 22 H       -1.3820    -2.8710    -1.7580 H     1 <1>   0.0800 
 23 H       -1.9570    -1.2160    -1.7360 H     1 <1>   0.0800 
 24 H       -2.9400    -2.4960    -1.0740 H     1 <1>   0.0800 
 25 H        3.4380    -2.7360    -1.5000 H     1 <1>   0.1500 
 26 H        5.0820     1.8530     1.2540 H     1 <1>   0.4500 
 27 H        6.0170     0.1780     0.1690 H     1 <1>   0.1500 
 28 H        5.6910    -1.8470    -1.1640 H     1 <1>   0.1500 
@<TRIPOS>BOND
  1   1   2  ar  
  2   1   3  ar  
  3   1   4  am  
  4   1   5  2   
  5   4   6  am  
  6   4   7  1   
  7   5   8  1   
  8   6   9  2   
  9   6  10  1   
 10   7  11  1   
 11   7  12  1   
 12   7  18  1   
 13   8  10  ar  
 14   8  13  ar  
 15  10  14  ar  
 16  11  19  1   
 17  11  20  1   
 18  11  21  1   
 19  12  22  1   
 20  12  23  1   
 21  12  24  1   
 22  13  15  1   
 23  13  16  ar  
 24  14  17  ar  
 25  14  25  1   
 26  15  26  1   
 27  16  17  ar  
 28  16  27  1   
 29  17  28  1   
@<TRIPOS>SUBSTRUCTURE
  1 ****  10 GROUP 4 **** **** 0

# MOE 2024.06 (io_trps.svl 2023.06)
