@<TRIPOS>MOLECULE
NONAME
52 54 1 0 0 
SMALL
USER_CHARGES


@<TRIPOS>ATOM
  1 S        0.9790     0.0060    -0.3360 S.o2  1 <1>   1.3330 
  2 O        2.2220     0.1610     0.3870 O.2   1 <1>  -0.6500 
  3 O        1.0100    -0.2160    -1.7640 O.2   1 <1>  -0.6500 
  4 N        0.0990    -1.2510     0.3890 N.am  1 <1>  -0.8490 
  5 C       -0.0440     1.4470    -0.0430 C.3   1 <1>  -0.0550 
  6 C        0.3700    -2.5480    -0.2390 C.3   1 <1>   0.1160 
  7 C        0.3070    -1.3460     1.8380 C.3   1 <1>   0.1160 
  8 C        0.5230     2.7260    -0.6920 C.3   1 <1>  -0.0800 
  9 C       -0.4000     3.9430    -0.6070 C.3   1 <1>   0.2000 
 10 C        1.8490     3.2090    -0.0830 C.3   1 <1>   0.1400 
 11 O       -0.9090     4.0390     0.6790 O.3   1 <1>  -0.6800 
 12 C        0.5430     5.1210    -0.8330 C.3   1 <1>   0.1400 
 13 N        1.8130     4.6940    -0.1850 N.am  1 <1>  -0.6600 
 14 C        2.7290     5.4980     0.4490 C.2   1 <1>   0.5440 
 15 O        3.6410     4.9780     1.0580 O.2   1 <1>  -0.5700 
 16 C        2.6700     6.9410     0.3810 C.ar  1 <1>   0.0860 
 17 C        3.6550     7.6610    -0.3160 C.ar  1 <1>   0.0170 
 18 C        1.6500     7.6430     1.0210 C.ar  1 <1>  -0.1500 
 19 C        4.7460     6.9850    -0.9730 C.cat 1 <1>   0.7830 
 20 C        3.5640     9.0530    -0.3690 C.ar  1 <1>  -0.1500 
 21 C        1.5770     9.0200     0.9590 C.ar  1 <1>  -0.1500 
 22 N        4.7940     6.7150    -2.2770 N.pl3 1 <1>  -0.7000 
 23 N        5.8790     6.5410    -0.4120 N.pl3 1 <1>  -0.7640 
 24 C        2.5360     9.7280     0.2590 C.ar  1 <1>  -0.1500 
 25 C        5.9660     6.0660    -2.5510 C.2   1 <1>   0.2000 
 26 C        6.6410     5.9550    -1.3900 C.2   1 <1>   0.2000 
 27 C        6.2300     6.5540     1.0360 C.3   1 <1>   0.2740 
 28 H       -1.0190     1.2610    -0.4490 H     1 <1>   0.0800 
 29 H       -0.1550     1.5960     1.0120 H     1 <1>   0.0800 
 30 H       -0.2150    -3.3200     0.2300 H     1 <1>   0.0800 
 31 H        1.4160    -2.7940    -0.1540 H     1 <1>   0.0800 
 32 H        0.1070    -2.5140    -1.2830 H     1 <1>   0.0800 
 33 H       -0.3370    -2.1020     2.2540 H     1 <1>   0.0800 
 34 H        0.0750    -0.4070     2.3090 H     1 <1>   0.0800 
 35 H        1.3320    -1.5990     2.0570 H     1 <1>   0.0800 
 36 H        0.7010     2.5250    -1.7350 H     1 <1>   0.0800 
 37 H       -1.2220     3.9130    -1.3030 H     1 <1>   0.0800 
 38 H        2.6960     2.8100    -0.6160 H     1 <1>   0.0800 
 39 H        1.9260     2.9260     0.9550 H     1 <1>   0.0800 
 40 H       -0.1690     4.1650     1.3060 H     1 <1>   0.4000 
 41 H        0.1390     6.0270    -0.4190 H     1 <1>   0.0800 
 42 H        0.7140     5.2520    -1.8870 H     1 <1>   0.0800 
 43 H        0.9060     7.1000     1.5790 H     1 <1>   0.1500 
 44 H        4.3080     9.6210    -0.9030 H     1 <1>   0.1500 
 45 H        0.7770     9.5450     1.4580 H     1 <1>   0.1500 
 46 H        4.0580     6.9500    -2.9470 H     1 <1>   0.4500 
 47 H        2.4790    10.8040     0.2110 H     1 <1>   0.1500 
 48 H        6.2470     5.7230    -3.5360 H     1 <1>   0.1500 
 49 H        7.6000     5.4960    -1.2040 H     1 <1>   0.1500 
 50 H        7.2080     6.9830     1.1760 H     1 <1>   0.0800 
 51 H        6.2310     5.5470     1.4180 H     1 <1>   0.0800 
 52 H        5.5150     7.1300     1.5990 H     1 <1>   0.0800 
@<TRIPOS>BOND
  1   1   2  2   
  2   1   3  2   
  3   1   4  am  
  4   1   5  1   
  5   4   6  1   
  6   4   7  1   
  7   5   8  1   
  8   5  28  1   
  9   5  29  1   
 10   6  30  1   
 11   6  31  1   
 12   6  32  1   
 13   7  33  1   
 14   7  34  1   
 15   7  35  1   
 16   8   9  1   
 17   8  10  1   
 18   8  36  1   
 19   9  11  1   
 20   9  12  1   
 21   9  37  1   
 22  10  13  1   
 23  10  38  1   
 24  10  39  1   
 25  11  40  1   
 26  12  13  1   
 27  12  41  1   
 28  12  42  1   
 29  13  14  am  
 30  14  15  2   
 31  14  16  1   
 32  16  17  ar  
 33  16  18  ar  
 34  17  19  1   
 35  17  20  ar  
 36  18  21  ar  
 37  18  43  1   
 38  19  22  ar  
 39  19  23  ar  
 40  20  24  ar  
 41  20  44  1   
 42  21  24  ar  
 43  21  45  1   
 44  22  25  1   
 45  22  46  1   
 46  23  26  1   
 47  23  27  1   
 48  24  47  1   
 49  25  26  2   
 50  25  48  1   
 51  26  49  1   
 52  27  50  1   
 53  27  51  1   
 54  27  52  1   
@<TRIPOS>SUBSTRUCTURE
  1 ****  13 GROUP 4 **** **** 0

# MOE 2024.06 (io_trps.svl 2023.06)
