@<TRIPOS>MOLECULE
NONAME
48 52 1 0 0 
SMALL
USER_CHARGES


@<TRIPOS>ATOM
  1 O       -0.4020    -0.2380     0.2280 O.3   1 <1>  -0.0190 
  2 N        0.1550     0.4980    -0.6840 N.2   1 <1>  -0.4100 
  3 C        0.5140    -1.1290     0.5220 C.2   1 <1>   0.2980 
  4 C        1.3250     0.0330    -0.8760 C.2   1 <1>   0.4300 
  5 N        1.6100    -1.0150    -0.1170 N.2   1 <1>  -0.5650 
  6 C        0.2070    -2.1760     1.5910 C.3   1 <1>   0.2900 
  7 C        2.3430     0.5780    -1.8650 C.3   1 <1>  -0.0140 
  8 N       -0.8420    -3.1440     1.1950 N.3   1 <1>  -0.8100 
  9 C        3.4620     1.4570    -1.3910 C.3   1 <1>  -0.2000 
 10 C        2.3740     2.0280    -2.2490 C.3   1 <1>  -0.2000 
 11 C       -2.2000    -2.5830     1.0480 C.3   1 <1>   0.1100 
 12 C       -0.9260    -4.3220     2.0630 C.3   1 <1>   0.1100 
 13 C       -3.1600    -3.5650     1.7300 C.3   1 <1>   0.2000 
 14 C       -2.3520    -4.8520     1.8870 C.3   1 <1>  -0.0800 
 15 O       -3.4590    -3.0860     2.9970 O.3   1 <1>  -0.6800 
 16 C       -2.4710    -5.7410     0.6290 C.3   1 <1>  -0.0170 
 17 C       -1.7280    -7.0840     0.6740 C.ar  1 <1>  -0.1440 
 18 C       -1.5180    -7.8190    -0.5200 C.ar  1 <1>   0.0000 
 19 C       -1.2530    -7.6370     1.8310 C.ar  1 <1>  -0.1500 
 20 C       -0.8090    -9.0430    -0.4310 C.ar  1 <1>   0.3100 
 21 C       -1.9730    -7.4170    -1.7980 C.ar  1 <1>  -0.1500 
 22 C       -0.5740    -8.8600     1.8090 C.ar  1 <1>   0.1600 
 23 N       -0.3450    -9.5490     0.7390 N.ar  1 <1>  -0.6200 
 24 C       -0.5720    -9.7830    -1.6010 C.ar  1 <1>  -0.1500 
 25 C       -1.7280    -8.1630    -2.9200 C.ar  1 <1>  -0.1500 
 26 C       -1.0170    -9.3600    -2.8230 C.ar  1 <1>  -0.1500 
 27 H       -0.0800    -1.6770     2.4990 H     1 <1>   0.0800 
 28 H        1.1180    -2.7170     1.7820 H     1 <1>   0.0800 
 29 H        2.5720    -0.1420    -2.6300 H     1 <1>   0.1000 
 30 H        3.4960     1.7240    -0.3490 H     1 <1>   0.1000 
 31 H        4.4410     1.3100    -1.8130 H     1 <1>   0.1000 
 32 H        2.5920     2.2830    -3.2710 H     1 <1>   0.1000 
 33 H        1.6570     2.6950    -1.8010 H     1 <1>   0.1000 
 34 H       -2.2880    -1.6000     1.4800 H     1 <1>   0.0800 
 35 H       -2.4280    -2.5220    -0.0020 H     1 <1>   0.0800 
 36 H       -0.1810    -5.0490     1.7860 H     1 <1>   0.0800 
 37 H       -0.7740    -4.0350     3.0900 H     1 <1>   0.0800 
 38 H       -4.0840    -3.6910     1.1930 H     1 <1>   0.0800 
 39 H       -2.6930    -5.4010     2.7450 H     1 <1>   0.0800 
 40 H       -2.6310    -2.8730     3.4660 H     1 <1>   0.4000 
 41 H       -2.0970    -5.1730    -0.2050 H     1 <1>   0.0800 
 42 H       -3.5110    -5.9460     0.4460 H     1 <1>   0.0800 
 43 H       -1.3740    -7.1720     2.7890 H     1 <1>   0.1500 
 44 H       -2.5270    -6.5050    -1.9030 H     1 <1>   0.1500 
 45 H       -0.2170    -9.2530     2.7460 H     1 <1>   0.1500 
 46 H       -0.0260   -10.7020    -1.5010 H     1 <1>   0.1500 
 47 H       -2.0790    -7.8400    -3.8850 H     1 <1>   0.1500 
 48 H       -0.8280    -9.9380    -3.7120 H     1 <1>   0.1500 
@<TRIPOS>BOND
  1   1   2  1   
  2   1   3  1   
  3   2   4  2   
  4   3   5  2   
  5   3   6  1   
  6   4   5  1   
  7   4   7  1   
  8   6   8  1   
  9   6  27  1   
 10   6  28  1   
 11   7   9  1   
 12   7  10  1   
 13   7  29  1   
 14   8  11  1   
 15   8  12  1   
 16   9  10  1   
 17   9  30  1   
 18   9  31  1   
 19  10  32  1   
 20  10  33  1   
 21  11  13  1   
 22  11  34  1   
 23  11  35  1   
 24  12  14  1   
 25  12  36  1   
 26  12  37  1   
 27  13  14  1   
 28  13  15  1   
 29  13  38  1   
 30  14  16  1   
 31  14  39  1   
 32  15  40  1   
 33  16  17  1   
 34  16  41  1   
 35  16  42  1   
 36  17  18  ar  
 37  17  19  ar  
 38  18  20  ar  
 39  18  21  ar  
 40  19  22  ar  
 41  19  43  1   
 42  20  23  ar  
 43  20  24  ar  
 44  21  25  ar  
 45  21  44  1   
 46  22  23  ar  
 47  22  45  1   
 48  24  26  ar  
 49  24  46  1   
 50  25  26  ar  
 51  25  47  1   
 52  26  48  1   
@<TRIPOS>SUBSTRUCTURE
  1 ****   8 GROUP 4 **** **** 0

# MOE 2024.06 (io_trps.svl 2023.06)
