@<TRIPOS>MOLECULE
NONAME
52 54 1 0 0 
SMALL
USER_CHARGES


@<TRIPOS>ATOM
  1 O       -2.1360     1.2430    -2.1240 O.2   1 <1>  -0.5700 
  2 C       -2.2310     1.0260    -0.9320 C.2   1 <1>   0.7800 
  3 O       -2.0590     2.0210    -0.0620 O.3   1 <1>  -0.4300 
  4 N       -2.5300    -0.2190    -0.4330 N.am  1 <1>  -0.6600 
  5 C       -1.7410     3.3220    -0.5040 C.3   1 <1>   0.1200 
  6 C       -2.6940    -0.4940     1.0150 C.3   1 <1>   0.1400 
  7 C       -2.6840    -1.3900    -1.3280 C.3   1 <1>   0.1400 
  8 C       -1.6100     4.2190     0.7220 C.3   1 <1>  -0.2400 
  9 C       -4.0950    -1.0650     1.2410 C.3   1 <1>  -0.1600 
 10 C       -4.0850    -1.9720    -1.1310 C.3   1 <1>  -0.1600 
 11 C       -4.3420    -2.2850     0.3490 C.3   1 <1>   0.4230 
 12 N       -5.7450    -2.7090     0.5350 N.4   1 <1>  -0.9060 
 13 C       -6.1050    -4.0440    -0.0180 C.3   1 <1>   0.4230 
 14 C       -7.6090    -4.2450     0.1550 C.3   1 <1>  -0.0800 
 15 C       -5.5690    -5.1200     0.9200 C.3   1 <1>   0.1200 
 16 C       -7.7190    -4.8310     1.5760 C.3   1 <1>   0.1200 
 17 C       -8.1840    -5.1990    -0.9110 C.3   1 <1>  -0.0160 
 18 O       -6.4060    -5.0060     2.0200 O.3   1 <1>  -0.5600 
 19 C       -9.6820    -5.3800    -0.7280 C.ar  1 <1>  -0.1440 
 20 C      -10.2190    -6.5200    -0.1620 C.ar  1 <1>  -0.1500 
 21 C      -10.5860    -4.4130    -1.1220 C.ar  1 <1>  -0.1500 
 22 C      -11.5920    -6.6280    -0.0100 C.ar  1 <1>   0.1600 
 23 C      -11.9420    -4.6220    -0.9260 C.ar  1 <1>   0.1600 
 24 N      -12.4630    -5.7040    -0.3740 N.ar  1 <1>  -0.6200 
 25 H       -0.8150     3.2780    -1.0520 H     1 <1>   0.0800 
 26 H       -2.5290     3.6660    -1.1530 H     1 <1>   0.0800 
 27 H       -1.9400    -1.1970     1.3290 H     1 <1>   0.0800 
 28 H       -2.5700     0.4040     1.5980 H     1 <1>   0.0800 
 29 H       -2.5500    -1.1040    -2.3590 H     1 <1>   0.0800 
 30 H       -1.9290    -2.1190    -1.0870 H     1 <1>   0.0800 
 31 H       -0.8270     3.8570     1.3640 H     1 <1>   0.0800 
 32 H       -2.5380     4.2470     1.2630 H     1 <1>   0.0800 
 33 H       -1.3640     5.2190     0.4140 H     1 <1>   0.0800 
 34 H       -4.8080    -0.2880     1.0270 H     1 <1>   0.0800 
 35 H       -4.1870    -1.3400     2.2770 H     1 <1>   0.0800 
 36 H       -4.1600    -2.8630    -1.7260 H     1 <1>   0.0800 
 37 H       -4.7970    -1.2520    -1.4950 H     1 <1>   0.0800 
 38 H       -3.6740    -3.0720     0.6610 H     1 <1>   0.0800 
 39 H       -6.3670    -1.9830     0.1650 H     1 <1>   0.4500 
 40 H       -5.9350    -2.7860     1.5460 H     1 <1>   0.4500 
 41 H       -5.7780    -4.1610    -1.0390 H     1 <1>   0.0800 
 42 H       -8.1450    -3.3140     0.0930 H     1 <1>   0.0800 
 43 H       -4.5480    -4.9710     1.2230 H     1 <1>   0.0800 
 44 H       -5.6850    -6.1070     0.5050 H     1 <1>   0.0800 
 45 H       -8.2090    -5.7910     1.5920 H     1 <1>   0.0800 
 46 H       -8.2250    -4.1650     2.2550 H     1 <1>   0.0800 
 47 H       -7.7010    -6.1610    -0.8630 H     1 <1>   0.0800 
 48 H       -8.0080    -4.7990    -1.8950 H     1 <1>   0.0800 
 49 H       -9.5920    -7.3300     0.1640 H     1 <1>   0.1500 
 50 H      -10.2600    -3.5000    -1.5840 H     1 <1>   0.1500 
 51 H      -11.9940    -7.5230     0.4350 H     1 <1>   0.1500 
 52 H      -12.6350    -3.8590    -1.2390 H     1 <1>   0.1500 
@<TRIPOS>BOND
  1   1   2  2   
  2   2   3  1   
  3   2   4  am  
  4   3   5  1   
  5   4   6  1   
  6   4   7  1   
  7   5   8  1   
  8   5  25  1   
  9   5  26  1   
 10   6   9  1   
 11   6  27  1   
 12   6  28  1   
 13   7  10  1   
 14   7  29  1   
 15   7  30  1   
 16   8  31  1   
 17   8  32  1   
 18   8  33  1   
 19   9  11  1   
 20   9  34  1   
 21   9  35  1   
 22  10  11  1   
 23  10  36  1   
 24  10  37  1   
 25  11  12  1   
 26  11  38  1   
 27  12  13  1   
 28  12  39  1   
 29  12  40  1   
 30  13  14  1   
 31  13  15  1   
 32  13  41  1   
 33  14  16  1   
 34  14  17  1   
 35  14  42  1   
 36  15  18  1   
 37  15  43  1   
 38  15  44  1   
 39  16  18  1   
 40  16  45  1   
 41  16  46  1   
 42  17  19  1   
 43  17  47  1   
 44  17  48  1   
 45  19  20  ar  
 46  19  21  ar  
 47  20  22  ar  
 48  20  49  1   
 49  21  23  ar  
 50  21  50  1   
 51  22  24  ar  
 52  22  51  1   
 53  23  24  ar  
 54  23  52  1   
@<TRIPOS>SUBSTRUCTURE
  1 ****  12 GROUP 4 **** **** 0

# MOE 2024.06 (io_trps.svl 2023.06)
