@<TRIPOS>MOLECULE
NONAME
46 48 1 0 0 
SMALL
USER_CHARGES


@<TRIPOS>ATOM
  1 S       -1.3170    -0.3460     1.7030 S.3   1 <1>  -0.0800 
  2 C       -1.6610    -0.8590     0.0570 C.2   1 <1>  -0.1400 
  3 C       -1.4700     1.3440     1.2600 C.2   1 <1>  -0.1100 
  4 C       -1.8690     0.2140    -0.7320 C.2   1 <1>  -0.1500 
  5 C       -1.6720    -2.3570    -0.2000 C.3   1 <1>   0.3800 
  6 C       -1.7600     1.4670    -0.0480 C.2   1 <1>  -0.1500 
  7 O       -1.6840    -2.5590    -1.5670 O.3   1 <1>  -0.6800 
  8 C       -2.9050    -3.0540     0.4230 C.3   1 <1>  -0.0800 
  9 C       -2.8780    -4.5800     0.1950 C.3   1 <1>  -0.1600 
 10 C       -4.2390    -2.4680    -0.0870 C.3   1 <1>  -0.1600 
 11 C       -4.1140    -5.2700     0.7670 C.3   1 <1>   0.3430 
 12 C       -5.4490    -3.1990     0.4880 C.3   1 <1>   0.3430 
 13 N       -5.3410    -4.6520     0.1880 N.4   1 <1>  -0.9590 
 14 C       -6.5910    -5.4220     0.5530 C.3   1 <1>   0.4040 
 15 C       -6.6600    -6.8230    -0.0820 C.2   1 <1>   0.5690 
 16 O       -5.9640    -7.0130    -1.0510 O.2   1 <1>  -0.5700 
 17 N       -7.4850    -7.7730     0.4650 N.am  1 <1>  -0.5470 
 18 C       -7.6970    -9.1130     0.0970 C.ar  1 <1>   0.1170 
 19 C       -6.7840    -9.8610    -0.6420 C.ar  1 <1>  -0.1500 
 20 C       -8.8740    -9.7310     0.5070 C.ar  1 <1>  -0.1500 
 21 C       -7.0430   -11.1810    -0.9640 C.ar  1 <1>  -0.1500 
 22 C       -9.1350   -11.0510     0.1890 C.ar  1 <1>  -0.1500 
 23 C       -8.2190   -11.7790    -0.5490 C.ar  1 <1>  -0.1500 
 24 H       -1.3230     2.0760     2.0340 H     1 <1>   0.1500 
 25 H       -2.1030     0.1870    -1.7830 H     1 <1>   0.1500 
 26 H       -0.7640    -2.7910     0.1830 H     1 <1>   0.0800 
 27 H       -1.9040     2.3960    -0.5710 H     1 <1>   0.1500 
 28 H       -0.9730    -2.0210    -1.9670 H     1 <1>   0.4000 
 29 H       -2.8560    -2.8840     1.4850 H     1 <1>   0.0800 
 30 H       -2.0010    -4.9970     0.6570 H     1 <1>   0.0800 
 31 H       -2.8180    -4.8000    -0.8580 H     1 <1>   0.0800 
 32 H       -4.2800    -2.5160    -1.1620 H     1 <1>   0.0800 
 33 H       -4.3080    -1.4290     0.1870 H     1 <1>   0.0800 
 34 H       -4.1210    -5.1690     1.8410 H     1 <1>   0.0800 
 35 H       -4.0770    -6.3200     0.5210 H     1 <1>   0.0800 
 36 H       -6.3480    -2.7940     0.0510 H     1 <1>   0.0800 
 37 H       -5.4880    -3.0460     1.5540 H     1 <1>   0.0800 
 38 H       -5.2370    -4.7660    -0.8360 H     1 <1>   0.4500 
 39 H       -7.4530    -4.8740     0.2160 H     1 <1>   0.0800 
 40 H       -6.6530    -5.5200     1.6230 H     1 <1>   0.0800 
 41 H       -8.0950    -7.4820     1.2280 H     1 <1>   0.3700 
 42 H       -5.8600    -9.4260    -0.9740 H     1 <1>   0.1500 
 43 H       -9.6010    -9.1840     1.0790 H     1 <1>   0.1500 
 44 H       -6.3280   -11.7450    -1.5380 H     1 <1>   0.1500 
 45 H      -10.0510   -11.5160     0.5120 H     1 <1>   0.1500 
 46 H       -8.4200   -12.8070    -0.8000 H     1 <1>   0.1500 
@<TRIPOS>BOND
  1   1   2  1   
  2   1   3  1   
  3   2   4  2   
  4   2   5  1   
  5   3   6  2   
  6   3  24  1   
  7   4   6  1   
  8   4  25  1   
  9   5   7  1   
 10   5   8  1   
 11   5  26  1   
 12   6  27  1   
 13   7  28  1   
 14   8   9  1   
 15   8  10  1   
 16   8  29  1   
 17   9  11  1   
 18   9  30  1   
 19   9  31  1   
 20  10  12  1   
 21  10  32  1   
 22  10  33  1   
 23  11  13  1   
 24  11  34  1   
 25  11  35  1   
 26  12  13  1   
 27  12  36  1   
 28  12  37  1   
 29  13  14  1   
 30  13  38  1   
 31  14  15  1   
 32  14  39  1   
 33  14  40  1   
 34  15  16  2   
 35  15  17  am  
 36  17  18  1   
 37  17  41  1   
 38  18  19  ar  
 39  18  20  ar  
 40  19  21  ar  
 41  19  42  1   
 42  20  22  ar  
 43  20  43  1   
 44  21  23  ar  
 45  21  44  1   
 46  22  23  ar  
 47  22  45  1   
 48  23  46  1   
@<TRIPOS>SUBSTRUCTURE
  1 ****  13 GROUP 4 **** **** 0

# MOE 2024.06 (io_trps.svl 2023.06)
