@<TRIPOS>MOLECULE
NONAME
46 48 1 0 0 
SMALL
USER_CHARGES


@<TRIPOS>ATOM
  1 F       -0.8650    -1.9600    -3.4550 F     1 <1>  -0.1900 
  2 C       -1.2850    -2.8060    -2.5480 C.ar  1 <1>   0.1900 
  3 C       -0.4240    -3.3590    -1.5930 C.ar  1 <1>   0.0830 
  4 C       -2.6290    -3.1230    -2.5800 C.ar  1 <1>  -0.1500 
  5 O        0.9140    -3.1240    -1.4600 O.3   1 <1>  -0.3630 
  6 C       -0.9660    -4.2430    -0.6750 C.ar  1 <1>  -0.1500 
  7 C       -3.1370    -4.0090    -1.6490 C.ar  1 <1>  -0.1500 
  8 C        1.6400    -2.2930    -2.3380 C.3   1 <1>   0.0400 
  9 C       -2.3190    -4.5920    -0.6790 C.ar  1 <1>   0.0530 
 10 C       -2.8450    -5.5220     0.2900 C.2   1 <1>   0.0870 
 11 O       -2.2800    -5.6630     1.4660 O.3   1 <1>  -0.0190 
 12 C       -3.9030    -6.3680     0.2690 C.2   1 <1>  -0.2330 
 13 N       -2.9000    -6.5300     2.2280 N.2   1 <1>  -0.4100 
 14 C       -3.8820    -6.9670     1.5260 C.2   1 <1>   0.3720 
 15 C       -4.8770    -6.6500    -0.7210 C.2   1 <1>   1.0330 
 16 N       -4.7990    -7.9060     2.0210 N.pl3 1 <1>  -0.8210 
 17 O       -5.9120    -5.9740    -0.8100 O.co2 1 <1>  -0.9000 
 18 O       -4.8900    -7.7290    -1.3380 O.co2 1 <1>  -0.9000 
 19 C       -4.8070    -9.2370     1.3240 C.3   1 <1>   0.2090 
 20 C       -6.1320    -7.3430     2.4180 C.3   1 <1>   0.2090 
 21 C       -6.1860    -9.6630     0.7610 C.3   1 <1>   0.3430 
 22 C       -7.2560    -7.4760     1.3570 C.3   1 <1>   0.3430 
 23 N       -6.9810    -8.4910     0.2890 N.4   1 <1>  -0.9590 
 24 C       -8.1390    -8.7910    -0.5870 C.3   1 <1>   0.3430 
 25 C       -7.6780    -8.9670    -2.0390 C.3   1 <1>   0.1200 
 26 O       -8.7320    -9.4840    -2.7800 O.3   1 <1>  -0.6800 
 27 H       -3.2680    -2.6830    -3.3240 H     1 <1>   0.1500 
 28 H       -0.3150    -4.6770     0.0620 H     1 <1>   0.1500 
 29 H       -4.1880    -4.2440    -1.6740 H     1 <1>   0.1500 
 30 H        2.6700    -2.3000    -2.0300 H     1 <1>   0.0800 
 31 H        1.2490    -1.2930    -2.2770 H     1 <1>   0.0800 
 32 H        1.5550    -2.6810    -3.3370 H     1 <1>   0.0800 
 33 H       -4.4640    -9.9890     2.0120 H     1 <1>   0.0800 
 34 H       -4.0990    -9.2180     0.5130 H     1 <1>   0.0800 
 35 H       -6.0170    -6.3010     2.6670 H     1 <1>   0.0800 
 36 H       -6.4480    -7.8410     3.3170 H     1 <1>   0.0800 
 37 H       -6.7330   -10.1790     1.5300 H     1 <1>   0.0800 
 38 H       -6.0250   -10.3480    -0.0540 H     1 <1>   0.0800 
 39 H       -7.3890    -6.5140     0.8870 H     1 <1>   0.0800 
 40 H       -8.1760    -7.7150     1.8620 H     1 <1>   0.0800 
 41 H       -6.3170    -7.9870    -0.3560 H     1 <1>   0.4500 
 42 H       -8.8370    -7.9710    -0.5580 H     1 <1>   0.0800 
 43 H       -8.6330    -9.6860    -0.2500 H     1 <1>   0.0800 
 44 H       -6.8520    -9.6540    -2.1060 H     1 <1>   0.0800 
 45 H       -7.3930    -8.0160    -2.4580 H     1 <1>   0.0800 
 46 H       -8.4960    -9.5090    -3.7300 H     1 <1>   0.4000 
@<TRIPOS>BOND
  1   1   2  1   
  2   2   3  ar  
  3   2   4  ar  
  4   3   5  1   
  5   3   6  ar  
  6   4   7  ar  
  7   4  27  1   
  8   5   8  1   
  9   6   9  ar  
 10   6  28  1   
 11   7   9  ar  
 12   7  29  1   
 13   8  30  1   
 14   8  31  1   
 15   8  32  1   
 16   9  10  1   
 17  10  11  1   
 18  10  12  2   
 19  11  13  1   
 20  12  14  1   
 21  12  15  1   
 22  13  14  2   
 23  14  16  1   
 24  15  17  ar  
 25  15  18  ar  
 26  16  19  1   
 27  16  20  1   
 28  19  21  1   
 29  19  33  1   
 30  19  34  1   
 31  20  22  1   
 32  20  35  1   
 33  20  36  1   
 34  21  23  1   
 35  21  37  1   
 36  21  38  1   
 37  22  23  1   
 38  22  39  1   
 39  22  40  1   
 40  23  24  1   
 41  23  41  1   
 42  24  25  1   
 43  24  42  1   
 44  24  43  1   
 45  25  26  1   
 46  25  44  1   
 47  25  45  1   
 48  26  46  1   
@<TRIPOS>SUBSTRUCTURE
  1 ****  12 GROUP 4 **** **** 0

# MOE 2024.06 (io_trps.svl 2023.06)
