@<TRIPOS>MOLECULE
NONAME
59 62 1 0 0 
SMALL
USER_CHARGES


@<TRIPOS>ATOM
  1 O        0.2990    -0.4170     2.6870 O.2   1 <1>  -0.5700 
  2 C        0.7170    -0.8840     1.6540 C.2   1 <1>   0.5690 
  3 N        1.3650    -0.1420     0.7230 N.am  1 <1>  -0.7300 
  4 C        0.5000    -2.3700     1.3610 C.3   1 <1>   0.1710 
  5 C        1.6330     1.3010     0.7810 C.3   1 <1>   0.2200 
  6 N        0.3790    -2.7040    -0.0930 N.3   1 <1>  -0.8100 
  7 C        0.7350     1.9780    -0.2610 C.3   1 <1>  -0.1600 
  8 C        3.1390     1.5100     0.5730 C.3   1 <1>  -0.1600 
  9 C       -0.8470    -2.1550    -0.7010 C.3   1 <1>   0.1100 
 10 C        0.2700    -4.1520    -0.2950 C.3   1 <1>   0.1100 
 11 C        0.9410     3.4950    -0.4120 C.3   1 <1>  -0.1600 
 12 C        3.5880     2.9350     0.9300 C.3   1 <1>  -0.1600 
 13 C       -1.9440    -3.2150    -0.5490 C.3   1 <1>   0.2000 
 14 C       -1.2150    -4.4960    -0.1380 C.3   1 <1>  -0.0800 
 15 C        2.2530     3.8400    -1.1310 C.3   1 <1>  -0.1600 
 16 C        3.4820     3.9540    -0.2160 C.3   1 <1>  -0.1600 
 17 O       -2.8300    -2.8530     0.4530 O.3   1 <1>  -0.6800 
 18 C       -1.6460    -5.7150    -0.9690 C.3   1 <1>  -0.0170 
 19 C       -0.9040    -6.9680    -0.5360 C.ar  1 <1>   0.1670 
 20 N        0.2340    -7.2190    -1.1070 N.ar  1 <1>  -0.6200 
 21 C       -1.4720    -7.7830     0.4580 C.ar  1 <1>  -0.1500 
 22 C        0.9080    -8.3300    -0.7150 C.ar  1 <1>   0.3100 
 23 C       -0.8190    -8.9050     0.8680 C.ar  1 <1>  -0.1500 
 24 C        0.4180    -9.2090     0.2760 C.ar  1 <1>   0.0000 
 25 C        2.1440    -8.6210    -1.3140 C.ar  1 <1>  -0.1500 
 26 C        1.1810   -10.3400     0.6270 C.ar  1 <1>  -0.1500 
 27 C        2.8710    -9.7260    -0.9590 C.ar  1 <1>  -0.1500 
 28 C        2.3830   -10.5950     0.0230 C.ar  1 <1>  -0.1500 
 29 H        1.6110    -0.6230    -0.1460 H     1 <1>   0.3700 
 30 H       -0.3740    -2.6960     1.8940 H     1 <1>   0.0800 
 31 H        1.3450    -2.8970     1.7680 H     1 <1>   0.0800 
 32 H        1.3630     1.6630     1.7600 H     1 <1>   0.0800 
 33 H        0.8770     1.5070    -1.2180 H     1 <1>   0.0800 
 34 H       -0.2850     1.8110     0.0360 H     1 <1>   0.0800 
 35 H        3.6530     0.8370     1.2380 H     1 <1>   0.0800 
 36 H        3.4250     1.2640    -0.4340 H     1 <1>   0.0800 
 37 H       -1.1320    -1.2060    -0.2800 H     1 <1>   0.0800 
 38 H       -0.6570    -2.0140    -1.7510 H     1 <1>   0.0800 
 39 H        0.5930    -4.3810    -1.2980 H     1 <1>   0.0800 
 40 H        0.8890    -4.7070     0.3910 H     1 <1>   0.0800 
 41 H        0.1280     3.8730    -1.0100 H     1 <1>   0.0800 
 42 H        0.8870     3.9860     0.5440 H     1 <1>   0.0800 
 43 H        3.0190     3.2860     1.7740 H     1 <1>   0.0800 
 44 H        4.6170     2.9040     1.2460 H     1 <1>   0.0800 
 45 H       -2.5010    -3.3240    -1.4630 H     1 <1>   0.0800 
 46 H       -1.3950    -4.7080     0.9010 H     1 <1>   0.0800 
 47 H        2.4440     3.1090    -1.8980 H     1 <1>   0.0800 
 48 H        2.1310     4.7850    -1.6330 H     1 <1>   0.0800 
 49 H        3.4980     4.9390     0.2180 H     1 <1>   0.0800 
 50 H        4.3600     3.8710    -0.8330 H     1 <1>   0.0800 
 51 H       -2.3350    -2.5700     1.2460 H     1 <1>   0.4000 
 52 H       -1.4520    -5.5360    -2.0120 H     1 <1>   0.0800 
 53 H       -2.7050    -5.8680    -0.8570 H     1 <1>   0.0800 
 54 H       -2.4190    -7.5080     0.8840 H     1 <1>   0.1500 
 55 H       -1.2220    -9.5540     1.6250 H     1 <1>   0.1500 
 56 H        2.5000    -7.9420    -2.0660 H     1 <1>   0.1500 
 57 H        0.8000   -11.0050     1.3820 H     1 <1>   0.1500 
 58 H        3.8180    -9.9380    -1.4260 H     1 <1>   0.1500 
 59 H        2.9650   -11.4600     0.2920 H     1 <1>   0.1500 
@<TRIPOS>BOND
  1   1   2  2   
  2   2   3  am  
  3   2   4  1   
  4   3   5  1   
  5   3  29  1   
  6   4   6  1   
  7   4  30  1   
  8   4  31  1   
  9   5   7  1   
 10   5   8  1   
 11   5  32  1   
 12   6   9  1   
 13   6  10  1   
 14   7  11  1   
 15   7  33  1   
 16   7  34  1   
 17   8  12  1   
 18   8  35  1   
 19   8  36  1   
 20   9  13  1   
 21   9  37  1   
 22   9  38  1   
 23  10  14  1   
 24  10  39  1   
 25  10  40  1   
 26  11  15  1   
 27  11  41  1   
 28  11  42  1   
 29  12  16  1   
 30  12  43  1   
 31  12  44  1   
 32  13  14  1   
 33  13  17  1   
 34  13  45  1   
 35  14  18  1   
 36  14  46  1   
 37  15  16  1   
 38  15  47  1   
 39  15  48  1   
 40  16  49  1   
 41  16  50  1   
 42  17  51  1   
 43  18  19  1   
 44  18  52  1   
 45  18  53  1   
 46  19  20  ar  
 47  19  21  ar  
 48  20  22  ar  
 49  21  23  ar  
 50  21  54  1   
 51  22  24  ar  
 52  22  25  ar  
 53  23  24  ar  
 54  23  55  1   
 55  24  26  ar  
 56  25  27  ar  
 57  25  56  1   
 58  26  28  ar  
 59  26  57  1   
 60  27  28  ar  
 61  27  58  1   
 62  28  59  1   
@<TRIPOS>SUBSTRUCTURE
  1 ****  10 GROUP 4 **** **** 0

# MOE 2024.06 (io_trps.svl 2023.06)
