@<TRIPOS>MOLECULE
NONAME
45 46 1 0 0 
SMALL
USER_CHARGES


@<TRIPOS>ATOM
  1 F        1.0330     0.8300     0.6720 F     1 <1>  -0.3400 
  2 C        1.1370     1.9970     0.0430 C.3   1 <1>   1.1640 
  3 F        2.0470     2.6770     0.7310 F     1 <1>  -0.3400 
  4 F        1.6790     1.7040    -1.1360 F     1 <1>  -0.3400 
  5 C       -0.2100     2.7070    -0.0560 C.ar  1 <1>  -0.1440 
  6 C       -0.2930     3.9280    -0.7250 C.ar  1 <1>   0.4100 
  7 C       -1.3590     2.1710     0.5020 C.ar  1 <1>  -0.1500 
  8 N       -1.4250     4.6090    -0.8680 N.ar  1 <1>  -0.6200 
  9 N        0.8150     4.5100    -1.3090 N.pl3 1 <1>  -0.8380 
 10 C       -2.5310     2.8810     0.3560 C.ar  1 <1>  -0.1500 
 11 C       -2.5070     4.0780    -0.3310 C.ar  1 <1>   0.1600 
 12 C        1.1690     5.8970    -0.8840 C.3   1 <1>   0.2090 
 13 C        0.9280     4.3110    -2.7800 C.3   1 <1>   0.1290 
 14 C        2.2410     5.8670     0.2150 C.3   1 <1>  -0.0800 
 15 C        2.5650     7.3020     0.6510 C.3   1 <1>   0.1400 
 16 C        3.5800     5.3230    -0.3090 C.3   1 <1>  -0.0990 
 17 N        3.7470     7.6750    -0.1610 N.am  1 <1>  -0.6600 
 18 C        4.3250     6.5680    -0.7020 C.2   1 <1>   0.5690 
 19 C        4.2730     9.0690    -0.2360 C.3   1 <1>   0.3000 
 20 O        5.3020     6.5220    -1.4090 O.2   1 <1>  -0.5700 
 21 C        3.3790    10.0490     0.5360 C.3   1 <1>  -0.2400 
 22 C        4.3130     9.5070    -1.7030 C.3   1 <1>  -0.2400 
 23 C        5.6750     9.1090     0.3780 C.3   1 <1>  -0.2400 
 24 H       -1.3610     1.2330     1.0340 H     1 <1>   0.1500 
 25 H       -3.4520     2.5110     0.7680 H     1 <1>   0.1500 
 26 H       -3.4260     4.6290    -0.4440 H     1 <1>   0.1500 
 27 H        0.2920     6.4010    -0.5120 H     1 <1>   0.0800 
 28 H        1.5330     6.4620    -1.7260 H     1 <1>   0.0800 
 29 H        0.5930     3.3240    -3.0480 H     1 <1>   0.0800 
 30 H        1.9530     4.4230    -3.0890 H     1 <1>   0.0800 
 31 H        0.3190     5.0340    -3.2950 H     1 <1>   0.0800 
 32 H        1.8710     5.2990     1.0500 H     1 <1>   0.0800 
 33 H        2.8310     7.3290     1.6940 H     1 <1>   0.0800 
 34 H        1.7330     7.9610     0.4700 H     1 <1>   0.0800 
 35 H        3.4730     4.6560    -1.1430 H     1 <1>   0.0800 
 36 H        4.1240     4.8310     0.4750 H     1 <1>   0.0800 
 37 H        2.3920    10.0820     0.1130 H     1 <1>   0.0800 
 38 H        3.7890    11.0410     0.4780 H     1 <1>   0.0800 
 39 H        3.3220     9.7810     1.5750 H     1 <1>   0.0800 
 40 H        3.3360     9.4270    -2.1430 H     1 <1>   0.0800 
 41 H        4.9990     8.9010    -2.2650 H     1 <1>   0.0800 
 42 H        4.6410    10.5270    -1.7780 H     1 <1>   0.0800 
 43 H        5.6480     8.7530     1.3920 H     1 <1>   0.0800 
 44 H        6.0540    10.1150     0.3790 H     1 <1>   0.0800 
 45 H        6.3590     8.5030    -0.1860 H     1 <1>   0.0800 
@<TRIPOS>BOND
  1   1   2  1   
  2   2   3  1   
  3   2   4  1   
  4   2   5  1   
  5   5   6  ar  
  6   5   7  ar  
  7   6   8  ar  
  8   6   9  1   
  9   7  10  ar  
 10   7  24  1   
 11   8  11  ar  
 12   9  12  1   
 13   9  13  1   
 14  10  11  ar  
 15  10  25  1   
 16  11  26  1   
 17  12  14  1   
 18  12  27  1   
 19  12  28  1   
 20  13  29  1   
 21  13  30  1   
 22  13  31  1   
 23  14  15  1   
 24  14  16  1   
 25  14  32  1   
 26  15  17  1   
 27  15  33  1   
 28  15  34  1   
 29  16  18  1   
 30  16  35  1   
 31  16  36  1   
 32  17  18  am  
 33  17  19  1   
 34  18  20  2   
 35  19  21  1   
 36  19  22  1   
 37  19  23  1   
 38  21  37  1   
 39  21  38  1   
 40  21  39  1   
 41  22  40  1   
 42  22  41  1   
 43  22  42  1   
 44  23  43  1   
 45  23  44  1   
 46  23  45  1   
@<TRIPOS>SUBSTRUCTURE
  1 ****  14 GROUP 4 **** **** 0

# MOE 2024.06 (io_trps.svl 2023.06)
