@<TRIPOS>MOLECULE
NONAME
44 46 1 0 0 
SMALL
USER_CHARGES


@<TRIPOS>ATOM
  1 CL       0.3110    -0.2140    -1.0310 Cl    1 <1>  -0.1770 
  2 C       -0.0400    -1.8470    -0.5370 C.ar  1 <1>   0.1770 
  3 C       -0.2920    -2.8070    -1.4960 C.ar  1 <1>  -0.1500 
  4 C       -0.0640    -2.1590     0.8130 C.ar  1 <1>  -0.1500 
  5 C       -0.5710    -4.0910    -1.0700 C.ar  1 <1>   0.1900 
  6 C       -0.3450    -3.4550     1.2120 C.ar  1 <1>  -0.1500 
  7 F       -0.8220    -4.9910    -1.9810 F     1 <1>  -0.1900 
  8 C       -0.6060    -4.4570     0.2750 C.ar  1 <1>   0.0860 
  9 C       -0.9020    -5.8090     0.6820 C.2   1 <1>   0.5440 
 10 O       -0.0030    -6.6260     0.7450 O.2   1 <1>  -0.5700 
 11 N       -2.1830    -6.2080     0.9950 N.am  1 <1>  -0.6600 
 12 C       -2.4740    -7.6140     1.4000 C.3   1 <1>   0.1400 
 13 C       -3.4040    -5.4660     0.5700 C.3   1 <1>   0.1400 
 14 C       -3.0240    -8.3670     0.1670 C.3   1 <1>   0.4230 
 15 C       -4.0230    -6.1990    -0.6310 C.3   1 <1>  -0.1600 
 16 N       -3.2400    -9.8380     0.3790 N.4   1 <1>  -0.9590 
 17 C       -4.3290    -7.6940    -0.3170 C.3   1 <1>  -0.1060 
 18 C       -3.6430   -10.5230    -0.8750 C.3   1 <1>   0.3430 
 19 C       -2.1350   -10.5430     1.0820 C.3   1 <1>   0.2630 
 20 C       -5.3850    -7.8120     0.8000 C.2   1 <1>   0.9060 
 21 C       -4.8180    -8.3840    -1.6130 C.3   1 <1>  -0.1600 
 22 C       -4.9280    -9.9070    -1.4330 C.3   1 <1>  -0.1600 
 23 O       -5.3820    -8.8200     1.5250 O.co2 1 <1>  -0.9000 
 24 O       -6.1940    -6.9010     0.9680 O.co2 1 <1>  -0.9000 
 25 H       -0.2730    -2.5610    -2.5420 H     1 <1>   0.1500 
 26 H        0.1380    -1.3900     1.5380 H     1 <1>   0.1500 
 27 H       -0.3630    -3.7050     2.2600 H     1 <1>   0.1500 
 28 H       -1.5730    -8.0770     1.7580 H     1 <1>   0.0800 
 29 H       -3.1900    -7.6110     2.2040 H     1 <1>   0.0800 
 30 H       -4.1070    -5.4340     1.3880 H     1 <1>   0.0800 
 31 H       -3.1720    -4.4510     0.3000 H     1 <1>   0.0800 
 32 H       -2.2860    -8.2530    -0.6090 H     1 <1>   0.0800 
 33 H       -4.9350    -5.6960    -0.9070 H     1 <1>   0.0800 
 34 H       -3.3490    -6.1200    -1.4660 H     1 <1>   0.0800 
 35 H       -4.0970    -9.8230     0.9950 H     1 <1>   0.4500 
 36 H       -2.8540   -10.4330    -1.6040 H     1 <1>   0.0800 
 37 H       -3.8110   -11.5690    -0.6800 H     1 <1>   0.0800 
 38 H       -1.2200   -10.4580     0.5200 H     1 <1>   0.0800 
 39 H       -2.3800   -11.5850     1.2030 H     1 <1>   0.0800 
 40 H       -1.9860   -10.1160     2.0600 H     1 <1>   0.0800 
 41 H       -5.7810    -7.9850    -1.8870 H     1 <1>   0.0800 
 42 H       -4.1340    -8.1760    -2.4170 H     1 <1>   0.0800 
 43 H       -5.1560   -10.3620    -2.3810 H     1 <1>   0.0800 
 44 H       -5.7430   -10.1360    -0.7680 H     1 <1>   0.0800 
@<TRIPOS>BOND
  1   1   2  1   
  2   2   3  ar  
  3   2   4  ar  
  4   3   5  ar  
  5   3  25  1   
  6   4   6  ar  
  7   4  26  1   
  8   5   7  1   
  9   5   8  ar  
 10   6   8  ar  
 11   6  27  1   
 12   8   9  1   
 13   9  10  2   
 14   9  11  am  
 15  11  12  1   
 16  11  13  1   
 17  12  14  1   
 18  12  28  1   
 19  12  29  1   
 20  13  15  1   
 21  13  30  1   
 22  13  31  1   
 23  14  16  1   
 24  14  17  1   
 25  14  32  1   
 26  15  17  1   
 27  15  33  1   
 28  15  34  1   
 29  16  18  1   
 30  16  19  1   
 31  16  35  1   
 32  17  20  1   
 33  17  21  1   
 34  18  22  1   
 35  18  36  1   
 36  18  37  1   
 37  19  38  1   
 38  19  39  1   
 39  19  40  1   
 40  20  23  ar  
 41  20  24  ar  
 42  21  22  1   
 43  21  41  1   
 44  21  42  1   
 45  22  43  1   
 46  22  44  1   
@<TRIPOS>SUBSTRUCTURE
  1 ****  11 GROUP 4 **** **** 0

# MOE 2024.06 (io_trps.svl 2023.06)
