@<TRIPOS>MOLECULE
NONAME
61 64 1 0 0 
SMALL
USER_CHARGES


@<TRIPOS>ATOM
  1 O       -3.7630    -1.3000    -1.2430 O.3   1 <1>  -0.6800 
  2 C       -3.9510    -2.6550    -1.0410 C.3   1 <1>   0.2000 
  3 C       -2.7200    -3.2490    -0.3280 C.3   1 <1>   0.2090 
  4 C       -4.1800    -3.2960    -2.4150 C.3   1 <1>  -0.1600 
  5 N       -2.8110    -4.7480    -0.2800 N.pl3 1 <1>  -0.8380 
  6 C       -4.2010    -4.8310    -2.3130 C.3   1 <1>  -0.1600 
  7 C       -2.6070    -5.4760     0.8400 C.ar  1 <1>   0.4100 
  8 C       -2.9340    -5.3580    -1.6320 C.3   1 <1>   0.2090 
  9 N       -3.4130    -6.5010     1.0550 N.ar  1 <1>  -0.6200 
 10 C       -1.5770    -5.1340     1.7370 C.ar  1 <1>  -0.1500 
 11 C       -3.2360    -7.1720     2.1820 C.ar  1 <1>   0.7710 
 12 C       -1.4060    -5.8680     2.8620 C.ar  1 <1>   0.2110 
 13 N       -2.2640    -6.8980     3.0710 N.ar  1 <1>  -0.1790 
 14 N       -4.1310    -8.1450     2.4590 N.pl3 1 <1>  -0.8380 
 15 C       -4.5620    -9.1250     1.3910 C.3   1 <1>   0.2090 
 16 C       -5.2550    -7.8560     3.4120 C.3   1 <1>   0.2090 
 17 C       -5.8440    -8.6840     0.5730 C.3   1 <1>   0.5030 
 18 C       -6.5400    -7.4130     2.6590 C.3   1 <1>   0.3430 
 19 N       -6.3740    -7.3820     1.1490 N.4   1 <1>  -0.9590 
 20 C       -6.9320    -9.7920     0.6420 C.3   1 <1>  -0.1600 
 21 C       -5.4330    -8.4270    -0.8990 C.3   1 <1>  -0.1600 
 22 C       -7.5960    -6.7630     0.5280 C.3   1 <1>   0.2630 
 23 C       -7.6490   -10.0220    -0.6900 C.3   1 <1>   0.3430 
 24 C       -5.3400    -9.7250    -1.7060 C.3   1 <1>   0.3430 
 25 N       -6.6600   -10.4340    -1.7340 N.4   1 <1>  -0.9590 
 26 C       -7.2820   -10.3420    -3.0980 C.3   1 <1>   0.2630 
 27 H       -3.8630    -0.7930    -0.4140 H     1 <1>   0.4000 
 28 H       -4.8250    -2.7800    -0.4260 H     1 <1>   0.0800 
 29 H       -2.6640    -2.8470     0.6680 H     1 <1>   0.0800 
 30 H       -1.8320    -2.9700    -0.8690 H     1 <1>   0.0800 
 31 H       -3.3840    -3.0010    -3.0780 H     1 <1>   0.0800 
 32 H       -5.1100    -2.9430    -2.8260 H     1 <1>   0.0800 
 33 H       -4.2720    -5.2480    -3.3030 H     1 <1>   0.0800 
 34 H       -5.0630    -5.1470    -1.7540 H     1 <1>   0.0800 
 35 H       -2.9570    -6.4300    -1.5640 H     1 <1>   0.0800 
 36 H       -2.0720    -5.0860    -2.2200 H     1 <1>   0.0800 
 37 H       -0.9340    -4.3060     1.4990 H     1 <1>   0.1500 
 38 H       -0.6270    -5.6690     3.5830 H     1 <1>   0.1500 
 39 H       -2.1930    -7.5180     3.8760 H     1 <1>   0.4570 
 40 H       -4.7340   -10.0730     1.8730 H     1 <1>   0.0800 
 41 H       -3.7360    -9.2910     0.7200 H     1 <1>   0.0800 
 42 H       -4.9750    -7.0790     4.1050 H     1 <1>   0.0800 
 43 H       -5.4710    -8.7370     3.9950 H     1 <1>   0.0800 
 44 H       -6.8150    -6.4310     3.0100 H     1 <1>   0.0800 
 45 H       -7.3450    -8.0760     2.9290 H     1 <1>   0.0800 
 46 H       -5.5810    -6.7250     0.9950 H     1 <1>   0.4500 
 47 H       -7.6630    -9.5710     1.3970 H     1 <1>   0.0800 
 48 H       -6.4980   -10.7370     0.9140 H     1 <1>   0.0800 
 49 H       -4.4770    -7.9410    -0.9350 H     1 <1>   0.0800 
 50 H       -6.1240    -7.7860    -1.4110 H     1 <1>   0.0800 
 51 H       -8.4500    -7.4100     0.6420 H     1 <1>   0.0800 
 52 H       -7.4420    -6.5680    -0.5200 H     1 <1>   0.0800 
 53 H       -7.8190    -5.8220     1.0070 H     1 <1>   0.0800 
 54 H       -8.1410    -9.1120    -0.9950 H     1 <1>   0.0800 
 55 H       -8.4030   -10.7860    -0.5770 H     1 <1>   0.0800 
 56 H       -4.5970   -10.3690    -1.2630 H     1 <1>   0.0800 
 57 H       -5.0170    -9.5060    -2.7130 H     1 <1>   0.0800 
 58 H       -6.4650   -11.4420    -1.5940 H     1 <1>   0.4500 
 59 H       -7.5130    -9.3180    -3.3420 H     1 <1>   0.0800 
 60 H       -8.1930   -10.9190    -3.1370 H     1 <1>   0.0800 
 61 H       -6.6070   -10.7280    -3.8460 H     1 <1>   0.0800 
@<TRIPOS>BOND
  1   1   2  1   
  2   1  27  1   
  3   2   3  1   
  4   2   4  1   
  5   2  28  1   
  6   3   5  1   
  7   3  29  1   
  8   3  30  1   
  9   4   6  1   
 10   4  31  1   
 11   4  32  1   
 12   5   7  1   
 13   5   8  1   
 14   6   8  1   
 15   6  33  1   
 16   6  34  1   
 17   7   9  ar  
 18   7  10  ar  
 19   8  35  1   
 20   8  36  1   
 21   9  11  ar  
 22  10  12  ar  
 23  10  37  1   
 24  11  13  ar  
 25  11  14  1   
 26  12  13  ar  
 27  12  38  1   
 28  13  39  1   
 29  14  15  1   
 30  14  16  1   
 31  15  17  1   
 32  15  40  1   
 33  15  41  1   
 34  16  18  1   
 35  16  42  1   
 36  16  43  1   
 37  17  19  1   
 38  17  20  1   
 39  17  21  1   
 40  18  19  1   
 41  18  44  1   
 42  18  45  1   
 43  19  22  1   
 44  19  46  1   
 45  20  23  1   
 46  20  47  1   
 47  20  48  1   
 48  21  24  1   
 49  21  49  1   
 50  21  50  1   
 51  22  51  1   
 52  22  52  1   
 53  22  53  1   
 54  23  25  1   
 55  23  54  1   
 56  23  55  1   
 57  24  25  1   
 58  24  56  1   
 59  24  57  1   
 60  25  26  1   
 61  25  58  1   
 62  26  59  1   
 63  26  60  1   
 64  26  61  1   
@<TRIPOS>SUBSTRUCTURE
  1 ****   9 GROUP 4 **** **** 0

# MOE 2024.06 (io_trps.svl 2023.06)
