@<TRIPOS>MOLECULE
NONAME
50 53 1 0 0 
SMALL
USER_CHARGES


@<TRIPOS>ATOM
  1 F       -0.3960     1.4950     0.6250 F     1 <1>  -0.1900 
  2 C       -1.7000     1.4290     0.5470 C.ar  1 <1>   0.1900 
  3 C       -2.4630     2.4540    -0.0240 C.ar  1 <1>   0.0830 
  4 C       -2.2900     0.2900     1.0620 C.ar  1 <1>  -0.1500 
  5 O       -2.0020     3.6190    -0.5630 O.3   1 <1>  -0.3630 
  6 C       -3.8380     2.2890    -0.0560 C.ar  1 <1>  -0.1500 
  7 C       -3.6650     0.1590     1.0140 C.ar  1 <1>  -0.1500 
  8 C       -0.6300     3.9330    -0.6550 C.3   1 <1>   0.0400 
  9 C       -4.4690     1.1520     0.4510 C.ar  1 <1>   0.0530 
 10 C       -5.9050     1.0300     0.4010 C.2   1 <1>   0.0870 
 11 O       -6.6460     2.0860     0.6240 O.3   1 <1>  -0.0190 
 12 C       -6.7560    -0.0070     0.1680 C.2   1 <1>  -0.0860 
 13 N       -7.9260     1.8380     0.5650 N.2   1 <1>  -0.4100 
 14 C       -8.0240     0.5850     0.2890 C.2   1 <1>   0.3720 
 15 C       -6.5040    -1.3800    -0.1500 C.2   1 <1>   0.7160 
 16 N       -9.2600    -0.0700     0.1200 N.pl3 1 <1>  -0.8210 
 17 O       -5.4230    -1.7710    -0.5440 O.2   1 <1>  -0.5700 
 18 N       -7.5060    -2.2830    -0.0310 N.am  1 <1>  -0.7300 
 19 C      -10.3700     0.4760     0.9540 C.3   1 <1>   0.1290 
 20 C       -9.6740    -0.1760    -1.3130 C.3   1 <1>   0.1290 
 21 C       -7.6350    -3.4790    -0.8780 C.3   1 <1>   0.3200 
 22 C       -9.0880    -3.5880    -1.2920 C.2   1 <1>   0.0070 
 23 N       -9.5460    -3.4200    -2.4890 N.2   1 <1>  -0.3380 
 24 N      -10.0790    -3.8310    -0.4360 N.pl3 1 <1>   0.0480 
 25 N      -10.8780    -3.5500    -2.4240 N.2   1 <1>  -0.3380 
 26 C      -11.1510    -3.7910    -1.1910 C.2   1 <1>   0.0060 
 27 C      -10.3620    -4.0680     0.9800 C.3   1 <1>   0.0960 
 28 C      -12.4150    -4.0260    -0.4130 C.3   1 <1>   0.0200 
 29 C      -11.9050    -4.0190     1.0460 C.3   1 <1>  -0.1600 
 30 H       -1.6780    -0.4820     1.4940 H     1 <1>   0.1500 
 31 H       -4.4350     3.0700    -0.4920 H     1 <1>   0.1500 
 32 H       -4.1220    -0.7270     1.4180 H     1 <1>   0.1500 
 33 H       -0.5380     4.8890    -1.1380 H     1 <1>   0.0800 
 34 H       -0.1360     3.1800    -1.2430 H     1 <1>   0.0800 
 35 H       -0.2140     3.9850     0.3350 H     1 <1>   0.0800 
 36 H       -8.4120    -1.8210     0.1410 H     1 <1>   0.3700 
 37 H      -10.0420     0.5810     1.9740 H     1 <1>   0.0800 
 38 H      -11.2130    -0.1910     0.9260 H     1 <1>   0.0800 
 39 H      -10.6700     1.4430     0.5860 H     1 <1>   0.0800 
 40 H       -8.8690    -0.5710    -1.9090 H     1 <1>   0.0800 
 41 H       -9.9400     0.7950    -1.6950 H     1 <1>   0.0800 
 42 H      -10.5190    -0.8360    -1.4090 H     1 <1>   0.0800 
 43 H       -7.3330    -4.3520    -0.3280 H     1 <1>   0.0800 
 44 H       -7.0130    -3.3860    -1.7540 H     1 <1>   0.0800 
 45 H       -9.9090    -3.3000     1.5820 H     1 <1>   0.0800 
 46 H       -9.9870    -5.0370     1.2570 H     1 <1>   0.0800 
 47 H      -12.8300    -4.9820    -0.6800 H     1 <1>   0.0800 
 48 H      -13.1330    -3.2470    -0.5970 H     1 <1>   0.0800 
 49 H      -12.2090    -3.1080     1.5300 H     1 <1>   0.0800 
 50 H      -12.2970    -4.8510     1.6050 H     1 <1>   0.0800 
@<TRIPOS>BOND
  1   1   2  1   
  2   2   3  ar  
  3   2   4  ar  
  4   3   5  1   
  5   3   6  ar  
  6   4   7  ar  
  7   4  30  1   
  8   5   8  1   
  9   6   9  ar  
 10   6  31  1   
 11   7   9  ar  
 12   7  32  1   
 13   8  33  1   
 14   8  34  1   
 15   8  35  1   
 16   9  10  1   
 17  10  11  1   
 18  10  12  2   
 19  11  13  1   
 20  12  14  1   
 21  12  15  1   
 22  13  14  2   
 23  14  16  1   
 24  15  17  2   
 25  15  18  am  
 26  16  19  1   
 27  16  20  1   
 28  18  21  1   
 29  18  36  1   
 30  19  37  1   
 31  19  38  1   
 32  19  39  1   
 33  20  40  1   
 34  20  41  1   
 35  20  42  1   
 36  21  22  1   
 37  21  43  1   
 38  21  44  1   
 39  22  23  2   
 40  22  24  1   
 41  23  25  1   
 42  24  26  1   
 43  24  27  1   
 44  25  26  2   
 45  26  28  1   
 46  27  29  1   
 47  27  45  1   
 48  27  46  1   
 49  28  29  1   
 50  28  47  1   
 51  28  48  1   
 52  29  49  1   
 53  29  50  1   
@<TRIPOS>SUBSTRUCTURE
  1 ****  12 GROUP 4 **** **** 0

# MOE 2024.06 (io_trps.svl 2023.06)
