@<TRIPOS>MOLECULE
NONAME
56 58 1 0 0 
SMALL
USER_CHARGES


@<TRIPOS>ATOM
  1 O        1.3300     1.4050    -0.7180 O.3   1 <1>  -0.0190 
  2 N        2.3580     0.6110    -0.7140 N.2   1 <1>  -0.4100 
  3 C        1.1840     2.0150     0.4280 C.2   1 <1>  -0.0400 
  4 C        2.8680     0.6890     0.4620 C.2   1 <1>   0.1080 
  5 C        2.1540     1.5880     1.2500 C.2   1 <1>  -0.1500 
  6 C        0.0650     3.0240     0.6070 C.3   1 <1>   0.0200 
  7 C        4.0790    -0.0960     0.9170 C.3   1 <1>  -0.0590 
  8 C       -0.0060     3.9630    -0.6150 C.3   1 <1>  -0.0800 
  9 C       -0.9140     5.1840    -0.4970 C.3   1 <1>   0.2000 
 10 C        1.3580     4.5330    -1.0260 C.3   1 <1>   0.3430 
 11 O       -0.7080     5.8210     0.7270 O.3   1 <1>  -0.6800 
 12 C       -0.3650     6.0830    -1.6050 C.3   1 <1>   0.3430 
 13 N        1.1340     5.9220    -1.5670 N.4   1 <1>  -0.9590 
 14 C        1.8070     6.9290    -0.6500 C.3   1 <1>   0.3430 
 15 C        2.1310     8.3590    -1.2250 C.3   1 <1>   0.5030 
 16 N        2.8370     9.2340    -0.2220 N.4   1 <1>  -0.9590 
 17 C        0.8590     9.1050    -1.6590 C.3   1 <1>  -0.2400 
 18 C        3.0310     8.2340    -2.4640 C.3   1 <1>  -0.2400 
 19 C        4.2220     8.7860     0.1600 C.3   1 <1>   0.3430 
 20 C        2.0320     9.5460     1.0120 C.3   1 <1>   0.3430 
 21 C        4.9340     9.8880     0.9440 C.3   1 <1>  -0.1600 
 22 C        2.7050    10.6620     1.8120 C.3   1 <1>  -0.1600 
 23 C        4.1450    10.3020     2.1910 C.3   1 <1>  -0.1600 
 24 H        2.3690     1.8450     2.2710 H     1 <1>   0.1500 
 25 H       -0.8670     2.4960     0.7130 H     1 <1>   0.0800 
 26 H        0.2470     3.5700     1.5150 H     1 <1>   0.0800 
 27 H        4.8450     0.5730     1.2620 H     1 <1>   0.0800 
 28 H        4.4680    -0.6790     0.1010 H     1 <1>   0.0800 
 29 H        3.8040    -0.7610     1.7150 H     1 <1>   0.0800 
 30 H       -0.3570     3.3770    -1.4480 H     1 <1>   0.0800 
 31 H       -1.9630     4.9660    -0.6150 H     1 <1>   0.0800 
 32 H        1.8140     3.8920    -1.7670 H     1 <1>   0.0800 
 33 H        2.0040     4.5660    -0.1640 H     1 <1>   0.0800 
 34 H       -1.2930     5.4380     1.4190 H     1 <1>   0.4000 
 35 H       -0.6830     7.1010    -1.4620 H     1 <1>   0.0800 
 36 H       -0.7390     5.7290    -2.5520 H     1 <1>   0.0800 
 37 H        1.5210     5.9650    -2.5220 H     1 <1>   0.4500 
 38 H        1.1990     7.0500     0.2300 H     1 <1>   0.0800 
 39 H        2.7450     6.5060    -0.3320 H     1 <1>   0.0800 
 40 H        2.9700    10.1410    -0.6900 H     1 <1>   0.4500 
 41 H        0.4290     8.6450    -2.5310 H     1 <1>   0.0800 
 42 H        1.0820    10.1250    -1.9220 H     1 <1>   0.0800 
 43 H        0.1090     9.0970    -0.8900 H     1 <1>   0.0800 
 44 H        2.4920     7.7860    -3.2800 H     1 <1>   0.0800 
 45 H        3.8880     7.6120    -2.2770 H     1 <1>   0.0800 
 46 H        3.3640     9.2020    -2.7970 H     1 <1>   0.0800 
 47 H        4.1700     7.8970     0.7670 H     1 <1>   0.0800 
 48 H        4.8070     8.5660    -0.7180 H     1 <1>   0.0800 
 49 H        1.0390     9.8730     0.7470 H     1 <1>   0.0800 
 50 H        1.9460     8.6680     1.6310 H     1 <1>   0.0800 
 51 H        5.9060     9.5360     1.2440 H     1 <1>   0.0800 
 52 H        5.0880    10.7420     0.3070 H     1 <1>   0.0800 
 53 H        2.6920    11.5740     1.2400 H     1 <1>   0.0800 
 54 H        2.1390    10.8420     2.7100 H     1 <1>   0.0800 
 55 H        4.6210    11.1470     2.6620 H     1 <1>   0.0800 
 56 H        4.1410     9.4930     2.9030 H     1 <1>   0.0800 
@<TRIPOS>BOND
  1   1   2  1   
  2   1   3  1   
  3   2   4  2   
  4   3   5  2   
  5   3   6  1   
  6   4   5  1   
  7   4   7  1   
  8   5  24  1   
  9   6   8  1   
 10   6  25  1   
 11   6  26  1   
 12   7  27  1   
 13   7  28  1   
 14   7  29  1   
 15   8   9  1   
 16   8  10  1   
 17   8  30  1   
 18   9  11  1   
 19   9  12  1   
 20   9  31  1   
 21  10  13  1   
 22  10  32  1   
 23  10  33  1   
 24  11  34  1   
 25  12  13  1   
 26  12  35  1   
 27  12  36  1   
 28  13  14  1   
 29  13  37  1   
 30  14  15  1   
 31  14  38  1   
 32  14  39  1   
 33  15  16  1   
 34  15  17  1   
 35  15  18  1   
 36  16  19  1   
 37  16  20  1   
 38  16  40  1   
 39  17  41  1   
 40  17  42  1   
 41  17  43  1   
 42  18  44  1   
 43  18  45  1   
 44  18  46  1   
 45  19  21  1   
 46  19  47  1   
 47  19  48  1   
 48  20  22  1   
 49  20  49  1   
 50  20  50  1   
 51  21  23  1   
 52  21  51  1   
 53  21  52  1   
 54  22  23  1   
 55  22  53  1   
 56  22  54  1   
 57  23  55  1   
 58  23  56  1   
@<TRIPOS>SUBSTRUCTURE
  1 ****  14 GROUP 4 **** **** 0

# MOE 2024.06 (io_trps.svl 2023.06)
