@<TRIPOS>MOLECULE
NONAME
49 51 1 0 0 
SMALL
USER_CHARGES


@<TRIPOS>ATOM
  1 S        0.7680     0.0930     0.0880 S.3   1 <1>  -0.3320 
  2 C        0.1940    -1.6040     0.2910 C.ar  1 <1>   0.1020 
  3 C        0.0210     1.0770     1.4820 C.3   1 <1>   0.1310 
  4 C        0.5950    -2.5200    -0.6630 C.ar  1 <1>  -0.1500 
  5 C       -0.6130    -1.9890     1.3510 C.ar  1 <1>  -0.1500 
  6 C        0.3920     2.5510     1.4210 C.2   1 <1>   0.5690 
  7 C        0.1890    -3.8410    -0.5690 C.ar  1 <1>   0.0830 
  8 C       -1.0200    -3.3100     1.4470 C.ar  1 <1>  -0.1500 
  9 O        0.0370     3.2430     2.3480 O.2   1 <1>  -0.5700 
 10 N        1.1000     3.0160     0.3550 N.am  1 <1>  -0.4930 
 11 O        0.6190    -4.6840    -1.5410 O.3   1 <1>  -0.3630 
 12 C       -0.6230    -4.2340     0.4940 C.ar  1 <1>  -0.1500 
 13 C        1.6650     4.2900     0.0870 C.2   1 <1>   0.0630 
 14 C        0.2660    -6.0490    -1.5390 C.3   1 <1>   0.0400 
 15 C        2.8740     4.4490    -0.6010 C.2   1 <1>   0.3720 
 16 C        1.2570     5.5480     0.3650 C.2   1 <1>  -0.3320 
 17 N        3.2180     5.6930    -0.7240 N.2   1 <1>  -0.7070 
 18 N        3.6380     3.3820    -1.1090 N.pl3 1 <1>  -0.8210 
 19 N        2.2210     6.3730    -0.1170 N.pl3 1 <1>   0.3140 
 20 C       -0.0090     6.0360     1.0550 C.3   1 <1>  -0.0600 
 21 C        3.7960     3.4480    -2.5870 C.3   1 <1>   0.2090 
 22 C        4.9940     3.3300    -0.4990 C.3   1 <1>   0.2090 
 23 C        2.2560     7.8390    -0.0390 C.3   1 <1>   0.0160 
 24 C        5.2420     3.0670    -2.8700 C.3   1 <1>  -0.1600 
 25 C        5.9860     3.5420    -1.6340 C.3   1 <1>  -0.1600 
 26 H        0.3800     0.6510     2.4000 H     1 <1>   0.0800 
 27 H       -1.0450     0.9690     1.4140 H     1 <1>   0.0800 
 28 H        1.2210    -2.2130    -1.4800 H     1 <1>   0.1500 
 29 H       -0.9310    -1.2910     2.1000 H     1 <1>   0.1500 
 30 H       -1.6470    -3.6200     2.2650 H     1 <1>   0.1500 
 31 H        1.4960     2.2980    -0.2600 H     1 <1>   0.3700 
 32 H       -0.9540    -5.2500     0.5940 H     1 <1>   0.1500 
 33 H        0.7190    -6.5120    -2.3970 H     1 <1>   0.0800 
 34 H       -0.8050    -6.1330    -1.6020 H     1 <1>   0.0800 
 35 H        0.6370    -6.5060    -0.6390 H     1 <1>   0.0800 
 36 H       -0.7570     5.2650     1.0520 H     1 <1>   0.0800 
 37 H       -0.4160     6.8900     0.5440 H     1 <1>   0.0800 
 38 H        0.2060     6.3000     2.0740 H     1 <1>   0.0800 
 39 H        3.6060     4.4480    -2.9410 H     1 <1>   0.0800 
 40 H        3.1130     2.7690    -3.0660 H     1 <1>   0.0800 
 41 H        5.1330     2.3560    -0.0620 H     1 <1>   0.0800 
 42 H        5.1170     4.0770     0.2680 H     1 <1>   0.0800 
 43 H        2.0790     8.1420     0.9760 H     1 <1>   0.0800 
 44 H        1.4980     8.2420    -0.6830 H     1 <1>   0.0800 
 45 H        3.2220     8.1850    -0.3560 H     1 <1>   0.0800 
 46 H        5.6050     3.5240    -3.7720 H     1 <1>   0.0800 
 47 H        5.3110     1.9970    -2.9560 H     1 <1>   0.0800 
 48 H        6.9050     3.0090    -1.4700 H     1 <1>   0.0800 
 49 H        6.1940     4.5950    -1.7140 H     1 <1>   0.0800 
@<TRIPOS>BOND
  1   1   2  1   
  2   1   3  1   
  3   2   4  ar  
  4   2   5  ar  
  5   3   6  1   
  6   3  26  1   
  7   3  27  1   
  8   4   7  ar  
  9   4  28  1   
 10   5   8  ar  
 11   5  29  1   
 12   6   9  2   
 13   6  10  am  
 14   7  11  1   
 15   7  12  ar  
 16   8  12  ar  
 17   8  30  1   
 18  10  13  1   
 19  10  31  1   
 20  11  14  1   
 21  12  32  1   
 22  13  15  1   
 23  13  16  2   
 24  14  33  1   
 25  14  34  1   
 26  14  35  1   
 27  15  17  2   
 28  15  18  1   
 29  16  19  1   
 30  16  20  1   
 31  17  19  1   
 32  18  21  1   
 33  18  22  1   
 34  19  23  1   
 35  20  36  1   
 36  20  37  1   
 37  20  38  1   
 38  21  24  1   
 39  21  39  1   
 40  21  40  1   
 41  22  25  1   
 42  22  41  1   
 43  22  42  1   
 44  23  43  1   
 45  23  44  1   
 46  23  45  1   
 47  24  25  1   
 48  24  46  1   
 49  24  47  1   
 50  25  48  1   
 51  25  49  1   
@<TRIPOS>SUBSTRUCTURE
  1 ****  10 GROUP 4 **** **** 0

# MOE 2024.06 (io_trps.svl 2023.06)
