@<TRIPOS>MOLECULE
NONAME
49 51 1 0 0 
SMALL
USER_CHARGES


@<TRIPOS>ATOM
  1 O        0.3940     0.0660     0.4710 O.2   1 <1>  -0.5700 
  2 C        0.9150     1.1500     0.2910 C.2   1 <1>   0.7800 
  3 O        0.1870     2.2590     0.1410 O.3   1 <1>  -0.4300 
  4 N        2.2680     1.2940     0.2150 N.am  1 <1>  -0.6600 
  5 C       -1.2180     2.3710     0.1890 C.3   1 <1>   0.2800 
  6 C        2.9700     2.5530    -0.1250 C.3   1 <1>   0.1400 
  7 C        3.2280     0.1720     0.2930 C.3   1 <1>   0.1400 
  8 C       -1.7370     1.9530     1.5700 C.3   1 <1>  -0.2400 
  9 C       -1.5080     3.8570    -0.0290 C.3   1 <1>  -0.2400 
 10 C       -1.8540     1.5610    -0.9460 C.3   1 <1>  -0.2400 
 11 C        4.4410     2.1780    -0.3310 C.3   1 <1>   0.2000 
 12 C        4.4510     0.6390    -0.4980 C.3   1 <1>   0.1900 
 13 O        5.1710     2.5660     0.8020 O.3   1 <1>  -0.5600 
 14 N        5.6860    -0.0310    -0.0150 N.3   1 <1>  -0.8100 
 15 C        6.5180     2.1640     0.8290 C.3   1 <1>   0.1200 
 16 C        6.8220     0.9060    -0.0160 C.3   1 <1>   0.1100 
 17 C        5.9650    -1.2760    -0.7510 C.3   1 <1>   0.2530 
 18 C        7.1330    -2.0390    -0.1390 C.ar  1 <1>  -0.1440 
 19 C        7.1290    -2.3550     1.2120 C.ar  1 <1>  -0.1500 
 20 C        8.2090    -2.4280    -0.9220 C.ar  1 <1>  -0.1500 
 21 C        8.1850    -3.0510     1.7740 C.ar  1 <1>  -0.1500 
 22 C        9.2670    -3.1250    -0.3620 C.ar  1 <1>  -0.1500 
 23 C        9.2550    -3.4370     0.9860 C.ar  1 <1>  -0.1500 
 24 H        2.5560     2.9500    -1.0350 H     1 <1>   0.0800 
 25 H        2.8600     3.2730     0.6680 H     1 <1>   0.0800 
 26 H        3.4960     0.0180     1.3240 H     1 <1>   0.0800 
 27 H        2.8080    -0.7280    -0.1190 H     1 <1>   0.0800 
 28 H       -2.7860     2.1710     1.6500 H     1 <1>   0.0800 
 29 H       -1.2170     2.4890     2.3430 H     1 <1>   0.0800 
 30 H       -1.6130     0.8980     1.7280 H     1 <1>   0.0800 
 31 H       -2.5670     4.0390    -0.0060 H     1 <1>   0.0800 
 32 H       -1.1290     4.1740    -0.9840 H     1 <1>   0.0800 
 33 H       -1.0450     4.4430     0.7450 H     1 <1>   0.0800 
 34 H       -2.9090     1.7590    -0.9920 H     1 <1>   0.0800 
 35 H       -1.7300     0.5050    -0.7870 H     1 <1>   0.0800 
 36 H       -1.4150     1.8300    -1.8900 H     1 <1>   0.0800 
 37 H        4.8530     2.6820    -1.1860 H     1 <1>   0.0800 
 38 H        4.2870     0.4170    -1.5380 H     1 <1>   0.0800 
 39 H        7.1220     2.9880     0.4930 H     1 <1>   0.0800 
 40 H        6.7620     1.9660     1.8580 H     1 <1>   0.0800 
 41 H        7.6990     0.4290     0.3880 H     1 <1>   0.0800 
 42 H        7.0490     1.2010    -1.0260 H     1 <1>   0.0800 
 43 H        5.0950    -1.9090    -0.7170 H     1 <1>   0.0800 
 44 H        6.1740    -1.0480    -1.7820 H     1 <1>   0.0800 
 45 H        6.2990    -2.0490     1.8260 H     1 <1>   0.1500 
 46 H        8.2320    -2.1930    -1.9710 H     1 <1>   0.1500 
 47 H        8.1720    -3.2900     2.8220 H     1 <1>   0.1500 
 48 H       10.0990    -3.4250    -0.9740 H     1 <1>   0.1500 
 49 H       10.0760    -3.9790     1.4220 H     1 <1>   0.1500 
@<TRIPOS>BOND
  1   1   2  2   
  2   2   3  1   
  3   2   4  am  
  4   3   5  1   
  5   4   6  1   
  6   4   7  1   
  7   5   8  1   
  8   5   9  1   
  9   5  10  1   
 10   6  11  1   
 11   6  24  1   
 12   6  25  1   
 13   7  12  1   
 14   7  26  1   
 15   7  27  1   
 16   8  28  1   
 17   8  29  1   
 18   8  30  1   
 19   9  31  1   
 20   9  32  1   
 21   9  33  1   
 22  10  34  1   
 23  10  35  1   
 24  10  36  1   
 25  11  12  1   
 26  11  13  1   
 27  11  37  1   
 28  12  14  1   
 29  12  38  1   
 30  13  15  1   
 31  14  16  1   
 32  14  17  1   
 33  15  16  1   
 34  15  39  1   
 35  15  40  1   
 36  16  41  1   
 37  16  42  1   
 38  17  18  1   
 39  17  43  1   
 40  17  44  1   
 41  18  19  ar  
 42  18  20  ar  
 43  19  21  ar  
 44  19  45  1   
 45  20  22  ar  
 46  20  46  1   
 47  21  23  ar  
 48  21  47  1   
 49  22  23  ar  
 50  22  48  1   
 51  23  49  1   
@<TRIPOS>SUBSTRUCTURE
  1 ****   7 GROUP 4 **** **** 0

# MOE 2024.06 (io_trps.svl 2023.06)
