@<TRIPOS>MOLECULE
NONAME
38 40 1 0 0 
SMALL
USER_CHARGES


@<TRIPOS>ATOM
  1 CL       0.9170     0.4890     0.9360 Cl    1 <1>  -0.1770 
  2 C        1.6390    -0.9560     0.2430 C.ar  1 <1>   0.1770 
  3 C        1.0150    -2.2010     0.2930 C.ar  1 <1>   0.4100 
  4 C        2.8660    -0.8680    -0.3540 C.ar  1 <1>   0.1600 
  5 N        1.6240    -3.2630    -0.2140 N.ar  1 <1>  -0.6200 
  6 N       -0.2360    -2.4120     0.8520 N.pl3 1 <1>  -0.8380 
  7 N        3.4700    -1.9230    -0.8760 N.ar  1 <1>  -0.6200 
  8 C        2.8040    -3.0610    -0.7700 C.ar  1 <1>   0.4770 
  9 C       -0.5390    -3.6740     1.5770 C.3   1 <1>   0.2090 
 10 C       -1.4250    -1.6850     0.3310 C.3   1 <1>   0.2090 
 11 C        3.4770    -4.2800    -1.3520 C.3   1 <1>  -0.0960 
 12 C       -1.3430    -4.6250     0.6780 C.3   1 <1>  -0.0800 
 13 C       -2.2570    -2.6180    -0.5530 C.3   1 <1>  -0.1600 
 14 C       -2.6180    -3.9290     0.1600 C.3   1 <1>  -0.1600 
 15 C       -1.6510    -5.9210     1.4450 C.3   1 <1>   0.0960 
 16 N       -2.3520    -6.9070     0.5980 N.pl3 1 <1>   0.0480 
 17 C       -1.8710    -7.5670    -0.4800 C.2   1 <1>   0.0360 
 18 C       -3.6150    -7.3530     0.7330 C.2   1 <1>  -0.3020 
 19 N       -2.7190    -8.3780    -1.0240 N.2   1 <1>  -0.5650 
 20 C       -3.8190    -8.2440    -0.2610 C.2   1 <1>   0.0770 
 21 H        3.3690     0.0810    -0.4060 H     1 <1>   0.1500 
 22 H       -1.1020    -3.4350     2.4630 H     1 <1>   0.0800 
 23 H        0.3800    -4.1440     1.8840 H     1 <1>   0.0800 
 24 H       -1.1190    -0.8310    -0.2470 H     1 <1>   0.0800 
 25 H       -2.0150    -1.3360     1.1620 H     1 <1>   0.0800 
 26 H        2.7400    -4.9480    -1.7590 H     1 <1>   0.0800 
 27 H        4.0240    -4.7860    -0.5790 H     1 <1>   0.0800 
 28 H        4.1550    -3.9940    -2.1340 H     1 <1>   0.0800 
 29 H       -0.7150    -4.8730    -0.1610 H     1 <1>   0.0800 
 30 H       -1.6920    -2.8370    -1.4430 H     1 <1>   0.0800 
 31 H       -3.1560    -2.1100    -0.8550 H     1 <1>   0.0800 
 32 H       -3.2800    -3.7180     0.9820 H     1 <1>   0.0800 
 33 H       -3.1390    -4.5690    -0.5320 H     1 <1>   0.0800 
 34 H       -2.2660    -5.7060     2.3010 H     1 <1>   0.0800 
 35 H       -0.7360    -6.3680     1.7890 H     1 <1>   0.0800 
 36 H       -0.8680    -7.4150    -0.8390 H     1 <1>   0.1500 
 37 H       -4.2850    -7.0230     1.5050 H     1 <1>   0.1500 
 38 H       -4.7140    -8.8060    -0.4710 H     1 <1>   0.1500 
@<TRIPOS>BOND
  1   1   2  1   
  2   2   3  ar  
  3   2   4  ar  
  4   3   5  ar  
  5   3   6  1   
  6   4   7  ar  
  7   4  21  1   
  8   5   8  ar  
  9   6   9  1   
 10   6  10  1   
 11   7   8  ar  
 12   8  11  1   
 13   9  12  1   
 14   9  22  1   
 15   9  23  1   
 16  10  13  1   
 17  10  24  1   
 18  10  25  1   
 19  11  26  1   
 20  11  27  1   
 21  11  28  1   
 22  12  14  1   
 23  12  15  1   
 24  12  29  1   
 25  13  14  1   
 26  13  30  1   
 27  13  31  1   
 28  14  32  1   
 29  14  33  1   
 30  15  16  1   
 31  15  34  1   
 32  15  35  1   
 33  16  17  1   
 34  16  18  1   
 35  17  19  2   
 36  17  36  1   
 37  18  20  2   
 38  18  37  1   
 39  19  20  1   
 40  20  38  1   
@<TRIPOS>SUBSTRUCTURE
  1 ****  12 GROUP 4 **** **** 0

# MOE 2024.06 (io_trps.svl 2023.06)
