@<TRIPOS>MOLECULE
NONAME
53 56 1 0 0 
SMALL
USER_CHARGES


@<TRIPOS>ATOM
  1 CL      -0.3360    -0.1180     0.2520 Cl    1 <1>  -0.1770 
  2 C       -0.3490    -1.8490     0.4290 C.ar  1 <1>   0.1770 
  3 C       -1.5080    -2.5440     0.2000 C.ar  1 <1>  -0.1500 
  4 C        0.8210    -2.4990     0.8000 C.ar  1 <1>  -0.1500 
  5 C       -1.5200    -3.9340     0.3420 C.ar  1 <1>   0.3610 
  6 C        0.8190    -3.8660     0.9420 C.ar  1 <1>  -0.1500 
  7 N       -2.6760    -4.6620     0.1130 N.ar  1 <1>  -0.1790 
  8 C       -0.3490    -4.6200     0.7180 C.ar  1 <1>   0.0000 
  9 C       -2.7870    -5.9920     0.2170 C.ar  1 <1>   0.4610 
 10 C       -0.4260    -6.0390     0.8490 C.ar  1 <1>  -0.1430 
 11 N       -3.9760    -6.6000    -0.0500 N.pl3 1 <1>  -0.8380 
 12 C       -1.6040    -6.6790     0.6070 C.ar  1 <1>  -0.1500 
 13 C        0.8080    -6.8330     1.2640 C.3   1 <1>  -0.0970 
 14 C       -4.1560    -8.0900    -0.2480 C.3   1 <1>   0.2090 
 15 C       -5.2840    -5.8770    -0.2350 C.3   1 <1>   0.2090 
 16 C       -5.2400    -8.6900     0.6960 C.3   1 <1>   0.4230 
 17 C       -6.2960    -6.4190     0.7780 C.3   1 <1>  -0.1600 
 18 N       -5.3870   -10.2090     0.6130 N.4   1 <1>  -0.9590 
 19 C       -6.5930    -7.9320     0.5890 C.3   1 <1>   0.0000 
 20 C       -6.6670   -10.7330     1.2020 C.3   1 <1>   0.3430 
 21 C       -5.1880   -10.8180    -0.7470 C.3   1 <1>   0.2630 
 22 C       -7.5370    -8.3970     1.7340 C.3   1 <1>  -0.1600 
 23 C       -7.2580    -8.1960    -0.7950 C.3   1 <1>   0.1200 
 24 C       -7.2000    -9.7960     2.2850 C.3   1 <1>  -0.1600 
 25 O       -8.2650    -7.2840    -1.0560 O.3   1 <1>  -0.6800 
 26 H       -2.3910    -2.0030    -0.0860 H     1 <1>   0.1500 
 27 H        1.7130    -1.9180     0.9710 H     1 <1>   0.1500 
 28 H        1.7330    -4.3560     1.2310 H     1 <1>   0.1500 
 29 H       -3.4950    -4.1500    -0.1940 H     1 <1>   0.4570 
 30 H       -1.6380    -7.7420     0.7290 H     1 <1>   0.1500 
 31 H        0.5980    -7.8860     1.3240 H     1 <1>   0.0800 
 32 H        1.1530    -6.5080     2.2310 H     1 <1>   0.0800 
 33 H        1.6000    -6.6930     0.5490 H     1 <1>   0.0800 
 34 H       -4.4380    -8.2500    -1.2740 H     1 <1>   0.0800 
 35 H       -3.2370    -8.6190    -0.0920 H     1 <1>   0.0800 
 36 H       -5.1870    -4.8180    -0.0720 H     1 <1>   0.0800 
 37 H       -5.6470    -6.0170    -1.2410 H     1 <1>   0.0800 
 38 H       -4.8850    -8.4810     1.6920 H     1 <1>   0.0800 
 39 H       -5.9080    -6.2370     1.7660 H     1 <1>   0.0800 
 40 H       -7.2040    -5.8460     0.6990 H     1 <1>   0.0800 
 41 H       -4.6420   -10.5900     1.2170 H     1 <1>   0.4500 
 42 H       -7.4150   -10.8210     0.4310 H     1 <1>   0.0800 
 43 H       -6.5050   -11.7150     1.6170 H     1 <1>   0.0800 
 44 H       -5.9310   -10.4550    -1.4380 H     1 <1>   0.0800 
 45 H       -5.2730   -11.8920    -0.6900 H     1 <1>   0.0800 
 46 H       -4.2100   -10.5800    -1.1330 H     1 <1>   0.0800 
 47 H       -7.5010    -7.7090     2.5630 H     1 <1>   0.0800 
 48 H       -8.5580    -8.3910     1.3910 H     1 <1>   0.0800 
 49 H       -7.6900    -9.1800    -0.8510 H     1 <1>   0.0800 
 50 H       -6.5510    -8.0950    -1.5970 H     1 <1>   0.0800 
 51 H       -8.0870   -10.2260     2.7180 H     1 <1>   0.0800 
 52 H       -6.4730    -9.7200     3.0750 H     1 <1>   0.0800 
 53 H       -9.0740    -7.4600    -0.5330 H     1 <1>   0.4000 
@<TRIPOS>BOND
  1   1   2  1   
  2   2   3  ar  
  3   2   4  ar  
  4   3   5  ar  
  5   3  26  1   
  6   4   6  ar  
  7   4  27  1   
  8   5   7  ar  
  9   5   8  ar  
 10   6   8  ar  
 11   6  28  1   
 12   7   9  ar  
 13   7  29  1   
 14   8  10  ar  
 15   9  11  1   
 16   9  12  ar  
 17  10  12  ar  
 18  10  13  1   
 19  11  14  1   
 20  11  15  1   
 21  12  30  1   
 22  13  31  1   
 23  13  32  1   
 24  13  33  1   
 25  14  16  1   
 26  14  34  1   
 27  14  35  1   
 28  15  17  1   
 29  15  36  1   
 30  15  37  1   
 31  16  18  1   
 32  16  19  1   
 33  16  38  1   
 34  17  19  1   
 35  17  39  1   
 36  17  40  1   
 37  18  20  1   
 38  18  21  1   
 39  18  41  1   
 40  19  22  1   
 41  19  23  1   
 42  20  24  1   
 43  20  42  1   
 44  20  43  1   
 45  21  44  1   
 46  21  45  1   
 47  21  46  1   
 48  22  24  1   
 49  22  47  1   
 50  22  48  1   
 51  23  25  1   
 52  23  49  1   
 53  23  50  1   
 54  24  51  1   
 55  24  52  1   
 56  25  53  1   
@<TRIPOS>SUBSTRUCTURE
  1 ****  11 GROUP 4 **** **** 0

# MOE 2024.06 (io_trps.svl 2023.06)
