@<TRIPOS>MOLECULE
NONAME
30 30 1 0 0 
SMALL
USER_CHARGES


@<TRIPOS>ATOM
  1 N        0.0190     0.1210     0.0950 N.4   1 <1>  -0.8530 
  2 C        0.0070     1.5110    -0.3770 C.3   1 <1>   0.4230 
  3 C        1.2450     2.2290     0.1580 C.3   1 <1>  -0.1600 
  4 C       -1.2670     2.1930     0.1160 C.3   1 <1>  -0.1600 
  5 C        1.2400     3.7090    -0.2510 C.3   1 <1>  -0.1600 
  6 C       -1.2910     3.6730    -0.2930 C.3   1 <1>  -0.1600 
  7 C       -0.0440     4.4470     0.1930 C.3   1 <1>  -0.0800 
  8 C       -0.0560     5.9230    -0.2980 C.3   1 <1>  -0.0800 
  9 C        1.1680     6.7140     0.1950 C.3   1 <1>  -0.2400 
 10 C       -1.3180     6.6790     0.1540 C.3   1 <1>  -0.2400 
 11 H        0.8640    -0.3610    -0.2260 H     1 <1>   0.4500 
 12 H       -0.8010    -0.3840    -0.2540 H     1 <1>   0.4500 
 13 H        0.0020     0.1010     1.1190 H     1 <1>   0.4500 
 14 H        0.0250     1.5340    -1.4560 H     1 <1>   0.0800 
 15 H        2.1370     1.7700    -0.2320 H     1 <1>   0.0800 
 16 H        1.2720     2.1750     1.2330 H     1 <1>   0.0800 
 17 H       -1.3280     2.1380     1.1890 H     1 <1>   0.0800 
 18 H       -2.1320     1.7100    -0.3040 H     1 <1>   0.0800 
 19 H        1.3450     3.7890    -1.3210 H     1 <1>   0.0800 
 20 H        2.1030     4.1720     0.1940 H     1 <1>   0.0800 
 21 H       -2.1810     4.1120     0.1220 H     1 <1>   0.0800 
 22 H       -1.3610     3.7510    -1.3660 H     1 <1>   0.0800 
 23 H       -0.0620     4.4610     1.2710 H     1 <1>   0.0800 
 24 H       -0.0380     5.9310    -1.3750 H     1 <1>   0.0800 
 25 H        1.2520     6.6570     1.2660 H     1 <1>   0.0800 
 26 H        1.0800     7.7510    -0.0810 H     1 <1>   0.0800 
 27 H        2.0750     6.3480    -0.2490 H     1 <1>   0.0800 
 28 H       -1.4360     6.6190     1.2210 H     1 <1>   0.0800 
 29 H       -2.1990     6.2880    -0.3200 H     1 <1>   0.0800 
 30 H       -1.2500     7.7180    -0.1200 H     1 <1>   0.0800 
@<TRIPOS>BOND
  1   1   2  1   
  2   1  11  1   
  3   1  12  1   
  4   1  13  1   
  5   2   3  1   
  6   2   4  1   
  7   2  14  1   
  8   3   5  1   
  9   3  15  1   
 10   3  16  1   
 11   4   6  1   
 12   4  17  1   
 13   4  18  1   
 14   5   7  1   
 15   5  19  1   
 16   5  20  1   
 17   6   7  1   
 18   6  21  1   
 19   6  22  1   
 20   7   8  1   
 21   7  23  1   
 22   8   9  1   
 23   8  10  1   
 24   8  24  1   
 25   9  25  1   
 26   9  26  1   
 27   9  27  1   
 28  10  28  1   
 29  10  29  1   
 30  10  30  1   
@<TRIPOS>SUBSTRUCTURE
  1 ****   7 GROUP 4 **** **** 0

# MOE 2024.06 (io_trps.svl 2023.06)
