@<TRIPOS>MOLECULE
NONAME
48 49 1 0 0 
SMALL
USER_CHARGES


@<TRIPOS>ATOM
  1 F       -1.7590    -1.0990     2.7070 F     1 <1>  -0.3400 
  2 C       -1.6200    -0.4250     1.5780 C.3   1 <1>   1.0200 
  3 F       -0.6910     0.4930     1.7770 F     1 <1>  -0.3400 
  4 F       -1.1460    -1.2770     0.6840 F     1 <1>  -0.3400 
  5 C       -2.9390     0.1780     1.1240 C.3   1 <1>  -0.1600 
  6 C       -3.9460    -0.9490     0.9230 C.3   1 <1>   0.3430 
  7 N       -5.2740    -0.4090     0.5070 N.4   1 <1>  -0.9590 
  8 C       -6.3250    -1.4730     0.7290 C.3   1 <1>   0.3430 
  9 C       -5.2660     0.0540    -0.9190 C.3   1 <1>   0.3430 
 10 C       -7.7660    -0.9460     0.6010 C.3   1 <1>   0.1400 
 11 C       -6.1470     1.2930    -1.1260 C.3   1 <1>  -0.1600 
 12 N       -8.0020    -0.2960    -0.7210 N.am  1 <1>  -0.6600 
 13 C       -7.6280     1.1410    -0.7490 C.3   1 <1>   0.1400 
 14 C       -8.3990    -0.9360    -1.8790 C.2   1 <1>   0.5690 
 15 O       -8.6100    -0.2950    -2.8800 O.2   1 <1>  -0.5700 
 16 C       -8.4720    -2.4660    -2.0270 C.3   1 <1>   0.2010 
 17 N       -9.3490    -3.2120    -1.0650 N.am  1 <1>  -0.7300 
 18 C       -8.8910    -4.0910    -0.1240 C.2   1 <1>   0.5440 
 19 O       -7.7020    -4.0600     0.1410 O.2   1 <1>  -0.5700 
 20 C       -9.7910    -5.0050     0.5590 C.ar  1 <1>   0.0860 
 21 C       -9.3210    -6.2130     1.0780 C.ar  1 <1>  -0.1500 
 22 C      -11.1490    -4.7230     0.7280 C.ar  1 <1>  -0.1500 
 23 C      -10.1620    -7.0990     1.7270 C.ar  1 <1>  -0.1500 
 24 C      -11.9950    -5.6060     1.3750 C.ar  1 <1>  -0.1500 
 25 C      -11.5030    -6.7970     1.8750 C.ar  1 <1>  -0.1500 
 26 H       -2.7610     0.7140     0.2110 H     1 <1>   0.0800 
 27 H       -3.2770     0.8580     1.8830 H     1 <1>   0.0800 
 28 H       -4.0540    -1.4880     1.8530 H     1 <1>   0.0800 
 29 H       -3.5840    -1.6440     0.1800 H     1 <1>   0.0800 
 30 H       -5.5150     0.3950     1.1000 H     1 <1>   0.4500 
 31 H       -6.2130    -1.8950     1.7140 H     1 <1>   0.0800 
 32 H       -6.1870    -2.2760     0.0230 H     1 <1>   0.0800 
 33 H       -5.6120    -0.7400    -1.5610 H     1 <1>   0.0800 
 34 H       -4.2620     0.3000    -1.2240 H     1 <1>   0.0800 
 35 H       -7.9530    -0.2400     1.3900 H     1 <1>   0.0800 
 36 H       -8.4660    -1.7400     0.7550 H     1 <1>   0.0800 
 37 H       -6.1130     1.5320    -2.1750 H     1 <1>   0.0800 
 38 H       -5.7290     2.1400    -0.6130 H     1 <1>   0.0800 
 39 H       -8.2420     1.6700    -1.4610 H     1 <1>   0.0800 
 40 H       -7.8140     1.5850     0.2150 H     1 <1>   0.0800 
 41 H       -7.4700    -2.8480    -1.9680 H     1 <1>   0.0800 
 42 H       -8.8210    -2.6790    -3.0220 H     1 <1>   0.0800 
 43 H      -10.3400    -3.2320    -1.3210 H     1 <1>   0.3700 
 44 H       -8.2790    -6.4590     0.9690 H     1 <1>   0.1500 
 45 H      -11.5560    -3.7990     0.3590 H     1 <1>   0.1500 
 46 H       -9.7730    -8.0250     2.1170 H     1 <1>   0.1500 
 47 H      -13.0390    -5.3680     1.4940 H     1 <1>   0.1500 
 48 H      -12.1590    -7.4870     2.3790 H     1 <1>   0.1500 
@<TRIPOS>BOND
  1   1   2  1   
  2   2   3  1   
  3   2   4  1   
  4   2   5  1   
  5   5   6  1   
  6   5  26  1   
  7   5  27  1   
  8   6   7  1   
  9   6  28  1   
 10   6  29  1   
 11   7   8  1   
 12   7   9  1   
 13   7  30  1   
 14   8  10  1   
 15   8  31  1   
 16   8  32  1   
 17   9  11  1   
 18   9  33  1   
 19   9  34  1   
 20  10  12  1   
 21  10  35  1   
 22  10  36  1   
 23  11  13  1   
 24  11  37  1   
 25  11  38  1   
 26  12  13  1   
 27  12  14  am  
 28  13  39  1   
 29  13  40  1   
 30  14  15  2   
 31  14  16  1   
 32  16  17  1   
 33  16  41  1   
 34  16  42  1   
 35  17  18  am  
 36  17  43  1   
 37  18  19  2   
 38  18  20  1   
 39  20  21  ar  
 40  20  22  ar  
 41  21  23  ar  
 42  21  44  1   
 43  22  24  ar  
 44  22  45  1   
 45  23  25  ar  
 46  23  46  1   
 47  24  25  ar  
 48  24  47  1   
 49  25  48  1   
@<TRIPOS>SUBSTRUCTURE
  1 ****   8 GROUP 4 **** **** 0

# MOE 2024.06 (io_trps.svl 2023.06)
