@<TRIPOS>MOLECULE
NONAME
31 33 1 0 0 
SMALL
USER_CHARGES


@<TRIPOS>ATOM
  1 F       -1.4230     0.1950     1.6460 F     1 <1>  -0.1900 
  2 C       -2.1260     0.6520     0.6470 C.ar  1 <1>   0.1900 
  3 C       -2.8800    -0.2330    -0.1260 C.ar  1 <1>   0.0860 
  4 C       -2.0860     2.0140     0.4160 C.ar  1 <1>  -0.1500 
  5 C       -2.8960    -1.6540     0.1270 C.2   1 <1>   0.5440 
  6 C       -3.6240     0.3160    -1.1750 C.ar  1 <1>  -0.1500 
  7 C       -2.8380     2.5020    -0.6330 C.ar  1 <1>   0.1900 
  8 O       -1.9100    -2.3160    -0.1410 O.2   1 <1>  -0.5700 
  9 N       -4.0140    -2.2730     0.6240 N.am  1 <1>  -0.6600 
 10 C       -3.6090     1.6770    -1.4340 C.ar  1 <1>  -0.1500 
 11 F       -2.8220     3.7820    -0.8780 F     1 <1>  -0.1900 
 12 C       -5.2960    -1.5980     0.9800 C.3   1 <1>   0.2350 
 13 C       -4.2750    -3.7320     0.4560 C.3   1 <1>   0.2350 
 14 C       -6.3790    -2.4800     0.3930 C.3   1 <1>  -0.2420 
 15 C       -5.7520    -3.8210     0.0960 C.3   1 <1>  -0.2420 
 16 C       -7.7440    -2.0550     0.9380 C.2   1 <1>   0.9470 
 17 C       -6.3070    -2.9830    -1.0280 C.3   1 <1>  -0.2000 
 18 C       -6.2830    -5.2420     0.3020 C.2   1 <1>   0.9470 
 19 O       -8.6110    -1.6530     0.1500 O.co2 1 <1>  -0.9000 
 20 O       -7.8880    -1.9350     2.1620 O.co2 1 <1>  -0.9000 
 21 O       -6.0470    -5.8210     1.3710 O.co2 1 <1>  -0.9000 
 22 O       -6.8020    -5.8440    -0.6490 O.co2 1 <1>  -0.9000 
 23 H       -1.4940     2.6680     1.0290 H     1 <1>   0.1500 
 24 H       -4.2210    -0.3430    -1.7850 H     1 <1>   0.1500 
 25 H       -4.1870     2.0950    -2.2390 H     1 <1>   0.1500 
 26 H       -5.3930    -1.5690     2.0520 H     1 <1>   0.0800 
 27 H       -5.3710    -0.6010     0.5870 H     1 <1>   0.0800 
 28 H       -3.6650    -4.1590    -0.3200 H     1 <1>   0.0800 
 29 H       -4.0850    -4.2370     1.3880 H     1 <1>   0.0800 
 30 H       -5.6340    -2.5270    -1.7280 H     1 <1>   0.1000 
 31 H       -7.2220    -3.3130    -1.4910 H     1 <1>   0.1000 
@<TRIPOS>BOND
  1   1   2  1   
  2   2   3  ar  
  3   2   4  ar  
  4   3   5  1   
  5   3   6  ar  
  6   4   7  ar  
  7   4  23  1   
  8   5   8  2   
  9   5   9  am  
 10   6  10  ar  
 11   6  24  1   
 12   7  10  ar  
 13   7  11  1   
 14   9  12  1   
 15   9  13  1   
 16  10  25  1   
 17  12  14  1   
 18  12  26  1   
 19  12  27  1   
 20  13  15  1   
 21  13  28  1   
 22  13  29  1   
 23  14  15  1   
 24  14  16  1   
 25  14  17  1   
 26  15  17  1   
 27  15  18  1   
 28  16  19  ar  
 29  16  20  ar  
 30  17  30  1   
 31  17  31  1   
 32  18  21  ar  
 33  18  22  ar  
@<TRIPOS>SUBSTRUCTURE
  1 ****  12 GROUP 4 **** **** 0

# MOE 2024.06 (io_trps.svl 2023.06)
