@<TRIPOS>MOLECULE
NONAME
51 53 1 0 0 
SMALL
USER_CHARGES


@<TRIPOS>ATOM
  1 O       -2.7750     0.0990     2.3370 O.2   1 <1>  -0.5700 
  2 C       -2.4790     0.7260     1.3470 C.2   1 <1>   0.5690 
  3 N       -2.2370     0.1050     0.1490 N.am  1 <1>  -0.6600 
  4 C       -2.3960     2.2430     1.4910 C.3   1 <1>   0.0440 
  5 C       -2.3390    -1.3840     0.0140 C.3   1 <1>   0.3640 
  6 C       -1.8790     0.8370    -1.1050 C.3   1 <1>   0.1400 
  7 C       -1.0270     2.8260     1.1490 C.ar  1 <1>  -0.1440 
  8 C       -0.9280    -2.0040     0.0600 C.ar  1 <1>  -0.1440 
  9 C       -3.1900    -1.7400    -1.2420 C.3   1 <1>   0.2000 
 10 C       -1.8400    -0.0670    -2.3480 C.3   1 <1>   0.1200 
 11 C        0.1320     2.2090     1.5950 C.ar  1 <1>  -0.1500 
 12 C       -0.9280     3.9760     0.3790 C.ar  1 <1>  -0.1500 
 13 C       -0.1880    -1.8490     1.2250 C.ar  1 <1>  -0.1500 
 14 C       -0.3560    -2.7210    -0.9880 C.ar  1 <1>  -0.1500 
 15 O       -2.9290    -0.9490    -2.3890 O.3   1 <1>  -0.5600 
 16 C       -4.6910    -1.5960    -0.9520 C.3   1 <1>   0.1200 
 17 C        1.3710     2.7260     1.2640 C.ar  1 <1>  -0.1500 
 18 C        0.3110     4.4980     0.0480 C.ar  1 <1>  -0.1500 
 19 C        1.0850    -2.3770     1.3430 C.ar  1 <1>  -0.1500 
 20 C        0.9180    -3.2510    -0.8750 C.ar  1 <1>  -0.1500 
 21 O       -5.1230    -2.6090    -0.1010 O.3   1 <1>  -0.6800 
 22 C        1.4720     3.8690     0.4880 C.ar  1 <1>   0.0830 
 23 C        1.6410    -3.0790     0.2900 C.ar  1 <1>  -0.1500 
 24 O        2.7240     4.3060     0.2050 O.3   1 <1>  -0.3630 
 25 C        2.9390     5.4600    -0.5720 C.3   1 <1>   0.1200 
 26 C        4.4450     5.6660    -0.7030 C.3   1 <1>  -0.2400 
 27 H       -3.1550     2.6780     0.8710 H     1 <1>   0.0800 
 28 H       -2.6270     2.5020     2.5080 H     1 <1>   0.0800 
 29 H       -2.8610    -1.7820     0.8670 H     1 <1>   0.0800 
 30 H       -2.5950     1.6210    -1.2750 H     1 <1>   0.0800 
 31 H       -0.9090     1.2890    -0.9890 H     1 <1>   0.0800 
 32 H       -3.0140    -2.7620    -1.5200 H     1 <1>   0.0800 
 33 H       -0.9280    -0.6340    -2.3720 H     1 <1>   0.0800 
 34 H       -1.8740     0.5350    -3.2390 H     1 <1>   0.0800 
 35 H        0.0790     1.3180     2.1990 H     1 <1>   0.1500 
 36 H       -1.8170     4.4750     0.0320 H     1 <1>   0.1500 
 37 H       -0.6080    -1.3110     2.0590 H     1 <1>   0.1500 
 38 H       -0.8820    -2.8790    -1.9120 H     1 <1>   0.1500 
 39 H       -5.2600    -1.6630    -1.8620 H     1 <1>   0.0800 
 40 H       -4.8890    -0.6530    -0.4720 H     1 <1>   0.0800 
 41 H        2.2690     2.2450     1.6050 H     1 <1>   0.1500 
 42 H        0.3520     5.3880    -0.5490 H     1 <1>   0.1500 
 43 H        1.6400    -2.2410     2.2540 H     1 <1>   0.1500 
 44 H        1.3470    -3.7980    -1.6950 H     1 <1>   0.1500 
 45 H       -5.1800    -3.4630    -0.5720 H     1 <1>   0.4000 
 46 H        2.6320    -3.4890     0.3780 H     1 <1>   0.1500 
 47 H        2.4910     5.3090    -1.5380 H     1 <1>   0.0800 
 48 H        2.4820     6.2970    -0.0720 H     1 <1>   0.0800 
 49 H        4.8930     4.8170    -1.1860 H     1 <1>   0.0800 
 50 H        4.8850     5.8000     0.2700 H     1 <1>   0.0800 
 51 H        4.6430     6.5420    -1.2930 H     1 <1>   0.0800 
@<TRIPOS>BOND
  1   1   2  2   
  2   2   3  am  
  3   2   4  1   
  4   3   5  1   
  5   3   6  1   
  6   4   7  1   
  7   4  27  1   
  8   4  28  1   
  9   5   8  1   
 10   5   9  1   
 11   5  29  1   
 12   6  10  1   
 13   6  30  1   
 14   6  31  1   
 15   7  11  ar  
 16   7  12  ar  
 17   8  13  ar  
 18   8  14  ar  
 19   9  15  1   
 20   9  16  1   
 21   9  32  1   
 22  10  15  1   
 23  10  33  1   
 24  10  34  1   
 25  11  17  ar  
 26  11  35  1   
 27  12  18  ar  
 28  12  36  1   
 29  13  19  ar  
 30  13  37  1   
 31  14  20  ar  
 32  14  38  1   
 33  16  21  1   
 34  16  39  1   
 35  16  40  1   
 36  17  22  ar  
 37  17  41  1   
 38  18  22  ar  
 39  18  42  1   
 40  19  23  ar  
 41  19  43  1   
 42  20  23  ar  
 43  20  44  1   
 44  21  45  1   
 45  22  24  1   
 46  23  46  1   
 47  24  25  1   
 48  25  26  1   
 49  25  47  1   
 50  25  48  1   
 51  26  49  1   
 52  26  50  1   
 53  26  51  1   
@<TRIPOS>SUBSTRUCTURE
  1 ****   3 GROUP 4 **** **** 0

# MOE 2024.06 (io_trps.svl 2023.06)
