@<TRIPOS>MOLECULE
NONAME
57 60 1 0 0 
SMALL
USER_CHARGES


@<TRIPOS>ATOM
  1 O        2.0140     1.6460     1.3090 O.co2 1 <1>  -0.9000 
  2 C        2.1810     0.4860     0.9230 C.2   1 <1>   0.9060 
  3 O        2.0680    -0.4660     1.7020 O.co2 1 <1>  -0.9000 
  4 C        2.9010     0.2460    -0.4200 C.3   1 <1>  -0.1060 
  5 C        4.2630    -0.3510    -0.0180 C.3   1 <1>   0.4230 
  6 C        3.1820     1.5820    -1.1830 C.3   1 <1>  -0.1600 
  7 C        2.1140    -0.7010    -1.3660 C.3   1 <1>  -0.1600 
  8 N        4.0680    -1.7450     0.5290 N.4   1 <1>  -0.9590 
  9 C        4.9790     0.6310     0.9730 C.3   1 <1>   0.3430 
 10 C        4.3390     2.4330    -0.6250 C.3   1 <1>   0.3430 
 11 C        2.0750    -2.1510    -0.8640 C.3   1 <1>  -0.1600 
 12 C        3.4580    -2.6660    -0.4670 C.3   1 <1>   0.3430 
 13 C        5.2420    -2.3650     1.2070 C.3   1 <1>   0.2630 
 14 N        4.6020     2.0830     0.7980 N.4   1 <1>  -0.9590 
 15 C        5.5230     2.9870     1.5490 C.3   1 <1>   0.4860 
 16 C        5.9020     4.2270     0.7490 C.ar  1 <1>  -0.1430 
 17 C        7.0610     4.2780    -0.0370 C.ar  1 <1>  -0.0230 
 18 C        5.0590     5.3260     0.8100 C.ar  1 <1>  -0.1500 
 19 N        7.9830     3.1890    -0.1320 N.pl3 1 <1>   0.5930 
 20 C        7.3240     5.4440    -0.7540 C.ar  1 <1>  -0.1500 
 21 C        5.3350     6.4790     0.0980 C.ar  1 <1>   0.0830 
 22 N        7.6220     1.8850    -0.3140 N.2   1 <1>  -0.7070 
 23 C        9.3330     3.2850    -0.0910 C.2   1 <1>  -0.3020 
 24 C        6.4770     6.5350    -0.6910 C.ar  1 <1>  -0.1500 
 25 O        4.4490     7.4970     0.2210 O.3   1 <1>  -0.3630 
 26 C        8.7400     1.2280    -0.4040 C.2   1 <1>   0.1390 
 27 C        9.8480     2.0520    -0.2660 C.2   1 <1>  -0.1500 
 28 C        4.6570     8.7350    -0.4230 C.3   1 <1>   0.0400 
 29 H        4.8720    -0.4190    -0.9030 H     1 <1>   0.0800 
 30 H        2.2860     2.1820    -1.1790 H     1 <1>   0.0800 
 31 H        3.4070     1.3910    -2.2170 H     1 <1>   0.0800 
 32 H        1.1060    -0.3360    -1.4800 H     1 <1>   0.0800 
 33 H        2.5680    -0.7040    -2.3420 H     1 <1>   0.0800 
 34 H        3.2980    -1.5920     1.2400 H     1 <1>   0.4500 
 35 H        6.0420     0.5200     0.8510 H     1 <1>   0.0800 
 36 H        4.7170     0.3420     1.9780 H     1 <1>   0.0800 
 37 H        4.0750     3.4750    -0.7120 H     1 <1>   0.0800 
 38 H        5.2340     2.2660    -1.2040 H     1 <1>   0.0800 
 39 H        1.6710    -2.7840    -1.6340 H     1 <1>   0.0800 
 40 H        1.4130    -2.2300    -0.0180 H     1 <1>   0.0800 
 41 H        4.0870    -2.7340    -1.3400 H     1 <1>   0.0800 
 42 H        3.3550    -3.6510    -0.0410 H     1 <1>   0.0800 
 43 H        6.0540    -2.4960     0.5110 H     1 <1>   0.0800 
 44 H        4.9680    -3.3300     1.6030 H     1 <1>   0.0800 
 45 H        5.5730    -1.7500     2.0270 H     1 <1>   0.0800 
 46 H        3.6450     2.1850     1.2370 H     1 <1>   0.4500 
 47 H        5.0480     3.2900     2.4680 H     1 <1>   0.0800 
 48 H        6.4220     2.4540     1.8080 H     1 <1>   0.0800 
 49 H        4.1640     5.3070     1.4110 H     1 <1>   0.1500 
 50 H        8.2020     5.5080    -1.3750 H     1 <1>   0.1500 
 51 H        9.8420     4.2200     0.0570 H     1 <1>   0.1500 
 52 H        6.7200     7.4150    -1.2580 H     1 <1>   0.1500 
 53 H        8.8070     0.1650    -0.5680 H     1 <1>   0.1500 
 54 H       10.8800     1.7460    -0.2990 H     1 <1>   0.1500 
 55 H        3.8400     9.3860    -0.1650 H     1 <1>   0.0800 
 56 H        4.6760     8.5790    -1.4870 H     1 <1>   0.0800 
 57 H        5.5830     9.1580    -0.0770 H     1 <1>   0.0800 
@<TRIPOS>BOND
  1   1   2  ar  
  2   2   3  ar  
  3   2   4  1   
  4   4   5  1   
  5   4   6  1   
  6   4   7  1   
  7   5   8  1   
  8   5   9  1   
  9   5  29  1   
 10   6  10  1   
 11   6  30  1   
 12   6  31  1   
 13   7  11  1   
 14   7  32  1   
 15   7  33  1   
 16   8  12  1   
 17   8  13  1   
 18   8  34  1   
 19   9  14  1   
 20   9  35  1   
 21   9  36  1   
 22  10  14  1   
 23  10  37  1   
 24  10  38  1   
 25  11  12  1   
 26  11  39  1   
 27  11  40  1   
 28  12  41  1   
 29  12  42  1   
 30  13  43  1   
 31  13  44  1   
 32  13  45  1   
 33  14  15  1   
 34  14  46  1   
 35  15  16  1   
 36  15  47  1   
 37  15  48  1   
 38  16  17  ar  
 39  16  18  ar  
 40  17  19  1   
 41  17  20  ar  
 42  18  21  ar  
 43  18  49  1   
 44  19  22  1   
 45  19  23  1   
 46  20  24  ar  
 47  20  50  1   
 48  21  24  ar  
 49  21  25  1   
 50  22  26  2   
 51  23  27  2   
 52  23  51  1   
 53  24  52  1   
 54  25  28  1   
 55  26  27  1   
 56  26  53  1   
 57  27  54  1   
 58  28  55  1   
 59  28  56  1   
 60  28  57  1   
@<TRIPOS>SUBSTRUCTURE
  1 ****  14 GROUP 4 **** **** 0

# MOE 2024.06 (io_trps.svl 2023.06)
