@<TRIPOS>MOLECULE
NONAME
52 54 1 0 0 
SMALL
USER_CHARGES


@<TRIPOS>ATOM
  1 O        1.0800     0.2390    -2.8030 O.2   1 <1>  -0.5700 
  2 C        1.3400    -0.5510    -1.9270 C.2   1 <1>   0.5690 
  3 N        2.0010    -0.1330    -0.7890 N.am  1 <1>  -0.6600 
  4 C        0.9770    -2.0140    -2.1770 C.3   1 <1>   0.1810 
  5 C        2.5880    -1.0320     0.2560 C.3   1 <1>   0.1400 
  6 C        2.0990     1.3200    -0.4850 C.3   1 <1>   0.1400 
  7 O        0.2340    -2.5520    -1.0920 O.3   1 <1>  -0.3620 
  8 C        4.1310    -1.0830     0.2050 C.3   1 <1>   0.3430 
  9 C        3.3790     1.9070    -1.0870 C.3   1 <1>  -0.1600 
 10 C        0.4410    -3.8280    -0.6800 C.ar  1 <1>   0.0820 
 11 N        4.7950     0.2650     0.1360 N.4   1 <1>  -0.9590 
 12 C        4.5530     0.9320    -1.1790 C.3   1 <1>   0.3430 
 13 C        0.2700    -4.1300     0.6730 C.ar  1 <1>  -0.1440 
 14 C        0.8320    -4.8190    -1.5740 C.ar  1 <1>  -0.1500 
 15 C        6.2460     0.1720     0.4390 C.3   1 <1>   0.5240 
 16 C        0.5450    -5.4190     1.1220 C.ar  1 <1>  -0.1440 
 17 C       -0.2220    -3.0710     1.6600 C.3   1 <1>  -0.0970 
 18 C        1.0970    -6.0950    -1.1210 C.ar  1 <1>  -0.1500 
 19 C        6.7280     1.5560     0.8110 C.2   1 <1>  -0.1810 
 20 C        0.9610    -6.3890     0.2230 C.ar  1 <1>  -0.1500 
 21 C        0.3930    -5.8100     2.5870 C.3   1 <1>  -0.0970 
 22 C        6.7270     2.1370     2.0310 C.2   1 <1>  -0.0100 
 23 C        7.2790     2.5120    -0.0580 C.2   1 <1>  -0.1500 
 24 O        7.2130     3.3570     1.9640 O.3   1 <1>  -0.2800 
 25 C        7.5500     3.5870     0.7120 C.2   1 <1>  -0.0100 
 26 H        1.8840    -2.5740    -2.3040 H     1 <1>   0.0800 
 27 H        0.3730    -2.0980    -3.0620 H     1 <1>   0.0800 
 28 H        2.2270    -2.0360     0.1470 H     1 <1>   0.0800 
 29 H        2.2700    -0.6980     1.2290 H     1 <1>   0.0800 
 30 H        2.0880     1.4670     0.5820 H     1 <1>   0.0800 
 31 H        1.2410     1.8380    -0.8850 H     1 <1>   0.0800 
 32 H        4.4220    -1.6690    -0.6520 H     1 <1>   0.0800 
 33 H        4.4710    -1.6090     1.0820 H     1 <1>   0.0800 
 34 H        3.6680     2.7840    -0.5350 H     1 <1>   0.0800 
 35 H        3.1500     2.2350    -2.0860 H     1 <1>   0.0800 
 36 H        4.3960     0.8800     0.8550 H     1 <1>   0.4500 
 37 H        5.4260     1.4790    -1.4930 H     1 <1>   0.0800 
 38 H        4.3380     0.1900    -1.9310 H     1 <1>   0.0800 
 39 H        0.9230    -4.6150    -2.6250 H     1 <1>   0.1500 
 40 H        6.7950    -0.2060    -0.4090 H     1 <1>   0.0800 
 41 H        6.4060    -0.4870     1.2760 H     1 <1>   0.0800 
 42 H       -0.5210    -2.1630     1.1710 H     1 <1>   0.0800 
 43 H        0.5510    -2.8380     2.3680 H     1 <1>   0.0800 
 44 H       -1.0800    -3.4410     2.1930 H     1 <1>   0.0800 
 45 H        1.4020    -6.8640    -1.8100 H     1 <1>   0.1500 
 46 H        1.1720    -7.3890     0.5610 H     1 <1>   0.1500 
 47 H        0.9660    -5.1510     3.2130 H     1 <1>   0.0800 
 48 H        0.7370    -6.8140     2.7580 H     1 <1>   0.0800 
 49 H       -0.6420    -5.7570     2.8740 H     1 <1>   0.0800 
 50 H        6.4070     1.7740     2.9940 H     1 <1>   0.1500 
 51 H        7.4560     2.4050    -1.1150 H     1 <1>   0.1500 
 52 H        7.9810     4.5420     0.4600 H     1 <1>   0.1500 
@<TRIPOS>BOND
  1   1   2  2   
  2   2   3  am  
  3   2   4  1   
  4   3   5  1   
  5   3   6  1   
  6   4   7  1   
  7   4  26  1   
  8   4  27  1   
  9   5   8  1   
 10   5  28  1   
 11   5  29  1   
 12   6   9  1   
 13   6  30  1   
 14   6  31  1   
 15   7  10  1   
 16   8  11  1   
 17   8  32  1   
 18   8  33  1   
 19   9  12  1   
 20   9  34  1   
 21   9  35  1   
 22  10  13  ar  
 23  10  14  ar  
 24  11  12  1   
 25  11  15  1   
 26  11  36  1   
 27  12  37  1   
 28  12  38  1   
 29  13  16  ar  
 30  13  17  1   
 31  14  18  ar  
 32  14  39  1   
 33  15  19  1   
 34  15  40  1   
 35  15  41  1   
 36  16  20  ar  
 37  16  21  1   
 38  17  42  1   
 39  17  43  1   
 40  17  44  1   
 41  18  20  ar  
 42  18  45  1   
 43  19  22  2   
 44  19  23  1   
 45  20  46  1   
 46  21  47  1   
 47  21  48  1   
 48  21  49  1   
 49  22  24  1   
 50  22  50  1   
 51  23  25  2   
 52  23  51  1   
 53  24  25  1   
 54  25  52  1   
@<TRIPOS>SUBSTRUCTURE
  1 ****   5 GROUP 4 **** **** 0

# MOE 2024.06 (io_trps.svl 2023.06)
