@<TRIPOS>MOLECULE
NONAME
57 59 1 0 0 
SMALL
USER_CHARGES


@<TRIPOS>ATOM
  1 O        1.6140     2.9660    -1.1730 O.co2 1 <1>  -0.9000 
  2 C        1.6890     2.0870    -0.3110 C.2   1 <1>   0.9060 
  3 O        1.7000     2.3780     0.8880 O.co2 1 <1>  -0.9000 
  4 C        2.1510     0.6750    -0.7310 C.3   1 <1>  -0.1060 
  5 C        3.5220     0.4780    -0.0540 C.3   1 <1>   0.4230 
  6 C        2.3710     0.5710    -2.2770 C.3   1 <1>  -0.1600 
  7 C        1.1530    -0.4310    -0.2990 C.3   1 <1>  -0.1600 
  8 N        3.3460     0.3880     1.4410 N.4   1 <1>  -0.9590 
  9 C        4.5070     1.6030    -0.5200 C.3   1 <1>   0.3430 
 10 C        3.5670     1.3660    -2.8470 C.3   1 <1>   0.3430 
 11 C        1.1050    -0.6250     1.2240 C.3   1 <1>  -0.1600 
 12 C        2.4960    -0.7640     1.8450 C.3   1 <1>   0.3430 
 13 C        4.5790     0.4920     2.2750 C.3   1 <1>   0.2630 
 14 N        4.1150     2.2790    -1.8160 N.4   1 <1>  -0.9590 
 15 C        5.0780     3.2930    -2.3130 C.3   1 <1>   0.4860 
 16 C        5.4820     4.1870    -1.1540 C.ar  1 <1>  -0.1430 
 17 C        6.8130     4.2740    -0.7770 C.ar  1 <1>  -0.1500 
 18 C        4.5290     4.9050    -0.4470 C.ar  1 <1>  -0.1500 
 19 C        7.2020     5.0620     0.2960 C.ar  1 <1>  -0.1430 
 20 C        4.9040     5.6860     0.6290 C.ar  1 <1>  -0.1500 
 21 C        6.2400     5.7690     1.0120 C.ar  1 <1>   0.0830 
 22 C        8.6770     5.1410     0.6800 C.3   1 <1>   0.2630 
 23 O        6.6600     6.5100     2.0720 O.3   1 <1>  -0.3630 
 24 O        9.4240     5.3490    -0.4670 O.3   1 <1>  -0.6800 
 25 C        5.8330     7.4210     2.7680 C.3   1 <1>   0.1200 
 26 C        5.6620     8.6930     1.9370 C.3   1 <1>  -0.2400 
 27 H        3.9240    -0.4610    -0.3950 H     1 <1>   0.0800 
 28 H        1.4770     0.9120    -2.7750 H     1 <1>   0.0800 
 29 H        2.5010    -0.4560    -2.5700 H     1 <1>   0.0800 
 30 H        0.1660    -0.1840    -0.6570 H     1 <1>   0.0800 
 31 H        1.4310    -1.3710    -0.7460 H     1 <1>   0.0800 
 32 H        2.7380     1.2330     1.6400 H     1 <1>   0.4500 
 33 H        5.4940     1.1860    -0.6170 H     1 <1>   0.0800 
 34 H        4.5330     2.3570     0.2500 H     1 <1>   0.0800 
 35 H        3.2320     1.9370    -3.6990 H     1 <1>   0.0800 
 36 H        4.3350     0.6860    -3.1760 H     1 <1>   0.0800 
 37 H        0.5270    -1.5030     1.4540 H     1 <1>   0.0800 
 38 H        0.5980     0.2080     1.6830 H     1 <1>   0.0800 
 39 H        2.9490    -1.6870     1.5220 H     1 <1>   0.0800 
 40 H        2.3980    -0.7900     2.9190 H     1 <1>   0.0800 
 41 H        5.2430    -0.3320     2.0720 H     1 <1>   0.0800 
 42 H        4.3170     0.4740     3.3210 H     1 <1>   0.0800 
 43 H        5.0920     1.4180     2.0760 H     1 <1>   0.0800 
 44 H        3.2660     2.8570    -1.5670 H     1 <1>   0.4500 
 45 H        5.9490     2.8100    -2.7230 H     1 <1>   0.0800 
 46 H        4.6180     3.8910    -3.0830 H     1 <1>   0.0800 
 47 H        7.5690     3.7300    -1.3200 H     1 <1>   0.1500 
 48 H        3.4830     4.8620    -0.7150 H     1 <1>   0.1500 
 49 H        4.1340     6.2190     1.1550 H     1 <1>   0.1500 
 50 H        9.0030     4.2190     1.1290 H     1 <1>   0.0800 
 51 H        8.8820     5.9520     1.3560 H     1 <1>   0.0800 
 52 H        9.1240     6.1760    -0.8890 H     1 <1>   0.4000 
 53 H        4.8940     6.9500     3.0000 H     1 <1>   0.0800 
 54 H        6.3300     7.6550     3.6920 H     1 <1>   0.0800 
 55 H        5.1610     8.4830     1.0090 H     1 <1>   0.0800 
 56 H        6.6230     9.1300     1.7320 H     1 <1>   0.0800 
 57 H        5.0730     9.4060     2.4850 H     1 <1>   0.0800 
@<TRIPOS>BOND
  1   1   2  ar  
  2   2   3  ar  
  3   2   4  1   
  4   4   5  1   
  5   4   6  1   
  6   4   7  1   
  7   5   8  1   
  8   5   9  1   
  9   5  27  1   
 10   6  10  1   
 11   6  28  1   
 12   6  29  1   
 13   7  11  1   
 14   7  30  1   
 15   7  31  1   
 16   8  12  1   
 17   8  13  1   
 18   8  32  1   
 19   9  14  1   
 20   9  33  1   
 21   9  34  1   
 22  10  14  1   
 23  10  35  1   
 24  10  36  1   
 25  11  12  1   
 26  11  37  1   
 27  11  38  1   
 28  12  39  1   
 29  12  40  1   
 30  13  41  1   
 31  13  42  1   
 32  13  43  1   
 33  14  15  1   
 34  14  44  1   
 35  15  16  1   
 36  15  45  1   
 37  15  46  1   
 38  16  17  ar  
 39  16  18  ar  
 40  17  19  ar  
 41  17  47  1   
 42  18  20  ar  
 43  18  48  1   
 44  19  21  ar  
 45  19  22  1   
 46  20  21  ar  
 47  20  49  1   
 48  21  23  1   
 49  22  24  1   
 50  22  50  1   
 51  22  51  1   
 52  23  25  1   
 53  24  52  1   
 54  25  26  1   
 55  25  53  1   
 56  25  54  1   
 57  26  55  1   
 58  26  56  1   
 59  26  57  1   
@<TRIPOS>SUBSTRUCTURE
  1 ****   9 GROUP 4 **** **** 0

# MOE 2024.06 (io_trps.svl 2023.06)
