@<TRIPOS>MOLECULE
NONAME
45 48 1 0 0 
SMALL
USER_CHARGES


@<TRIPOS>ATOM
  1 O        0.1560     0.0980    -0.3080 O.3   1 <1>  -0.5600 
  2 C        1.3630    -0.5050    -0.6880 C.3   1 <1>   0.3440 
  3 C        0.0500     1.4590    -0.6050 C.3   1 <1>   0.2950 
  4 C        1.3410    -1.9790    -0.3120 C.ar  1 <1>  -0.1440 
  5 C        2.5420     0.1850     0.0360 C.3   1 <1>   0.3430 
  6 C       -1.3370     1.9190    -0.1570 C.3   1 <1>  -0.1950 
  7 C        1.1580     2.2470     0.1290 C.3   1 <1>   0.3430 
  8 C        0.7100    -2.4200     0.8440 C.ar  1 <1>  -0.1500 
  9 C        1.9830    -2.9050    -1.1250 C.ar  1 <1>  -0.1500 
 10 N        2.5430     1.6890    -0.1220 N.4   1 <1>  -0.9590 
 11 C       -2.5370     1.7110    -1.0250 C.3   1 <1>  -0.2000 
 12 C       -2.0050     3.0980    -0.7950 C.3   1 <1>  -0.2000 
 13 C        0.7280    -3.7610     1.1860 C.ar  1 <1>  -0.1500 
 14 C        2.0000    -4.2450    -0.7830 C.ar  1 <1>  -0.1500 
 15 C        3.5650     2.3330     0.7540 C.3   1 <1>   0.4860 
 16 C        1.3750    -4.6740     0.3740 C.ar  1 <1>  -0.1500 
 17 C        3.6110     3.8130     0.4430 C.ar  1 <1>  -0.1440 
 18 C        4.2690     4.2630    -0.6920 C.ar  1 <1>   0.1600 
 19 C        2.9990     4.7370     1.2700 C.ar  1 <1>  -0.1500 
 20 N        4.3350     5.5240    -1.0720 N.ar  1 <1>  -0.6200 
 21 C        3.0750     6.0610     0.8910 C.ar  1 <1>  -0.1500 
 22 C        3.7430     6.3970    -0.2740 C.ar  1 <1>   0.1600 
 23 H        1.4630    -0.4110    -1.7560 H     1 <1>   0.0800 
 24 H        0.1400     1.5830    -1.6710 H     1 <1>   0.0800 
 25 H        3.4650    -0.2280    -0.3350 H     1 <1>   0.0800 
 26 H        2.4700    -0.0700     1.0800 H     1 <1>   0.0800 
 27 H       -1.4870     1.7890     0.9020 H     1 <1>   0.1000 
 28 H        0.9400     2.2150     1.1830 H     1 <1>   0.0800 
 29 H        1.1140     3.2790    -0.1810 H     1 <1>   0.0800 
 30 H        0.1910    -1.7270     1.4840 H     1 <1>   0.1500 
 31 H        2.4720    -2.6000    -2.0340 H     1 <1>   0.1500 
 32 H        2.7870     1.9190    -1.0940 H     1 <1>   0.4500 
 33 H       -2.4130     1.2560    -1.9930 H     1 <1>   0.1000 
 34 H       -3.4660     1.4260    -0.5590 H     1 <1>   0.1000 
 35 H       -2.5910     3.7660    -0.1860 H     1 <1>   0.1000 
 36 H       -1.5550     3.6000    -1.6350 H     1 <1>   0.1000 
 37 H        0.2340    -4.0960     2.0820 H     1 <1>   0.1500 
 38 H        2.4970    -4.9600    -1.4170 H     1 <1>   0.1500 
 39 H        3.3130     2.1850     1.7920 H     1 <1>   0.0800 
 40 H        4.5360     1.9000     0.5750 H     1 <1>   0.0800 
 41 H        1.3880    -5.7170     0.6400 H     1 <1>   0.1500 
 42 H        4.7700     3.5570    -1.3340 H     1 <1>   0.1500 
 43 H        2.4860     4.4610     2.1760 H     1 <1>   0.1500 
 44 H        2.6240     6.8330     1.4900 H     1 <1>   0.1500 
 45 H        3.7940     7.4350    -0.5630 H     1 <1>   0.1500 
@<TRIPOS>BOND
  1   1   2  1   
  2   1   3  1   
  3   2   4  1   
  4   2   5  1   
  5   2  23  1   
  6   3   6  1   
  7   3   7  1   
  8   3  24  1   
  9   4   8  ar  
 10   4   9  ar  
 11   5  10  1   
 12   5  25  1   
 13   5  26  1   
 14   6  11  1   
 15   6  12  1   
 16   6  27  1   
 17   7  10  1   
 18   7  28  1   
 19   7  29  1   
 20   8  13  ar  
 21   8  30  1   
 22   9  14  ar  
 23   9  31  1   
 24  10  15  1   
 25  10  32  1   
 26  11  12  1   
 27  11  33  1   
 28  11  34  1   
 29  12  35  1   
 30  12  36  1   
 31  13  16  ar  
 32  13  37  1   
 33  14  16  ar  
 34  14  38  1   
 35  15  17  1   
 36  15  39  1   
 37  15  40  1   
 38  16  41  1   
 39  17  18  ar  
 40  17  19  ar  
 41  18  20  ar  
 42  18  42  1   
 43  19  21  ar  
 44  19  43  1   
 45  20  22  ar  
 46  21  22  ar  
 47  21  44  1   
 48  22  45  1   
@<TRIPOS>SUBSTRUCTURE
  1 ****  10 GROUP 4 **** **** 0

# MOE 2024.06 (io_trps.svl 2023.06)
