@<TRIPOS>MOLECULE
NONAME
45 46 1 0 0 
SMALL
USER_CHARGES


@<TRIPOS>ATOM
  1 S       -1.0110     0.3020     0.4060 S.o2  1 <1>   1.0900 
  2 O        0.3780    -0.0500     0.5790 O.2   1 <1>  -0.6500 
  3 O       -1.5450     1.5570     0.8800 O.2   1 <1>  -0.6500 
  4 C       -1.9850    -1.0550     0.9940 C.3   1 <1>  -0.0550 
  5 C       -1.4300     0.0520    -1.3130 C.3   1 <1>  -0.0550 
  6 C       -1.9090    -2.0850    -0.1300 C.3   1 <1>   0.1760 
  7 C       -2.1050    -1.3240    -1.4570 C.3   1 <1>  -0.1600 
  8 N       -2.9200    -3.1570     0.0470 N.pl3 1 <1>   0.3140 
  9 N       -4.2210    -2.8640     0.2460 N.2   1 <1>  -0.7070 
 10 C       -2.7060    -4.4970     0.0450 C.2   1 <1>  -0.3320 
 11 C       -4.8000    -4.0140     0.3870 C.2   1 <1>   0.1080 
 12 C       -3.9050    -5.0780     0.2760 C.2   1 <1>   0.0630 
 13 C       -1.3520    -5.1550    -0.1850 C.3   1 <1>  -0.0600 
 14 C       -6.2850    -4.1430     0.6460 C.3   1 <1>  -0.0590 
 15 N       -4.2320    -6.4540     0.3800 N.am  1 <1>  -0.4930 
 16 C       -3.6450    -7.4390     1.1120 C.2   1 <1>   0.5690 
 17 O       -2.6470    -7.2860     1.7790 O.2   1 <1>  -0.5700 
 18 C       -4.3020    -8.8160     1.0910 C.3   1 <1>   0.1810 
 19 O       -5.5180    -8.7960     0.3780 O.3   1 <1>  -0.5600 
 20 C       -6.1600   -10.0270     0.3310 C.3   1 <1>   0.1200 
 21 C       -7.4520    -9.8510    -0.4650 C.3   1 <1>  -0.1600 
 22 C       -8.2290   -11.1690    -0.5670 C.3   1 <1>  -0.2400 
 23 H       -3.0010    -0.7370     1.1300 H     1 <1>   0.0800 
 24 H       -1.6000    -1.4480     1.9150 H     1 <1>   0.0800 
 25 H       -0.5390     0.0960    -1.9120 H     1 <1>   0.0800 
 26 H       -2.1020     0.8200    -1.6480 H     1 <1>   0.0800 
 27 H       -0.9280    -2.5240    -0.1180 H     1 <1>   0.0800 
 28 H       -1.6890    -1.8770    -2.2810 H     1 <1>   0.0800 
 29 H       -3.1570    -1.1740    -1.6330 H     1 <1>   0.0800 
 30 H       -0.8880    -4.7660    -1.0720 H     1 <1>   0.0800 
 31 H       -1.4660    -6.2170    -0.3100 H     1 <1>   0.0800 
 32 H       -0.7100    -4.9840     0.6600 H     1 <1>   0.0800 
 33 H       -6.6710    -3.2120     1.0170 H     1 <1>   0.0800 
 34 H       -6.4660    -4.9090     1.3760 H     1 <1>   0.0800 
 35 H       -6.7910    -4.3920    -0.2680 H     1 <1>   0.0800 
 36 H       -5.1060    -6.7490    -0.0640 H     1 <1>   0.3700 
 37 H       -4.4980    -9.1260     2.1010 H     1 <1>   0.0800 
 38 H       -3.6350    -9.5160     0.6200 H     1 <1>   0.0800 
 39 H       -6.3760   -10.3470     1.3370 H     1 <1>   0.0800 
 40 H       -5.5130   -10.7400    -0.1520 H     1 <1>   0.0800 
 41 H       -7.2130    -9.5040    -1.4550 H     1 <1>   0.0800 
 42 H       -8.0680    -9.1140     0.0190 H     1 <1>   0.0800 
 43 H       -7.6380   -11.9180    -1.0650 H     1 <1>   0.0800 
 44 H       -9.1330   -11.0190    -1.1320 H     1 <1>   0.0800 
 45 H       -8.4940   -11.5280     0.4120 H     1 <1>   0.0800 
@<TRIPOS>BOND
  1   1   2  2   
  2   1   3  2   
  3   1   4  1   
  4   1   5  1   
  5   4   6  1   
  6   4  23  1   
  7   4  24  1   
  8   5   7  1   
  9   5  25  1   
 10   5  26  1   
 11   6   7  1   
 12   6   8  1   
 13   6  27  1   
 14   7  28  1   
 15   7  29  1   
 16   8   9  1   
 17   8  10  1   
 18   9  11  2   
 19  10  12  2   
 20  10  13  1   
 21  11  12  1   
 22  11  14  1   
 23  12  15  1   
 24  13  30  1   
 25  13  31  1   
 26  13  32  1   
 27  14  33  1   
 28  14  34  1   
 29  14  35  1   
 30  15  16  am  
 31  15  36  1   
 32  16  17  2   
 33  16  18  1   
 34  18  19  1   
 35  18  37  1   
 36  18  38  1   
 37  19  20  1   
 38  20  21  1   
 39  20  39  1   
 40  20  40  1   
 41  21  22  1   
 42  21  41  1   
 43  21  42  1   
 44  22  43  1   
 45  22  44  1   
 46  22  45  1   
@<TRIPOS>SUBSTRUCTURE
  1 ****  12 GROUP 4 **** **** 0

# MOE 2024.06 (io_trps.svl 2023.06)
