@<TRIPOS>MOLECULE
NONAME
42 43 1 0 0 
SMALL
USER_CHARGES


@<TRIPOS>ATOM
  1 O       -0.6490     0.2860    -0.6300 O.2   1 <1>  -0.5700 
  2 C       -1.5550     0.8880    -0.0740 C.2   1 <1>   0.7160 
  3 N       -2.6460     0.1370     0.3400 N.am  1 <1>  -0.6600 
  4 C       -1.4310     2.3340     0.1180 C.2   1 <1>   0.2030 
  5 C       -3.0180    -1.1310    -0.3570 C.3   1 <1>   0.1400 
  6 C       -3.5780     0.5530     1.4210 C.3   1 <1>   0.1400 
  7 N       -2.3960     3.2080     0.3670 N.2   1 <1>  -0.7070 
  8 C       -0.1990     3.0000     0.0270 C.2   1 <1>  -0.1500 
  9 C       -4.4560    -1.0360    -0.9000 C.3   1 <1>   0.2000 
 10 C       -4.9900     0.6930     0.8390 C.3   1 <1>  -0.1600 
 11 N       -1.7790     4.4070     0.4270 N.pl3 1 <1>   0.3000 
 12 C       -0.4430     4.3090     0.2370 C.2   1 <1>  -0.0680 
 13 O       -4.8000    -2.2500    -1.4900 O.3   1 <1>  -0.6800 
 14 C       -5.5020    -0.6170     0.1770 C.3   1 <1>   0.0000 
 15 N        0.4640     5.3750     0.2470 N.pl3 1 <1>  -0.8840 
 16 C       -5.6290    -1.7450     1.2410 C.3   1 <1>   0.1200 
 17 C       -6.9080    -0.3880    -0.4520 C.3   1 <1>  -0.1600 
 18 O       -6.4730    -1.3830     2.2820 O.3   1 <1>  -0.6800 
 19 C       -6.9950     0.6190    -1.6150 C.3   1 <1>  -0.1600 
 20 C       -8.4410     0.7620    -2.1000 C.3   1 <1>  -0.2400 
 21 H       -2.3530    -1.3090    -1.1850 H     1 <1>   0.0800 
 22 H       -2.9220    -1.9480     0.3340 H     1 <1>   0.0800 
 23 H       -3.5620    -0.1870     2.2020 H     1 <1>   0.0800 
 24 H       -3.2690     1.4810     1.8660 H     1 <1>   0.0800 
 25 H        0.7420     2.5220    -0.1780 H     1 <1>   0.1500 
 26 H       -4.4410    -0.3060    -1.6890 H     1 <1>   0.0800 
 27 H       -5.6630     1.0180     1.6110 H     1 <1>   0.0800 
 28 H       -4.9480     1.4850     0.1130 H     1 <1>   0.0800 
 29 H       -2.2810     5.2900     0.5680 H     1 <1>   0.2700 
 30 H       -4.8650    -2.9600    -0.8260 H     1 <1>   0.4000 
 31 H        0.3860     6.0240     1.0390 H     1 <1>   0.4000 
 32 H        1.4450     5.0930     0.1320 H     1 <1>   0.4000 
 33 H       -4.6770    -1.9970     1.6730 H     1 <1>   0.0800 
 34 H       -6.0440    -2.6350     0.7990 H     1 <1>   0.0800 
 35 H       -7.2800    -1.3330    -0.8090 H     1 <1>   0.0800 
 36 H       -7.5840    -0.0630     0.3200 H     1 <1>   0.0800 
 37 H       -6.2090    -0.5220     2.6570 H     1 <1>   0.4000 
 38 H       -6.6420     1.5870    -1.3090 H     1 <1>   0.0800 
 39 H       -6.3940     0.2850    -2.4430 H     1 <1>   0.0800 
 40 H       -9.0720     1.1180    -1.3050 H     1 <1>   0.0800 
 41 H       -8.8170    -0.1860    -2.4430 H     1 <1>   0.0800 
 42 H       -8.4880     1.4620    -2.9150 H     1 <1>   0.0800 
@<TRIPOS>BOND
  1   1   2  2   
  2   2   3  am  
  3   2   4  1   
  4   3   5  1   
  5   3   6  1   
  6   4   7  2   
  7   4   8  1   
  8   5   9  1   
  9   5  21  1   
 10   5  22  1   
 11   6  10  1   
 12   6  23  1   
 13   6  24  1   
 14   7  11  1   
 15   8  12  2   
 16   8  25  1   
 17   9  13  1   
 18   9  14  1   
 19   9  26  1   
 20  10  14  1   
 21  10  27  1   
 22  10  28  1   
 23  11  12  1   
 24  11  29  1   
 25  12  15  1   
 26  13  30  1   
 27  14  16  1   
 28  14  17  1   
 29  15  31  1   
 30  15  32  1   
 31  16  18  1   
 32  16  33  1   
 33  16  34  1   
 34  17  19  1   
 35  17  35  1   
 36  17  36  1   
 37  18  37  1   
 38  19  20  1   
 39  19  38  1   
 40  19  39  1   
 41  20  40  1   
 42  20  41  1   
 43  20  42  1   
@<TRIPOS>SUBSTRUCTURE
  1 ****   3 GROUP 4 **** **** 0

# MOE 2024.06 (io_trps.svl 2023.06)
