@<TRIPOS>MOLECULE
NONAME
53 55 1 0 0 
SMALL
USER_CHARGES


@<TRIPOS>ATOM
  1 O       -1.2070     0.5150    -2.0500 O.2   1 <1>  -0.5700 
  2 C       -1.2810     0.8230    -0.8860 C.2   1 <1>   0.5690 
  3 N       -1.4260    -0.1030     0.0910 N.am  1 <1>  -0.7300 
  4 C       -1.2130     2.2830    -0.5010 C.3   1 <1>  -0.0990 
  5 C       -1.4750    -1.5680    -0.1280 C.3   1 <1>   0.2200 
  6 C        0.2380     2.7710    -0.4470 C.3   1 <1>  -0.0160 
  7 C       -2.8920    -2.1040     0.0290 C.3   1 <1>  -0.0800 
  8 C       -0.7870    -2.2580     1.0410 C.3   1 <1>   0.1200 
  9 C        0.2930     4.2240    -0.0010 C.ar  1 <1>  -0.1440 
 10 C       -3.0200    -2.3070     1.5440 C.3   1 <1>   0.1200 
 11 C       -4.0090    -1.2470    -0.5940 C.3   1 <1>  -0.0160 
 12 O       -1.7260    -2.2360     2.0720 O.3   1 <1>  -0.5600 
 13 C        0.1490     5.2430    -0.9310 C.ar  1 <1>  -0.1500 
 14 C        0.4860     4.5430     1.3340 C.ar  1 <1>  -0.1500 
 15 C       -5.3590    -1.9320    -0.4540 C.ar  1 <1>  -0.1440 
 16 C        0.2000     6.5700    -0.5380 C.ar  1 <1>   0.0820 
 17 C        0.5230     5.8670     1.7390 C.ar  1 <1>  -0.1500 
 18 C       -6.2520    -1.5990     0.5450 C.ar  1 <1>  -0.1500 
 19 C       -5.7610    -2.9270    -1.3230 C.ar  1 <1>  -0.1500 
 20 O        0.0910     7.5140    -1.5060 O.3   1 <1>  -0.3620 
 21 C        0.3640     6.8870     0.8150 C.ar  1 <1>   0.0820 
 22 C       -7.4650    -2.2630     0.6280 C.ar  1 <1>   0.1600 
 23 C       -6.9970    -3.5280    -1.1520 C.ar  1 <1>   0.1600 
 24 C        1.2430     8.2920    -1.7450 C.3   1 <1>   0.0400 
 25 O        0.3740     8.1600     1.2830 O.3   1 <1>  -0.3630 
 26 N       -7.8580    -3.2210    -0.1950 N.ar  1 <1>  -0.6200 
 27 C       -0.8250     8.8890     1.1410 C.3   1 <1>   0.0400 
 28 H       -1.5090     0.1700     1.0720 H     1 <1>   0.3700 
 29 H       -1.7570     2.8560    -1.2300 H     1 <1>   0.0800 
 30 H       -1.6830     2.4280     0.4530 H     1 <1>   0.0800 
 31 H       -1.0330    -1.8270    -1.0760 H     1 <1>   0.0800 
 32 H        0.6880     2.6730    -1.4200 H     1 <1>   0.0800 
 33 H        0.8030     2.1600     0.2350 H     1 <1>   0.0800 
 34 H       -2.9240    -3.0770    -0.4280 H     1 <1>   0.0800 
 35 H        0.1120    -1.7570     1.3540 H     1 <1>   0.0800 
 36 H       -0.5740    -3.2870     0.8080 H     1 <1>   0.0800 
 37 H       -3.4430    -3.2690     1.7810 H     1 <1>   0.0800 
 38 H       -3.6030    -1.5300     2.0050 H     1 <1>   0.0800 
 39 H       -3.7960    -1.0880    -1.6380 H     1 <1>   0.0800 
 40 H       -4.0510    -0.2810    -0.1240 H     1 <1>   0.0800 
 41 H        0.0030     5.0170    -1.9710 H     1 <1>   0.1500 
 42 H        0.6070     3.7650     2.0670 H     1 <1>   0.1500 
 43 H        0.6680     6.1160     2.7740 H     1 <1>   0.1500 
 44 H       -6.0190    -0.8310     1.2590 H     1 <1>   0.1500 
 45 H       -5.1250    -3.2390    -2.1300 H     1 <1>   0.1500 
 46 H       -8.1490    -1.9910     1.4140 H     1 <1>   0.1500 
 47 H       -7.2930    -4.3010    -1.8390 H     1 <1>   0.1500 
 48 H        1.0500     8.9280    -2.5890 H     1 <1>   0.0800 
 49 H        2.0670     7.6350    -1.9570 H     1 <1>   0.0800 
 50 H        1.4560     8.8900    -0.8770 H     1 <1>   0.0800 
 51 H       -0.7200     9.8160     1.6740 H     1 <1>   0.0800 
 52 H       -1.6330     8.3130     1.5570 H     1 <1>   0.0800 
 53 H       -1.0040     9.0840     0.1000 H     1 <1>   0.0800 
@<TRIPOS>BOND
  1   1   2  2   
  2   2   3  am  
  3   2   4  1   
  4   3   5  1   
  5   3  28  1   
  6   4   6  1   
  7   4  29  1   
  8   4  30  1   
  9   5   7  1   
 10   5   8  1   
 11   5  31  1   
 12   6   9  1   
 13   6  32  1   
 14   6  33  1   
 15   7  10  1   
 16   7  11  1   
 17   7  34  1   
 18   8  12  1   
 19   8  35  1   
 20   8  36  1   
 21   9  13  ar  
 22   9  14  ar  
 23  10  12  1   
 24  10  37  1   
 25  10  38  1   
 26  11  15  1   
 27  11  39  1   
 28  11  40  1   
 29  13  16  ar  
 30  13  41  1   
 31  14  17  ar  
 32  14  42  1   
 33  15  18  ar  
 34  15  19  ar  
 35  16  20  1   
 36  16  21  ar  
 37  17  21  ar  
 38  17  43  1   
 39  18  22  ar  
 40  18  44  1   
 41  19  23  ar  
 42  19  45  1   
 43  20  24  1   
 44  21  25  1   
 45  22  26  ar  
 46  22  46  1   
 47  23  26  ar  
 48  23  47  1   
 49  24  48  1   
 50  24  49  1   
 51  24  50  1   
 52  25  27  1   
 53  27  51  1   
 54  27  52  1   
 55  27  53  1   
@<TRIPOS>SUBSTRUCTURE
  1 ****   4 GROUP 4 **** **** 0

# MOE 2024.06 (io_trps.svl 2023.06)
