@<TRIPOS>MOLECULE
NONAME
49 51 1 0 0 
SMALL
USER_CHARGES


@<TRIPOS>ATOM
  1 S        0.5280    -0.2200     1.7620 S.o2  1 <1>   1.4470 
  2 O        0.0210     0.7970     2.6580 O.2   1 <1>  -0.6500 
  3 O        1.2520    -1.3340     2.3310 O.2   1 <1>  -0.6500 
  4 N        1.6430     0.6130     0.7830 N.am  1 <1>  -0.8490 
  5 C       -0.8090    -0.6950     0.6320 C.ar  1 <1>  -0.0090 
  6 C        2.6590     1.2810     1.6320 C.3   1 <1>   0.1960 
  7 C        2.2920    -0.2630    -0.2050 C.3   1 <1>   0.1960 
  8 C       -0.8110    -1.8990    -0.0670 C.ar  1 <1>   0.0830 
  9 C       -1.8700     0.1750     0.4110 C.ar  1 <1>  -0.1500 
 10 C        3.5340     2.3480     0.9130 C.3   1 <1>   0.4230 
 11 C        3.0430     0.5360    -1.2900 C.3   1 <1>  -0.0800 
 12 O        0.2110    -2.7690     0.0620 O.3   1 <1>  -0.3630 
 13 C       -1.8360    -2.2210    -0.9460 C.ar  1 <1>  -0.1500 
 14 C       -2.8980    -0.1300    -0.4650 C.ar  1 <1>   0.0830 
 15 N        2.9150     2.9460    -0.3390 N.4   1 <1>  -0.9590 
 16 C        4.9720     1.8430     0.6660 C.3   1 <1>   0.1200 
 17 C        4.5730     0.4290    -1.1970 C.3   1 <1>   0.1200 
 18 C        2.5290     1.9770    -1.4280 C.3   1 <1>   0.3430 
 19 C       -0.0250    -3.8980     0.8750 C.3   1 <1>   0.0400 
 20 C       -2.8820    -1.3420    -1.1470 C.ar  1 <1>  -0.1500 
 21 O       -3.8720     0.8040    -0.6030 O.3   1 <1>  -0.3630 
 22 C        1.7020     3.7390     0.0360 C.3   1 <1>   0.2630 
 23 O        5.0060     0.5660     0.1140 O.3   1 <1>  -0.5600 
 24 C       -5.0110     0.5590    -1.3990 C.3   1 <1>   0.0400 
 25 H        2.1630     1.7990     2.4350 H     1 <1>   0.0800 
 26 H        3.2870     0.5390     2.1000 H     1 <1>   0.0800 
 27 H        2.9450    -0.9710     0.2840 H     1 <1>   0.0800 
 28 H        1.5350    -0.8340    -0.7110 H     1 <1>   0.0800 
 29 H       -1.9110     1.1150     0.9330 H     1 <1>   0.1500 
 30 H        3.6490     3.1540     1.6180 H     1 <1>   0.0800 
 31 H        2.7940     0.0590    -2.2210 H     1 <1>   0.0800 
 32 H       -1.8070    -3.1570    -1.4750 H     1 <1>   0.1500 
 33 H        3.6080     3.5920    -0.7380 H     1 <1>   0.4500 
 34 H        5.4800     1.7720     1.6120 H     1 <1>   0.0800 
 35 H        5.5300     2.5160     0.0400 H     1 <1>   0.0800 
 36 H        5.0730     1.1530    -1.8190 H     1 <1>   0.0800 
 37 H        4.8800    -0.5530    -1.5160 H     1 <1>   0.0800 
 38 H        1.4530     1.9200    -1.4750 H     1 <1>   0.0800 
 39 H        2.8640     2.3700    -2.3740 H     1 <1>   0.0800 
 40 H        0.8790    -4.4790     0.9150 H     1 <1>   0.0800 
 41 H       -0.8200    -4.4830     0.4490 H     1 <1>   0.0800 
 42 H       -0.2880    -3.5680     1.8650 H     1 <1>   0.0800 
 43 H       -3.6640    -1.6110    -1.8320 H     1 <1>   0.1500 
 44 H        0.9490     3.0880     0.4540 H     1 <1>   0.0800 
 45 H        1.2880     4.2280    -0.8310 H     1 <1>   0.0800 
 46 H        1.9510     4.4900     0.7680 H     1 <1>   0.0800 
 47 H       -5.6560     1.4170    -1.3310 H     1 <1>   0.0800 
 48 H       -5.5210    -0.3110    -1.0230 H     1 <1>   0.0800 
 49 H       -4.7020     0.4160    -2.4190 H     1 <1>   0.0800 
@<TRIPOS>BOND
  1   1   2  2   
  2   1   3  2   
  3   1   4  am  
  4   1   5  1   
  5   4   6  1   
  6   4   7  1   
  7   5   8  ar  
  8   5   9  ar  
  9   6  10  1   
 10   6  25  1   
 11   6  26  1   
 12   7  11  1   
 13   7  27  1   
 14   7  28  1   
 15   8  12  1   
 16   8  13  ar  
 17   9  14  ar  
 18   9  29  1   
 19  10  15  1   
 20  10  16  1   
 21  10  30  1   
 22  11  17  1   
 23  11  18  1   
 24  11  31  1   
 25  12  19  1   
 26  13  20  ar  
 27  13  32  1   
 28  14  20  ar  
 29  14  21  1   
 30  15  18  1   
 31  15  22  1   
 32  15  33  1   
 33  16  23  1   
 34  16  34  1   
 35  16  35  1   
 36  17  23  1   
 37  17  36  1   
 38  17  37  1   
 39  18  38  1   
 40  18  39  1   
 41  19  40  1   
 42  19  41  1   
 43  19  42  1   
 44  20  43  1   
 45  21  24  1   
 46  22  44  1   
 47  22  45  1   
 48  22  46  1   
 49  24  47  1   
 50  24  48  1   
 51  24  49  1   
@<TRIPOS>SUBSTRUCTURE
  1 ****   4 GROUP 4 **** **** 0

# MOE 2024.06 (io_trps.svl 2023.06)
