@<TRIPOS>MOLECULE
NONAME
51 54 1 0 0 
SMALL
USER_CHARGES


@<TRIPOS>ATOM
  1 O        0.3830     0.8760    -0.3640 O.2   1 <1>  -0.5700 
  2 C        0.3010     2.0600    -0.1590 C.2   1 <1>   0.5690 
  3 N       -0.8150     2.5920     0.3820 N.am  1 <1>  -0.7300 
  4 C        1.4560     2.9870    -0.5500 C.3   1 <1>   0.1810 
  5 C       -0.9900     4.0390     0.6580 C.3   1 <1>   0.3640 
  6 O        1.3900     4.2520     0.0740 O.3   1 <1>  -0.5600 
  7 C       -2.3670     4.4670     0.1520 C.ar  1 <1>  -0.1440 
  8 C        0.1230     4.8930    -0.0060 C.3   1 <1>   0.2610 
  9 C       -3.1620     5.2890     0.9370 C.ar  1 <1>  -0.1500 
 10 C       -2.8410     4.0610    -1.0900 C.ar  1 <1>  -0.1500 
 11 C        0.1920     6.3110     0.5910 C.2   1 <1>   0.5690 
 12 C       -4.4070     5.6980     0.4930 C.ar  1 <1>  -0.1500 
 13 C       -4.0860     4.4690    -1.5360 C.ar  1 <1>  -0.1500 
 14 O       -0.2990     6.5040     1.6830 O.2   1 <1>  -0.5700 
 15 N        0.7980     7.3410    -0.0970 N.am  1 <1>  -0.6600 
 16 C       -4.8700     5.2890    -0.7440 C.ar  1 <1>  -0.1500 
 17 C        0.8170     8.7270     0.4500 C.3   1 <1>   0.1400 
 18 C        1.6400     7.1710    -1.3130 C.3   1 <1>   0.1400 
 19 C        2.2530     9.0910     0.8340 C.3   1 <1>  -0.1600 
 20 C        3.0910     7.5030    -0.9590 C.3   1 <1>  -0.1600 
 21 C        3.2110     8.9140    -0.3570 C.3   1 <1>   0.0630 
 22 C        4.6530     9.2350     0.0290 C.ar  1 <1>   0.1670 
 23 N        5.2420    10.2170    -0.6130 N.ar  1 <1>  -0.6200 
 24 C        5.3130     8.5260     1.0100 C.ar  1 <1>  -0.1500 
 25 C        6.4840    10.4770    -0.2460 C.ar  1 <1>   0.7200 
 26 C        6.6100     8.8840     1.2920 C.ar  1 <1>   0.1600 
 27 N        7.2170     9.8620     0.6650 N.ar  1 <1>  -0.6200 
 28 N        7.0860    11.4720    -0.8980 N.pl3 1 <1>  -0.9000 
 29 H       -1.5890     1.9740     0.6340 H     1 <1>   0.3700 
 30 H        1.4510     3.1330    -1.6140 H     1 <1>   0.0800 
 31 H        2.3870     2.5320    -0.2660 H     1 <1>   0.0800 
 32 H       -0.9470     4.1700     1.7250 H     1 <1>   0.0800 
 33 H       -0.1200     4.9920    -1.0470 H     1 <1>   0.0800 
 34 H       -2.8150     5.6230     1.9010 H     1 <1>   0.1500 
 35 H       -2.2470     3.4210    -1.7200 H     1 <1>   0.1500 
 36 H       -5.0140     6.3370     1.1100 H     1 <1>   0.1500 
 37 H       -4.4460     4.1480    -2.4980 H     1 <1>   0.1500 
 38 H       -5.8380     5.6070    -1.0900 H     1 <1>   0.1500 
 39 H        0.4500     9.4070    -0.3000 H     1 <1>   0.0800 
 40 H        0.1780     8.8100     1.3120 H     1 <1>   0.0800 
 41 H        1.5900     6.1680    -1.6940 H     1 <1>   0.0800 
 42 H        1.2870     7.8370    -2.0820 H     1 <1>   0.0800 
 43 H        2.2830    10.1120     1.1700 H     1 <1>   0.0800 
 44 H        2.5510     8.4650     1.6560 H     1 <1>   0.0800 
 45 H        3.4500     6.7660    -0.2620 H     1 <1>   0.0800 
 46 H        3.6980     7.4410    -1.8450 H     1 <1>   0.0800 
 47 H        2.9110     9.6160    -1.1170 H     1 <1>   0.0800 
 48 H        4.8390     7.7220     1.5390 H     1 <1>   0.1500 
 49 H        7.1610     8.3530     2.0510 H     1 <1>   0.1500 
 50 H        6.6700    11.7220    -1.7890 H     1 <1>   0.4000 
 51 H        8.1000    11.4680    -0.8460 H     1 <1>   0.4000 
@<TRIPOS>BOND
  1   1   2  2   
  2   2   3  am  
  3   2   4  1   
  4   3   5  1   
  5   3  29  1   
  6   4   6  1   
  7   4  30  1   
  8   4  31  1   
  9   5   7  1   
 10   5   8  1   
 11   5  32  1   
 12   6   8  1   
 13   7   9  ar  
 14   7  10  ar  
 15   8  11  1   
 16   8  33  1   
 17   9  12  ar  
 18   9  34  1   
 19  10  13  ar  
 20  10  35  1   
 21  11  14  2   
 22  11  15  am  
 23  12  16  ar  
 24  12  36  1   
 25  13  16  ar  
 26  13  37  1   
 27  15  17  1   
 28  15  18  1   
 29  16  38  1   
 30  17  19  1   
 31  17  39  1   
 32  17  40  1   
 33  18  20  1   
 34  18  41  1   
 35  18  42  1   
 36  19  21  1   
 37  19  43  1   
 38  19  44  1   
 39  20  21  1   
 40  20  45  1   
 41  20  46  1   
 42  21  22  1   
 43  21  47  1   
 44  22  23  ar  
 45  22  24  ar  
 46  23  25  ar  
 47  24  26  ar  
 48  24  48  1   
 49  25  27  ar  
 50  25  28  1   
 51  26  27  ar  
 52  26  49  1   
 53  28  50  1   
 54  28  51  1   
@<TRIPOS>SUBSTRUCTURE
  1 ****  15 GROUP 4 **** **** 0

# MOE 2024.06 (io_trps.svl 2023.06)
