@<TRIPOS>MOLECULE
NONAME
49 52 1 0 0 
SMALL
USER_CHARGES


@<TRIPOS>ATOM
  1 O        1.3570    -0.3820    -2.5310 O.2   1 <1>  -0.5700 
  2 C        1.9800    -0.7710    -1.5640 C.2   1 <1>   0.5440 
  3 N        2.7590     0.1310    -0.8750 N.am  1 <1>  -0.6600 
  4 C        1.8970    -2.1490    -1.1350 C.ar  1 <1>   0.0860 
  5 C        2.9770    -0.0060     0.6100 C.3   1 <1>   0.2200 
  6 C        3.3720     1.2620    -1.6340 C.3   1 <1>   0.1400 
  7 C        0.7390    -2.6660    -0.5780 C.ar  1 <1>  -0.1500 
  8 C        3.0220    -2.9910    -1.2470 C.ar  1 <1>  -0.1500 
  9 C        2.6130     1.2800     1.3700 C.3   1 <1>   0.1200 
 10 C        4.4070    -0.4760     0.9540 C.3   1 <1>   0.3430 
 11 C        4.4580     2.0540    -0.8820 C.3   1 <1>  -0.0800 
 12 C        0.7130    -3.9780    -0.1020 C.ar  1 <1>  -0.1520 
 13 C        3.0060    -4.2830    -0.7820 C.ar  1 <1>  -0.1500 
 14 O        3.6870     2.1720     1.4070 O.3   1 <1>  -0.5600 
 15 N        5.3890    -0.1920    -0.1320 N.4   1 <1>  -0.9590 
 16 C        3.8830     2.9160     0.2510 C.3   1 <1>   0.1200 
 17 C        5.6840     1.2350    -0.4340 C.3   1 <1>   0.3430 
 18 N       -0.2930    -4.7070     0.4890 N.pl3 1 <1>   0.0480 
 19 C        1.8430    -4.7860    -0.1910 C.ar  1 <1>   0.0000 
 20 C        6.6460    -1.0320    -0.0690 C.3   1 <1>   0.2370 
 21 C        0.2030    -5.9450     0.7750 C.2   1 <1>  -0.3020 
 22 C       -1.6700    -4.2480     0.7290 C.3   1 <1>   0.0160 
 23 C        1.4950    -6.0260     0.3760 C.2   1 <1>  -0.1500 
 24 C        6.9820    -1.5910    -1.4520 C.2   1 <1>   0.9060 
 25 O        8.0820    -2.0980    -1.6600 O.co2 1 <1>  -0.9000 
 26 O        6.0920    -1.4710    -2.3080 O.co2 1 <1>  -0.9000 
 27 H        2.3000    -0.7550     0.9810 H     1 <1>   0.0800 
 28 H        3.8010     0.8600    -2.5390 H     1 <1>   0.0800 
 29 H        2.5840     1.9320    -1.9340 H     1 <1>   0.0800 
 30 H       -0.1410    -2.0510    -0.5120 H     1 <1>   0.1500 
 31 H        3.9080    -2.6050    -1.7240 H     1 <1>   0.1500 
 32 H        2.3910     1.0320     2.3930 H     1 <1>   0.0800 
 33 H        1.7470     1.7590     0.9450 H     1 <1>   0.0800 
 34 H        4.3720    -1.5400     1.1160 H     1 <1>   0.0800 
 35 H        4.7290    -0.0140     1.8730 H     1 <1>   0.0800 
 36 H        4.8330     2.7640    -1.5970 H     1 <1>   0.0800 
 37 H        3.8680    -4.9210    -0.8750 H     1 <1>   0.1500 
 38 H        4.9680    -0.5520    -1.0240 H     1 <1>   0.4500 
 39 H        2.9530     3.3820    -0.0350 H     1 <1>   0.0800 
 40 H        4.5820     3.6960     0.5010 H     1 <1>   0.0800 
 41 H        6.1320     1.7030     0.4270 H     1 <1>   0.0800 
 42 H        6.4060     1.2580    -1.2350 H     1 <1>   0.0800 
 43 H        7.4810    -0.4550     0.2820 H     1 <1>   0.0800 
 44 H        6.5040    -1.8730     0.5840 H     1 <1>   0.0800 
 45 H       -0.3950    -6.7050     1.2460 H     1 <1>   0.1500 
 46 H       -2.2670    -5.0680     1.0830 H     1 <1>   0.0800 
 47 H       -2.0830    -3.8750    -0.1900 H     1 <1>   0.0800 
 48 H       -1.6600    -3.4650     1.4650 H     1 <1>   0.0800 
 49 H        2.1640    -6.8650     0.4540 H     1 <1>   0.1500 
@<TRIPOS>BOND
  1   1   2  2   
  2   2   3  am  
  3   2   4  1   
  4   3   5  1   
  5   3   6  1   
  6   4   7  ar  
  7   4   8  ar  
  8   5   9  1   
  9   5  10  1   
 10   5  27  1   
 11   6  11  1   
 12   6  28  1   
 13   6  29  1   
 14   7  12  ar  
 15   7  30  1   
 16   8  13  ar  
 17   8  31  1   
 18   9  14  1   
 19   9  32  1   
 20   9  33  1   
 21  10  15  1   
 22  10  34  1   
 23  10  35  1   
 24  11  16  1   
 25  11  17  1   
 26  11  36  1   
 27  12  18  1   
 28  12  19  ar  
 29  13  19  ar  
 30  13  37  1   
 31  14  16  1   
 32  15  17  1   
 33  15  20  1   
 34  15  38  1   
 35  16  39  1   
 36  16  40  1   
 37  17  41  1   
 38  17  42  1   
 39  18  21  1   
 40  18  22  1   
 41  19  23  1   
 42  20  24  1   
 43  20  43  1   
 44  20  44  1   
 45  21  23  2   
 46  21  45  1   
 47  22  46  1   
 48  22  47  1   
 49  22  48  1   
 50  23  49  1   
 51  24  25  ar  
 52  24  26  ar  
@<TRIPOS>SUBSTRUCTURE
  1 ****   4 GROUP 4 **** **** 0

# MOE 2024.06 (io_trps.svl 2023.06)
