@<TRIPOS>MOLECULE
NONAME
56 59 1 0 0 
SMALL
USER_CHARGES


@<TRIPOS>ATOM
  1 S       -0.2800    -0.2740     0.5710 S.3   1 <1>  -0.0800 
  2 C       -0.0450     1.3550    -0.0660 C.2   1 <1>  -0.0130 
  3 C       -1.9780    -0.2980     0.1370 C.2   1 <1>  -0.1400 
  4 C        1.2570     1.9760     0.0180 C.ar  1 <1>   0.0530 
  5 C       -1.2280     1.7910    -0.5620 C.2   1 <1>  -0.1500 
  6 C       -2.3110     0.8700    -0.4500 C.2   1 <1>  -0.1500 
  7 C       -2.6940    -1.5890     0.5020 C.3   1 <1>   0.5230 
  8 C        2.4350     1.2330     0.1140 C.ar  1 <1>  -0.1500 
  9 C        1.3780     3.3650     0.0010 C.ar  1 <1>  -0.1500 
 10 N       -4.1080    -1.6130     0.0390 N.4   1 <1>  -0.9590 
 11 C        3.6720     1.8470     0.1910 C.ar  1 <1>  -0.1500 
 12 C        2.6110     3.9860     0.0770 C.ar  1 <1>  -0.1500 
 13 C       -4.2130    -1.6340    -1.4530 C.3   1 <1>   0.3430 
 14 C       -4.9740    -0.5960     0.6990 C.3   1 <1>   0.3430 
 15 C        3.7630     3.2270     0.1730 C.ar  1 <1>  -0.1500 
 16 C       -5.6110    -2.0830    -1.9330 C.3   1 <1>   0.1400 
 17 C       -6.3120    -1.2120     1.1270 C.3   1 <1>  -0.1600 
 18 N       -6.4430    -2.6990    -0.8460 N.am  1 <1>  -0.6600 
 19 C       -7.1980    -1.7240    -0.0180 C.3   1 <1>   0.1400 
 20 C       -6.1610    -3.9650    -0.4010 C.2   1 <1>   0.5690 
 21 O       -5.0040    -4.3120    -0.3350 O.2   1 <1>  -0.5700 
 22 C       -7.2400    -4.9450     0.0670 C.3   1 <1>  -0.0190 
 23 C       -8.5470    -4.8710    -0.7490 C.3   1 <1>  -0.1600 
 24 C       -7.5320    -4.8370     1.5750 C.3   1 <1>  -0.1600 
 25 C       -9.6070    -5.8120    -0.1680 C.3   1 <1>   0.1200 
 26 C       -8.6650    -5.7860     1.9790 C.3   1 <1>   0.1200 
 27 O       -9.7770    -5.5220     1.1840 O.3   1 <1>  -0.5600 
 28 H       -1.3730     2.7560    -1.0160 H     1 <1>   0.1500 
 29 H       -3.2780     1.1540    -0.8230 H     1 <1>   0.1500 
 30 H       -2.6620    -1.7130     1.5720 H     1 <1>   0.0800 
 31 H       -2.1620    -2.4170     0.0620 H     1 <1>   0.0800 
 32 H        2.3940     0.1600     0.1230 H     1 <1>   0.1500 
 33 H        0.4940     3.9720    -0.0670 H     1 <1>   0.1500 
 34 H       -4.4860    -2.5480     0.2940 H     1 <1>   0.4500 
 35 H        4.5660     1.2520     0.2650 H     1 <1>   0.1500 
 36 H        2.6770     5.0600     0.0630 H     1 <1>   0.1500 
 37 H       -3.4950    -2.3380    -1.8420 H     1 <1>   0.0800 
 38 H       -3.9750    -0.6690    -1.8680 H     1 <1>   0.0800 
 39 H       -5.1470     0.2320     0.0310 H     1 <1>   0.0800 
 40 H       -4.4760    -0.2140     1.5760 H     1 <1>   0.0800 
 41 H        4.7250     3.7070     0.2330 H     1 <1>   0.1500 
 42 H       -5.4860    -2.8000    -2.7260 H     1 <1>   0.0800 
 43 H       -6.1330    -1.2410    -2.3540 H     1 <1>   0.0800 
 44 H       -6.8670    -0.4590     1.6570 H     1 <1>   0.0800 
 45 H       -6.1300    -2.0060     1.8290 H     1 <1>   0.0800 
 46 H       -7.5250    -0.9020    -0.6320 H     1 <1>   0.0800 
 47 H       -8.0810    -2.1860     0.3880 H     1 <1>   0.0800 
 48 H       -6.8370    -5.9300    -0.0980 H     1 <1>   0.0800 
 49 H       -8.3540    -5.1410    -1.7720 H     1 <1>   0.0800 
 50 H       -8.9530    -3.8770    -0.7450 H     1 <1>   0.0800 
 51 H       -7.8280    -3.8400     1.8410 H     1 <1>   0.0800 
 52 H       -6.6480    -5.0820     2.1360 H     1 <1>   0.0800 
 53 H       -9.3190    -6.8450    -0.2680 H     1 <1>   0.0800 
 54 H      -10.5550    -5.6650    -0.6580 H     1 <1>   0.0800 
 55 H       -8.9490    -5.6250     3.0050 H     1 <1>   0.0800 
 56 H       -8.3830    -6.8180     1.8520 H     1 <1>   0.0800 
@<TRIPOS>BOND
  1   1   2  1   
  2   1   3  1   
  3   2   4  1   
  4   2   5  2   
  5   3   6  2   
  6   3   7  1   
  7   4   8  ar  
  8   4   9  ar  
  9   5   6  1   
 10   5  28  1   
 11   6  29  1   
 12   7  10  1   
 13   7  30  1   
 14   7  31  1   
 15   8  11  ar  
 16   8  32  1   
 17   9  12  ar  
 18   9  33  1   
 19  10  13  1   
 20  10  14  1   
 21  10  34  1   
 22  11  15  ar  
 23  11  35  1   
 24  12  15  ar  
 25  12  36  1   
 26  13  16  1   
 27  13  37  1   
 28  13  38  1   
 29  14  17  1   
 30  14  39  1   
 31  14  40  1   
 32  15  41  1   
 33  16  18  1   
 34  16  42  1   
 35  16  43  1   
 36  17  19  1   
 37  17  44  1   
 38  17  45  1   
 39  18  19  1   
 40  18  20  am  
 41  19  46  1   
 42  19  47  1   
 43  20  21  2   
 44  20  22  1   
 45  22  23  1   
 46  22  24  1   
 47  22  48  1   
 48  23  25  1   
 49  23  49  1   
 50  23  50  1   
 51  24  26  1   
 52  24  51  1   
 53  24  52  1   
 54  25  27  1   
 55  25  53  1   
 56  25  54  1   
 57  26  27  1   
 58  26  55  1   
 59  26  56  1   
@<TRIPOS>SUBSTRUCTURE
  1 ****  10 GROUP 4 **** **** 0

# MOE 2024.06 (io_trps.svl 2023.06)
