@<TRIPOS>MOLECULE
NONAME
52 56 1 0 0 
SMALL
USER_CHARGES


@<TRIPOS>ATOM
  1 O        0.2060    -1.6890     3.4550 O.2   1 <1>  -0.5700 
  2 C        0.2130    -2.4360     2.4880 C.2   1 <1>   0.5650 
  3 N        1.0530    -2.2470     1.3580 N.pl3 1 <1>   0.5610 
  4 C       -0.6720    -3.5540     2.4510 C.2   1 <1>  -0.1360 
  5 N        1.9780    -1.2720     1.0800 N.2   1 <1>  -0.7070 
  6 C        0.9950    -3.1330     0.3060 C.2   1 <1>  -0.0680 
  7 C       -0.7270    -4.4210     1.4030 C.2   1 <1>  -0.0380 
  8 C        2.4590    -1.5710    -0.0830 C.2   1 <1>   0.1080 
  9 N        0.1170    -4.2310     0.3230 N.pl3 1 <1>  -0.5840 
 10 C        1.8890    -2.7200    -0.6200 C.2   1 <1>  -0.1500 
 11 C       -1.7150    -5.5850     1.3640 C.3   1 <1>   0.4810 
 12 C        3.5260    -0.7330    -0.7490 C.3   1 <1>  -0.0590 
 13 N       -2.7180    -5.3080     0.2980 N.4   1 <1>  -0.9590 
 14 C       -3.5650    -4.1160     0.6520 C.3   1 <1>   0.3430 
 15 C       -3.5660    -6.4980    -0.0020 C.3   1 <1>   0.3430 
 16 C       -4.5110    -3.7230    -0.4930 C.3   1 <1>   0.1430 
 17 C       -4.4960    -6.1860    -1.1790 C.3   1 <1>  -0.1600 
 18 C       -5.3970    -2.6050    -0.0010 C.ar  1 <1>   0.1670 
 19 C       -5.3610    -4.9370    -0.9230 C.3   1 <1>  -0.1600 
 20 C       -3.7750    -3.0650    -1.6930 C.3   1 <1>  -0.1600 
 21 N       -6.0240    -2.6100     1.1520 N.ar  1 <1>  -0.6200 
 22 C       -5.4530    -1.5720    -0.8850 C.ar  1 <1>  -0.1430 
 23 C       -4.6160    -1.8420    -2.1110 C.3   1 <1>  -0.0170 
 24 C       -6.7420    -1.5170     1.3790 C.ar  1 <1>   0.4770 
 25 C       -6.2210    -0.4870    -0.5450 C.ar  1 <1>   0.1600 
 26 N       -6.8740    -0.4530     0.5980 N.ar  1 <1>  -0.6200 
 27 C       -7.4940    -1.4690     2.6870 C.3   1 <1>  -0.0970 
 28 H       -1.3000    -3.6560     3.3180 H     1 <1>   0.1500 
 29 H        0.2400    -4.9230    -0.4320 H     1 <1>   0.4000 
 30 H        2.1320    -3.1580    -1.5710 H     1 <1>   0.1500 
 31 H       -2.2060    -5.6870     2.3180 H     1 <1>   0.0800 
 32 H       -1.1820    -6.4980     1.1530 H     1 <1>   0.0800 
 33 H        3.1640     0.2690    -0.8840 H     1 <1>   0.0800 
 34 H        3.7910    -1.1440    -1.7060 H     1 <1>   0.0800 
 35 H        4.4000    -0.7040    -0.1250 H     1 <1>   0.0800 
 36 H       -2.1920    -5.0560    -0.5470 H     1 <1>   0.4500 
 37 H       -2.9430    -3.2680     0.8880 H     1 <1>   0.0800 
 38 H       -4.1610    -4.3390     1.5220 H     1 <1>   0.0800 
 39 H       -4.1590    -6.7520     0.8620 H     1 <1>   0.0800 
 40 H       -2.9470    -7.3460    -0.2500 H     1 <1>   0.0800 
 41 H       -5.1430    -7.0300    -1.3440 H     1 <1>   0.0800 
 42 H       -3.9120    -6.0600    -2.0740 H     1 <1>   0.0800 
 43 H       -5.9350    -4.6950    -1.8030 H     1 <1>   0.0800 
 44 H       -6.0660    -5.1610    -0.1390 H     1 <1>   0.0800 
 45 H       -3.6350    -3.7350    -2.5220 H     1 <1>   0.0800 
 46 H       -2.8100    -2.7070    -1.3760 H     1 <1>   0.0800 
 47 H       -5.2600    -2.0830    -2.9400 H     1 <1>   0.0800 
 48 H       -3.9970    -0.9980    -2.3640 H     1 <1>   0.0800 
 49 H       -6.3040     0.3590    -1.2060 H     1 <1>   0.1500 
 50 H       -7.6880    -2.4630     3.0440 H     1 <1>   0.0800 
 51 H       -8.4310    -0.9610     2.5510 H     1 <1>   0.0800 
 52 H       -6.9100    -0.9380     3.4140 H     1 <1>   0.0800 
@<TRIPOS>BOND
  1   1   2  2   
  2   2   3  1   
  3   2   4  1   
  4   3   5  1   
  5   3   6  1   
  6   4   7  2   
  7   4  28  1   
  8   5   8  2   
  9   6   9  1   
 10   6  10  2   
 11   7   9  1   
 12   7  11  1   
 13   8  10  1   
 14   8  12  1   
 15   9  29  1   
 16  10  30  1   
 17  11  13  1   
 18  11  31  1   
 19  11  32  1   
 20  12  33  1   
 21  12  34  1   
 22  12  35  1   
 23  13  14  1   
 24  13  15  1   
 25  13  36  1   
 26  14  16  1   
 27  14  37  1   
 28  14  38  1   
 29  15  17  1   
 30  15  39  1   
 31  15  40  1   
 32  16  18  1   
 33  16  19  1   
 34  16  20  1   
 35  17  19  1   
 36  17  41  1   
 37  17  42  1   
 38  18  21  ar  
 39  18  22  ar  
 40  19  43  1   
 41  19  44  1   
 42  20  23  1   
 43  20  45  1   
 44  20  46  1   
 45  21  24  ar  
 46  22  23  1   
 47  22  25  ar  
 48  23  47  1   
 49  23  48  1   
 50  24  26  ar  
 51  24  27  1   
 52  25  26  ar  
 53  25  49  1   
 54  27  50  1   
 55  27  51  1   
 56  27  52  1   
@<TRIPOS>SUBSTRUCTURE
  1 ****  14 GROUP 4 **** **** 0

# MOE 2024.06 (io_trps.svl 2023.06)
