@<TRIPOS>MOLECULE
NONAME
58 62 1 0 0 
SMALL
USER_CHARGES


@<TRIPOS>ATOM
  1 O       -0.3580    -1.4530    -2.1530 O.2   1 <1>  -0.5700 
  2 C       -1.0460    -1.7530    -1.1890 C.2   1 <1>   0.5440 
  3 N       -1.0440    -0.8840    -0.1030 N.am  1 <1>  -0.6600 
  4 C       -1.7940    -3.0150    -1.2190 C.ar  1 <1>   0.3960 
  5 C       -0.4410     0.4750    -0.1900 C.3   1 <1>   0.0600 
  6 C       -1.5430    -1.2530     1.2490 C.3   1 <1>   0.0600 
  7 N       -3.0590    -3.0630    -0.7680 N.ar  1 <1>  -0.6200 
  8 C       -1.1590    -4.1460    -1.7290 C.ar  1 <1>  -0.1500 
  9 C       -3.6850    -4.2280    -0.8190 C.ar  1 <1>   0.4100 
 10 C       -1.8060    -5.3610    -1.7820 C.ar  1 <1>  -0.1500 
 11 N       -4.9880    -4.2500    -0.3540 N.pl3 1 <1>  -0.8380 
 12 C       -3.0960    -5.3880    -1.3150 C.ar  1 <1>  -0.1500 
 13 C       -5.9280    -3.1160    -0.6280 C.3   1 <1>   0.2090 
 14 C       -5.5350    -5.3520     0.4800 C.3   1 <1>   0.2090 
 15 C       -6.4960    -2.5270     0.6770 C.3   1 <1>   0.1430 
 16 C       -6.1170    -4.7870     1.7830 C.3   1 <1>  -0.1600 
 17 C       -7.4800    -1.4320     0.3100 C.ar  1 <1>   0.1670 
 18 C       -7.1250    -3.6510     1.5280 C.3   1 <1>  -0.1600 
 19 C       -5.4190    -1.7360     1.4650 C.3   1 <1>  -0.1600 
 20 N       -8.7020    -1.6140    -0.1320 N.ar  1 <1>  -0.6200 
 21 C       -6.9310    -0.1970     0.4770 C.ar  1 <1>  -0.1430 
 22 C       -5.5130    -0.2790     0.9860 C.3   1 <1>  -0.0170 
 23 C       -9.3970    -0.5020    -0.4060 C.ar  1 <1>   0.6200 
 24 C       -7.7040     0.8920     0.1690 C.ar  1 <1>   0.1600 
 25 N       -8.9340     0.7500    -0.2690 N.ar  1 <1>  -0.6200 
 26 C      -10.7610    -0.6660    -0.8920 C.ar  1 <1>   0.0000 
 27 C      -11.7380     0.3120    -0.6800 C.ar  1 <1>  -0.1500 
 28 C      -11.1590    -1.8090    -1.5930 C.ar  1 <1>  -0.1500 
 29 C      -13.0340     0.1600    -1.1390 C.ar  1 <1>  -0.1500 
 30 C      -12.4530    -1.9680    -2.0540 C.ar  1 <1>  -0.1500 
 31 C      -13.3950    -0.9820    -1.8290 C.ar  1 <1>  -0.1500 
 32 H       -0.3370     0.7790    -1.2170 H     1 <1>   0.0800 
 33 H        0.5310     0.4690     0.2700 H     1 <1>   0.0800 
 34 H       -1.0700     1.1880     0.3130 H     1 <1>   0.0800 
 35 H       -1.6950    -2.3140     1.3300 H     1 <1>   0.0800 
 36 H       -2.4740    -0.7500     1.4370 H     1 <1>   0.0800 
 37 H       -0.8260    -0.9570     1.9950 H     1 <1>   0.0800 
 38 H       -0.1490    -4.0580    -2.0880 H     1 <1>   0.1500 
 39 H       -1.3250    -6.2400    -2.1760 H     1 <1>   0.1500 
 40 H       -3.6640    -6.2970    -1.3410 H     1 <1>   0.1500 
 41 H       -6.7420    -3.4850    -1.2280 H     1 <1>   0.0800 
 42 H       -5.4360    -2.3450    -1.1940 H     1 <1>   0.0800 
 43 H       -4.7600    -6.0610     0.7140 H     1 <1>   0.0800 
 44 H       -6.3060    -5.8590    -0.0750 H     1 <1>   0.0800 
 45 H       -5.3060    -4.4290     2.3920 H     1 <1>   0.0800 
 46 H       -6.6000    -5.5810     2.3230 H     1 <1>   0.0800 
 47 H       -7.9750    -4.0510     1.0010 H     1 <1>   0.0800 
 48 H       -7.4820    -3.2530     2.4610 H     1 <1>   0.0800 
 49 H       -4.4350    -2.1450     1.3340 H     1 <1>   0.0800 
 50 H       -5.6570    -1.7590     2.5140 H     1 <1>   0.0800 
 51 H       -4.8240    -0.1040     0.1770 H     1 <1>   0.0800 
 52 H       -5.3290     0.4160     1.7870 H     1 <1>   0.0800 
 53 H       -7.3120     1.8880     0.2830 H     1 <1>   0.1500 
 54 H      -11.4760     1.2080    -0.1450 H     1 <1>   0.1500 
 55 H      -10.4400    -2.5880    -1.7790 H     1 <1>   0.1500 
 56 H      -13.7620     0.9330    -0.9600 H     1 <1>   0.1500 
 57 H      -12.7270    -2.8600    -2.5900 H     1 <1>   0.1500 
 58 H      -14.4030    -1.1030    -2.1870 H     1 <1>   0.1500 
@<TRIPOS>BOND
  1   1   2  2   
  2   2   3  am  
  3   2   4  1   
  4   3   5  1   
  5   3   6  1   
  6   4   7  ar  
  7   4   8  ar  
  8   5  32  1   
  9   5  33  1   
 10   5  34  1   
 11   6  35  1   
 12   6  36  1   
 13   6  37  1   
 14   7   9  ar  
 15   8  10  ar  
 16   8  38  1   
 17   9  11  1   
 18   9  12  ar  
 19  10  12  ar  
 20  10  39  1   
 21  11  13  1   
 22  11  14  1   
 23  12  40  1   
 24  13  15  1   
 25  13  41  1   
 26  13  42  1   
 27  14  16  1   
 28  14  43  1   
 29  14  44  1   
 30  15  17  1   
 31  15  18  1   
 32  15  19  1   
 33  16  18  1   
 34  16  45  1   
 35  16  46  1   
 36  17  20  ar  
 37  17  21  ar  
 38  18  47  1   
 39  18  48  1   
 40  19  22  1   
 41  19  49  1   
 42  19  50  1   
 43  20  23  ar  
 44  21  22  1   
 45  21  24  ar  
 46  22  51  1   
 47  22  52  1   
 48  23  25  ar  
 49  23  26  1   
 50  24  25  ar  
 51  24  53  1   
 52  26  27  ar  
 53  26  28  ar  
 54  27  29  ar  
 55  27  54  1   
 56  28  30  ar  
 57  28  55  1   
 58  29  31  ar  
 59  29  56  1   
 60  30  31  ar  
 61  30  57  1   
 62  31  58  1   
@<TRIPOS>SUBSTRUCTURE
  1 ****  13 GROUP 4 **** **** 0

# MOE 2024.06 (io_trps.svl 2023.06)
