@<TRIPOS>MOLECULE
NONAME
39 40 1 0 0 
SMALL
USER_CHARGES


@<TRIPOS>ATOM
  1 S        0.3460     0.3140    -1.3440 S.o2  1 <1>   1.3330 
  2 O       -0.6120     1.1670    -2.0070 O.2   1 <1>  -0.6500 
  3 O        0.7000    -0.9600    -1.9310 O.2   1 <1>  -0.6500 
  4 N       -0.2470     0.0160     0.2210 N.am  1 <1>  -0.8490 
  5 C        1.8620     1.2310    -1.0550 C.3   1 <1>  -0.0550 
  6 C       -1.0830    -1.1880     0.2730 C.3   1 <1>   0.1160 
  7 C       -0.9840     1.1520     0.7870 C.3   1 <1>   0.1160 
  8 C        3.0010     0.3910    -0.4350 C.3   1 <1>  -0.0800 
  9 C        4.3460     1.0970    -0.3310 C.3   1 <1>   0.2200 
 10 C        2.7580    -0.0880     1.0030 C.3   1 <1>   0.1200 
 11 N        4.1850     2.4780     0.1810 N.am  1 <1>  -0.7300 
 12 C        5.0060     0.2600     0.7540 C.3   1 <1>   0.1200 
 13 O        3.9850     0.0080     1.6700 O.3   1 <1>  -0.5600 
 14 C        4.1550     3.6050    -0.5810 C.2   1 <1>   0.7150 
 15 O        4.1710     3.4870    -1.7890 O.2   1 <1>  -0.5700 
 16 C        4.0700     4.8920     0.0470 C.2   1 <1>  -0.2370 
 17 N        4.4680     5.1480     1.3320 N.pl3 1 <1>   0.0330 
 18 C        3.6130     6.0740    -0.4790 C.2   1 <1>  -0.1500 
 19 C        4.2510     6.4580     1.6000 C.2   1 <1>  -0.3020 
 20 C        3.7230     7.0570     0.5010 C.2   1 <1>  -0.1500 
 21 H        2.2070     1.6080    -1.9980 H     1 <1>   0.0800 
 22 H        1.6510     2.0780    -0.4340 H     1 <1>   0.0800 
 23 H       -1.4360    -1.3560     1.2760 H     1 <1>   0.0800 
 24 H       -0.5100    -2.0490    -0.0290 H     1 <1>   0.0800 
 25 H       -1.9270    -1.0870    -0.3890 H     1 <1>   0.0800 
 26 H       -1.2580     0.9440     1.8070 H     1 <1>   0.0800 
 27 H       -1.8790     1.3430     0.2160 H     1 <1>   0.0800 
 28 H       -0.3730     2.0370     0.7740 H     1 <1>   0.0800 
 29 H        3.1410    -0.4840    -1.0460 H     1 <1>   0.0800 
 30 H        4.8990     1.0900    -1.2560 H     1 <1>   0.0800 
 31 H        2.4210    -1.1110     1.0310 H     1 <1>   0.0800 
 32 H        2.0560     0.5390     1.5240 H     1 <1>   0.0800 
 33 H        3.9400     2.5220     1.1690 H     1 <1>   0.3700 
 34 H        5.8190     0.7690     1.2420 H     1 <1>   0.0800 
 35 H        5.3440    -0.6840     0.3620 H     1 <1>   0.0800 
 36 H        4.8910     4.4680     1.9740 H     1 <1>   0.2700 
 37 H        3.2350     6.2250    -1.4770 H     1 <1>   0.1500 
 38 H        4.4850     6.9050     2.5510 H     1 <1>   0.1500 
 39 H        3.4400     8.0900     0.3830 H     1 <1>   0.1500 
@<TRIPOS>BOND
  1   1   2  2   
  2   1   3  2   
  3   1   4  am  
  4   1   5  1   
  5   4   6  1   
  6   4   7  1   
  7   5   8  1   
  8   5  21  1   
  9   5  22  1   
 10   6  23  1   
 11   6  24  1   
 12   6  25  1   
 13   7  26  1   
 14   7  27  1   
 15   7  28  1   
 16   8   9  1   
 17   8  10  1   
 18   8  29  1   
 19   9  11  1   
 20   9  12  1   
 21   9  30  1   
 22  10  13  1   
 23  10  31  1   
 24  10  32  1   
 25  11  14  am  
 26  11  33  1   
 27  12  13  1   
 28  12  34  1   
 29  12  35  1   
 30  14  15  2   
 31  14  16  1   
 32  16  17  1   
 33  16  18  2   
 34  17  19  1   
 35  17  36  1   
 36  18  20  1   
 37  18  37  1   
 38  19  20  2   
 39  19  38  1   
 40  20  39  1   
@<TRIPOS>SUBSTRUCTURE
  1 ****   5 GROUP 4 **** **** 0

# MOE 2024.06 (io_trps.svl 2023.06)
