@<TRIPOS>MOLECULE
NONAME
53 55 1 0 0 
SMALL
USER_CHARGES


@<TRIPOS>ATOM
  1 O       -0.9070    -0.2860     0.7930 O.2   1 <1>  -0.5700 
  2 C       -1.4370     0.4410    -0.0160 C.2   1 <1>   0.5690 
  3 N       -2.2800    -0.0820    -0.9760 N.am  1 <1>  -0.6600 
  4 C       -1.1330     1.9400     0.1240 C.3   1 <1>  -0.0190 
  5 C       -2.4940    -1.5580    -1.0290 C.3   1 <1>   0.1400 
  6 C       -3.0590     0.6690    -2.0030 C.3   1 <1>   0.0600 
  7 C       -2.3610     2.7670     0.5640 C.3   1 <1>  -0.1600 
  8 C       -0.3840     2.5370    -1.0940 C.3   1 <1>  -0.1600 
  9 C       -3.5710    -1.9760    -0.0280 C.3   1 <1>   0.0200 
 10 C       -2.0070     4.2390     0.8620 C.3   1 <1>   0.2000 
 11 C       -0.6560     4.0370    -1.3030 C.3   1 <1>  -0.1600 
 12 C       -3.6210    -3.4850     0.0720 C.2   1 <1>   0.0060 
 13 O       -3.1400     5.0190     0.5650 O.3   1 <1>  -0.5600 
 14 C       -0.7960     4.7580     0.0390 C.3   1 <1>   0.2000 
 15 N       -2.7480    -4.1820     0.8450 N.pl3 1 <1>   0.0330 
 16 N       -4.4680    -4.2220    -0.5550 N.2   1 <1>  -0.5650 
 17 C       -4.1030     5.0710     1.5710 C.3   1 <1>   0.0400 
 18 O       -0.9610     6.1030    -0.2150 O.3   1 <1>  -0.6800 
 19 C       -3.0770    -5.4880     0.6890 C.ar  1 <1>  -0.1520 
 20 C       -4.1490    -5.4940    -0.1830 C.ar  1 <1>   0.2270 
 21 C       -2.5620    -6.6770     1.2110 C.ar  1 <1>  -0.1500 
 22 C       -4.7350    -6.7030    -0.5540 C.ar  1 <1>  -0.1500 
 23 C       -3.1420    -7.8730     0.8440 C.ar  1 <1>   0.0820 
 24 C       -4.2360    -7.8830    -0.0450 C.ar  1 <1>  -0.1500 
 25 O       -2.6070    -9.0020     1.3780 O.3   1 <1>  -0.3630 
 26 C       -3.1340   -10.2750     1.0770 C.3   1 <1>   0.0400 
 27 H       -0.4420     2.0110     0.9480 H     1 <1>   0.0800 
 28 H       -2.7830    -1.8630    -2.0210 H     1 <1>   0.0800 
 29 H       -1.5700    -2.0580    -0.7940 H     1 <1>   0.0800 
 30 H       -2.8770     0.2460    -2.9760 H     1 <1>   0.0800 
 31 H       -2.7890     1.7060    -2.0380 H     1 <1>   0.0800 
 32 H       -4.1100     0.5950    -1.7840 H     1 <1>   0.0800 
 33 H       -2.7820     2.3220     1.4480 H     1 <1>   0.0800 
 34 H       -3.1080     2.7430    -0.2050 H     1 <1>   0.0800 
 35 H        0.6720     2.3930    -0.9370 H     1 <1>   0.0800 
 36 H       -0.6270     2.0110    -1.9990 H     1 <1>   0.0800 
 37 H       -4.5280    -1.6110    -0.3550 H     1 <1>   0.0800 
 38 H       -3.3570    -1.5650     0.9420 H     1 <1>   0.0800 
 39 H       -1.7650     4.3580     1.9050 H     1 <1>   0.0800 
 40 H       -1.5700     4.1610    -1.8590 H     1 <1>   0.0800 
 41 H        0.1480     4.4730    -1.8710 H     1 <1>   0.0800 
 42 H        0.1140     4.6380     0.6010 H     1 <1>   0.0800 
 43 H       -1.9920    -3.8020     1.4220 H     1 <1>   0.2700 
 44 H       -4.9090     5.6960     1.2290 H     1 <1>   0.0800 
 45 H       -3.6670     5.4980     2.4580 H     1 <1>   0.0800 
 46 H       -4.4740     4.0810     1.7680 H     1 <1>   0.0800 
 47 H       -1.9340     6.2560    -0.2090 H     1 <1>   0.4000 
 48 H       -1.7280    -6.6640     1.8880 H     1 <1>   0.1500 
 49 H       -5.5670    -6.6800    -1.2330 H     1 <1>   0.1500 
 50 H       -4.6960    -8.8060    -0.3390 H     1 <1>   0.1500 
 51 H       -2.5590   -11.0090     1.6120 H     1 <1>   0.0800 
 52 H       -3.0490   -10.4470     0.0180 H     1 <1>   0.0800 
 53 H       -4.1600   -10.3120     1.3950 H     1 <1>   0.0800 
@<TRIPOS>BOND
  1   1   2  2   
  2   2   3  am  
  3   2   4  1   
  4   3   5  1   
  5   3   6  1   
  6   4   7  1   
  7   4   8  1   
  8   4  27  1   
  9   5   9  1   
 10   5  28  1   
 11   5  29  1   
 12   6  30  1   
 13   6  31  1   
 14   6  32  1   
 15   7  10  1   
 16   7  33  1   
 17   7  34  1   
 18   8  11  1   
 19   8  35  1   
 20   8  36  1   
 21   9  12  1   
 22   9  37  1   
 23   9  38  1   
 24  10  13  1   
 25  10  14  1   
 26  10  39  1   
 27  11  14  1   
 28  11  40  1   
 29  11  41  1   
 30  12  15  1   
 31  12  16  2   
 32  13  17  1   
 33  14  18  1   
 34  14  42  1   
 35  15  19  1   
 36  15  43  1   
 37  16  20  1   
 38  17  44  1   
 39  17  45  1   
 40  17  46  1   
 41  18  47  1   
 42  19  20  ar  
 43  19  21  ar  
 44  20  22  ar  
 45  21  23  ar  
 46  21  48  1   
 47  22  24  ar  
 48  22  49  1   
 49  23  24  ar  
 50  23  25  1   
 51  24  50  1   
 52  25  26  1   
 53  26  51  1   
 54  26  52  1   
 55  26  53  1   
@<TRIPOS>SUBSTRUCTURE
  1 ****   9 GROUP 4 **** **** 0

# MOE 2024.06 (io_trps.svl 2023.06)
