@<TRIPOS>MOLECULE
NONAME
46 48 1 0 0 
SMALL
USER_CHARGES


@<TRIPOS>ATOM
  1 S       -0.6260    -0.1080    -1.0260 S.3   1 <1>  -0.0800 
  2 C        0.8670    -0.9570    -0.6040 C.2   1 <1>  -0.0450 
  3 C        0.0720     1.4530    -0.6660 C.2   1 <1>  -0.1100 
  4 C        1.8010    -0.0390    -0.2350 C.2   1 <1>  -0.1810 
  5 C        0.8990    -2.3940    -0.7310 C.2   1 <1>   0.7150 
  6 C        1.3480     1.3130    -0.2650 C.2   1 <1>  -0.1500 
  7 C        3.2320    -0.3440     0.1750 C.3   1 <1>  -0.0590 
  8 O        1.7900    -2.9280    -1.3610 O.2   1 <1>  -0.5700 
  9 N       -0.0530    -3.2110    -0.1450 N.am  1 <1>  -0.6600 
 10 C       -0.8950    -2.8030     1.0220 C.3   1 <1>   0.1400 
 11 C       -0.1270    -4.6660    -0.4780 C.3   1 <1>   0.1400 
 12 C       -2.3610    -3.2690     0.8650 C.3   1 <1>   0.4230 
 13 C       -1.5890    -5.1180    -0.6430 C.3   1 <1>   0.3430 
 14 N       -2.4540    -4.7520     0.5440 N.4   1 <1>  -0.9590 
 15 C       -3.1040    -2.4280    -0.1980 C.3   1 <1>   0.1200 
 16 C       -3.9020    -5.1230     0.3610 C.3   1 <1>   0.4230 
 17 O       -4.4310    -2.8580    -0.3170 O.3   1 <1>  -0.5600 
 18 C       -4.5950    -4.2020    -0.6730 C.3   1 <1>   0.1200 
 19 C       -4.0400    -6.6160     0.0200 C.3   1 <1>  -0.1600 
 20 C       -5.4790    -7.1260     0.1930 C.3   1 <1>  -0.1600 
 21 C       -5.5590    -8.6310    -0.0770 C.3   1 <1>  -0.2400 
 22 H       -0.5470     2.3230    -0.7960 H     1 <1>   0.1500 
 23 H        1.9990     2.1250     0.0110 H     1 <1>   0.1500 
 24 H        3.9140     0.1390    -0.5010 H     1 <1>   0.0800 
 25 H        3.4250    -1.4010     0.1530 H     1 <1>   0.0800 
 26 H        3.4150     0.0190     1.1710 H     1 <1>   0.0800 
 27 H       -0.4830    -3.2450     1.9120 H     1 <1>   0.0800 
 28 H       -0.8690    -1.7380     1.1650 H     1 <1>   0.0800 
 29 H        0.3970    -4.8680    -1.3980 H     1 <1>   0.0800 
 30 H        0.3510    -5.2350     0.2990 H     1 <1>   0.0800 
 31 H       -2.8580    -3.0840     1.8030 H     1 <1>   0.0800 
 32 H       -1.6030    -6.1850    -0.7920 H     1 <1>   0.0800 
 33 H       -1.9830    -4.6590    -1.5340 H     1 <1>   0.0800 
 34 H       -2.1030    -5.2670     1.3590 H     1 <1>   0.4500 
 35 H       -2.6280    -2.4940    -1.1610 H     1 <1>   0.0800 
 36 H       -3.1280    -1.3930     0.0970 H     1 <1>   0.0800 
 37 H       -4.4080    -4.9660     1.3010 H     1 <1>   0.0800 
 38 H       -5.6530    -4.3950    -0.6970 H     1 <1>   0.0800 
 39 H       -4.2010    -4.3490    -1.6630 H     1 <1>   0.0800 
 40 H       -3.7350    -6.7970    -0.9960 H     1 <1>   0.0800 
 41 H       -3.4070    -7.1870     0.6760 H     1 <1>   0.0800 
 42 H       -5.8220    -6.9360     1.1970 H     1 <1>   0.0800 
 43 H       -6.1460    -6.6230    -0.4870 H     1 <1>   0.0800 
 44 H       -4.9350    -9.1780     0.6090 H     1 <1>   0.0800 
 45 H       -5.2500    -8.8570    -1.0830 H     1 <1>   0.0800 
 46 H       -6.5730    -8.9720     0.0470 H     1 <1>   0.0800 
@<TRIPOS>BOND
  1   1   2  1   
  2   1   3  1   
  3   2   4  2   
  4   2   5  1   
  5   3   6  2   
  6   3  22  1   
  7   4   6  1   
  8   4   7  1   
  9   5   8  2   
 10   5   9  am  
 11   6  23  1   
 12   7  24  1   
 13   7  25  1   
 14   7  26  1   
 15   9  10  1   
 16   9  11  1   
 17  10  12  1   
 18  10  27  1   
 19  10  28  1   
 20  11  13  1   
 21  11  29  1   
 22  11  30  1   
 23  12  14  1   
 24  12  15  1   
 25  12  31  1   
 26  13  14  1   
 27  13  32  1   
 28  13  33  1   
 29  14  16  1   
 30  14  34  1   
 31  15  17  1   
 32  15  35  1   
 33  15  36  1   
 34  16  18  1   
 35  16  19  1   
 36  16  37  1   
 37  17  18  1   
 38  18  38  1   
 39  18  39  1   
 40  19  20  1   
 41  19  40  1   
 42  19  41  1   
 43  20  21  1   
 44  20  42  1   
 45  20  43  1   
 46  21  44  1   
 47  21  45  1   
 48  21  46  1   
@<TRIPOS>SUBSTRUCTURE
  1 ****   9 GROUP 4 **** **** 0

# MOE 2024.06 (io_trps.svl 2023.06)
