@<TRIPOS>MOLECULE
NONAME
39 40 1 0 0 
SMALL
USER_CHARGES


@<TRIPOS>ATOM
  1 S        0.1470    -0.2760    -0.5720 S.3   1 <1>  -0.0800 
  2 C       -1.3740    -0.8670     0.0190 C.2   1 <1>   0.4420 
  3 C       -0.3760     1.3090    -0.1190 C.2   1 <1>   0.1980 
  4 N       -2.1080     0.0810     0.4810 N.2   1 <1>  -0.3380 
  5 N       -1.5890    -2.2230    -0.0720 N.am  1 <1>  -0.4940 
  6 N       -1.5340     1.3170     0.3980 N.2   1 <1>  -0.3380 
  7 C        0.5440     2.4820    -0.3690 C.3   1 <1>   0.0200 
  8 C       -2.7030    -2.9560     0.2350 C.2   1 <1>   0.7160 
  9 C       -0.1650     3.7680     0.0740 C.3   1 <1>   0.3430 
 10 O       -3.7330    -2.4020     0.5520 O.2   1 <1>  -0.5700 
 11 C       -2.6190    -4.3950     0.1450 C.2   1 <1>  -0.0860 
 12 N        0.6410     5.0070    -0.1910 N.4   1 <1>  -0.9590 
 13 C       -3.6040    -5.3260    -0.0100 C.2   1 <1>  -0.0400 
 14 C       -1.4340    -5.1650     0.2050 C.2   1 <1>  -0.1500 
 15 C        1.8570     5.1000     0.6810 C.3   1 <1>   0.2630 
 16 C       -0.2220     6.2140     0.0100 C.3   1 <1>   0.2630 
 17 O       -3.1060    -6.5370    -0.0530 O.3   1 <1>  -0.2800 
 18 C       -5.1090    -5.1880    -0.1410 C.3   1 <1>  -0.0600 
 19 C       -1.8030    -6.4540     0.0770 C.2   1 <1>  -0.0400 
 20 C       -0.9930    -7.7310     0.0680 C.3   1 <1>  -0.0600 
 21 H       -0.8260    -2.7700    -0.4540 H     1 <1>   0.3700 
 22 H        0.7720     2.5260    -1.4180 H     1 <1>   0.0800 
 23 H        1.4480     2.3320     0.1930 H     1 <1>   0.0800 
 24 H       -0.3970     3.6990     1.1250 H     1 <1>   0.0800 
 25 H       -1.1020     3.8310    -0.4570 H     1 <1>   0.0800 
 26 H        0.9400     5.0010    -1.1790 H     1 <1>   0.4500 
 27 H       -0.4370    -4.7870     0.3400 H     1 <1>   0.1500 
 28 H        1.5730     5.0950     1.7210 H     1 <1>   0.0800 
 29 H        2.3940     6.0120     0.4760 H     1 <1>   0.0800 
 30 H        2.5180     4.2690     0.4990 H     1 <1>   0.0800 
 31 H       -0.5660     6.2640     1.0300 H     1 <1>   0.0800 
 32 H       -1.0810     6.1730    -0.6410 H     1 <1>   0.0800 
 33 H        0.3320     7.1130    -0.2120 H     1 <1>   0.0800 
 34 H       -5.4080    -4.1570    -0.1390 H     1 <1>   0.0800 
 35 H       -5.5880    -5.6880     0.6810 H     1 <1>   0.0800 
 36 H       -5.4340    -5.6390    -1.0600 H     1 <1>   0.0800 
 37 H        0.0520    -7.5130     0.1870 H     1 <1>   0.0800 
 38 H       -1.1420    -8.2480    -0.8620 H     1 <1>   0.0800 
 39 H       -1.3130    -8.3670     0.8740 H     1 <1>   0.0800 
@<TRIPOS>BOND
  1   1   2  1   
  2   1   3  1   
  3   2   4  2   
  4   2   5  1   
  5   3   6  2   
  6   3   7  1   
  7   4   6  1   
  8   5   8  am  
  9   5  21  1   
 10   7   9  1   
 11   7  22  1   
 12   7  23  1   
 13   8  10  2   
 14   8  11  1   
 15   9  12  1   
 16   9  24  1   
 17   9  25  1   
 18  11  13  2   
 19  11  14  1   
 20  12  15  1   
 21  12  16  1   
 22  12  26  1   
 23  13  17  1   
 24  13  18  1   
 25  14  19  2   
 26  14  27  1   
 27  15  28  1   
 28  15  29  1   
 29  15  30  1   
 30  16  31  1   
 31  16  32  1   
 32  16  33  1   
 33  17  19  1   
 34  18  34  1   
 35  18  35  1   
 36  18  36  1   
 37  19  20  1   
 38  20  37  1   
 39  20  38  1   
 40  20  39  1   
@<TRIPOS>SUBSTRUCTURE
  1 ****   2 GROUP 4 **** **** 0

# MOE 2024.06 (io_trps.svl 2023.06)
