@<TRIPOS>MOLECULE
NONAME
39 39 1 0 0 
SMALL
USER_CHARGES


@<TRIPOS>ATOM
  1 O       -1.8370    -1.6230    -2.4910 O.3   1 <1>  -0.8500 
  2 C       -1.2160    -2.0150    -1.4850 C.2   1 <1>  -0.1500 
  3 C       -1.7610    -2.0970    -0.1990 C.2   1 <1>  -0.1240 
  4 C        0.1390    -2.3960    -1.6590 C.2   1 <1>  -0.1500 
  5 C       -0.9660    -2.5500     0.8680 C.2   1 <1>   0.6160 
  6 C       -3.2220    -1.6800     0.0590 C.3   1 <1>   0.0580 
  7 C        0.9040    -2.8430    -0.6340 C.2   1 <1>  -0.0290 
  8 O       -1.3900    -2.6130     2.0430 O.2   1 <1>  -0.5700 
  9 N        0.3660    -2.9520     0.6490 N.am  1 <1>  -0.4690 
 10 C       -4.2320    -2.5560    -0.7380 C.3   1 <1>  -0.0800 
 11 C       -3.3760    -0.1650    -0.1870 C.3   1 <1>  -0.0990 
 12 C        2.3550    -3.2240    -0.8750 C.3   1 <1>  -0.1020 
 13 C        1.1750    -3.4430     1.8020 C.3   1 <1>   0.0600 
 14 C       -5.6980    -2.2700    -0.3650 C.3   1 <1>  -0.2400 
 15 C       -3.9620    -4.0550    -0.5210 C.3   1 <1>  -0.2400 
 16 C       -2.6340     0.6430     0.8550 C.2   1 <1>   0.6590 
 17 O       -3.2160     1.1190     1.8000 O.2   1 <1>  -0.5700 
 18 O       -1.3290     0.8090     0.6860 O.3   1 <1>  -0.4300 
 19 C       -0.5200     1.4340     1.6530 C.3   1 <1>   0.0400 
 20 H        0.5070    -2.2970    -2.6610 H     1 <1>   0.1500 
 21 H       -3.4540    -1.8430     1.0960 H     1 <1>   0.0800 
 22 H       -4.1050    -2.3490    -1.7880 H     1 <1>   0.0800 
 23 H       -4.4040     0.1250    -0.1340 H     1 <1>   0.0800 
 24 H       -3.0110     0.0970    -1.1620 H     1 <1>   0.0800 
 25 H        2.9980    -2.6560    -0.2290 H     1 <1>   0.0800 
 26 H        2.6290    -3.0140    -1.8930 H     1 <1>   0.0800 
 27 H        2.4950    -4.2740    -0.6990 H     1 <1>   0.0800 
 28 H        0.5400    -3.8950     2.5420 H     1 <1>   0.0800 
 29 H        1.6950    -2.6140     2.2460 H     1 <1>   0.0800 
 30 H        1.8810    -4.1850     1.4830 H     1 <1>   0.0800 
 31 H       -5.8430    -2.3720     0.6960 H     1 <1>   0.0800 
 32 H       -6.3490    -2.9610    -0.8700 H     1 <1>   0.0800 
 33 H       -5.9860    -1.2810    -0.6670 H     1 <1>   0.0800 
 34 H       -3.9940    -4.2990     0.5250 H     1 <1>   0.0800 
 35 H       -2.9910    -4.3130    -0.9070 H     1 <1>   0.0800 
 36 H       -4.6870    -4.6500    -1.0460 H     1 <1>   0.0800 
 37 H        0.4920     1.4390     1.2910 H     1 <1>   0.0800 
 38 H       -0.5860     0.8710     2.5680 H     1 <1>   0.0800 
 39 H       -0.8730     2.4400     1.8030 H     1 <1>   0.0800 
@<TRIPOS>BOND
  1   1   2  1   
  2   2   3  2   
  3   2   4  1   
  4   3   5  1   
  5   3   6  1   
  6   4   7  2   
  7   4  20  1   
  8   5   8  2   
  9   5   9  am  
 10   6  10  1   
 11   6  11  1   
 12   6  21  1   
 13   7   9  1   
 14   7  12  1   
 15   9  13  1   
 16  10  14  1   
 17  10  15  1   
 18  10  22  1   
 19  11  16  1   
 20  11  23  1   
 21  11  24  1   
 22  12  25  1   
 23  12  26  1   
 24  12  27  1   
 25  13  28  1   
 26  13  29  1   
 27  13  30  1   
 28  14  31  1   
 29  14  32  1   
 30  14  33  1   
 31  15  34  1   
 32  15  35  1   
 33  15  36  1   
 34  16  17  2   
 35  16  18  1   
 36  18  19  1   
 37  19  37  1   
 38  19  38  1   
 39  19  39  1   
@<TRIPOS>SUBSTRUCTURE
  1 ****   3 GROUP 4 **** **** 0

# MOE 2024.06 (io_trps.svl 2023.06)
