@<TRIPOS>MOLECULE
F2167-9541
23 24 1 0 0 
SMALL
USER_CHARGES


@<TRIPOS>ATOM
  1 BR       0.4350    -0.1990     0.4090 Br    1 <1>  -0.1110 
  2 C        0.2490     1.6980     0.1220 C.ar  1 <1>   0.1110 
  3 C        1.3400     2.5270     0.3130 C.ar  1 <1>   0.0820 
  4 C       -0.9680     2.2150    -0.2860 C.ar  1 <1>  -0.1500 
  5 O        2.5780     2.1620     0.6950 O.3   1 <1>  -0.3630 
  6 C        1.2260     3.8740     0.0950 C.ar  1 <1>  -0.1440 
  7 C       -1.0750     3.5840    -0.5040 C.ar  1 <1>  -0.1500 
  8 C        3.4490     3.2880     0.6220 C.3   1 <1>   0.2000 
  9 C        0.0210     4.4200    -0.3150 C.ar  1 <1>  -0.1500 
 10 C        2.5480     4.5200     0.3800 C.3   1 <1>  -0.0160 
 11 C        4.4330     3.0220    -0.5330 C.3   1 <1>   0.3430 
 12 N        4.7860     1.5710    -0.6080 N.4   1 <1>  -0.8530 
 13 H       -1.8130     1.5640    -0.4300 H     1 <1>   0.1500 
 14 H       -2.0160     4.0020    -0.8200 H     1 <1>   0.1500 
 15 H        3.9680     3.3710     1.5620 H     1 <1>   0.0800 
 16 H       -0.0740     5.4800    -0.4830 H     1 <1>   0.1500 
 17 H        2.4820     5.1220     1.2710 H     1 <1>   0.0800 
 18 H        2.8810     5.1320    -0.4400 H     1 <1>   0.0800 
 19 H        5.3170     3.6280    -0.4140 H     1 <1>   0.0800 
 20 H        3.9540     3.3160    -1.4530 H     1 <1>   0.0800 
 21 H        5.4080     1.2870     0.1560 H     1 <1>   0.4500 
 22 H        5.2070     1.3090    -1.5060 H     1 <1>   0.4500 
 23 H        3.9090     1.0370    -0.4860 H     1 <1>   0.4500 
@<TRIPOS>BOND
  1   1   2  1   
  2   2   3  ar  
  3   2   4  ar  
  4   3   5  1   
  5   3   6  ar  
  6   4   7  ar  
  7   4  13  1   
  8   5   8  1   
  9   6   9  ar  
 10   6  10  1   
 11   7   9  ar  
 12   7  14  1   
 13   8  10  1   
 14   8  11  1   
 15   8  15  1   
 16   9  16  1   
 17  10  17  1   
 18  10  18  1   
 19  11  12  1   
 20  11  19  1   
 21  11  20  1   
 22  12  21  1   
 23  12  22  1   
 24  12  23  1   
@<TRIPOS>SUBSTRUCTURE
  1 ****   3 GROUP 4 **** **** 0

# MOE 2024.06 (io_trps.svl 2023.06)
