@<TRIPOS>MOLECULE
NONAME
60 63 1 0 0 
SMALL
USER_CHARGES


@<TRIPOS>ATOM
  1 O       -0.9950     0.8930    -0.1750 O.3   1 <1>  -0.3630 
  2 C       -1.6440     1.7080     0.7160 C.ar  1 <1>   0.0830 
  3 C        0.3360     1.1850    -0.5740 C.3   1 <1>   0.1200 
  4 C       -1.4570     3.0990     0.8100 C.ar  1 <1>   0.0820 
  5 C       -2.5500     1.0800     1.5660 C.ar  1 <1>  -0.1440 
  6 C        1.0070    -0.0940    -1.0680 C.3   1 <1>   0.0960 
  7 O       -0.6280     3.7310    -0.0690 O.3   1 <1>  -0.3630 
  8 C       -2.1480     3.8110     1.7870 C.ar  1 <1>  -0.1500 
  9 C       -3.2290     1.8080     2.5310 C.ar  1 <1>  -0.1500 
 10 C       -2.8180    -0.4060     1.4330 C.3   1 <1>   0.4870 
 11 N        2.3990     0.1970    -1.4500 N.pl3 1 <1>   0.0480 
 12 C       -0.3450     5.1130     0.0130 C.3   1 <1>   0.0400 
 13 C       -3.0230     3.1680     2.6430 C.ar  1 <1>  -0.1500 
 14 N       -3.4520    -0.6510     0.1090 N.4   1 <1>  -0.9590 
 15 C        2.8720     0.5470    -2.6670 C.2   1 <1>   0.0360 
 16 C        3.4830     0.1880    -0.6530 C.2   1 <1>  -0.3020 
 17 C       -4.7700     0.0520    -0.0160 C.3   1 <1>   0.4230 
 18 C       -3.4370    -2.1050    -0.2360 C.3   1 <1>   0.2630 
 19 N        4.1480     0.7550    -2.6960 N.2   1 <1>  -0.5650 
 20 C        4.5360     0.5280    -1.4270 C.2   1 <1>   0.0770 
 21 C       -5.8950    -0.6320     0.7630 C.3   1 <1>  -0.1600 
 22 C       -5.2610     0.0590    -1.4620 C.3   1 <1>  -0.1600 
 23 C       -6.6050    -1.5860    -0.2130 C.3   1 <1>  -0.0800 
 24 C       -6.2100    -1.1400    -1.6280 C.3   1 <1>  -0.0800 
 25 C       -8.1390    -1.5230    -0.1440 C.3   1 <1>  -0.1600 
 26 C       -7.5190    -0.8080    -2.3650 C.3   1 <1>  -0.1600 
 27 C       -8.5840    -0.6200    -1.2890 C.3   1 <1>   0.2000 
 28 O       -8.5390     0.6860    -0.8570 O.3   1 <1>  -0.6800 
 29 H        0.3000     1.9120    -1.3660 H     1 <1>   0.0800 
 30 H        0.8690     1.5840     0.2730 H     1 <1>   0.0800 
 31 H        0.4890    -0.4770    -1.9280 H     1 <1>   0.0800 
 32 H        1.0160    -0.8340    -0.2890 H     1 <1>   0.0800 
 33 H       -2.0260     4.8720     1.9010 H     1 <1>   0.1500 
 34 H       -3.9220     1.3310     3.2050 H     1 <1>   0.1500 
 35 H       -3.4600    -0.7440     2.2290 H     1 <1>   0.0800 
 36 H       -1.8810    -0.9340     1.4970 H     1 <1>   0.0800 
 37 H        0.3580     5.3580    -0.7640 H     1 <1>   0.0800 
 38 H        0.0890     5.3270     0.9740 H     1 <1>   0.0800 
 39 H       -1.2550     5.6680    -0.1330 H     1 <1>   0.0800 
 40 H       -3.5460     3.7350     3.3960 H     1 <1>   0.1500 
 41 H       -2.8160    -0.1550    -0.5370 H     1 <1>   0.4500 
 42 H        2.2320     0.6420    -3.5270 H     1 <1>   0.1500 
 43 H        3.4560    -0.0530     0.3940 H     1 <1>   0.1500 
 44 H       -4.6580     1.0710     0.3210 H     1 <1>   0.0800 
 45 H       -4.0780    -2.6550     0.4330 H     1 <1>   0.0800 
 46 H       -2.4360    -2.4980    -0.1580 H     1 <1>   0.0800 
 47 H       -3.7830    -2.2520    -1.2450 H     1 <1>   0.0800 
 48 H        5.5690     0.6250    -1.1350 H     1 <1>   0.1500 
 49 H       -5.5550    -1.1390     1.6460 H     1 <1>   0.0800 
 50 H       -6.5840     0.1350     1.0730 H     1 <1>   0.0800 
 51 H       -5.8090     0.9730    -1.6140 H     1 <1>   0.0800 
 52 H       -4.4550     0.0410    -2.1740 H     1 <1>   0.0800 
 53 H       -6.2800    -2.5980    -0.0370 H     1 <1>   0.0800 
 54 H       -5.7040    -1.9390    -2.1440 H     1 <1>   0.0800 
 55 H       -8.5220    -1.1960     0.8080 H     1 <1>   0.0800 
 56 H       -8.5280    -2.5080    -0.3350 H     1 <1>   0.0800 
 57 H       -7.8010    -1.6630    -2.9550 H     1 <1>   0.0800 
 58 H       -7.4490     0.0380    -3.0260 H     1 <1>   0.0800 
 59 H       -9.5830    -0.8310    -1.6330 H     1 <1>   0.0800 
 60 H       -7.6280     0.9190    -0.6200 H     1 <1>   0.4000 
@<TRIPOS>BOND
  1   1   2  1   
  2   1   3  1   
  3   2   4  ar  
  4   2   5  ar  
  5   3   6  1   
  6   3  29  1   
  7   3  30  1   
  8   4   7  1   
  9   4   8  ar  
 10   5   9  ar  
 11   5  10  1   
 12   6  11  1   
 13   6  31  1   
 14   6  32  1   
 15   7  12  1   
 16   8  13  ar  
 17   8  33  1   
 18   9  13  ar  
 19   9  34  1   
 20  10  14  1   
 21  10  35  1   
 22  10  36  1   
 23  11  15  1   
 24  11  16  1   
 25  12  37  1   
 26  12  38  1   
 27  12  39  1   
 28  13  40  1   
 29  14  17  1   
 30  14  18  1   
 31  14  41  1   
 32  15  19  2   
 33  15  42  1   
 34  16  20  2   
 35  16  43  1   
 36  17  21  1   
 37  17  22  1   
 38  17  44  1   
 39  18  45  1   
 40  18  46  1   
 41  18  47  1   
 42  19  20  1   
 43  20  48  1   
 44  21  23  1   
 45  21  49  1   
 46  21  50  1   
 47  22  24  1   
 48  22  51  1   
 49  22  52  1   
 50  23  24  1   
 51  23  25  1   
 52  23  53  1   
 53  24  26  1   
 54  24  54  1   
 55  25  27  1   
 56  25  55  1   
 57  25  56  1   
 58  26  27  1   
 59  26  57  1   
 60  26  58  1   
 61  27  28  1   
 62  27  59  1   
 63  28  60  1   
@<TRIPOS>SUBSTRUCTURE
  1 ****   1 GROUP 4 **** **** 0

# MOE 2024.06 (io_trps.svl 2023.06)
