@<TRIPOS>MOLECULE
NONAME
50 51 1 0 0 
SMALL
USER_CHARGES


@<TRIPOS>ATOM
  1 O       -2.5020     0.9410     1.8650 O.2   1 <1>  -0.5700 
  2 C       -1.8860     1.5070     0.9760 C.2   1 <1>   0.5440 
  3 N       -1.6610     0.7970    -0.1990 N.am  1 <1>  -0.6600 
  4 C       -1.4600     2.8920     1.1960 C.ar  1 <1>   0.3960 
  5 C       -1.9240    -0.6660    -0.3000 C.3   1 <1>   0.0600 
  6 C       -1.1610     1.4200    -1.4550 C.3   1 <1>   0.0600 
  7 N       -0.3150     3.3610     0.6730 N.ar  1 <1>  -0.6200 
  8 C       -2.2870     3.7060     1.9760 C.ar  1 <1>   0.1600 
  9 C       -0.0660     4.6300     0.9570 C.ar  1 <1>   0.4100 
 10 N       -2.0640     4.9780     2.2760 N.ar  1 <1>  -0.6200 
 11 N        1.1010     5.1700     0.4280 N.pl3 1 <1>  -0.8380 
 12 C       -0.9330     5.4020     1.7490 C.ar  1 <1>   0.1600 
 13 C        1.0680     6.4880    -0.2780 C.3   1 <1>   0.2090 
 14 C        2.2450     4.2710     0.1110 C.3   1 <1>   0.2090 
 15 C        1.8590     7.5640     0.4870 C.3   1 <1>   0.1100 
 16 C        3.5770     5.0100    -0.0590 C.3   1 <1>  -0.1600 
 17 N        3.3340     7.4190     0.4060 N.3   1 <1>  -0.8100 
 18 C        3.8090     6.1380     0.9510 C.3   1 <1>   0.1100 
 19 C        3.9950     8.5580     1.1150 C.3   1 <1>   0.1710 
 20 C        3.6970     9.9640     0.5630 C.2   1 <1>   0.5690 
 21 O        3.0050    10.6850     1.2470 O.2   1 <1>  -0.5700 
 22 N        4.2070    10.3900    -0.6460 N.am  1 <1>  -0.6600 
 23 C        4.9490     9.5180    -1.6000 C.3   1 <1>   0.0600 
 24 C        3.9810    11.7760    -1.1420 C.3   1 <1>   0.0600 
 25 H       -2.0750    -1.0990     0.6740 H     1 <1>   0.0800 
 26 H       -1.0850    -1.1570    -0.7620 H     1 <1>   0.0800 
 27 H       -2.8060    -0.8340    -0.8930 H     1 <1>   0.0800 
 28 H       -1.4740     2.4480    -1.5170 H     1 <1>   0.0800 
 29 H       -1.5500     0.8960    -2.3100 H     1 <1>   0.0800 
 30 H       -0.0850     1.3800    -1.4730 H     1 <1>   0.0800 
 31 H       -3.1870     3.2710     2.3750 H     1 <1>   0.1500 
 32 H       -0.6490     6.4180     1.9460 H     1 <1>   0.1500 
 33 H        0.0470     6.8140    -0.3710 H     1 <1>   0.0800 
 34 H        1.4630     6.3890    -1.2740 H     1 <1>   0.0800 
 35 H        2.0220     3.7170    -0.7860 H     1 <1>   0.0800 
 36 H        2.3450     3.5620     0.9150 H     1 <1>   0.0800 
 37 H        1.5460     7.5670     1.5160 H     1 <1>   0.0800 
 38 H        1.5870     8.5150     0.0620 H     1 <1>   0.0800 
 39 H        3.6640     5.3930    -1.0590 H     1 <1>   0.0800 
 40 H        4.3580     4.2820     0.0620 H     1 <1>   0.0800 
 41 H        4.8700     6.2050     1.1240 H     1 <1>   0.0800 
 42 H        3.3310     5.9200     1.8920 H     1 <1>   0.0800 
 43 H        5.0600     8.4240     1.0810 H     1 <1>   0.0800 
 44 H        3.7040     8.5420     2.1510 H     1 <1>   0.0800 
 45 H        5.0290     8.5100    -1.2380 H     1 <1>   0.0800 
 46 H        5.9390     9.9100    -1.7520 H     1 <1>   0.0800 
 47 H        4.4310     9.4960    -2.5430 H     1 <1>   0.0800 
 48 H        3.5020    12.3810    -0.3910 H     1 <1>   0.0800 
 49 H        3.3540    11.7520    -2.0150 H     1 <1>   0.0800 
 50 H        4.9230    12.2310    -1.3930 H     1 <1>   0.0800 
@<TRIPOS>BOND
  1   1   2  2   
  2   2   3  am  
  3   2   4  1   
  4   3   5  1   
  5   3   6  1   
  6   4   7  ar  
  7   4   8  ar  
  8   5  25  1   
  9   5  26  1   
 10   5  27  1   
 11   6  28  1   
 12   6  29  1   
 13   6  30  1   
 14   7   9  ar  
 15   8  10  ar  
 16   8  31  1   
 17   9  11  1   
 18   9  12  ar  
 19  10  12  ar  
 20  11  13  1   
 21  11  14  1   
 22  12  32  1   
 23  13  15  1   
 24  13  33  1   
 25  13  34  1   
 26  14  16  1   
 27  14  35  1   
 28  14  36  1   
 29  15  17  1   
 30  15  37  1   
 31  15  38  1   
 32  16  18  1   
 33  16  39  1   
 34  16  40  1   
 35  17  18  1   
 36  17  19  1   
 37  18  41  1   
 38  18  42  1   
 39  19  20  1   
 40  19  43  1   
 41  19  44  1   
 42  20  21  2   
 43  20  22  am  
 44  22  23  1   
 45  22  24  1   
 46  23  45  1   
 47  23  46  1   
 48  23  47  1   
 49  24  48  1   
 50  24  49  1   
 51  24  50  1   
@<TRIPOS>SUBSTRUCTURE
  1 ****  11 GROUP 4 **** **** 0

# MOE 2024.06 (io_trps.svl 2023.06)
