@<TRIPOS>MOLECULE
NONAME
49 50 1 0 0 
SMALL
USER_CHARGES


@<TRIPOS>ATOM
  1 O        0.0780     1.0620    -0.4680 O.2   1 <1>  -0.5700 
  2 C       -0.1880     2.2400    -0.5300 C.2   1 <1>   0.5690 
  3 N       -0.9330     2.8780     0.4250 N.am  1 <1>  -0.6600 
  4 C        0.3120     3.0300    -1.7380 C.3   1 <1>   0.1810 
  5 C       -1.2940     4.3290     0.2930 C.3   1 <1>   0.3640 
  6 C       -1.3940     2.1950     1.6680 C.3   1 <1>   0.0600 
  7 O        0.4400     4.4020    -1.4640 O.3   1 <1>  -0.5600 
  8 C       -2.8120     4.5300     0.4440 C.ar  1 <1>  -0.1430 
  9 C       -0.7510     5.0170    -0.9890 C.3   1 <1>   0.2610 
 10 C       -3.7880     3.8370    -0.2800 C.ar  1 <1>  -0.1430 
 11 C       -3.2220     5.4780     1.3760 C.ar  1 <1>  -0.1500 
 12 C       -0.4910     6.4990    -0.6940 C.2   1 <1>   0.5690 
 13 C       -5.1300     4.1010    -0.0440 C.ar  1 <1>  -0.1500 
 14 C       -3.4700     2.7780    -1.3310 C.3   1 <1>  -0.0960 
 15 C       -4.5610     5.7340     1.6000 C.ar  1 <1>  -0.1500 
 16 O       -1.4220     7.2560    -0.5640 O.2   1 <1>  -0.5700 
 17 N        0.7950     6.9250    -0.5780 N.am  1 <1>  -0.7300 
 18 C       -5.5190     5.0420     0.8890 C.ar  1 <1>  -0.1500 
 19 C        1.2400     8.3040    -0.3240 C.3   1 <1>   0.2200 
 20 C        2.0360     8.7830    -1.5530 C.3   1 <1>  -0.1600 
 21 C        2.0460     8.2860     0.9850 C.3   1 <1>  -0.1600 
 22 C        1.8170    10.2720    -1.8620 C.3   1 <1>  -0.2400 
 23 C        2.5310     9.6660     1.4490 C.3   1 <1>  -0.2400 
 24 H       -0.3640     2.9040    -2.5640 H     1 <1>   0.0800 
 25 H        1.2810     2.6620    -2.0240 H     1 <1>   0.0800 
 26 H       -0.8170     4.8230     1.1220 H     1 <1>   0.0800 
 27 H       -1.0770     2.7520     2.5310 H     1 <1>   0.0800 
 28 H       -0.9850     1.2010     1.7310 H     1 <1>   0.0800 
 29 H       -2.4680     2.1230     1.6710 H     1 <1>   0.0800 
 30 H       -1.4840     4.9650    -1.7720 H     1 <1>   0.0800 
 31 H       -2.4960     6.0400     1.9380 H     1 <1>   0.1500 
 32 H       -5.8920     3.5720    -0.5890 H     1 <1>   0.1500 
 33 H       -4.3440     2.5340    -1.9070 H     1 <1>   0.0800 
 34 H       -3.1260     1.8780    -0.8550 H     1 <1>   0.0800 
 35 H       -2.7210     3.1260    -2.0140 H     1 <1>   0.0800 
 36 H       -4.8550     6.4750     2.3230 H     1 <1>   0.1500 
 37 H        1.5320     6.2440    -0.7840 H     1 <1>   0.3700 
 38 H       -6.5630     5.2370     1.0580 H     1 <1>   0.1500 
 39 H        0.3690     8.9280    -0.1970 H     1 <1>   0.0800 
 40 H        3.0850     8.5920    -1.4110 H     1 <1>   0.0800 
 41 H        1.7160     8.2320    -2.4210 H     1 <1>   0.0800 
 42 H        1.4170     7.8800     1.7570 H     1 <1>   0.0800 
 43 H        2.8980     7.6380     0.8750 H     1 <1>   0.0800 
 44 H        2.1350    10.8950    -1.0470 H     1 <1>   0.0800 
 45 H        0.7750    10.4610    -2.0530 H     1 <1>   0.0800 
 46 H        2.3770    10.5490    -2.7380 H     1 <1>   0.0800 
 47 H        1.7070    10.3570     1.5000 H     1 <1>   0.0800 
 48 H        3.2770    10.0540     0.7800 H     1 <1>   0.0800 
 49 H        2.9700     9.5880     2.4280 H     1 <1>   0.0800 
@<TRIPOS>BOND
  1   1   2  2   
  2   2   3  am  
  3   2   4  1   
  4   3   5  1   
  5   3   6  1   
  6   4   7  1   
  7   4  24  1   
  8   4  25  1   
  9   5   8  1   
 10   5   9  1   
 11   5  26  1   
 12   6  27  1   
 13   6  28  1   
 14   6  29  1   
 15   7   9  1   
 16   8  10  ar  
 17   8  11  ar  
 18   9  12  1   
 19   9  30  1   
 20  10  13  ar  
 21  10  14  1   
 22  11  15  ar  
 23  11  31  1   
 24  12  16  2   
 25  12  17  am  
 26  13  18  ar  
 27  13  32  1   
 28  14  33  1   
 29  14  34  1   
 30  14  35  1   
 31  15  18  ar  
 32  15  36  1   
 33  17  19  1   
 34  17  37  1   
 35  18  38  1   
 36  19  20  1   
 37  19  21  1   
 38  19  39  1   
 39  20  22  1   
 40  20  40  1   
 41  20  41  1   
 42  21  23  1   
 43  21  42  1   
 44  21  43  1   
 45  22  44  1   
 46  22  45  1   
 47  22  46  1   
 48  23  47  1   
 49  23  48  1   
 50  23  49  1   
@<TRIPOS>SUBSTRUCTURE
  1 ****   9 GROUP 4 **** **** 0

# MOE 2024.06 (io_trps.svl 2023.06)
