@<TRIPOS>MOLECULE
NONAME
59 62 1 0 0 
SMALL
USER_CHARGES


@<TRIPOS>ATOM
  1 O        0.2850     1.1250    -2.0780 O.3   1 <1>  -0.6800 
  2 C        1.0100    -0.0610    -2.0780 C.3   1 <1>   0.2000 
  3 C        0.4770    -0.9360    -0.9400 C.3   1 <1>  -0.0800 
  4 C        2.4260     0.2860    -1.6290 C.3   1 <1>   0.3430 
  5 C        1.2710    -0.4680     0.2980 C.3   1 <1>   0.3430 
  6 C        0.6230    -2.4500    -1.2400 C.3   1 <1>  -0.0160 
  7 N        2.2570     0.5620    -0.1730 N.4   1 <1>  -0.9590 
  8 C        2.0760    -2.9220    -1.3130 C.ar  1 <1>  -0.1430 
  9 C        3.4860     0.7470     0.6560 C.3   1 <1>   0.4230 
 10 C        2.7880    -3.4120    -0.1890 C.ar  1 <1>   0.0000 
 11 C        2.7410    -2.8730    -2.5050 C.ar  1 <1>  -0.1500 
 12 C        4.2860     1.9460     0.1400 C.3   1 <1>  -0.1600 
 13 C        4.3590    -0.5100     0.6800 C.3   1 <1>  -0.1600 
 14 C        4.1650    -3.7010    -0.3630 C.ar  1 <1>   0.3100 
 15 C        2.2280    -3.6380     1.0920 C.ar  1 <1>  -0.1500 
 16 C        4.1030    -3.1910    -2.5690 C.ar  1 <1>   0.1600 
 17 C        5.5720     2.1370     0.9440 C.3   1 <1>   0.3430 
 18 C        5.6550    -0.2890     1.4540 C.3   1 <1>   0.3430 
 19 N        4.8110    -3.5350    -1.5410 N.ar  1 <1>  -0.6200 
 20 C        4.9120    -4.1610     0.7330 C.ar  1 <1>  -0.1500 
 21 C        2.9860    -4.0830     2.1410 C.ar  1 <1>  -0.1500 
 22 N        6.3860     0.8850     0.9010 N.4   1 <1>  -0.9590 
 23 C        4.3460    -4.3450     1.9630 C.ar  1 <1>  -0.1500 
 24 C        7.6860     1.0490     1.6190 C.3   1 <1>   0.3430 
 25 C        8.6300     1.9480     0.8170 C.3   1 <1>  -0.1600 
 26 C       10.0070     2.0240     1.4870 C.3   1 <1>  -0.2400 
 27 H       -0.5770     1.0180    -2.5370 H     1 <1>   0.4000 
 28 H        0.9650    -0.5060    -3.0590 H     1 <1>   0.0800 
 29 H       -0.5720    -0.7430    -0.7880 H     1 <1>   0.0800 
 30 H        2.7990     1.1420    -2.1670 H     1 <1>   0.0800 
 31 H        3.0800    -0.5550    -1.7790 H     1 <1>   0.0800 
 32 H        1.7820    -1.3010     0.7430 H     1 <1>   0.0800 
 33 H        0.6050    -0.0410     1.0310 H     1 <1>   0.0800 
 34 H        0.1440    -2.6610    -2.1810 H     1 <1>   0.0800 
 35 H        0.0780    -3.0220    -0.5120 H     1 <1>   0.0800 
 36 H        1.7180     1.4460    -0.1760 H     1 <1>   0.4500 
 37 H        3.1810     0.9610     1.6690 H     1 <1>   0.0800 
 38 H        2.2550    -2.5830    -3.4200 H     1 <1>   0.1500 
 39 H        4.5520     1.8230    -0.8940 H     1 <1>   0.0800 
 40 H        3.6950     2.8400     0.2310 H     1 <1>   0.0800 
 41 H        3.8320    -1.3000     1.1770 H     1 <1>   0.0800 
 42 H        4.6080    -0.8340    -0.3140 H     1 <1>   0.0800 
 43 H        1.1810    -3.4770     1.2600 H     1 <1>   0.1500 
 44 H        4.5940    -3.1330    -3.5270 H     1 <1>   0.1500 
 45 H        5.3340     2.3830     1.9670 H     1 <1>   0.0800 
 46 H        6.1330     2.9590     0.5260 H     1 <1>   0.0800 
 47 H        6.2690    -1.1740     1.3810 H     1 <1>   0.0800 
 48 H        5.4330    -0.1220     2.4970 H     1 <1>   0.0800 
 49 H        5.9520    -4.3820     0.5670 H     1 <1>   0.1500 
 50 H        2.5460    -4.2570     3.1100 H     1 <1>   0.1500 
 51 H        6.6300     0.6780    -0.0790 H     1 <1>   0.4500 
 52 H        4.9270    -4.7100     2.7950 H     1 <1>   0.1500 
 53 H        7.5250     1.4670     2.6000 H     1 <1>   0.0800 
 54 H        8.1560     0.0850     1.7390 H     1 <1>   0.0800 
 55 H        8.7580     1.5530    -0.1760 H     1 <1>   0.0800 
 56 H        8.2370     2.9460     0.7470 H     1 <1>   0.0800 
 57 H       10.4580     1.0480     1.5510 H     1 <1>   0.0800 
 58 H        9.9310     2.4360     2.4780 H     1 <1>   0.0800 
 59 H       10.6610     2.6560     0.9110 H     1 <1>   0.0800 
@<TRIPOS>BOND
  1   1   2  1   
  2   1  27  1   
  3   2   3  1   
  4   2   4  1   
  5   2  28  1   
  6   3   5  1   
  7   3   6  1   
  8   3  29  1   
  9   4   7  1   
 10   4  30  1   
 11   4  31  1   
 12   5   7  1   
 13   5  32  1   
 14   5  33  1   
 15   6   8  1   
 16   6  34  1   
 17   6  35  1   
 18   7   9  1   
 19   7  36  1   
 20   8  10  ar  
 21   8  11  ar  
 22   9  12  1   
 23   9  13  1   
 24   9  37  1   
 25  10  14  ar  
 26  10  15  ar  
 27  11  16  ar  
 28  11  38  1   
 29  12  17  1   
 30  12  39  1   
 31  12  40  1   
 32  13  18  1   
 33  13  41  1   
 34  13  42  1   
 35  14  19  ar  
 36  14  20  ar  
 37  15  21  ar  
 38  15  43  1   
 39  16  19  ar  
 40  16  44  1   
 41  17  22  1   
 42  17  45  1   
 43  17  46  1   
 44  18  22  1   
 45  18  47  1   
 46  18  48  1   
 47  20  23  ar  
 48  20  49  1   
 49  21  23  ar  
 50  21  50  1   
 51  22  24  1   
 52  22  51  1   
 53  23  52  1   
 54  24  25  1   
 55  24  53  1   
 56  24  54  1   
 57  25  26  1   
 58  25  55  1   
 59  25  56  1   
 60  26  57  1   
 61  26  58  1   
 62  26  59  1   
@<TRIPOS>SUBSTRUCTURE
  1 ****  13 GROUP 4 **** **** 0

# MOE 2024.06 (io_trps.svl 2023.06)
