@<TRIPOS>MOLECULE
NONAME
50 52 1 0 0 
SMALL
USER_CHARGES


@<TRIPOS>ATOM
  1 S        0.4200     0.3760    -0.3770 S.o2  1 <1>   1.3330 
  2 O       -0.7510     1.2220    -0.4180 O.2   1 <1>  -0.6500 
  3 O        0.3850    -0.9230    -1.0090 O.2   1 <1>  -0.6500 
  4 N        0.8050     0.1430     1.2610 N.am  1 <1>  -0.8490 
  5 C        1.8240     1.2770    -1.0350 C.3   1 <1>  -0.0550 
  6 C        0.6730     1.3610     2.0710 C.3   1 <1>   0.1160 
  7 C        0.0130    -0.9360     1.8570 C.3   1 <1>   0.1160 
  8 C        3.1290     0.4540    -1.1390 C.3   1 <1>  -0.0800 
  9 C        4.3120     1.2040    -1.7330 C.3   1 <1>   0.2200 
 10 C        3.6960    -0.0450     0.1950 C.3   1 <1>   0.1200 
 11 N        4.4020     2.5620    -1.1480 N.am  1 <1>  -0.7300 
 12 C        5.4690     0.3630    -1.2130 C.3   1 <1>   0.1200 
 13 O        5.0880    -0.0480     0.0660 O.3   1 <1>  -0.5600 
 14 C        3.9500     3.7120    -1.7220 C.2   1 <1>   0.6160 
 15 O        3.6330     3.6700    -2.8950 O.2   1 <1>  -0.5700 
 16 C        3.8420     4.9490    -0.9850 C.2   1 <1>   0.0290 
 17 C        3.5610     4.9190     0.4260 C.2   1 <1>   0.6160 
 18 C        3.9880     6.1570    -1.6000 C.2   1 <1>  -0.1780 
 19 O        3.3240     3.8690     1.0120 O.2   1 <1>  -0.5700 
 20 N        3.5380     6.1110     1.1440 N.am  1 <1>  -0.4770 
 21 C        3.8880     7.3850    -0.8900 C.ar  1 <1>   0.0280 
 22 C        3.6550     7.3560     0.4970 C.ar  1 <1>   0.1170 
 23 C        3.3890     6.0680     2.6330 C.3   1 <1>   0.0600 
 24 C        4.0140     8.6130    -1.5450 C.ar  1 <1>  -0.1500 
 25 C        3.5440     8.5780     1.1730 C.ar  1 <1>  -0.1500 
 26 C        3.9080     9.7980    -0.8550 C.ar  1 <1>  -0.1500 
 27 C        3.6700     9.7800     0.5110 C.ar  1 <1>  -0.1500 
 28 H        1.5730     1.6210    -2.0190 H     1 <1>   0.0800 
 29 H        1.9850     2.1460    -0.4300 H     1 <1>   0.0800 
 30 H        0.9830     1.1660     3.0830 H     1 <1>   0.0800 
 31 H       -0.3490     1.7030     2.0770 H     1 <1>   0.0800 
 32 H        1.2970     2.1450     1.6760 H     1 <1>   0.0800 
 33 H        0.2940    -1.0810     2.8860 H     1 <1>   0.0800 
 34 H        0.1900    -1.8580     1.3270 H     1 <1>   0.0800 
 35 H       -1.0370    -0.7030     1.8030 H     1 <1>   0.0800 
 36 H        2.9360    -0.4090    -1.7520 H     1 <1>   0.0800 
 37 H        4.2880     1.2490    -2.8100 H     1 <1>   0.0800 
 38 H        3.3590    -1.0400     0.4310 H     1 <1>   0.0800 
 39 H        3.4510     0.6230     1.0030 H     1 <1>   0.0800 
 40 H        4.5200     2.5560    -0.1260 H     1 <1>   0.3700 
 41 H        6.3920     0.9120    -1.1590 H     1 <1>   0.0800 
 42 H        5.5990    -0.5190    -1.8150 H     1 <1>   0.0800 
 43 H        4.1820     6.2100    -2.6570 H     1 <1>   0.1500 
 44 H        4.1560     6.6670     3.0910 H     1 <1>   0.0800 
 45 H        3.4850     5.0670     3.0140 H     1 <1>   0.0800 
 46 H        2.4220     6.4490     2.9080 H     1 <1>   0.0800 
 47 H        4.1960     8.6280    -2.6050 H     1 <1>   0.1500 
 48 H        3.3540     8.6030     2.2280 H     1 <1>   0.1500 
 49 H        4.0070    10.7400    -1.3680 H     1 <1>   0.1500 
 50 H        3.5840    10.7090     1.0480 H     1 <1>   0.1500 
@<TRIPOS>BOND
  1   1   2  2   
  2   1   3  2   
  3   1   4  am  
  4   1   5  1   
  5   4   6  1   
  6   4   7  1   
  7   5   8  1   
  8   5  28  1   
  9   5  29  1   
 10   6  30  1   
 11   6  31  1   
 12   6  32  1   
 13   7  33  1   
 14   7  34  1   
 15   7  35  1   
 16   8   9  1   
 17   8  10  1   
 18   8  36  1   
 19   9  11  1   
 20   9  12  1   
 21   9  37  1   
 22  10  13  1   
 23  10  38  1   
 24  10  39  1   
 25  11  14  am  
 26  11  40  1   
 27  12  13  1   
 28  12  41  1   
 29  12  42  1   
 30  14  15  2   
 31  14  16  1   
 32  16  17  1   
 33  16  18  2   
 34  17  19  2   
 35  17  20  am  
 36  18  21  1   
 37  18  43  1   
 38  20  22  1   
 39  20  23  1   
 40  21  22  ar  
 41  21  24  ar  
 42  22  25  ar  
 43  23  44  1   
 44  23  45  1   
 45  23  46  1   
 46  24  26  ar  
 47  24  47  1   
 48  25  27  ar  
 49  25  48  1   
 50  26  27  ar  
 51  26  49  1   
 52  27  50  1   
@<TRIPOS>SUBSTRUCTURE
  1 ****  19 GROUP 4 **** **** 0

# MOE 2024.06 (io_trps.svl 2023.06)
