@<TRIPOS>MOLECULE
NONAME
41 42 1 0 0 
SMALL
USER_CHARGES


@<TRIPOS>ATOM
  1 N       -0.3280    -0.1200     0.2640 N.ar  1 <1>  -0.6200 
  2 C       -1.5180     0.4530     0.2930 C.ar  1 <1>   0.4100 
  3 C       -0.3380    -1.4380     0.2540 C.ar  1 <1>   0.4700 
  4 N       -1.5770     1.8330     0.3260 N.pl3 1 <1>  -0.8380 
  5 C       -2.6670    -0.3000     0.3050 C.ar  1 <1>  -0.1500 
  6 N       -1.3720    -2.2560     0.2650 N.ar  1 <1>  -0.6200 
  7 C       -0.5440     2.6260    -0.3900 C.3   1 <1>   0.2090 
  8 C       -2.1580     2.4760     1.5360 C.3   1 <1>   0.1290 
  9 C       -2.5530    -1.6680     0.2870 C.ar  1 <1>   0.4100 
 10 C       -1.2100     3.7850    -1.1240 C.3   1 <1>  -0.2400 
 11 N       -3.6720    -2.4630     0.2890 N.pl3 1 <1>  -0.8690 
 12 C       -3.6080    -3.9070    -0.0060 C.3   1 <1>   0.2090 
 13 C       -5.0230    -4.4770     0.0240 C.3   1 <1>  -0.1600 
 14 C       -5.0220    -5.9860    -0.2560 C.3   1 <1>  -0.0170 
 15 C       -6.4380    -6.5340    -0.2850 C.ar  1 <1>   0.1670 
 16 N       -7.1470    -6.2610    -1.3690 N.ar  1 <1>  -0.6200 
 17 C       -6.9160    -7.2710     0.7890 C.ar  1 <1>  -0.1500 
 18 C       -8.3800    -6.7410    -1.3850 C.ar  1 <1>   0.1600 
 19 C       -8.2030    -7.7650     0.7600 C.ar  1 <1>  -0.1500 
 20 C       -8.9480    -7.4860    -0.3650 C.ar  1 <1>  -0.1500 
 21 H        0.6290    -1.9090     0.2360 H     1 <1>   0.1500 
 22 H       -3.6230     0.1760     0.3230 H     1 <1>   0.1500 
 23 H       -0.0390     2.0020    -1.1090 H     1 <1>   0.0800 
 24 H        0.1880     2.9890     0.3110 H     1 <1>   0.0800 
 25 H       -2.5990     1.7360     2.1810 H     1 <1>   0.0800 
 26 H       -2.9170     3.1800     1.2430 H     1 <1>   0.0800 
 27 H       -1.3890     2.9910     2.0840 H     1 <1>   0.0800 
 28 H       -1.9610     3.4070    -1.7950 H     1 <1>   0.0800 
 29 H       -0.4740     4.3180    -1.6970 H     1 <1>   0.0800 
 30 H       -1.6600     4.4680    -0.4280 H     1 <1>   0.0800 
 31 H       -4.5430    -2.0170    -0.0040 H     1 <1>   0.4000 
 32 H       -2.9910    -4.3920     0.7330 H     1 <1>   0.0800 
 33 H       -3.1640    -4.0540    -0.9770 H     1 <1>   0.0800 
 34 H       -5.6200    -3.9850    -0.7240 H     1 <1>   0.0800 
 35 H       -5.4610    -4.2980     0.9900 H     1 <1>   0.0800 
 36 H       -4.4460    -6.4950     0.4960 H     1 <1>   0.0800 
 37 H       -4.5630    -6.1780    -1.2100 H     1 <1>   0.0800 
 38 H       -6.2910    -7.4580     1.6430 H     1 <1>   0.1500 
 39 H       -8.9720    -6.5300    -2.2590 H     1 <1>   0.1500 
 40 H       -8.6060    -8.3410     1.5750 H     1 <1>   0.1500 
 41 H       -9.9580    -7.8410    -0.4540 H     1 <1>   0.1500 
@<TRIPOS>BOND
  1   1   2  ar  
  2   1   3  ar  
  3   2   4  1   
  4   2   5  ar  
  5   3   6  ar  
  6   3  21  1   
  7   4   7  1   
  8   4   8  1   
  9   5   9  ar  
 10   5  22  1   
 11   6   9  ar  
 12   7  10  1   
 13   7  23  1   
 14   7  24  1   
 15   8  25  1   
 16   8  26  1   
 17   8  27  1   
 18   9  11  1   
 19  10  28  1   
 20  10  29  1   
 21  10  30  1   
 22  11  12  1   
 23  11  31  1   
 24  12  13  1   
 25  12  32  1   
 26  12  33  1   
 27  13  14  1   
 28  13  34  1   
 29  13  35  1   
 30  14  15  1   
 31  14  36  1   
 32  14  37  1   
 33  15  16  ar  
 34  15  17  ar  
 35  16  18  ar  
 36  17  19  ar  
 37  17  38  1   
 38  18  20  ar  
 39  18  39  1   
 40  19  20  ar  
 41  19  40  1   
 42  20  41  1   
@<TRIPOS>SUBSTRUCTURE
  1 ****  11 GROUP 4 **** **** 0

# MOE 2024.06 (io_trps.svl 2023.06)
