@<TRIPOS>MOLECULE
NONAME
58 62 1 0 0 
SMALL
USER_CHARGES


@<TRIPOS>ATOM
  1 S       -0.2590    -1.1790     1.8060 S.3   1 <1>  -0.0800 
  2 C        0.6470    -2.1740     0.6590 C.2   1 <1>  -0.0450 
  3 C       -1.2480    -0.4860     0.5410 C.2   1 <1>  -0.1100 
  4 C        1.6900    -3.0360     1.1580 C.2   1 <1>   0.7150 
  5 C        0.1650    -1.9360    -0.5900 C.2   1 <1>  -0.1500 
  6 C       -0.8980    -0.9890    -0.6560 C.2   1 <1>  -0.1500 
  7 O        1.9560    -3.1160     2.3430 O.2   1 <1>  -0.5700 
  8 N        2.4140    -3.8010     0.2870 N.am  1 <1>  -0.7300 
  9 C        3.5720    -4.6380     0.6730 C.3   1 <1>   0.1400 
 10 C        3.0840    -5.9790     1.2490 C.3   1 <1>  -0.0800 
 11 C        2.4910    -6.8790     0.1560 C.3   1 <1>   0.2000 
 12 C        4.1900    -6.9040     1.8050 C.3   1 <1>  -0.0800 
 13 O        3.6340    -7.5050    -0.2900 O.3   1 <1>  -0.5600 
 14 C        1.7200    -8.0670     0.7540 C.3   1 <1>  -0.1600 
 15 C        4.0640    -8.1080     0.8770 C.3   1 <1>   0.2800 
 16 C        5.6680    -6.4840     1.7010 C.3   1 <1>   0.3430 
 17 C        2.8590    -8.9790     1.2290 C.3   1 <1>  -0.1600 
 18 C        5.4760    -8.6700     0.7290 C.3   1 <1>   0.3430 
 19 N        6.3620    -7.4690     0.8060 N.4   1 <1>  -0.9590 
 20 C        6.5690    -6.8810    -0.5620 C.3   1 <1>   0.4860 
 21 C        7.5010    -5.6770    -0.5020 C.ar  1 <1>   0.1670 
 22 N        6.9200    -4.4830    -0.5190 N.ar  1 <1>  -0.6200 
 23 C        8.8700    -5.9080    -0.4160 C.ar  1 <1>   0.0830 
 24 C        7.7490    -3.4520    -0.4720 C.ar  1 <1>   0.1600 
 25 O        9.2570    -7.2220    -0.3830 O.3   1 <1>  -0.3620 
 26 C        9.7240    -4.8020    -0.3480 C.ar  1 <1>   0.0830 
 27 C        9.1240    -3.5530    -0.3880 C.ar  1 <1>  -0.1500 
 28 C       10.5510    -7.6340    -0.7780 C.3   1 <1>   0.0400 
 29 O       11.0690    -4.9520    -0.2290 O.3   1 <1>  -0.3630 
 30 C       11.9560    -3.8550    -0.1630 C.3   1 <1>   0.0400 
 31 H       -1.9950     0.2320     0.8300 H     1 <1>   0.1500 
 32 H        0.5250    -2.4020    -1.4900 H     1 <1>   0.1500 
 33 H       -1.3530    -0.7270    -1.5960 H     1 <1>   0.1500 
 34 H        2.2500    -3.6810    -0.7120 H     1 <1>   0.3700 
 35 H        4.1990    -4.7970    -0.1880 H     1 <1>   0.0800 
 36 H        4.1420    -4.1060     1.4170 H     1 <1>   0.0800 
 37 H        2.3510    -5.7800     2.0140 H     1 <1>   0.0800 
 38 H        1.9790    -6.3660    -0.6410 H     1 <1>   0.0800 
 39 H        3.9800    -7.1770     2.8240 H     1 <1>   0.0800 
 40 H        1.0700    -7.7580     1.5550 H     1 <1>   0.0800 
 41 H        1.1340    -8.5480    -0.0100 H     1 <1>   0.0800 
 42 H        6.1100    -6.5150     2.6830 H     1 <1>   0.0800 
 43 H        5.7680    -5.4800     1.3250 H     1 <1>   0.0800 
 44 H        2.8770    -9.8950     0.6640 H     1 <1>   0.0800 
 45 H        2.8020    -9.2010     2.2800 H     1 <1>   0.0800 
 46 H        5.5870    -9.2100    -0.1970 H     1 <1>   0.0800 
 47 H        5.6810    -9.3280     1.5570 H     1 <1>   0.0800 
 48 H        7.3020    -7.7000     1.1630 H     1 <1>   0.4500 
 49 H        7.0030    -7.6200    -1.2140 H     1 <1>   0.0800 
 50 H        5.6280    -6.5720    -0.9830 H     1 <1>   0.0800 
 51 H        7.3070    -2.4690    -0.5000 H     1 <1>   0.1500 
 52 H        9.6990    -2.6480    -0.3520 H     1 <1>   0.1500 
 53 H       10.5350    -8.6970    -0.9400 H     1 <1>   0.0800 
 54 H       11.2480    -7.4010     0.0080 H     1 <1>   0.0800 
 55 H       10.8220    -7.1290    -1.6880 H     1 <1>   0.0800 
 56 H       12.9570    -4.2390    -0.0770 H     1 <1>   0.0800 
 57 H       11.7190    -3.2620     0.7030 H     1 <1>   0.0800 
 58 H       11.8660    -3.2760    -1.0650 H     1 <1>   0.0800 
@<TRIPOS>BOND
  1   1   2  1   
  2   1   3  1   
  3   2   4  1   
  4   2   5  2   
  5   3   6  2   
  6   3  31  1   
  7   4   7  2   
  8   4   8  am  
  9   5   6  1   
 10   5  32  1   
 11   6  33  1   
 12   8   9  1   
 13   8  34  1   
 14   9  10  1   
 15   9  35  1   
 16   9  36  1   
 17  10  11  1   
 18  10  12  1   
 19  10  37  1   
 20  11  13  1   
 21  11  14  1   
 22  11  38  1   
 23  12  15  1   
 24  12  16  1   
 25  12  39  1   
 26  13  15  1   
 27  14  17  1   
 28  14  40  1   
 29  14  41  1   
 30  15  17  1   
 31  15  18  1   
 32  16  19  1   
 33  16  42  1   
 34  16  43  1   
 35  17  44  1   
 36  17  45  1   
 37  18  19  1   
 38  18  46  1   
 39  18  47  1   
 40  19  20  1   
 41  19  48  1   
 42  20  21  1   
 43  20  49  1   
 44  20  50  1   
 45  21  22  ar  
 46  21  23  ar  
 47  22  24  ar  
 48  23  25  1   
 49  23  26  ar  
 50  24  27  ar  
 51  24  51  1   
 52  25  28  1   
 53  26  27  ar  
 54  26  29  1   
 55  27  52  1   
 56  28  53  1   
 57  28  54  1   
 58  28  55  1   
 59  29  30  1   
 60  30  56  1   
 61  30  57  1   
 62  30  58  1   
@<TRIPOS>SUBSTRUCTURE
  1 ****   9 GROUP 4 **** **** 0

# MOE 2024.06 (io_trps.svl 2023.06)
