@<TRIPOS>MOLECULE
NONAME
38 39 1 0 0 
SMALL
USER_CHARGES


@<TRIPOS>ATOM
  1 O       -6.4720    -0.1870    -1.2740 O.3   1 <1>  -0.5600 
  2 C       -6.1020     0.7660    -0.3300 C.3   1 <1>   0.2000 
  3 C       -7.0920    -1.3830    -0.9160 C.3   1 <1>   0.2000 
  4 C       -6.8500     2.0540    -0.6850 C.3   1 <1>  -0.1600 
  5 C       -4.5890     0.9520    -0.4580 C.3   1 <1>  -0.1600 
  6 C       -8.4600    -1.1480    -0.2700 C.3   1 <1>  -0.1600 
  7 C       -6.1870    -2.2570    -0.0420 C.3   1 <1>  -0.1600 
  8 C       -6.3140     3.2530     0.0920 C.3   1 <1>   0.3430 
  9 C       -4.1000     2.1750     0.3140 C.3   1 <1>   0.3430 
 10 C       -9.1240    -2.4930     0.0270 C.3   1 <1>   0.3430 
 11 C       -6.8850    -3.5840     0.2520 C.3   1 <1>   0.3430 
 12 N       -4.8470     3.3840    -0.1370 N.4   1 <1>  -0.9590 
 13 N       -8.2210    -3.3330     0.8680 N.4   1 <1>  -0.9060 
 14 C       -4.3100     4.6190     0.5140 C.3   1 <1>   0.2630 
 15 H       -6.3600     0.4410     0.6630 H     1 <1>   0.0800 
 16 H       -7.2510    -1.9020    -1.8480 H     1 <1>   0.0800 
 17 H       -7.8950     1.9340    -0.4630 H     1 <1>   0.0800 
 18 H       -6.7560     2.2510    -1.7390 H     1 <1>   0.0800 
 19 H       -4.3220     1.0660    -1.4950 H     1 <1>   0.0800 
 20 H       -4.0870     0.0790    -0.0820 H     1 <1>   0.0800 
 21 H       -9.0830    -0.5970    -0.9530 H     1 <1>   0.0800 
 22 H       -8.3750    -0.5890     0.6430 H     1 <1>   0.0800 
 23 H       -5.9480    -1.7730     0.8870 H     1 <1>   0.0800 
 24 H       -5.2700    -2.4560    -0.5700 H     1 <1>   0.0800 
 25 H       -6.5090     3.1230     1.1450 H     1 <1>   0.0800 
 26 H       -6.8190     4.1480    -0.2370 H     1 <1>   0.0800 
 27 H       -3.0430     2.3080     0.1410 H     1 <1>   0.0800 
 28 H       -4.2530     2.0240     1.3700 H     1 <1>   0.0800 
 29 H       -9.3310    -3.0010    -0.9020 H     1 <1>   0.0800 
 30 H      -10.0620    -2.3300     0.5350 H     1 <1>   0.0800 
 31 H       -6.2750    -4.1770     0.9160 H     1 <1>   0.0800 
 32 H       -7.0080    -4.1330    -0.6690 H     1 <1>   0.0800 
 33 H       -4.7030     3.4690    -1.1550 H     1 <1>   0.4500 
 34 H       -8.6800    -4.2360     1.0560 H     1 <1>   0.4500 
 35 H       -8.0940    -2.8840     1.7840 H     1 <1>   0.4500 
 36 H       -4.4420     4.5680     1.5830 H     1 <1>   0.0800 
 37 H       -4.8250     5.4910     0.1440 H     1 <1>   0.0800 
 38 H       -3.2590     4.7280     0.3010 H     1 <1>   0.0800 
@<TRIPOS>BOND
  1   1   2  1   
  2   1   3  1   
  3   2   4  1   
  4   2   5  1   
  5   2  15  1   
  6   3   6  1   
  7   3   7  1   
  8   3  16  1   
  9   4   8  1   
 10   4  17  1   
 11   4  18  1   
 12   5   9  1   
 13   5  19  1   
 14   5  20  1   
 15   6  10  1   
 16   6  21  1   
 17   6  22  1   
 18   7  11  1   
 19   7  23  1   
 20   7  24  1   
 21   8  12  1   
 22   8  25  1   
 23   8  26  1   
 24   9  12  1   
 25   9  27  1   
 26   9  28  1   
 27  10  13  1   
 28  10  29  1   
 29  10  30  1   
 30  11  13  1   
 31  11  31  1   
 32  11  32  1   
 33  12  14  1   
 34  12  33  1   
 35  13  34  1   
 36  13  35  1   
 37  14  36  1   
 38  14  37  1   
 39  14  38  1   
@<TRIPOS>SUBSTRUCTURE
  1 ****   2 GROUP 4 **** **** 0

# MOE 2024.06 (io_trps.svl 2023.06)
