@<TRIPOS>MOLECULE
NONAME
54 57 1 0 0 
SMALL
USER_CHARGES


@<TRIPOS>ATOM
  1 O        0.6780     0.6250     1.0500 O.2   1 <1>  -0.5700 
  2 C        1.3230     1.1430     0.1520 C.2   1 <1>   0.7160 
  3 N        1.3370     2.5240     0.0730 N.am  1 <1>  -0.6600 
  4 C        2.0460     0.2840    -0.7790 C.2   1 <1>   0.2030 
  5 C        0.2390     3.3470     0.6910 C.3   1 <1>   0.2200 
  6 C        2.5630     3.2550    -0.3750 C.3   1 <1>   0.1400 
  7 N        2.5660     0.6020    -1.9300 N.2   1 <1>  -0.4100 
  8 C        2.2780    -1.0680    -0.5700 C.2   1 <1>  -0.1500 
  9 C        0.4600     4.8890     0.5980 C.3   1 <1>   0.1380 
 10 C       -1.1670     2.9130     0.2290 C.3   1 <1>  -0.1600 
 11 C        2.9800     4.3740     0.5970 C.3   1 <1>  -0.1600 
 12 O        3.1280    -0.4430    -2.4850 O.3   1 <1>  -0.0190 
 13 C        2.9500    -1.4510    -1.6600 C.2   1 <1>  -0.0400 
 14 C        0.4840     5.5120    -0.8330 C.2   1 <1>  -0.2760 
 15 C       -0.6820     5.5600     1.4230 C.3   1 <1>   0.1200 
 16 C        1.8230     5.1290     1.2860 C.3   1 <1>  -0.1600 
 17 C       -2.1820     4.0440     0.4120 C.3   1 <1>   0.1200 
 18 C        3.5080    -2.8050    -2.0680 C.3   1 <1>   0.0200 
 19 C        0.2220     4.8820    -1.9880 C.2   1 <1>  -0.2880 
 20 C        0.8770     6.9920    -0.9220 C.3   1 <1>  -0.0220 
 21 O       -1.8340     4.7660     1.5510 O.3   1 <1>  -0.5600 
 22 C        3.2370    -3.8970    -1.0240 C.3   1 <1>  -0.1600 
 23 C        0.2880     5.5300    -3.3660 C.3   1 <1>   0.2580 
 24 C        0.4750     7.5970    -2.2730 C.3   1 <1>   0.1200 
 25 C        3.8100    -5.2490    -1.4630 C.3   1 <1>  -0.2400 
 26 O        0.9240     6.7720    -3.3010 O.3   1 <1>  -0.5600 
 27 H        0.2630     3.1200     1.7450 H     1 <1>   0.0800 
 28 H        3.3900     2.5740    -0.4770 H     1 <1>   0.0800 
 29 H        2.3810     3.6720    -1.3500 H     1 <1>   0.0800 
 30 H        1.9620    -1.6260     0.2930 H     1 <1>   0.1500 
 31 H       -1.4850     2.0820     0.8330 H     1 <1>   0.0800 
 32 H       -1.1740     2.5850    -0.7910 H     1 <1>   0.0800 
 33 H        3.6180     3.9510     1.3540 H     1 <1>   0.0800 
 34 H        3.5780     5.0760     0.0440 H     1 <1>   0.0800 
 35 H       -0.9930     6.4870     0.9830 H     1 <1>   0.0800 
 36 H       -0.3480     5.7660     2.4250 H     1 <1>   0.0800 
 37 H        2.0530     6.1760     1.3510 H     1 <1>   0.0800 
 38 H        1.7580     4.7690     2.2990 H     1 <1>   0.0800 
 39 H       -3.1730     3.6480     0.5540 H     1 <1>   0.0800 
 40 H       -2.1890     4.7140    -0.4310 H     1 <1>   0.0800 
 41 H        3.0660    -3.0880    -3.0070 H     1 <1>   0.0800 
 42 H        4.5690    -2.7060    -2.2170 H     1 <1>   0.0800 
 43 H       -0.0430     3.8470    -2.0670 H     1 <1>   0.1500 
 44 H        1.9430     7.0870    -0.8150 H     1 <1>   0.0800 
 45 H        0.4190     7.5790    -0.1500 H     1 <1>   0.0800 
 46 H        3.6810    -3.6140    -0.0850 H     1 <1>   0.0800 
 47 H        2.1740    -3.9950    -0.8770 H     1 <1>   0.0800 
 48 H       -0.7000     5.6710    -3.7690 H     1 <1>   0.0800 
 49 H        0.8580     4.9150    -4.0400 H     1 <1>   0.0800 
 50 H        0.9260     8.5650    -2.4040 H     1 <1>   0.0800 
 51 H       -0.5950     7.6920    -2.3510 H     1 <1>   0.0800 
 52 H        4.8760    -5.1830    -1.5950 H     1 <1>   0.0800 
 53 H        3.3640    -5.5660    -2.3890 H     1 <1>   0.0800 
 54 H        3.6060    -5.9950    -0.7140 H     1 <1>   0.0800 
@<TRIPOS>BOND
  1   1   2  2   
  2   2   3  am  
  3   2   4  1   
  4   3   5  1   
  5   3   6  1   
  6   4   7  2   
  7   4   8  1   
  8   5   9  1   
  9   5  10  1   
 10   5  27  1   
 11   6  11  1   
 12   6  28  1   
 13   6  29  1   
 14   7  12  1   
 15   8  13  2   
 16   8  30  1   
 17   9  14  1   
 18   9  15  1   
 19   9  16  1   
 20  10  17  1   
 21  10  31  1   
 22  10  32  1   
 23  11  16  1   
 24  11  33  1   
 25  11  34  1   
 26  12  13  1   
 27  13  18  1   
 28  14  19  2   
 29  14  20  1   
 30  15  21  1   
 31  15  35  1   
 32  15  36  1   
 33  16  37  1   
 34  16  38  1   
 35  17  21  1   
 36  17  39  1   
 37  17  40  1   
 38  18  22  1   
 39  18  41  1   
 40  18  42  1   
 41  19  23  1   
 42  19  43  1   
 43  20  24  1   
 44  20  44  1   
 45  20  45  1   
 46  22  25  1   
 47  22  46  1   
 48  22  47  1   
 49  23  26  1   
 50  23  48  1   
 51  23  49  1   
 52  24  26  1   
 53  24  50  1   
 54  24  51  1   
 55  25  52  1   
 56  25  53  1   
 57  25  54  1   
@<TRIPOS>SUBSTRUCTURE
  1 ****   3 GROUP 4 **** **** 0

# MOE 2024.06 (io_trps.svl 2023.06)
