@<TRIPOS>MOLECULE
NONAME
51 53 1 0 0 
SMALL
USER_CHARGES


@<TRIPOS>ATOM
  1 O       -0.0620     0.0120     0.4890 O.2   1 <1>  -0.5700 
  2 C        1.0270     0.5290     0.3880 C.2   1 <1>   0.5690 
  3 N        2.0750    -0.1020    -0.2350 N.am  1 <1>  -0.6600 
  4 C        1.2020     1.9190     0.9760 C.3   1 <1>  -0.0990 
  5 C        3.4690     0.4210    -0.2520 C.3   1 <1>   0.1400 
  6 C        1.8880    -1.4420    -0.8490 C.3   1 <1>   0.1400 
  7 C        2.6660     2.2840     1.2550 C.3   1 <1>  -0.1600 
  8 C        3.5210     1.9240     0.0380 C.3   1 <1>  -0.1600 
  9 C        2.1620    -2.5340     0.1830 C.3   1 <1>  -0.0990 
 10 C        1.5870    -3.8460    -0.3010 C.2   1 <1>   0.5690 
 11 O        2.0900    -4.3420    -1.2780 O.2   1 <1>  -0.5700 
 12 N        0.4930    -4.3740     0.3250 N.am  1 <1>  -0.6600 
 13 C        0.1150    -5.8220     0.2740 C.3   1 <1>   0.3640 
 14 C       -0.7230    -3.5260     0.4900 C.3   1 <1>   0.1400 
 15 C        1.3120    -6.7820     0.3620 C.ar  1 <1>  -0.1440 
 16 C       -0.9000    -6.0640    -0.8750 C.3   1 <1>   0.2000 
 17 C       -1.7000    -3.8290    -0.6590 C.3   1 <1>   0.1200 
 18 C        2.0330    -7.1920    -0.7540 C.ar  1 <1>  -0.1500 
 19 C        1.6780    -7.2790     1.6050 C.ar  1 <1>  -0.1500 
 20 O       -2.0040    -5.1980    -0.7070 O.3   1 <1>  -0.5600 
 21 C       -1.4820    -7.4900    -0.8920 C.3   1 <1>   0.1200 
 22 C        3.0820    -8.0860    -0.6320 C.ar  1 <1>  -0.1500 
 23 C        2.7270    -8.1740     1.7320 C.ar  1 <1>  -0.1500 
 24 O       -0.5620    -8.4280    -1.3480 O.3   1 <1>  -0.6800 
 25 C        3.4290    -8.5810     0.6120 C.ar  1 <1>  -0.1500 
 26 H        0.7860     2.6190     0.2760 H     1 <1>   0.0800 
 27 H        0.6340     1.9860     1.8860 H     1 <1>   0.0800 
 28 H        4.0400    -0.1070     0.4920 H     1 <1>   0.0800 
 29 H        3.9140     0.2320    -1.2150 H     1 <1>   0.0800 
 30 H        0.8750    -1.5270    -1.2060 H     1 <1>   0.0800 
 31 H        2.5390    -1.5620    -1.6990 H     1 <1>   0.0800 
 32 H        2.7460     3.3360     1.4700 H     1 <1>   0.0800 
 33 H        3.0160     1.7370     2.1140 H     1 <1>   0.0800 
 34 H        4.5430     2.2130     0.2120 H     1 <1>   0.0800 
 35 H        3.1730     2.4630    -0.8270 H     1 <1>   0.0800 
 36 H        1.7240    -2.2770     1.1290 H     1 <1>   0.0800 
 37 H        3.2210    -2.6520     0.3170 H     1 <1>   0.0800 
 38 H       -0.4480    -6.0100     1.1720 H     1 <1>   0.0800 
 39 H       -1.1930    -3.7380     1.4350 H     1 <1>   0.0800 
 40 H       -0.4750    -2.4810     0.4750 H     1 <1>   0.0800 
 41 H       -0.4500    -5.8470    -1.8280 H     1 <1>   0.0800 
 42 H       -1.2740    -3.5380    -1.6040 H     1 <1>   0.0800 
 43 H       -2.6210    -3.2920    -0.5150 H     1 <1>   0.0800 
 44 H        1.7850    -6.8120    -1.7310 H     1 <1>   0.1500 
 45 H        1.1480    -6.9720     2.4900 H     1 <1>   0.1500 
 46 H       -2.3260    -7.5270    -1.5580 H     1 <1>   0.0800 
 47 H       -1.7970    -7.7820     0.0950 H     1 <1>   0.0800 
 48 H        3.6290    -8.3910    -1.5070 H     1 <1>   0.1500 
 49 H        2.9990    -8.5520     2.7010 H     1 <1>   0.1500 
 50 H        0.2750    -8.3780    -0.8340 H     1 <1>   0.4000 
 51 H        4.2440    -9.2760     0.7070 H     1 <1>   0.1500 
@<TRIPOS>BOND
  1   1   2  2   
  2   2   3  am  
  3   2   4  1   
  4   3   5  1   
  5   3   6  1   
  6   4   7  1   
  7   4  26  1   
  8   4  27  1   
  9   5   8  1   
 10   5  28  1   
 11   5  29  1   
 12   6   9  1   
 13   6  30  1   
 14   6  31  1   
 15   7   8  1   
 16   7  32  1   
 17   7  33  1   
 18   8  34  1   
 19   8  35  1   
 20   9  10  1   
 21   9  36  1   
 22   9  37  1   
 23  10  11  2   
 24  10  12  am  
 25  12  13  1   
 26  12  14  1   
 27  13  15  1   
 28  13  16  1   
 29  13  38  1   
 30  14  17  1   
 31  14  39  1   
 32  14  40  1   
 33  15  18  ar  
 34  15  19  ar  
 35  16  20  1   
 36  16  21  1   
 37  16  41  1   
 38  17  20  1   
 39  17  42  1   
 40  17  43  1   
 41  18  22  ar  
 42  18  44  1   
 43  19  23  ar  
 44  19  45  1   
 45  21  24  1   
 46  21  46  1   
 47  21  47  1   
 48  22  25  ar  
 49  22  48  1   
 50  23  25  ar  
 51  23  49  1   
 52  24  50  1   
 53  25  51  1   
@<TRIPOS>SUBSTRUCTURE
  1 ****  10 GROUP 4 **** **** 0

# MOE 2024.06 (io_trps.svl 2023.06)
