@<TRIPOS>MOLECULE
NONAME
49 53 1 0 0 
SMALL
USER_CHARGES


@<TRIPOS>ATOM
  1 O        1.8040    -0.1570    -1.3760 O.3   1 <1>  -0.6800 
  2 C        1.4560     0.1010    -0.0610 C.3   1 <1>   0.4240 
  3 C        0.3620     1.1890    -0.0260 C.ar  1 <1>  -0.1440 
  4 C        2.7110     0.5570     0.7300 C.3   1 <1>  -0.0800 
  5 C        0.9630    -1.2510     0.4840 C.3   1 <1>  -0.1600 
  6 C        0.0290     1.9440    -1.1480 C.ar  1 <1>  -0.1500 
  7 C       -0.3210     1.4510     1.1590 C.ar  1 <1>  -0.1500 
  8 C        3.5880    -0.5830     1.2900 C.3   1 <1>  -0.0800 
  9 C        3.6510     1.5030    -0.0310 C.3   1 <1>   0.2090 
 10 C        2.0170    -2.3800     0.3840 C.3   1 <1>  -0.1600 
 11 C       -0.9530     2.9180    -1.0900 C.ar  1 <1>  -0.1500 
 12 C       -1.3040     2.4240     1.2200 C.ar  1 <1>  -0.1500 
 13 C        3.4730    -1.8770     0.4660 C.3   1 <1>  -0.1600 
 14 C        5.0100    -0.0230     1.3020 C.3   1 <1>   0.2090 
 15 N        5.0280     1.0520     0.2860 N.pl3 1 <1>  -0.8380 
 16 C       -1.6220     3.1590     0.0950 C.ar  1 <1>  -0.1500 
 17 C        6.1590     1.8290     0.0720 C.ar  1 <1>   0.4100 
 18 N        7.2070     1.5770     0.8080 N.ar  1 <1>  -0.6200 
 19 C        6.1690     2.8550    -0.9220 C.ar  1 <1>   0.1600 
 20 C        8.2770     2.3720     0.5610 C.ar  1 <1>   0.3100 
 21 N        7.1660     3.6380    -1.1870 N.ar  1 <1>  -0.6200 
 22 C        8.2620     3.3940    -0.4210 C.ar  1 <1>   0.3100 
 23 C        9.4500     2.1800     1.3080 C.ar  1 <1>  -0.1500 
 24 C        9.4130     4.1730    -0.6060 C.ar  1 <1>  -0.1500 
 25 C       10.5630     2.9550     1.1070 C.ar  1 <1>  -0.1500 
 26 C       10.5450     3.9630     0.1400 C.ar  1 <1>  -0.1500 
 27 H        2.4430    -0.8920    -1.3700 H     1 <1>   0.4000 
 28 H        2.3680     1.1070     1.5870 H     1 <1>   0.0800 
 29 H        0.7080    -1.1290     1.5200 H     1 <1>   0.0800 
 30 H        0.0610    -1.5380    -0.0280 H     1 <1>   0.0800 
 31 H        0.5290     1.7810    -2.0860 H     1 <1>   0.1500 
 32 H       -0.0950     0.9020     2.0550 H     1 <1>   0.1500 
 33 H        3.2960    -0.8090     2.3010 H     1 <1>   0.0800 
 34 H        3.5030     2.5180     0.2970 H     1 <1>   0.0800 
 35 H        3.5080     1.4610    -1.0960 H     1 <1>   0.0800 
 36 H        1.8370    -3.0830     1.1800 H     1 <1>   0.0800 
 37 H        1.8870    -2.9130    -0.5430 H     1 <1>   0.0800 
 38 H       -1.1950     3.4870    -1.9710 H     1 <1>   0.1500 
 39 H       -1.8220     2.6090     2.1450 H     1 <1>   0.1500 
 40 H        3.8550    -1.6930    -0.5250 H     1 <1>   0.0800 
 41 H        4.0910    -2.6440     0.9010 H     1 <1>   0.0800 
 42 H        5.7450    -0.7750     1.0700 H     1 <1>   0.0800 
 43 H        5.2340     0.4040     2.2660 H     1 <1>   0.0800 
 44 H       -2.3870     3.9150     0.1390 H     1 <1>   0.1500 
 45 H        5.2720     2.9770    -1.4960 H     1 <1>   0.1500 
 46 H        9.4450     1.4000     2.0480 H     1 <1>   0.1500 
 47 H        9.3790     4.9420    -1.3550 H     1 <1>   0.1500 
 48 H       11.4560     2.7970     1.6880 H     1 <1>   0.1500 
 49 H       11.4240     4.5670    -0.0110 H     1 <1>   0.1500 
@<TRIPOS>BOND
  1   1   2  1   
  2   1  27  1   
  3   2   3  1   
  4   2   4  1   
  5   2   5  1   
  6   3   6  ar  
  7   3   7  ar  
  8   4   8  1   
  9   4   9  1   
 10   4  28  1   
 11   5  10  1   
 12   5  29  1   
 13   5  30  1   
 14   6  11  ar  
 15   6  31  1   
 16   7  12  ar  
 17   7  32  1   
 18   8  13  1   
 19   8  14  1   
 20   8  33  1   
 21   9  15  1   
 22   9  34  1   
 23   9  35  1   
 24  10  13  1   
 25  10  36  1   
 26  10  37  1   
 27  11  16  ar  
 28  11  38  1   
 29  12  16  ar  
 30  12  39  1   
 31  13  40  1   
 32  13  41  1   
 33  14  15  1   
 34  14  42  1   
 35  14  43  1   
 36  15  17  1   
 37  16  44  1   
 38  17  18  ar  
 39  17  19  ar  
 40  18  20  ar  
 41  19  21  ar  
 42  19  45  1   
 43  20  22  ar  
 44  20  23  ar  
 45  21  22  ar  
 46  22  24  ar  
 47  23  25  ar  
 48  23  46  1   
 49  24  26  ar  
 50  24  47  1   
 51  25  26  ar  
 52  25  48  1   
 53  26  49  1   
@<TRIPOS>SUBSTRUCTURE
  1 ****   9 GROUP 4 **** **** 0

# MOE 2024.06 (io_trps.svl 2023.06)
