@<TRIPOS>MOLECULE
NONAME
39 40 1 0 0 
SMALL
USER_CHARGES


@<TRIPOS>ATOM
  1 S       -0.3610    -0.3920     1.4180 S.3   1 <1>  -0.0800 
  2 C       -0.7470    -1.9550     0.7150 C.2   1 <1>  -0.1400 
  3 C        0.6450    -1.1390     2.6460 C.2   1 <1>  -0.1100 
  4 C       -0.1280    -2.9400     1.3970 C.2   1 <1>  -0.1500 
  5 C       -1.6690    -1.9440    -0.4900 C.3   1 <1>   0.3200 
  6 C        0.6620    -2.4750     2.4960 C.2   1 <1>  -0.1500 
  7 N       -2.0910    -3.3190    -0.7980 N.am  1 <1>  -0.7300 
  8 C       -2.3120    -3.8310    -2.0300 C.2   1 <1>   0.5690 
  9 O       -2.2250    -3.1590    -3.0300 O.2   1 <1>  -0.5700 
 10 C       -2.6800    -5.3150    -2.1400 C.3   1 <1>   0.1710 
 11 N       -3.2500    -5.9050    -0.8890 N.3   1 <1>  -0.8100 
 12 C       -3.1940    -7.3790    -0.9360 C.3   1 <1>   0.1100 
 13 C       -4.6280    -5.4370    -0.6640 C.3   1 <1>   0.1100 
 14 C       -3.6900    -7.9860     0.3870 C.3   1 <1>   0.2000 
 15 C       -5.1420    -5.9560     0.6830 C.3   1 <1>  -0.1600 
 16 O       -3.6940    -9.3680     0.2790 O.3   1 <1>  -0.6800 
 17 C       -5.1030    -7.4970     0.7520 C.3   1 <1>  -0.0800 
 18 C       -5.5180    -8.0340     2.1320 C.3   1 <1>   0.1200 
 19 O       -6.8020    -7.6120     2.4340 O.3   1 <1>  -0.6800 
 20 H        1.1230    -0.4890     3.3570 H     1 <1>   0.1500 
 21 H       -0.1880    -3.9910     1.1730 H     1 <1>   0.1500 
 22 H       -1.1610    -1.5150    -1.3380 H     1 <1>   0.0800 
 23 H       -2.5400    -1.3500    -0.2740 H     1 <1>   0.0800 
 24 H        1.2040    -3.1670     3.1170 H     1 <1>   0.1500 
 25 H       -2.2400    -3.9460    -0.0030 H     1 <1>   0.3700 
 26 H       -1.7760    -5.8360    -2.3970 H     1 <1>   0.0800 
 27 H       -3.3730    -5.4400    -2.9540 H     1 <1>   0.0800 
 28 H       -3.8000    -7.7360    -1.7510 H     1 <1>   0.0800 
 29 H       -2.1750    -7.6920    -1.0930 H     1 <1>   0.0800 
 30 H       -4.6540    -4.3600    -0.6580 H     1 <1>   0.0800 
 31 H       -5.2680    -5.7830    -1.4600 H     1 <1>   0.0800 
 32 H       -2.9940    -7.7270     1.1670 H     1 <1>   0.0800 
 33 H       -4.5390    -5.5340     1.4680 H     1 <1>   0.0800 
 34 H       -6.1510    -5.6080     0.8150 H     1 <1>   0.0800 
 35 H       -4.3860    -9.6590    -0.3450 H     1 <1>   0.4000 
 36 H       -5.7890    -7.8820     0.0170 H     1 <1>   0.0800 
 37 H       -4.8540    -7.6820     2.9030 H     1 <1>   0.0800 
 38 H       -5.5190    -9.1110     2.1380 H     1 <1>   0.0800 
 39 H       -6.8270    -6.6420     2.5390 H     1 <1>   0.4000 
@<TRIPOS>BOND
  1   1   2  1   
  2   1   3  1   
  3   2   4  2   
  4   2   5  1   
  5   3   6  2   
  6   3  20  1   
  7   4   6  1   
  8   4  21  1   
  9   5   7  1   
 10   5  22  1   
 11   5  23  1   
 12   6  24  1   
 13   7   8  am  
 14   7  25  1   
 15   8   9  2   
 16   8  10  1   
 17  10  11  1   
 18  10  26  1   
 19  10  27  1   
 20  11  12  1   
 21  11  13  1   
 22  12  14  1   
 23  12  28  1   
 24  12  29  1   
 25  13  15  1   
 26  13  30  1   
 27  13  31  1   
 28  14  16  1   
 29  14  17  1   
 30  14  32  1   
 31  15  17  1   
 32  15  33  1   
 33  15  34  1   
 34  16  35  1   
 35  17  18  1   
 36  17  36  1   
 37  18  19  1   
 38  18  37  1   
 39  18  38  1   
 40  19  39  1   
@<TRIPOS>SUBSTRUCTURE
  1 ****  11 GROUP 4 **** **** 0

# MOE 2024.06 (io_trps.svl 2023.06)
