@<TRIPOS>MOLECULE
NONAME
20 20 1 0 0 
SMALL
USER_CHARGES


@<TRIPOS>ATOM
  1 CL      -0.0880    -0.1010     1.2100 Cl    1 <1>  -0.1770 
  2 C        1.3240    -0.8080     0.4200 C.ar  1 <1>   0.1770 
  3 C        2.4220    -0.0450     0.0490 C.ar  1 <1>   0.4100 
  4 C        1.3590    -2.1690     0.1770 C.ar  1 <1>   0.4100 
  5 N        3.4770    -0.6270    -0.5090 N.ar  1 <1>  -0.6200 
  6 N        2.4990     1.3330     0.2220 N.pl3 1 <1>  -0.8380 
  7 N        2.4030    -2.7470    -0.3770 N.ar  1 <1>  -0.6200 
  8 N        0.3450    -3.0290     0.4900 N.pl3 1 <1>  -0.9000 
  9 C        3.3960    -1.9330    -0.6860 C.ar  1 <1>   0.4700 
 10 C        1.4690     2.2110    -0.3940 C.3   1 <1>   0.1290 
 11 C        3.8190     1.9850     0.4500 C.3   1 <1>   0.1290 
 12 H        0.5940    -4.0190     0.4700 H     1 <1>   0.4000 
 13 H       -0.3170    -2.7580     1.2190 H     1 <1>   0.4000 
 14 H        4.2550    -2.3960    -1.1420 H     1 <1>   0.1500 
 15 H        0.7120     1.6220    -0.8830 H     1 <1>   0.0800 
 16 H        1.9230     2.8560    -1.1270 H     1 <1>   0.0800 
 17 H        1.0050     2.8120     0.3680 H     1 <1>   0.0800 
 18 H        4.4620     1.3270     1.0090 H     1 <1>   0.0800 
 19 H        3.6880     2.8950     1.0070 H     1 <1>   0.0800 
 20 H        4.2840     2.2060    -0.4950 H     1 <1>   0.0800 
@<TRIPOS>BOND
  1   1   2  1   
  2   2   3  ar  
  3   2   4  ar  
  4   3   5  ar  
  5   3   6  1   
  6   4   7  ar  
  7   4   8  1   
  8   5   9  ar  
  9   6  10  1   
 10   6  11  1   
 11   7   9  ar  
 12   8  12  1   
 13   8  13  1   
 14   9  14  1   
 15  10  15  1   
 16  10  16  1   
 17  10  17  1   
 18  11  18  1   
 19  11  19  1   
 20  11  20  1   
@<TRIPOS>SUBSTRUCTURE
  1 ****   3 GROUP 4 **** **** 0

# MOE 2024.06 (io_trps.svl 2023.06)
