@<TRIPOS>MOLECULE
NONAME
46 48 1 0 0 
SMALL
USER_CHARGES


@<TRIPOS>ATOM
  1 F       -0.7280     1.2040    -0.7750 F     1 <1>  -0.3400 
  2 C       -1.4620     1.0100     0.3170 C.3   1 <1>   1.1640 
  3 F       -0.7340     1.4520     1.3390 F     1 <1>  -0.3400 
  4 F       -1.5280    -0.3110     0.4710 F     1 <1>  -0.3400 
  5 C       -2.8580     1.6820     0.2380 C.ar  1 <1>   0.1660 
  6 N       -2.9460     2.9830    -0.0050 N.ar  1 <1>  -0.6200 
  7 C       -4.0000     0.9400     0.4200 C.ar  1 <1>  -0.1500 
  8 C       -4.1660     3.5070    -0.0550 C.ar  1 <1>   0.7200 
  9 C       -5.2260     1.5690     0.3390 C.ar  1 <1>   0.4100 
 10 N       -5.3060     2.8570     0.1080 N.ar  1 <1>  -0.6200 
 11 N       -4.2460     4.8650    -0.3050 N.pl3 1 <1>  -0.8380 
 12 N       -6.4090     0.8680     0.5070 N.pl3 1 <1>  -0.8380 
 13 C       -3.0640     5.7650    -0.1860 C.3   1 <1>   0.1290 
 14 C       -5.5290     5.5260    -0.6710 C.3   1 <1>   0.1290 
 15 C       -7.7390     1.5410     0.4150 C.3   1 <1>   0.2090 
 16 C       -6.5470    -0.5690     0.1680 C.3   1 <1>   0.2090 
 17 C       -8.7190     0.4560    -0.0350 C.3   1 <1>   0.2000 
 18 C       -8.0390    -0.8730     0.2840 C.3   1 <1>  -0.0800 
 19 O       -9.9320     0.5380     0.6350 O.3   1 <1>  -0.6800 
 20 C       -8.5080    -2.0210    -0.6230 C.3   1 <1>  -0.0170 
 21 C       -7.7200    -3.2920    -0.3460 C.ar  1 <1>  -0.1430 
 22 C       -7.9760    -4.0790     0.7580 C.ar  1 <1>  -0.1500 
 23 C       -6.7050    -3.7210    -1.1780 C.ar  1 <1>  -0.1500 
 24 C       -7.2220    -5.2190     0.9760 C.ar  1 <1>   0.1600 
 25 C       -6.0100    -4.8780    -0.8690 C.ar  1 <1>   0.1600 
 26 N       -6.2410    -5.6350     0.1910 N.ar  1 <1>  -0.6200 
 27 H       -3.9610    -0.1100     0.6310 H     1 <1>   0.1500 
 28 H       -3.3750     6.7450     0.1300 H     1 <1>   0.0800 
 29 H       -2.5700     5.8370    -1.1390 H     1 <1>   0.0800 
 30 H       -2.3690     5.3820     0.5410 H     1 <1>   0.0800 
 31 H       -5.3410     6.3670    -1.3150 H     1 <1>   0.0800 
 32 H       -6.0260     5.8640     0.2210 H     1 <1>   0.0800 
 33 H       -6.1730     4.8390    -1.1920 H     1 <1>   0.0800 
 34 H       -8.0010     1.9310     1.3820 H     1 <1>   0.0800 
 35 H       -7.7200     2.3400    -0.3070 H     1 <1>   0.0800 
 36 H       -6.2020    -0.7270    -0.8400 H     1 <1>   0.0800 
 37 H       -5.9810    -1.1840     0.8470 H     1 <1>   0.0800 
 38 H       -8.9080     0.5580    -1.0900 H     1 <1>   0.0800 
 39 H       -8.2260    -1.1300     1.3120 H     1 <1>   0.0800 
 40 H       -9.7880     0.4970     1.6010 H     1 <1>   0.4000 
 41 H       -8.3940    -1.7420    -1.6560 H     1 <1>   0.0800 
 42 H       -9.5560    -2.2050    -0.4520 H     1 <1>   0.0800 
 43 H       -8.7560    -3.8170     1.4500 H     1 <1>   0.1500 
 44 H       -6.4460    -3.1690    -2.0640 H     1 <1>   0.1500 
 45 H       -7.4360    -5.8220     1.8430 H     1 <1>   0.1500 
 46 H       -5.2220    -5.1990    -1.5290 H     1 <1>   0.1500 
@<TRIPOS>BOND
  1   1   2  1   
  2   2   3  1   
  3   2   4  1   
  4   2   5  1   
  5   5   6  ar  
  6   5   7  ar  
  7   6   8  ar  
  8   7   9  ar  
  9   7  27  1   
 10   8  10  ar  
 11   8  11  1   
 12   9  10  ar  
 13   9  12  1   
 14  11  13  1   
 15  11  14  1   
 16  12  15  1   
 17  12  16  1   
 18  13  28  1   
 19  13  29  1   
 20  13  30  1   
 21  14  31  1   
 22  14  32  1   
 23  14  33  1   
 24  15  17  1   
 25  15  34  1   
 26  15  35  1   
 27  16  18  1   
 28  16  36  1   
 29  16  37  1   
 30  17  18  1   
 31  17  19  1   
 32  17  38  1   
 33  18  20  1   
 34  18  39  1   
 35  19  40  1   
 36  20  21  1   
 37  20  41  1   
 38  20  42  1   
 39  21  22  ar  
 40  21  23  ar  
 41  22  24  ar  
 42  22  43  1   
 43  23  25  ar  
 44  23  44  1   
 45  24  26  ar  
 46  24  45  1   
 47  25  26  ar  
 48  25  46  1   
@<TRIPOS>SUBSTRUCTURE
  1 ****  12 GROUP 4 **** **** 0

# MOE 2024.06 (io_trps.svl 2023.06)
