@<TRIPOS>MOLECULE
NONAME
44 47 1 0 0 
SMALL
USER_CHARGES


@<TRIPOS>ATOM
  1 CL       0.9280     1.0820    -1.3990 Cl    1 <1>  -0.1770 
  2 C        0.0200     2.4850    -0.9010 C.ar  1 <1>   0.1770 
  3 C        0.6820     3.5460    -0.3160 C.ar  1 <1>  -0.1500 
  4 C       -1.3460     2.5120    -1.1020 C.ar  1 <1>  -0.1500 
  5 C       -0.0260     4.6770     0.0810 C.ar  1 <1>  -0.0230 
  6 C       -2.0630     3.6280    -0.7050 C.ar  1 <1>  -0.1500 
  7 N        0.6530     5.7820     0.6710 N.pl3 1 <1>   0.5930 
  8 C       -1.4080     4.6980    -0.1170 C.ar  1 <1>  -0.1500 
  9 N        1.7630     5.6560     1.4400 N.2   1 <1>  -0.7070 
 10 C        0.3630     7.1000     0.5200 C.2   1 <1>  -0.3020 
 11 C        2.1180     6.8550     1.7660 C.2   1 <1>   0.1390 
 12 C        1.2820     7.8140     1.2070 C.2   1 <1>  -0.1810 
 13 C        1.4360     9.3130     1.3500 C.3   1 <1>   0.5240 
 14 N        2.6870     9.7190     0.6610 N.4   1 <1>  -0.9590 
 15 C        3.1160    11.1240     1.0030 C.3   1 <1>   0.3430 
 16 C        2.6910     9.3580    -0.8000 C.3   1 <1>   0.3430 
 17 C        4.5590    11.5000     0.5560 C.3   1 <1>   0.2200 
 18 C        4.0860     9.3650    -1.4410 C.3   1 <1>  -0.0190 
 19 N        4.6050    11.7170    -0.9090 N.am  1 <1>  -0.7300 
 20 C        5.6310    10.4650     0.9810 C.3   1 <1>   0.1200 
 21 C        4.4140    10.7750    -1.8490 C.2   1 <1>   0.5690 
 22 C        5.2330     8.7270    -0.6240 C.3   1 <1>   0.1200 
 23 O        5.2490     9.1370     0.7190 O.3   1 <1>  -0.5600 
 24 O        4.4680    11.0600    -3.0130 O.2   1 <1>  -0.5700 
 25 H        1.7470     3.4870    -0.1680 H     1 <1>   0.1500 
 26 H       -1.8370     1.6720    -1.5600 H     1 <1>   0.1500 
 27 H       -3.1300     3.6600    -0.8510 H     1 <1>   0.1500 
 28 H       -1.9860     5.5510     0.1940 H     1 <1>   0.1500 
 29 H       -0.4730     7.4280    -0.0710 H     1 <1>   0.1500 
 30 H        2.9730     7.0550     2.3940 H     1 <1>   0.1500 
 31 H        1.4830     9.5680     2.3960 H     1 <1>   0.0800 
 32 H        0.5880     9.8130     0.9090 H     1 <1>   0.0800 
 33 H        3.4500     9.1240     1.0430 H     1 <1>   0.4500 
 34 H        2.4270    11.8330     0.5730 H     1 <1>   0.0800 
 35 H        3.0730    11.2400     2.0740 H     1 <1>   0.0800 
 36 H        2.2950     8.3620    -0.9130 H     1 <1>   0.0800 
 37 H        2.0450    10.0260    -1.3470 H     1 <1>   0.0800 
 38 H        4.8120    12.4390     1.0170 H     1 <1>   0.0800 
 39 H        4.0110     8.8060    -2.3570 H     1 <1>   0.0800 
 40 H        4.8810    12.6440    -1.2530 H     1 <1>   0.3700 
 41 H        5.7870    10.5340     2.0440 H     1 <1>   0.0800 
 42 H        6.5730    10.6630     0.4970 H     1 <1>   0.0800 
 43 H        6.1910     8.9490    -1.0670 H     1 <1>   0.0800 
 44 H        5.1130     7.6560    -0.6190 H     1 <1>   0.0800 
@<TRIPOS>BOND
  1   1   2  1   
  2   2   3  ar  
  3   2   4  ar  
  4   3   5  ar  
  5   3  25  1   
  6   4   6  ar  
  7   4  26  1   
  8   5   7  1   
  9   5   8  ar  
 10   6   8  ar  
 11   6  27  1   
 12   7   9  1   
 13   7  10  1   
 14   8  28  1   
 15   9  11  2   
 16  10  12  2   
 17  10  29  1   
 18  11  12  1   
 19  11  30  1   
 20  12  13  1   
 21  13  14  1   
 22  13  31  1   
 23  13  32  1   
 24  14  15  1   
 25  14  16  1   
 26  14  33  1   
 27  15  17  1   
 28  15  34  1   
 29  15  35  1   
 30  16  18  1   
 31  16  36  1   
 32  16  37  1   
 33  17  19  1   
 34  17  20  1   
 35  17  38  1   
 36  18  21  1   
 37  18  22  1   
 38  18  39  1   
 39  19  21  am  
 40  19  40  1   
 41  20  23  1   
 42  20  41  1   
 43  20  42  1   
 44  21  24  2   
 45  22  23  1   
 46  22  43  1   
 47  22  44  1   
@<TRIPOS>SUBSTRUCTURE
  1 ****  12 GROUP 4 **** **** 0

# MOE 2024.06 (io_trps.svl 2023.06)
