@<TRIPOS>MOLECULE
NONAME
50 54 1 0 0 
SMALL
USER_CHARGES


@<TRIPOS>ATOM
  1 O       -1.9560    -0.0220    -1.3380 O.2   1 <1>  -0.5700 
  2 C       -1.6940     0.2140    -0.1690 C.2   1 <1>   0.7160 
  3 N       -1.5210    -0.8420     0.6770 N.am  1 <1>  -0.7300 
  4 C       -1.6110     1.5720     0.3500 C.2   1 <1>   0.2030 
  5 C       -1.8890    -2.2390     0.3660 C.3   1 <1>   0.2200 
  6 N       -1.2460     1.8990     1.5810 N.2   1 <1>  -0.7070 
  7 C       -1.9280     2.7310    -0.3720 C.2   1 <1>  -0.1810 
  8 C       -3.4030    -2.4000     0.4840 C.3   1 <1>  -0.0800 
  9 C       -1.3430    -3.2030     1.4170 C.3   1 <1>   0.1200 
 10 N       -1.3230     3.2400     1.6380 N.pl3 1 <1>   0.3000 
 11 C       -1.7290     3.7570     0.4650 C.2   1 <1>  -0.3320 
 12 C       -2.4140     2.9170    -1.8020 C.3   1 <1>   0.3010 
 13 C       -3.5900    -3.3770     1.6460 C.3   1 <1>   0.1200 
 14 C       -4.0460    -2.8790    -0.8290 C.3   1 <1>  -0.0160 
 15 O       -2.3770    -3.3960     2.3260 O.3   1 <1>  -0.5600 
 16 C       -1.9700     5.1950     0.0560 C.3   1 <1>   0.0200 
 17 O       -2.9310     4.2190    -1.9530 O.3   1 <1>  -0.5600 
 18 C       -5.5670    -2.8310    -0.7410 C.ar  1 <1>  -0.1440 
 19 C       -2.1050     5.2550    -1.4810 C.3   1 <1>   0.1200 
 20 C       -6.2860    -1.6150    -0.8450 C.ar  1 <1>   0.0000 
 21 C       -6.2860    -3.9750    -0.5540 C.ar  1 <1>  -0.1500 
 22 C       -7.6960    -1.6730    -0.7260 C.ar  1 <1>   0.3100 
 23 C       -5.6910    -0.3490    -1.0590 C.ar  1 <1>  -0.1500 
 24 C       -7.6820    -3.9220    -0.4600 C.ar  1 <1>   0.1600 
 25 N       -8.3770    -2.8320    -0.5370 N.ar  1 <1>  -0.6200 
 26 C       -8.4330    -0.4810    -0.8070 C.ar  1 <1>  -0.1500 
 27 C       -6.4390     0.7940    -1.1340 C.ar  1 <1>  -0.1500 
 28 C       -7.8280     0.7310    -1.0050 C.ar  1 <1>  -0.1500 
 29 H       -1.4320    -0.6020     1.6700 H     1 <1>   0.3700 
 30 H       -1.5170    -2.4980    -0.6110 H     1 <1>   0.0800 
 31 H       -3.8520    -1.4650     0.7720 H     1 <1>   0.0800 
 32 H       -0.4780    -2.8190     1.9290 H     1 <1>   0.0800 
 33 H       -1.1160    -4.1570     0.9730 H     1 <1>   0.0800 
 34 H       -1.0970     3.7720     2.4870 H     1 <1>   0.2700 
 35 H       -3.2030     2.2220    -2.0310 H     1 <1>   0.0800 
 36 H       -1.6070     2.7820    -2.5000 H     1 <1>   0.0800 
 37 H       -3.7890    -4.3770     1.3010 H     1 <1>   0.0800 
 38 H       -4.3660    -3.0610     2.3220 H     1 <1>   0.0800 
 39 H       -3.7190    -3.8800    -1.0480 H     1 <1>   0.0800 
 40 H       -3.7180    -2.2600    -1.6460 H     1 <1>   0.0800 
 41 H       -1.1540     5.8230     0.3680 H     1 <1>   0.0800 
 42 H       -2.8750     5.5580     0.5090 H     1 <1>   0.0800 
 43 H       -1.1410     5.1530    -1.9490 H     1 <1>   0.0800 
 44 H       -2.5420     6.1900    -1.7830 H     1 <1>   0.0800 
 45 H       -5.8090    -4.9350    -0.4720 H     1 <1>   0.1500 
 46 H       -4.6250    -0.2740    -1.1670 H     1 <1>   0.1500 
 47 H       -8.2110    -4.8490    -0.3130 H     1 <1>   0.1500 
 48 H       -9.5000    -0.5540    -0.7080 H     1 <1>   0.1500 
 49 H       -5.9700     1.7510    -1.2930 H     1 <1>   0.1500 
 50 H       -8.4060     1.6370    -1.0650 H     1 <1>   0.1500 
@<TRIPOS>BOND
  1   1   2  2   
  2   2   3  am  
  3   2   4  1   
  4   3   5  1   
  5   3  29  1   
  6   4   6  2   
  7   4   7  1   
  8   5   8  1   
  9   5   9  1   
 10   5  30  1   
 11   6  10  1   
 12   7  11  2   
 13   7  12  1   
 14   8  13  1   
 15   8  14  1   
 16   8  31  1   
 17   9  15  1   
 18   9  32  1   
 19   9  33  1   
 20  10  11  1   
 21  10  34  1   
 22  11  16  1   
 23  12  17  1   
 24  12  35  1   
 25  12  36  1   
 26  13  15  1   
 27  13  37  1   
 28  13  38  1   
 29  14  18  1   
 30  14  39  1   
 31  14  40  1   
 32  16  19  1   
 33  16  41  1   
 34  16  42  1   
 35  17  19  1   
 36  18  20  ar  
 37  18  21  ar  
 38  19  43  1   
 39  19  44  1   
 40  20  22  ar  
 41  20  23  ar  
 42  21  24  ar  
 43  21  45  1   
 44  22  25  ar  
 45  22  26  ar  
 46  23  27  ar  
 47  23  46  1   
 48  24  25  ar  
 49  24  47  1   
 50  26  28  ar  
 51  26  48  1   
 52  27  28  ar  
 53  27  49  1   
 54  28  50  1   
@<TRIPOS>SUBSTRUCTURE
  1 ****  23 GROUP 4 **** **** 0

# MOE 2024.06 (io_trps.svl 2023.06)
