@<TRIPOS>MOLECULE
NONAME
40 42 1 0 0 
SMALL
USER_CHARGES


@<TRIPOS>ATOM
  1 CL      -0.9600    -2.7120     3.7450 Cl    1 <1>  -0.1770 
  2 C       -2.0010    -2.2830     2.4090 C.ar  1 <1>   0.1770 
  3 C       -2.3760    -3.2500     1.4940 C.ar  1 <1>  -0.1500 
  4 C       -2.4380    -0.9760     2.2930 C.ar  1 <1>  -0.1500 
  5 C       -3.2100    -2.9190     0.4360 C.ar  1 <1>  -0.1440 
  6 C       -3.2630    -0.6350     1.2360 C.ar  1 <1>  -0.1500 
  7 C       -3.6390    -1.5980     0.3090 C.ar  1 <1>   0.0820 
  8 C       -3.6330    -4.0130    -0.5520 C.3   1 <1>   0.2280 
  9 O       -4.4390    -1.2150    -0.7090 O.3   1 <1>  -0.3630 
 10 N       -4.2750    -5.1460     0.2170 N.3   1 <1>  -0.8100 
 11 C       -2.4800    -4.3530    -1.5450 C.2   1 <1>   0.9060 
 12 C       -3.7810    -0.9070    -1.9200 C.3   1 <1>   0.0400 
 13 C       -4.3070    -6.3680    -0.6130 C.3   1 <1>   0.2900 
 14 C       -5.6130    -4.7590     0.6950 C.3   1 <1>   0.1100 
 15 O       -2.6720    -4.1320    -2.7530 O.co2 1 <1>  -0.9000 
 16 O       -1.4190    -4.8650    -1.1570 O.co2 1 <1>  -0.9000 
 17 C       -5.1730    -7.4370     0.0340 C.2   1 <1>  -0.3320 
 18 C       -6.1730    -5.8230     1.6420 C.3   1 <1>   0.0960 
 19 N       -6.0230    -7.1510     1.0350 N.pl3 1 <1>   0.3140 
 20 C       -5.2940    -8.7580    -0.2130 C.2   1 <1>  -0.1500 
 21 N       -6.7040    -8.2420     1.4390 N.2   1 <1>  -0.7070 
 22 C       -6.2560    -9.1990     0.6890 C.2   1 <1>   0.1080 
 23 C       -6.7510   -10.6200     0.8110 C.3   1 <1>  -0.0590 
 24 H       -2.0200    -4.2610     1.5950 H     1 <1>   0.1500 
 25 H       -2.1340    -0.2440     3.0180 H     1 <1>   0.1500 
 26 H       -3.6180     0.3730     1.1200 H     1 <1>   0.1500 
 27 H       -4.3980    -3.6070    -1.1880 H     1 <1>   0.0800 
 28 H       -4.5240    -0.6960    -2.6660 H     1 <1>   0.0800 
 29 H       -3.1840    -1.7460    -2.2300 H     1 <1>   0.0800 
 30 H       -3.1530    -0.0480    -1.7650 H     1 <1>   0.0800 
 31 H       -3.3050    -6.7450    -0.7370 H     1 <1>   0.0800 
 32 H       -4.7040    -6.1350    -1.5880 H     1 <1>   0.0800 
 33 H       -6.2770    -4.6310    -0.1440 H     1 <1>   0.0800 
 34 H       -5.5570    -3.8220     1.2230 H     1 <1>   0.0800 
 35 H       -7.2110    -5.6460     1.8440 H     1 <1>   0.0800 
 36 H       -5.6250    -5.8120     2.5640 H     1 <1>   0.0800 
 37 H       -4.7730    -9.3540    -0.9400 H     1 <1>   0.1500 
 38 H       -6.2590   -11.2510     0.0950 H     1 <1>   0.0800 
 39 H       -7.8110   -10.6450     0.6390 H     1 <1>   0.0800 
 40 H       -6.5490   -10.9830     1.8020 H     1 <1>   0.0800 
@<TRIPOS>BOND
  1   1   2  1   
  2   2   3  ar  
  3   2   4  ar  
  4   3   5  ar  
  5   3  24  1   
  6   4   6  ar  
  7   4  25  1   
  8   5   7  ar  
  9   5   8  1   
 10   6   7  ar  
 11   6  26  1   
 12   7   9  1   
 13   8  10  1   
 14   8  11  1   
 15   8  27  1   
 16   9  12  1   
 17  10  13  1   
 18  10  14  1   
 19  11  15  ar  
 20  11  16  ar  
 21  12  28  1   
 22  12  29  1   
 23  12  30  1   
 24  13  17  1   
 25  13  31  1   
 26  13  32  1   
 27  14  18  1   
 28  14  33  1   
 29  14  34  1   
 30  17  19  1   
 31  17  20  2   
 32  18  19  1   
 33  18  35  1   
 34  18  36  1   
 35  19  21  1   
 36  20  22  1   
 37  20  37  1   
 38  21  22  2   
 39  22  23  1   
 40  23  38  1   
 41  23  39  1   
 42  23  40  1   
@<TRIPOS>SUBSTRUCTURE
  1 ****  10 GROUP 4 **** **** 0

# MOE 2024.06 (io_trps.svl 2023.06)
