@<TRIPOS>MOLECULE
NONAME
50 53 1 0 0 
SMALL
USER_CHARGES


@<TRIPOS>ATOM
  1 O       -1.0870    -1.3110    -1.1760 O.2   1 <1>  -0.5700 
  2 C       -0.2470    -1.9510    -0.5670 C.2   1 <1>   0.5440 
  3 N        0.2190    -1.4300     0.6290 N.am  1 <1>  -0.6600 
  4 C        0.2120    -3.2150    -1.1390 C.ar  1 <1>   0.3960 
  5 C       -0.4460    -0.2760     1.3110 C.3   1 <1>   0.1400 
  6 C        1.4100    -1.9460     1.3720 C.3   1 <1>   0.1400 
  7 N        0.4050    -4.2910    -0.3570 N.ar  1 <1>  -0.6200 
  8 C        0.4090    -3.2710    -2.5230 C.ar  1 <1>   0.1600 
  9 C        0.5870     0.7750     1.7480 C.3   1 <1>   0.1200 
 10 C        2.3270    -0.7930     1.8190 C.3   1 <1>   0.1200 
 11 C        0.7680    -5.3640    -1.0250 C.ar  1 <1>   0.4100 
 12 N        0.8060    -4.3390    -3.2030 N.ar  1 <1>  -0.6200 
 13 O        1.6000     0.1820     2.5100 O.3   1 <1>  -0.5600 
 14 N        0.8830    -6.4780    -0.2430 N.pl3 1 <1>  -0.8690 
 15 C        0.9790    -5.3770    -2.4120 C.ar  1 <1>   0.1600 
 16 C       -0.1610    -7.5230    -0.3900 C.3   1 <1>   0.2890 
 17 C       -1.4970    -7.0460     0.1750 C.3   1 <1>  -0.0800 
 18 C        0.1400    -8.7710     0.4290 C.3   1 <1>   0.1200 
 19 C       -1.9850    -8.2240     1.0260 C.3   1 <1>   0.1200 
 20 C       -2.4830    -6.6380    -0.9320 C.3   1 <1>  -0.0170 
 21 O       -1.1070    -9.2760     0.7840 O.3   1 <1>  -0.5600 
 22 C       -3.6960    -5.9370    -0.3440 C.ar  1 <1>  -0.1430 
 23 C       -3.6460    -4.6050     0.0150 C.ar  1 <1>  -0.1500 
 24 C       -4.9000    -6.5800    -0.1390 C.ar  1 <1>  -0.1500 
 25 C       -4.7690    -3.9970     0.5500 C.ar  1 <1>   0.1600 
 26 C       -5.9640    -5.8790     0.4060 C.ar  1 <1>   0.1600 
 27 N       -5.9270    -4.6040     0.7590 N.ar  1 <1>  -0.6200 
 28 H       -1.1670     0.1910     0.6630 H     1 <1>   0.0800 
 29 H       -0.9690    -0.6350     2.1790 H     1 <1>   0.0800 
 30 H        1.0770    -2.4900     2.2390 H     1 <1>   0.0800 
 31 H        1.9840    -2.6160     0.7580 H     1 <1>   0.0800 
 32 H        0.2250    -2.3760    -3.0930 H     1 <1>   0.1500 
 33 H        0.1160     1.5260     2.3550 H     1 <1>   0.0800 
 34 H        1.0300     1.2500     0.8890 H     1 <1>   0.0800 
 35 H        2.7980    -0.3330     0.9680 H     1 <1>   0.0800 
 36 H        3.0910    -1.1620     2.4800 H     1 <1>   0.0800 
 37 H        0.9540    -6.1950     0.7380 H     1 <1>   0.4000 
 38 H        1.3010    -6.3000    -2.8580 H     1 <1>   0.1500 
 39 H       -0.2600    -7.8090    -1.4240 H     1 <1>   0.0800 
 40 H       -1.3460    -6.2080     0.8340 H     1 <1>   0.0800 
 41 H        0.6710    -8.5300     1.3330 H     1 <1>   0.0800 
 42 H        0.6710    -9.5140    -0.1390 H     1 <1>   0.0800 
 43 H       -2.9800    -8.5440     0.7720 H     1 <1>   0.0800 
 44 H       -1.9390    -7.9850     2.0750 H     1 <1>   0.0800 
 45 H       -2.7890    -7.5030    -1.4950 H     1 <1>   0.0800 
 46 H       -2.0010    -5.9610    -1.6150 H     1 <1>   0.0800 
 47 H       -2.7460    -4.0310    -0.1170 H     1 <1>   0.1500 
 48 H       -5.0230    -7.6150    -0.3970 H     1 <1>   0.1500 
 49 H       -4.7100    -2.9570     0.8210 H     1 <1>   0.1500 
 50 H       -6.8950    -6.3960     0.5610 H     1 <1>   0.1500 
@<TRIPOS>BOND
  1   1   2  2   
  2   2   3  am  
  3   2   4  1   
  4   3   5  1   
  5   3   6  1   
  6   4   7  ar  
  7   4   8  ar  
  8   5   9  1   
  9   5  28  1   
 10   5  29  1   
 11   6  10  1   
 12   6  30  1   
 13   6  31  1   
 14   7  11  ar  
 15   8  12  ar  
 16   8  32  1   
 17   9  13  1   
 18   9  33  1   
 19   9  34  1   
 20  10  13  1   
 21  10  35  1   
 22  10  36  1   
 23  11  14  1   
 24  11  15  ar  
 25  12  15  ar  
 26  14  16  1   
 27  14  37  1   
 28  15  38  1   
 29  16  17  1   
 30  16  18  1   
 31  16  39  1   
 32  17  19  1   
 33  17  20  1   
 34  17  40  1   
 35  18  21  1   
 36  18  41  1   
 37  18  42  1   
 38  19  21  1   
 39  19  43  1   
 40  19  44  1   
 41  20  22  1   
 42  20  45  1   
 43  20  46  1   
 44  22  23  ar  
 45  22  24  ar  
 46  23  25  ar  
 47  23  47  1   
 48  24  26  ar  
 49  24  48  1   
 50  25  27  ar  
 51  25  49  1   
 52  26  27  ar  
 53  26  50  1   
@<TRIPOS>SUBSTRUCTURE
  1 ****   7 GROUP 4 **** **** 0

# MOE 2024.06 (io_trps.svl 2023.06)
