@<TRIPOS>MOLECULE
NONAME
44 47 1 0 0 
SMALL
USER_CHARGES


@<TRIPOS>ATOM
  1 O       -1.4850     0.5130    -2.7780 O.2   1 <1>  -0.5700 
  2 C       -1.9590     0.9610    -1.7480 C.2   1 <1>   0.5440 
  3 N       -2.9780     0.2590    -1.1470 N.am  1 <1>  -0.6600 
  4 C       -1.4940     2.2410    -1.2560 C.ar  1 <1>   0.0860 
  5 C       -3.9010     0.7790    -0.1020 C.3   1 <1>   0.1400 
  6 C       -2.9020    -1.2170    -1.0530 C.3   1 <1>   0.1400 
  7 C       -0.9630     2.4150     0.0350 C.ar  1 <1>   0.0410 
  8 C       -1.5790     3.3510    -2.0980 C.ar  1 <1>  -0.1500 
  9 C       -4.2110    -0.4090     0.8130 C.3   1 <1>   0.2000 
 10 C       -3.2590    -1.5280     0.3980 C.3   1 <1>  -0.0800 
 11 C       -0.8100     1.3260     0.9640 C.2   1 <1>   0.6970 
 12 C       -0.5810     3.6980     0.4330 C.ar  1 <1>  -0.1500 
 13 C       -1.1850     4.6090    -1.6880 C.ar  1 <1>  -0.1500 
 14 O       -4.0050    -0.0830     2.1430 O.3   1 <1>  -0.6800 
 15 C       -3.8300    -2.9340     0.6190 C.3   1 <1>   0.0210 
 16 N       -0.0310     0.2990     0.7930 N.2   1 <1>  -0.6190 
 17 N       -1.4380     1.2800     2.1100 N.2   1 <1>  -0.6190 
 18 C       -0.6870     4.7850    -0.4110 C.ar  1 <1>  -0.1500 
 19 C       -2.9030    -4.0120     0.0880 C.2   1 <1>   0.1080 
 20 N       -0.1770    -0.3730     1.8770 N.2   1 <1>  -0.2500 
 21 N       -1.0220     0.2020     2.6750 N.2   1 <1>  -0.2500 
 22 N       -3.3130    -4.9870    -0.6650 N.2   1 <1>  -0.7070 
 23 C       -1.5350    -4.0750     0.3320 C.2   1 <1>  -0.1500 
 24 N       -2.2020    -5.7020    -0.9240 N.pl3 1 <1>   0.3000 
 25 C       -1.1120    -5.1700    -0.3320 C.2   1 <1>  -0.3320 
 26 C        0.2920    -5.7330    -0.4370 C.3   1 <1>  -0.0600 
 27 H       -3.4630     1.5880     0.4510 H     1 <1>   0.0800 
 28 H       -4.8050     1.1200    -0.5720 H     1 <1>   0.0800 
 29 H       -3.6130    -1.6540    -1.7320 H     1 <1>   0.0800 
 30 H       -1.9110    -1.5710    -1.2890 H     1 <1>   0.0800 
 31 H       -1.9630     3.2080    -3.0930 H     1 <1>   0.1500 
 32 H       -5.2400    -0.7010     0.6960 H     1 <1>   0.0800 
 33 H       -2.3510    -1.4380     0.9620 H     1 <1>   0.0800 
 34 H       -0.1910     3.8250     1.4300 H     1 <1>   0.1500 
 35 H       -1.2640     5.4480    -2.3580 H     1 <1>   0.1500 
 36 H       -3.0460     0.1800     2.2750 H     1 <1>   0.4000 
 37 H       -4.7820    -3.0230     0.1260 H     1 <1>   0.0800 
 38 H       -3.9810    -3.0940     1.6710 H     1 <1>   0.0800 
 39 H       -0.3810     5.7610    -0.0770 H     1 <1>   0.1500 
 40 H       -0.9640    -3.3750     0.9230 H     1 <1>   0.1500 
 41 H       -2.2190    -6.5430    -1.5100 H     1 <1>   0.2700 
 42 H        0.9750    -5.1130     0.1170 H     1 <1>   0.0800 
 43 H        0.6080    -5.7540    -1.4650 H     1 <1>   0.0800 
 44 H        0.3270    -6.7290    -0.0330 H     1 <1>   0.0800 
@<TRIPOS>BOND
  1   1   2  2   
  2   2   3  am  
  3   2   4  1   
  4   3   5  1   
  5   3   6  1   
  6   4   7  ar  
  7   4   8  ar  
  8   5   9  1   
  9   5  27  1   
 10   5  28  1   
 11   6  10  1   
 12   6  29  1   
 13   6  30  1   
 14   7  11  1   
 15   7  12  ar  
 16   8  13  ar  
 17   8  31  1   
 18   9  10  1   
 19   9  14  1   
 20   9  32  1   
 21  10  15  1   
 22  10  33  1   
 23  11  16  2   
 24  11  17  1   
 25  12  18  ar  
 26  12  34  1   
 27  13  18  ar  
 28  13  35  1   
 29  14  36  1   
 30  15  19  1   
 31  15  37  1   
 32  15  38  1   
 33  16  20  1   
 34  17  21  2   
 35  18  39  1   
 36  19  22  2   
 37  19  23  1   
 38  20  21  1   
 39  22  24  1   
 40  23  25  2   
 41  23  40  1   
 42  24  25  1   
 43  24  41  1   
 44  25  26  1   
 45  26  42  1   
 46  26  43  1   
 47  26  44  1   
@<TRIPOS>SUBSTRUCTURE
  1 ****   6 GROUP 4 **** **** 0

# MOE 2024.06 (io_trps.svl 2023.06)
