@<TRIPOS>MOLECULE
NONAME
37 39 1 0 0 
SMALL
USER_CHARGES


@<TRIPOS>ATOM
  1 CL       1.2000     0.6530    -2.2480 Cl    1 <1>  -0.1770 
  2 C        2.1500     1.3090    -0.9420 C.ar  1 <1>   0.1770 
  3 C        2.1380     2.6740    -0.7210 C.ar  1 <1>  -0.1500 
  4 C        2.9000     0.4600    -0.1520 C.ar  1 <1>  -0.1500 
  5 C        2.8970     3.2080     0.3120 C.ar  1 <1>  -0.1440 
  6 C        3.6520     0.9890     0.8820 C.ar  1 <1>  -0.1500 
  7 C        3.6490     2.3550     1.1130 C.ar  1 <1>  -0.1500 
  8 C        2.9090     4.7060     0.5540 C.3   1 <1>   0.4870 
  9 N        4.2690     5.2250     0.2550 N.4   1 <1>  -0.9590 
 10 C        4.4950     6.6140     0.7980 C.3   1 <1>   0.3430 
 11 C        4.6810     4.9870    -1.1710 C.3   1 <1>   0.3430 
 12 C        5.9730     7.0990     0.7800 C.3   1 <1>   0.2200 
 13 C        6.1910     5.1260    -1.4170 C.3   1 <1>  -0.0190 
 14 N        6.3860     7.4450    -0.5990 N.am  1 <1>  -0.7300 
 15 C        6.9670     6.0860     1.4020 C.3   1 <1>   0.1200 
 16 C        6.5090     6.5830    -1.6220 C.2   1 <1>   0.5690 
 17 C        7.1300     4.4810    -0.3730 C.3   1 <1>   0.1200 
 18 O        6.7660     4.7680     0.9520 O.3   1 <1>  -0.5600 
 19 O        6.8390     6.9710    -2.7080 O.2   1 <1>  -0.5700 
 20 H        1.5330     3.2920    -1.3620 H     1 <1>   0.1500 
 21 H        2.8900    -0.5990    -0.3450 H     1 <1>   0.1500 
 22 H        4.2370     0.3340     1.5070 H     1 <1>   0.1500 
 23 H        4.2410     2.7380     1.9290 H     1 <1>   0.1500 
 24 H        2.6560     4.8960     1.5850 H     1 <1>   0.0800 
 25 H        2.1780     5.1900    -0.0730 H     1 <1>   0.0800 
 26 H        4.9380     4.6320     0.7870 H     1 <1>   0.4500 
 27 H        3.8940     7.3220     0.2510 H     1 <1>   0.0800 
 28 H        4.1640     6.6340     1.8230 H     1 <1>   0.0800 
 29 H        4.4050     3.9830    -1.4480 H     1 <1>   0.0800 
 30 H        4.1510     5.6600    -1.8260 H     1 <1>   0.0800 
 31 H        6.0290     8.0050     1.3580 H     1 <1>   0.0800 
 32 H        6.3980     4.6480    -2.3570 H     1 <1>   0.0800 
 33 H        6.6730     8.4120    -0.7910 H     1 <1>   0.3700 
 34 H        6.8320     6.0680     2.4700 H     1 <1>   0.0800 
 35 H        7.9870     6.3740     1.2050 H     1 <1>   0.0800 
 36 H        8.1500     4.7930    -0.5290 H     1 <1>   0.0800 
 37 H        7.0950     3.4090    -0.4780 H     1 <1>   0.0800 
@<TRIPOS>BOND
  1   1   2  1   
  2   2   3  ar  
  3   2   4  ar  
  4   3   5  ar  
  5   3  20  1   
  6   4   6  ar  
  7   4  21  1   
  8   5   7  ar  
  9   5   8  1   
 10   6   7  ar  
 11   6  22  1   
 12   7  23  1   
 13   8   9  1   
 14   8  24  1   
 15   8  25  1   
 16   9  10  1   
 17   9  11  1   
 18   9  26  1   
 19  10  12  1   
 20  10  27  1   
 21  10  28  1   
 22  11  13  1   
 23  11  29  1   
 24  11  30  1   
 25  12  14  1   
 26  12  15  1   
 27  12  31  1   
 28  13  16  1   
 29  13  17  1   
 30  13  32  1   
 31  14  16  am  
 32  14  33  1   
 33  15  18  1   
 34  15  34  1   
 35  15  35  1   
 36  16  19  2   
 37  17  18  1   
 38  17  36  1   
 39  17  37  1   
@<TRIPOS>SUBSTRUCTURE
  1 ****   9 GROUP 4 **** **** 0

# MOE 2024.06 (io_trps.svl 2023.06)
