@<TRIPOS>MOLECULE
NONAME
49 52 1 0 0 
SMALL
USER_CHARGES


@<TRIPOS>ATOM
  1 F        0.5990     2.7510     0.3940 F     1 <1>  -0.1900 
  2 C        1.8750     2.8580     0.1460 C.ar  1 <1>   0.1900 
  3 C        2.7220     3.2490     1.1630 C.ar  1 <1>  -0.1500 
  4 C        2.3330     2.5750    -1.1250 C.ar  1 <1>  -0.1500 
  5 C        4.0770     3.3580     0.8970 C.ar  1 <1>  -0.1500 
  6 C        3.6890     2.6880    -1.3850 C.ar  1 <1>  -0.1500 
  7 C        4.5670     3.0780    -0.3780 C.ar  1 <1>  -0.1430 
  8 C        6.0610     3.1950    -0.6870 C.3   1 <1>   0.6280 
  9 N        6.8140     2.0850     0.0300 N.4   1 <1>  -0.9590 
 10 C        6.5490     4.6420    -0.3710 C.2   1 <1>   0.5690 
 11 C        8.2180     1.9520    -0.4750 C.3   1 <1>   0.3430 
 12 C        6.1060     0.7640     0.0190 C.3   1 <1>   0.3430 
 13 O        7.6500     4.7870     0.1070 O.2   1 <1>  -0.5700 
 14 N        5.7240     5.7100    -0.6030 N.am  1 <1>  -0.4940 
 15 C        8.9980     0.9820     0.4120 C.3   1 <1>  -0.1600 
 16 C        6.8500    -0.2320     0.9110 C.3   1 <1>  -0.1600 
 17 C        5.8630     7.0470    -0.2110 C.2   1 <1>   0.2500 
 18 C        8.3160    -0.3890     0.4930 C.3   1 <1>  -0.1600 
 19 N        4.8140     7.7170     0.1400 N.2   1 <1>  -0.3380 
 20 N        6.9870     7.7970    -0.1420 N.pl3 1 <1>   0.3340 
 21 N        5.2130     8.9400     0.4780 N.2   1 <1>  -0.3380 
 22 C        6.5020     8.9890     0.3110 C.2   1 <1>   0.3120 
 23 C        8.3360     7.6880    -0.4610 C.2   1 <1>  -0.1810 
 24 N        7.3040    10.0850     0.5380 N.2   1 <1>  -0.5760 
 25 C        9.1260     8.7700    -0.2520 C.2   1 <1>  -0.1360 
 26 C        8.5580     9.9670     0.2680 C.2   1 <1>   0.3750 
 27 C        9.4710    11.1490     0.5060 C.3   1 <1>  -0.1790 
 28 H        2.3220     3.4660     2.1390 H     1 <1>   0.1500 
 29 H        1.6350     2.2750    -1.8880 H     1 <1>   0.1500 
 30 H        4.7300     3.6690     1.6970 H     1 <1>   0.1500 
 31 H        4.0380     2.4670    -2.3820 H     1 <1>   0.1500 
 32 H        6.1850     3.0500    -1.7460 H     1 <1>   0.0800 
 33 H        6.8930     2.3840     1.0100 H     1 <1>   0.4500 
 34 H        8.7190     2.9070    -0.4670 H     1 <1>   0.0800 
 35 H        8.2110     1.5830    -1.4880 H     1 <1>   0.0800 
 36 H        6.0600     0.3800    -0.9870 H     1 <1>   0.0800 
 37 H        5.0980     0.8700     0.3870 H     1 <1>   0.0800 
 38 H        4.7470     5.5060    -0.8360 H     1 <1>   0.3700 
 39 H        9.1010     1.4020     1.3980 H     1 <1>   0.0800 
 40 H        9.9910     0.8610     0.0120 H     1 <1>   0.0800 
 41 H        6.3600    -1.1890     0.8520 H     1 <1>   0.0800 
 42 H        6.7920     0.0930     1.9350 H     1 <1>   0.0800 
 43 H        8.8350    -1.0140     1.2020 H     1 <1>   0.0800 
 44 H        8.3680    -0.8750    -0.4680 H     1 <1>   0.0800 
 45 H        8.6880     6.7550    -0.8580 H     1 <1>   0.1500 
 46 H       10.1800     8.7600    -0.4680 H     1 <1>   0.1500 
 47 H       10.2370    10.8850     1.2100 H     1 <1>   0.0800 
 48 H        8.9110    11.9780     0.9020 H     1 <1>   0.0800 
 49 H        9.9260    11.4530    -0.4190 H     1 <1>   0.0800 
@<TRIPOS>BOND
  1   1   2  1   
  2   2   3  ar  
  3   2   4  ar  
  4   3   5  ar  
  5   3  28  1   
  6   4   6  ar  
  7   4  29  1   
  8   5   7  ar  
  9   5  30  1   
 10   6   7  ar  
 11   6  31  1   
 12   7   8  1   
 13   8   9  1   
 14   8  10  1   
 15   8  32  1   
 16   9  11  1   
 17   9  12  1   
 18   9  33  1   
 19  10  13  2   
 20  10  14  am  
 21  11  15  1   
 22  11  34  1   
 23  11  35  1   
 24  12  16  1   
 25  12  36  1   
 26  12  37  1   
 27  14  17  1   
 28  14  38  1   
 29  15  18  1   
 30  15  39  1   
 31  15  40  1   
 32  16  18  1   
 33  16  41  1   
 34  16  42  1   
 35  17  19  2   
 36  17  20  1   
 37  18  43  1   
 38  18  44  1   
 39  19  21  1   
 40  20  22  1   
 41  20  23  1   
 42  21  22  2   
 43  22  24  1   
 44  23  25  2   
 45  23  45  1   
 46  24  26  2   
 47  25  26  1   
 48  25  46  1   
 49  26  27  1   
 50  27  47  1   
 51  27  48  1   
 52  27  49  1   
@<TRIPOS>SUBSTRUCTURE
  1 ****  10 GROUP 4 **** **** 0

# MOE 2024.06 (io_trps.svl 2023.06)
