@<TRIPOS>MOLECULE
NONAME
48 51 1 0 0 
SMALL
USER_CHARGES


@<TRIPOS>ATOM
  1 O        0.8100    -0.2760     2.2490 O.3   1 <1>  -0.0190 
  2 N        1.2670     0.8950     1.9360 N.2   1 <1>  -0.4100 
  3 C        1.2660    -1.0580     1.3060 C.2   1 <1>   0.2980 
  4 C        1.9570     0.7760     0.8580 C.2   1 <1>   0.4620 
  5 N        1.9780    -0.4880     0.4210 N.2   1 <1>  -0.5650 
  6 C        0.9140    -2.5410     1.3500 C.3   1 <1>   0.2900 
  7 C        2.6150     1.8700     0.1650 C.ar  1 <1>   0.0540 
  8 N       -0.5260    -2.8030     1.1210 N.3   1 <1>  -0.8100 
  9 C        3.9420     1.8240    -0.2880 C.ar  1 <1>  -0.1430 
 10 C        1.8930     3.0420    -0.0670 C.ar  1 <1>  -0.1500 
 11 C       -1.0190    -2.2620    -0.1540 C.3   1 <1>   0.1100 
 12 C       -0.8690    -4.2350     1.1390 C.3   1 <1>   0.1100 
 13 C        4.4910     2.9090    -0.9550 C.ar  1 <1>  -0.1500 
 14 C        4.8220     0.6020    -0.0570 C.3   1 <1>  -0.0970 
 15 C        2.4460     4.1210    -0.7280 C.ar  1 <1>  -0.1500 
 16 C       -2.2940    -3.0510    -0.4250 C.3   1 <1>   0.2000 
 17 C       -1.9330    -4.4580     0.0470 C.3   1 <1>  -0.0800 
 18 C        3.7500     4.0540    -1.1770 C.ar  1 <1>  -0.1500 
 19 O       -3.2740    -2.5580     0.4150 O.3   1 <1>  -0.6800 
 20 C       -1.4000    -5.3090    -1.1210 C.3   1 <1>   0.0200 
 21 C       -0.9400    -6.6790    -0.6600 C.2   1 <1>  -0.0400 
 22 O       -1.7640    -7.4730    -0.0300 O.3   1 <1>  -0.0190 
 23 C        0.2400    -7.3100    -0.7650 C.2   1 <1>  -0.1500 
 24 N       -1.1980    -8.5980     0.2960 N.2   1 <1>  -0.4100 
 25 C        0.0090    -8.5300    -0.1360 C.2   1 <1>   0.1080 
 26 C        1.0320    -9.6330     0.0230 C.3   1 <1>  -0.0590 
 27 H        1.1930    -2.9290     2.3130 H     1 <1>   0.0800 
 28 H        1.4950    -3.0510     0.6010 H     1 <1>   0.0800 
 29 H        0.8760     3.1030     0.2810 H     1 <1>   0.1500 
 30 H       -1.2100    -1.2030    -0.0910 H     1 <1>   0.0800 
 31 H       -0.3050    -2.4480    -0.9380 H     1 <1>   0.0800 
 32 H        0.0020    -4.8430     0.9630 H     1 <1>   0.0800 
 33 H       -1.2710    -4.4890     2.1060 H     1 <1>   0.0800 
 34 H        5.5070     2.8710    -1.3070 H     1 <1>   0.1500 
 35 H        5.8550     0.8250    -0.2500 H     1 <1>   0.0800 
 36 H        4.5170    -0.1960    -0.7110 H     1 <1>   0.0800 
 37 H        4.7370     0.2690     0.9620 H     1 <1>   0.0800 
 38 H        1.8630     5.0100    -0.8940 H     1 <1>   0.1500 
 39 H       -2.6450    -2.9910    -1.4410 H     1 <1>   0.0800 
 40 H       -2.7960    -4.9540     0.4590 H     1 <1>   0.0800 
 41 H        4.1870     4.8900    -1.6960 H     1 <1>   0.1500 
 42 H       -2.8510    -2.4220     1.2900 H     1 <1>   0.4000 
 43 H       -0.5780    -4.8090    -1.6010 H     1 <1>   0.0800 
 44 H       -2.1810    -5.4400    -1.8490 H     1 <1>   0.0800 
 45 H        1.1600    -6.9880    -1.2170 H     1 <1>   0.1500 
 46 H        1.8990    -9.2580     0.5330 H     1 <1>   0.0800 
 47 H        1.3190   -10.0050    -0.9430 H     1 <1>   0.0800 
 48 H        0.6130   -10.4410     0.5960 H     1 <1>   0.0800 
@<TRIPOS>BOND
  1   1   2  1   
  2   1   3  1   
  3   2   4  2   
  4   3   5  2   
  5   3   6  1   
  6   4   5  1   
  7   4   7  1   
  8   6   8  1   
  9   6  27  1   
 10   6  28  1   
 11   7   9  ar  
 12   7  10  ar  
 13   8  11  1   
 14   8  12  1   
 15   9  13  ar  
 16   9  14  1   
 17  10  15  ar  
 18  10  29  1   
 19  11  16  1   
 20  11  30  1   
 21  11  31  1   
 22  12  17  1   
 23  12  32  1   
 24  12  33  1   
 25  13  18  ar  
 26  13  34  1   
 27  14  35  1   
 28  14  36  1   
 29  14  37  1   
 30  15  18  ar  
 31  15  38  1   
 32  16  17  1   
 33  16  19  1   
 34  16  39  1   
 35  17  20  1   
 36  17  40  1   
 37  18  41  1   
 38  19  42  1   
 39  20  21  1   
 40  20  43  1   
 41  20  44  1   
 42  21  22  1   
 43  21  23  2   
 44  22  24  1   
 45  23  25  1   
 46  23  45  1   
 47  24  25  2   
 48  25  26  1   
 49  26  46  1   
 50  26  47  1   
 51  26  48  1   
@<TRIPOS>SUBSTRUCTURE
  1 ****   6 GROUP 4 **** **** 0

# MOE 2024.06 (io_trps.svl 2023.06)
