@<TRIPOS>MOLECULE
NONAME
50 53 1 0 0 
SMALL
USER_CHARGES


@<TRIPOS>ATOM
  1 O       -1.9170     0.0970    -1.6500 O.2   1 <1>  -0.5700 
  2 C       -1.7330     1.1070    -1.0240 C.2   1 <1>   0.5950 
  3 C       -2.5120     1.5620     0.0940 C.2   1 <1>  -0.0860 
  4 C       -0.5990     2.0280    -1.4660 C.3   1 <1>  -0.0990 
  5 C       -3.4680     0.9410     0.9490 C.2   1 <1>  -0.0860 
  6 C       -2.4040     2.8300     0.5610 C.2   1 <1>  -0.0400 
  7 C       -0.9840     3.5230    -1.3760 C.3   1 <1>  -0.1600 
  8 C       -3.8220     1.9220     1.8280 C.2   1 <1>  -0.0400 
  9 C       -3.9360    -0.4300     0.9400 C.2   1 <1>   0.7160 
 10 O       -3.1830     3.0380     1.5830 O.3   1 <1>  -0.2800 
 11 C       -1.4980     3.9170     0.0220 C.3   1 <1>   0.0200 
 12 C       -4.7920     1.9150     2.9930 C.3   1 <1>  -0.0600 
 13 O       -4.0550    -1.0150     2.0010 O.2   1 <1>  -0.5700 
 14 N       -4.3290    -1.0680    -0.2120 N.am  1 <1>  -0.6600 
 15 C       -4.4910    -2.5660    -0.2140 C.3   1 <1>   0.3640 
 16 C       -5.0050    -0.3010    -1.2970 C.3   1 <1>   0.1400 
 17 C       -3.1630    -3.2220     0.1920 C.ar  1 <1>  -0.1440 
 18 C       -4.9500    -3.1860    -1.5730 C.3   1 <1>   0.2000 
 19 C       -5.0390    -1.0870    -2.6050 C.3   1 <1>   0.1200 
 20 C       -2.0080    -3.0270    -0.5550 C.ar  1 <1>  -0.1500 
 21 C       -3.1010    -4.0300     1.3180 C.ar  1 <1>  -0.1500 
 22 O       -5.6820    -2.3000    -2.3780 O.3   1 <1>  -0.5600 
 23 C       -5.8300    -4.4350    -1.3980 C.3   1 <1>   0.1200 
 24 C       -0.8200    -3.6370    -0.1910 C.ar  1 <1>  -0.1500 
 25 C       -1.9150    -4.6410     1.6850 C.ar  1 <1>  -0.1500 
 26 O       -5.2760    -5.3530    -0.5110 O.3   1 <1>  -0.6800 
 27 C       -0.7730    -4.4470     0.9290 C.ar  1 <1>  -0.1500 
 28 H        0.2520     1.8330    -0.8400 H     1 <1>   0.0800 
 29 H       -0.3280     1.7880    -2.4780 H     1 <1>   0.0800 
 30 H       -0.1410     4.1380    -1.6390 H     1 <1>   0.0800 
 31 H       -1.7650     3.7150    -2.0920 H     1 <1>   0.0800 
 32 H       -2.0370     4.8470    -0.0340 H     1 <1>   0.0800 
 33 H       -0.6730     4.0450     0.7010 H     1 <1>   0.0800 
 34 H       -5.2970     0.9700     3.0720 H     1 <1>   0.0800 
 35 H       -5.5250     2.6890     2.8600 H     1 <1>   0.0800 
 36 H       -4.2560     2.0960     3.9070 H     1 <1>   0.0800 
 37 H       -5.2350    -2.8090     0.5250 H     1 <1>   0.0800 
 38 H       -6.0150    -0.0820    -0.9950 H     1 <1>   0.0800 
 39 H       -4.5010     0.6320    -1.4680 H     1 <1>   0.0800 
 40 H       -4.0840    -3.4680    -2.1450 H     1 <1>   0.0800 
 41 H       -4.0440    -1.2660    -2.9760 H     1 <1>   0.0800 
 42 H       -5.6010    -0.5490    -3.3480 H     1 <1>   0.0800 
 43 H       -2.0300    -2.3930    -1.4240 H     1 <1>   0.1500 
 44 H       -3.9820    -4.1830     1.9190 H     1 <1>   0.1500 
 45 H       -5.9600    -4.9270    -2.3470 H     1 <1>   0.0800 
 46 H       -6.7940    -4.1550    -1.0090 H     1 <1>   0.0800 
 47 H        0.0660    -3.4750    -0.7790 H     1 <1>   0.1500 
 48 H       -1.8820    -5.2640     2.5610 H     1 <1>   0.1500 
 49 H       -4.3250    -5.5020    -0.6980 H     1 <1>   0.4000 
 50 H        0.1500    -4.9190     1.2140 H     1 <1>   0.1500 
@<TRIPOS>BOND
  1   1   2  2   
  2   2   3  1   
  3   2   4  1   
  4   3   5  1   
  5   3   6  2   
  6   4   7  1   
  7   4  28  1   
  8   4  29  1   
  9   5   8  2   
 10   5   9  1   
 11   6  10  1   
 12   6  11  1   
 13   7  11  1   
 14   7  30  1   
 15   7  31  1   
 16   8  10  1   
 17   8  12  1   
 18   9  13  2   
 19   9  14  am  
 20  11  32  1   
 21  11  33  1   
 22  12  34  1   
 23  12  35  1   
 24  12  36  1   
 25  14  15  1   
 26  14  16  1   
 27  15  17  1   
 28  15  18  1   
 29  15  37  1   
 30  16  19  1   
 31  16  38  1   
 32  16  39  1   
 33  17  20  ar  
 34  17  21  ar  
 35  18  22  1   
 36  18  23  1   
 37  18  40  1   
 38  19  22  1   
 39  19  41  1   
 40  19  42  1   
 41  20  24  ar  
 42  20  43  1   
 43  21  25  ar  
 44  21  44  1   
 45  23  26  1   
 46  23  45  1   
 47  23  46  1   
 48  24  27  ar  
 49  24  47  1   
 50  25  27  ar  
 51  25  48  1   
 52  26  49  1   
 53  27  50  1   
@<TRIPOS>SUBSTRUCTURE
  1 ****  14 GROUP 4 **** **** 0

# MOE 2024.06 (io_trps.svl 2023.06)
