@<TRIPOS>MOLECULE
NONAME
36 37 1 0 0 
SMALL
USER_CHARGES


@<TRIPOS>ATOM
  1 CL       0.3310     0.1740    -1.2940 Cl    1 <1>  -0.1770 
  2 C        1.4750    -0.9210    -0.5470 C.ar  1 <1>   0.1770 
  3 C        1.2420    -2.3080    -0.5760 C.ar  1 <1>   0.4100 
  4 C        2.5930    -0.4330     0.0580 C.ar  1 <1>   0.2110 
  5 N        2.1050    -3.1540     0.0120 N.ar  1 <1>  -0.6200 
  6 N        0.1650    -2.8420    -1.1860 N.pl3 1 <1>  -0.8690 
  7 N        3.4420    -1.3240     0.6210 N.ar  1 <1>  -0.1790 
  8 C        3.1700    -2.6500     0.5800 C.ar  1 <1>   0.5280 
  9 C       -0.1070    -4.2860    -1.4260 C.3   1 <1>   0.2090 
 10 C        4.1550    -3.6010     1.2310 C.3   1 <1>  -0.0970 
 11 C       -0.7550    -4.9330    -0.1860 C.3   1 <1>   0.3430 
 12 N       -1.1870    -6.3580    -0.4020 N.4   1 <1>  -0.9590 
 13 C       -1.9780    -6.8500     0.7830 C.3   1 <1>   0.3430 
 14 C       -0.0260    -7.2870    -0.6630 C.3   1 <1>   0.3430 
 15 C       -2.3430    -8.3400     0.6470 C.3   1 <1>   0.1200 
 16 C       -0.4790    -8.7580    -0.7350 C.3   1 <1>   0.1200 
 17 O       -1.1930    -9.1000     0.4170 O.3   1 <1>  -0.5600 
 18 H        2.8070     0.6240     0.0950 H     1 <1>   0.1500 
 19 H       -0.4960    -2.2000    -1.6490 H     1 <1>   0.4000 
 20 H        4.3000    -1.0070     1.0840 H     1 <1>   0.4570 
 21 H        0.8210    -4.7820    -1.6580 H     1 <1>   0.0800 
 22 H       -0.7650    -4.3750    -2.2740 H     1 <1>   0.0800 
 23 H        3.8170    -4.6170     1.1260 H     1 <1>   0.0800 
 24 H        4.2490    -3.3860     2.2810 H     1 <1>   0.0800 
 25 H        5.1200    -3.5200     0.7630 H     1 <1>   0.0800 
 26 H       -1.6140    -4.3420     0.0840 H     1 <1>   0.0800 
 27 H       -0.0510    -4.8900     0.6280 H     1 <1>   0.0800 
 28 H       -1.8150    -6.4040    -1.2170 H     1 <1>   0.4500 
 29 H       -2.8820    -6.2720     0.8910 H     1 <1>   0.0800 
 30 H       -1.3990    -6.7280     1.6840 H     1 <1>   0.0800 
 31 H        0.6970    -7.1980     0.1310 H     1 <1>   0.0800 
 32 H        0.4620    -7.0250    -1.5870 H     1 <1>   0.0800 
 33 H       -3.0350    -8.5030    -0.1620 H     1 <1>   0.0800 
 34 H       -2.7930    -8.6970     1.5580 H     1 <1>   0.0800 
 35 H        0.3770    -9.4080    -0.7910 H     1 <1>   0.0800 
 36 H       -1.1010    -8.9360    -1.5950 H     1 <1>   0.0800 
@<TRIPOS>BOND
  1   1   2  1   
  2   2   3  ar  
  3   2   4  ar  
  4   3   5  ar  
  5   3   6  1   
  6   4   7  ar  
  7   4  18  1   
  8   5   8  ar  
  9   6   9  1   
 10   6  19  1   
 11   7   8  ar  
 12   7  20  1   
 13   8  10  1   
 14   9  11  1   
 15   9  21  1   
 16   9  22  1   
 17  10  23  1   
 18  10  24  1   
 19  10  25  1   
 20  11  12  1   
 21  11  26  1   
 22  11  27  1   
 23  12  13  1   
 24  12  14  1   
 25  12  28  1   
 26  13  15  1   
 27  13  29  1   
 28  13  30  1   
 29  14  16  1   
 30  14  31  1   
 31  14  32  1   
 32  15  17  1   
 33  15  33  1   
 34  15  34  1   
 35  16  17  1   
 36  16  35  1   
 37  16  36  1   
@<TRIPOS>SUBSTRUCTURE
  1 ****   9 GROUP 4 **** **** 0

# MOE 2024.06 (io_trps.svl 2023.06)
