@<TRIPOS>MOLECULE
NONAME
39 41 1 0 0 
SMALL
USER_CHARGES


@<TRIPOS>ATOM
  1 S        0.2340     0.3400    -0.9010 S.3   1 <1>  -0.0800 
  2 C       -0.6190    -0.6750     0.2460 C.2   1 <1>  -0.1100 
  3 C        0.6980    -1.0540    -1.8560 C.2   1 <1>  -0.1100 
  4 C       -0.5440    -1.9720    -0.1130 C.2   1 <1>  -0.1810 
  5 C        0.2170    -2.1860    -1.3120 C.2   1 <1>  -0.1500 
  6 C       -1.1800    -3.1240     0.6350 C.3   1 <1>   0.5240 
  7 N       -2.2030    -3.7160    -0.2670 N.4   1 <1>  -0.9590 
  8 C       -3.5940    -3.3450     0.1170 C.3   1 <1>   0.4230 
  9 C       -2.0090    -5.1950    -0.3830 C.3   1 <1>   0.2630 
 10 C       -4.6220    -3.8970    -0.8690 C.3   1 <1>  -0.1600 
 11 C       -3.8270    -1.8360     0.0740 C.3   1 <1>  -0.1600 
 12 C       -5.8450    -2.9830    -0.7310 C.3   1 <1>  -0.0800 
 13 C       -5.3370    -1.6660    -0.1270 C.3   1 <1>  -0.0800 
 14 C       -6.9150    -3.5180     0.2330 C.3   1 <1>  -0.1600 
 15 C       -6.1160    -1.4580     1.1800 C.3   1 <1>  -0.1600 
 16 C       -7.3750    -2.2920     1.0060 C.3   1 <1>   0.2000 
 17 O       -7.8820    -2.6590     2.2320 O.3   1 <1>  -0.6800 
 18 H       -1.0900    -0.1700     1.0720 H     1 <1>   0.1500 
 19 H        1.2950    -0.8710    -2.7330 H     1 <1>   0.1500 
 20 H        0.3870    -3.1690    -1.7180 H     1 <1>   0.1500 
 21 H       -1.6320    -2.7740     1.5490 H     1 <1>   0.0800 
 22 H       -0.4200    -3.8480     0.8800 H     1 <1>   0.0800 
 23 H       -2.0250    -3.2780    -1.1820 H     1 <1>   0.4500 
 24 H       -3.8280    -3.7100     1.1050 H     1 <1>   0.0800 
 25 H       -2.2050    -5.6760     0.5620 H     1 <1>   0.0800 
 26 H       -0.9970    -5.4190    -0.6820 H     1 <1>   0.0800 
 27 H       -2.6780    -5.6060    -1.1230 H     1 <1>   0.0800 
 28 H       -4.2500    -3.8080    -1.8750 H     1 <1>   0.0800 
 29 H       -4.8720    -4.9240    -0.6700 H     1 <1>   0.0800 
 30 H       -3.4890    -1.3410     0.9660 H     1 <1>   0.0800 
 31 H       -3.3290    -1.4120    -0.7810 H     1 <1>   0.0800 
 32 H       -6.2940    -2.7990    -1.6940 H     1 <1>   0.0800 
 33 H       -5.5420    -0.8470    -0.7990 H     1 <1>   0.0800 
 34 H       -6.4900    -4.2370     0.9120 H     1 <1>   0.0800 
 35 H       -7.7350    -3.9670    -0.2990 H     1 <1>   0.0800 
 36 H       -6.3610    -0.4200     1.3310 H     1 <1>   0.0800 
 37 H       -5.5530    -1.8210     2.0220 H     1 <1>   0.0800 
 38 H       -8.1310    -1.7490     0.4620 H     1 <1>   0.0800 
 39 H       -7.2260    -3.1620     2.7470 H     1 <1>   0.4000 
@<TRIPOS>BOND
  1   1   2  1   
  2   1   3  1   
  3   2   4  2   
  4   2  18  1   
  5   3   5  2   
  6   3  19  1   
  7   4   5  1   
  8   4   6  1   
  9   5  20  1   
 10   6   7  1   
 11   6  21  1   
 12   6  22  1   
 13   7   8  1   
 14   7   9  1   
 15   7  23  1   
 16   8  10  1   
 17   8  11  1   
 18   8  24  1   
 19   9  25  1   
 20   9  26  1   
 21   9  27  1   
 22  10  12  1   
 23  10  28  1   
 24  10  29  1   
 25  11  13  1   
 26  11  30  1   
 27  11  31  1   
 28  12  13  1   
 29  12  14  1   
 30  12  32  1   
 31  13  15  1   
 32  13  33  1   
 33  14  16  1   
 34  14  34  1   
 35  14  35  1   
 36  15  16  1   
 37  15  36  1   
 38  15  37  1   
 39  16  17  1   
 40  16  38  1   
 41  17  39  1   
@<TRIPOS>SUBSTRUCTURE
  1 ****  11 GROUP 4 **** **** 0

# MOE 2024.06 (io_trps.svl 2023.06)
