@<TRIPOS>MOLECULE
NONAME
47 50 1 0 0 
SMALL
USER_CHARGES


@<TRIPOS>ATOM
  1 CL      -1.9810     0.4570     1.6530 Cl    1 <1>  -0.1230 
  2 C       -2.4740     0.3190    -0.0260 C.2   1 <1>   0.1230 
  3 C       -3.0530    -0.8040    -0.5940 C.2   1 <1>   0.1080 
  4 C       -2.3760     1.2410    -1.0020 C.2   1 <1>  -0.3320 
  5 N       -3.3160    -0.6130    -1.8600 N.2   1 <1>  -0.7070 
  6 C       -3.3460    -2.0950     0.1540 C.3   1 <1>   0.5240 
  7 N       -2.8900     0.6550    -2.1080 N.pl3 1 <1>   0.3000 
  8 C       -1.8210     2.6560    -0.9600 C.3   1 <1>  -0.0600 
  9 N       -4.4010    -2.8280    -0.6020 N.4   1 <1>  -0.9590 
 10 C       -5.7490    -2.2830    -0.2630 C.3   1 <1>   0.3430 
 11 C       -4.4150    -4.2870    -0.2960 C.3   1 <1>   0.3430 
 12 C       -6.3170    -3.2480     0.7800 C.3   1 <1>   0.2000 
 13 C       -5.8010    -4.5990     0.2830 C.3   1 <1>  -0.0800 
 14 O       -5.7420    -2.9460     2.0130 O.3   1 <1>  -0.6800 
 15 C       -5.7830    -5.7500     1.3120 C.3   1 <1>  -0.0170 
 16 C       -5.0860    -6.9740     0.7300 C.ar  1 <1>  -0.1430 
 17 C       -5.6870    -7.7990    -0.2520 C.ar  1 <1>   0.0000 
 18 C       -3.8250    -7.2990     1.1400 C.ar  1 <1>  -0.1500 
 19 C       -4.9110    -8.8600    -0.7820 C.ar  1 <1>   0.3100 
 20 C       -7.0070    -7.6410    -0.7350 C.ar  1 <1>  -0.1500 
 21 C       -3.1550    -8.3870     0.5690 C.ar  1 <1>   0.1600 
 22 N       -3.6520    -9.1350    -0.3630 N.ar  1 <1>  -0.6200 
 23 C       -5.4640    -9.6720    -1.7850 C.ar  1 <1>  -0.1500 
 24 C       -7.5180    -8.4550    -1.7100 C.ar  1 <1>  -0.1500 
 25 C       -6.7360    -9.4800    -2.2470 C.ar  1 <1>  -0.1500 
 26 H       -3.6710    -1.8860     1.1600 H     1 <1>   0.0800 
 27 H       -2.4430    -2.6800     0.1910 H     1 <1>   0.0800 
 28 H       -2.9600     1.0910    -3.0380 H     1 <1>   0.2700 
 29 H       -1.4720     2.8920     0.0300 H     1 <1>   0.0800 
 30 H       -2.5830     3.3660    -1.2300 H     1 <1>   0.0800 
 31 H       -0.9940     2.7540    -1.6420 H     1 <1>   0.0800 
 32 H       -4.1850    -2.6030    -1.5910 H     1 <1>   0.4500 
 33 H       -5.7010    -1.2730     0.1130 H     1 <1>   0.0800 
 34 H       -6.3720    -2.3020    -1.1410 H     1 <1>   0.0800 
 35 H       -4.2330    -4.8770    -1.1810 H     1 <1>   0.0800 
 36 H       -3.6590    -4.5170     0.4370 H     1 <1>   0.0800 
 37 H       -7.3900    -3.1860     0.8630 H     1 <1>   0.0800 
 38 H       -6.4170    -4.8970    -0.5460 H     1 <1>   0.0800 
 39 H       -6.2690    -3.3210     2.7510 H     1 <1>   0.4000 
 40 H       -6.7850    -6.0040     1.6130 H     1 <1>   0.0800 
 41 H       -5.2570    -5.4450     2.2000 H     1 <1>   0.0800 
 42 H       -3.3100    -6.7410     1.9010 H     1 <1>   0.1500 
 43 H       -7.6360    -6.8750    -0.3270 H     1 <1>   0.1500 
 44 H       -2.1620    -8.6140     0.9220 H     1 <1>   0.1500 
 45 H       -4.8480   -10.4610    -2.1770 H     1 <1>   0.1500 
 46 H       -8.5240    -8.3250    -2.0720 H     1 <1>   0.1500 
 47 H       -7.1470   -10.1120    -3.0160 H     1 <1>   0.1500 
@<TRIPOS>BOND
  1   1   2  1   
  2   2   3  1   
  3   2   4  2   
  4   3   5  2   
  5   3   6  1   
  6   4   7  1   
  7   4   8  1   
  8   5   7  1   
  9   6   9  1   
 10   6  26  1   
 11   6  27  1   
 12   7  28  1   
 13   8  29  1   
 14   8  30  1   
 15   8  31  1   
 16   9  10  1   
 17   9  11  1   
 18   9  32  1   
 19  10  12  1   
 20  10  33  1   
 21  10  34  1   
 22  11  13  1   
 23  11  35  1   
 24  11  36  1   
 25  12  13  1   
 26  12  14  1   
 27  12  37  1   
 28  13  15  1   
 29  13  38  1   
 30  14  39  1   
 31  15  16  1   
 32  15  40  1   
 33  15  41  1   
 34  16  17  ar  
 35  16  18  ar  
 36  17  19  ar  
 37  17  20  ar  
 38  18  21  ar  
 39  18  42  1   
 40  19  22  ar  
 41  19  23  ar  
 42  20  24  ar  
 43  20  43  1   
 44  21  22  ar  
 45  21  44  1   
 46  23  25  ar  
 47  23  45  1   
 48  24  25  ar  
 49  24  46  1   
 50  25  47  1   
@<TRIPOS>SUBSTRUCTURE
  1 ****  11 GROUP 4 **** **** 0

# MOE 2024.06 (io_trps.svl 2023.06)
