@<TRIPOS>MOLECULE
NONAME
43 46 1 0 0 
SMALL
USER_CHARGES


@<TRIPOS>ATOM
  1 S       -3.0820     3.4720     0.9110 S.3   1 <1>  -0.0800 
  2 C       -3.6770     1.9550     0.2620 C.2   1 <1>  -0.1100 
  3 C       -3.0780     4.1980    -0.6850 C.2   1 <1>  -0.1100 
  4 C       -3.8500     2.0360    -1.0720 C.2   1 <1>  -0.1810 
  5 C       -3.5030     3.3180    -1.6100 C.2   1 <1>  -0.1500 
  6 C       -4.3580     0.9160    -1.9770 C.3   1 <1>   0.0820 
  7 C       -5.2140    -0.1080    -1.2380 C.2   1 <1>   0.5690 
  8 O       -4.7030    -1.1710    -0.9700 O.2   1 <1>  -0.5700 
  9 N       -6.5150     0.1680    -0.8910 N.am  1 <1>  -0.6600 
 10 C       -7.1800     1.5000    -1.1130 C.3   1 <1>   0.1400 
 11 C       -7.3200    -0.8660    -0.1710 C.3   1 <1>   0.1400 
 12 C       -8.1220     1.8740     0.0460 C.3   1 <1>   0.1430 
 13 C       -8.8220    -0.5940    -0.3010 C.3   1 <1>  -0.1600 
 14 C       -8.6710     3.2640    -0.2340 C.ar  1 <1>   0.1670 
 15 C       -9.2350     0.8040     0.2040 C.3   1 <1>  -0.1600 
 16 C       -7.3230     2.1020     1.3630 C.3   1 <1>  -0.1600 
 17 N       -9.5820     3.5600    -1.1310 N.ar  1 <1>  -0.6200 
 18 C       -8.0730     4.2090     0.5480 C.ar  1 <1>  -0.1440 
 19 C       -7.0380     3.6090     1.4640 C.3   1 <1>  -0.0160 
 20 C       -9.8760     4.8490    -1.2010 C.ar  1 <1>   0.7200 
 21 C       -8.4650     5.5160     0.3920 C.ar  1 <1>   0.1600 
 22 N       -9.3830     5.8510    -0.4870 N.ar  1 <1>  -0.6200 
 23 N      -10.8090     5.1820    -2.0930 N.pl3 1 <1>  -0.9000 
 24 H       -3.8360     1.1480     0.9560 H     1 <1>   0.1500 
 25 H       -2.7500     5.2190    -0.7640 H     1 <1>   0.1500 
 26 H       -3.5860     3.5230    -2.6640 H     1 <1>   0.1500 
 27 H       -3.5130     0.4140    -2.4120 H     1 <1>   0.0800 
 28 H       -4.9360     1.3280    -2.7810 H     1 <1>   0.0800 
 29 H       -7.7510     1.4550    -2.0250 H     1 <1>   0.0800 
 30 H       -6.4490     2.2790    -1.2230 H     1 <1>   0.0800 
 31 H       -7.0360    -0.8670     0.8670 H     1 <1>   0.0800 
 32 H       -7.0960    -1.8400    -0.5760 H     1 <1>   0.0800 
 33 H       -9.3710    -1.3480     0.2360 H     1 <1>   0.0800 
 34 H       -9.0870    -0.6900    -1.3400 H     1 <1>   0.0800 
 35 H      -10.1040     1.1020    -0.3570 H     1 <1>   0.0800 
 36 H       -9.5470     0.7390     1.2310 H     1 <1>   0.0800 
 37 H       -6.4120     1.5310     1.4030 H     1 <1>   0.0800 
 38 H       -7.9230     1.8270     2.2110 H     1 <1>   0.0800 
 39 H       -6.0550     3.8370     1.0920 H     1 <1>   0.0800 
 40 H       -7.1400     3.9660     2.4750 H     1 <1>   0.0800 
 41 H       -8.0210     6.2930     0.9910 H     1 <1>   0.1500 
 42 H      -11.2490     6.0840    -1.9370 H     1 <1>   0.4000 
 43 H      -11.4120     4.4220    -2.3910 H     1 <1>   0.4000 
@<TRIPOS>BOND
  1   1   2  1   
  2   1   3  1   
  3   2   4  2   
  4   2  24  1   
  5   3   5  2   
  6   3  25  1   
  7   4   5  1   
  8   4   6  1   
  9   5  26  1   
 10   6   7  1   
 11   6  27  1   
 12   6  28  1   
 13   7   8  2   
 14   7   9  am  
 15   9  10  1   
 16   9  11  1   
 17  10  12  1   
 18  10  29  1   
 19  10  30  1   
 20  11  13  1   
 21  11  31  1   
 22  11  32  1   
 23  12  14  1   
 24  12  15  1   
 25  12  16  1   
 26  13  15  1   
 27  13  33  1   
 28  13  34  1   
 29  14  17  ar  
 30  14  18  ar  
 31  15  35  1   
 32  15  36  1   
 33  16  19  1   
 34  16  37  1   
 35  16  38  1   
 36  17  20  ar  
 37  18  19  1   
 38  18  21  ar  
 39  19  39  1   
 40  19  40  1   
 41  20  22  ar  
 42  20  23  1   
 43  21  22  ar  
 44  21  41  1   
 45  23  42  1   
 46  23  43  1   
@<TRIPOS>SUBSTRUCTURE
  1 ****  10 GROUP 4 **** **** 0

# MOE 2024.06 (io_trps.svl 2023.06)
