@<TRIPOS>MOLECULE
NONAME
59 61 1 0 0 
SMALL
USER_CHARGES


@<TRIPOS>ATOM
  1 O        0.2050    -0.5540    -0.9910 O.3   1 <1>  -0.5600 
  2 C        1.5850    -0.6570    -1.2530 C.3   1 <1>   0.2000 
  3 C       -0.2700     0.7390    -0.7620 C.3   1 <1>   0.1200 
  4 C        2.4230    -0.0170    -0.1120 C.3   1 <1>   0.5660 
  5 C        1.9430    -2.1430    -1.4120 C.3   1 <1>   0.1200 
  6 C        0.4250     1.3440     0.4710 C.3   1 <1>   0.3430 
  7 N        1.9150     1.3260     0.3220 N.4   1 <1>  -0.9590 
  8 C        3.8810     0.1570    -0.5200 C.ar  1 <1>  -0.1430 
  9 O        1.9670    -2.7670    -0.1670 O.3   1 <1>  -0.6800 
 10 C        2.6150     1.8000     1.5310 C.3   1 <1>   0.4810 
 11 C        4.8640    -0.5150     0.1920 C.ar  1 <1>  -0.1500 
 12 C        4.2550     0.9910    -1.5690 C.ar  1 <1>  -0.1500 
 13 C        3.1350     3.1670     1.1710 C.2   1 <1>  -0.2880 
 14 C        6.2020    -0.3430    -0.1130 C.ar  1 <1>   0.0820 
 15 C        5.5930     1.1760    -1.8710 C.ar  1 <1>  -0.1500 
 16 C        4.4090     3.4120     0.8180 C.2   1 <1>  -0.1780 
 17 O        7.0950    -1.0570     0.6100 O.3   1 <1>  -0.3630 
 18 C        6.5760     0.5380    -1.1340 C.ar  1 <1>   0.0820 
 19 C        4.9980     4.6740     0.4350 C.ar  1 <1>   0.0280 
 20 C        7.7640    -2.0920    -0.0780 C.3   1 <1>   0.0400 
 21 O        7.8630     0.8240    -1.4560 O.3   1 <1>  -0.3630 
 22 C        4.4340     5.8990     0.7850 C.ar  1 <1>  -0.1500 
 23 C        6.1750     4.6920    -0.3100 C.ar  1 <1>  -0.1500 
 24 C        8.7250     1.2620    -0.4250 C.3   1 <1>   0.0400 
 25 C        5.0190     7.0910     0.3990 C.ar  1 <1>  -0.1500 
 26 C        6.7660     5.8800    -0.6990 C.ar  1 <1>  -0.1500 
 27 C        6.1870     7.0950    -0.3440 C.ar  1 <1>   0.0820 
 28 O        6.6970     8.3030    -0.6810 O.3   1 <1>  -0.3620 
 29 C        7.8830     8.4200    -1.4360 C.3   1 <1>   0.0400 
 30 H        1.7720    -0.1550    -2.1860 H     1 <1>   0.0800 
 31 H       -0.1020     1.3360    -1.6420 H     1 <1>   0.0800 
 32 H       -1.3300     0.6690    -0.5910 H     1 <1>   0.0800 
 33 H        2.3800    -0.6890     0.7300 H     1 <1>   0.0800 
 34 H        2.9190    -2.2540    -1.8540 H     1 <1>   0.0800 
 35 H        1.2150    -2.6360    -2.0350 H     1 <1>   0.0800 
 36 H        0.1360     0.7680     1.3350 H     1 <1>   0.0800 
 37 H        0.0810     2.3550     0.6140 H     1 <1>   0.0800 
 38 H        2.2000     1.9800    -0.4150 H     1 <1>   0.4500 
 39 H        1.9430    -3.7430    -0.2680 H     1 <1>   0.4000 
 40 H        1.9570     1.8440     2.3850 H     1 <1>   0.0800 
 41 H        3.4460     1.1540     1.7650 H     1 <1>   0.0800 
 42 H        4.6090    -1.1890     0.9930 H     1 <1>   0.1500 
 43 H        3.5250     1.5150    -2.1620 H     1 <1>   0.1500 
 44 H        2.3810     3.9330     1.2130 H     1 <1>   0.1500 
 45 H        5.8880     1.8270    -2.6760 H     1 <1>   0.1500 
 46 H        5.1180     2.6000     0.7900 H     1 <1>   0.1500 
 47 H        8.4300    -2.5790     0.6110 H     1 <1>   0.0800 
 48 H        8.3240    -1.6730    -0.8960 H     1 <1>   0.0800 
 49 H        7.0360    -2.7930    -0.4460 H     1 <1>   0.0800 
 50 H        3.5340     5.9300     1.3690 H     1 <1>   0.1500 
 51 H        6.6350     3.7630    -0.5960 H     1 <1>   0.1500 
 52 H        9.5770     1.7350    -0.8800 H     1 <1>   0.0800 
 53 H        9.0500     0.4160     0.1530 H     1 <1>   0.0800 
 54 H        8.2030     1.9640     0.2000 H     1 <1>   0.0800 
 55 H        4.5770     8.0320     0.6740 H     1 <1>   0.1500 
 56 H        7.6720     5.8440    -1.2740 H     1 <1>   0.1500 
 57 H        8.0860     9.4660    -1.5780 H     1 <1>   0.0800 
 58 H        7.7380     7.9430    -2.3890 H     1 <1>   0.0800 
 59 H        8.6890     7.9620    -0.8920 H     1 <1>   0.0800 
@<TRIPOS>BOND
  1   1   2  1   
  2   1   3  1   
  3   2   4  1   
  4   2   5  1   
  5   2  30  1   
  6   3   6  1   
  7   3  31  1   
  8   3  32  1   
  9   4   7  1   
 10   4   8  1   
 11   4  33  1   
 12   5   9  1   
 13   5  34  1   
 14   5  35  1   
 15   6   7  1   
 16   6  36  1   
 17   6  37  1   
 18   7  10  1   
 19   7  38  1   
 20   8  11  ar  
 21   8  12  ar  
 22   9  39  1   
 23  10  13  1   
 24  10  40  1   
 25  10  41  1   
 26  11  14  ar  
 27  11  42  1   
 28  12  15  ar  
 29  12  43  1   
 30  13  16  2   
 31  13  44  1   
 32  14  17  1   
 33  14  18  ar  
 34  15  18  ar  
 35  15  45  1   
 36  16  19  1   
 37  16  46  1   
 38  17  20  1   
 39  18  21  1   
 40  19  22  ar  
 41  19  23  ar  
 42  20  47  1   
 43  20  48  1   
 44  20  49  1   
 45  21  24  1   
 46  22  25  ar  
 47  22  50  1   
 48  23  26  ar  
 49  23  51  1   
 50  24  52  1   
 51  24  53  1   
 52  24  54  1   
 53  25  27  ar  
 54  25  55  1   
 55  26  27  ar  
 56  26  56  1   
 57  27  28  1   
 58  28  29  1   
 59  29  57  1   
 60  29  58  1   
 61  29  59  1   
@<TRIPOS>SUBSTRUCTURE
  1 ****  12 GROUP 4 **** **** 0

# MOE 2024.06 (io_trps.svl 2023.06)
