@<TRIPOS>MOLECULE
NONAME
39 39 1 0 0 
SMALL
USER_CHARGES


@<TRIPOS>ATOM
  1 O       -0.3020    -0.4890    -0.0520 O.2   1 <1>  -0.5700 
  2 C       -0.1310    -1.6500     0.2560 C.2   1 <1>   0.7800 
  3 O        1.0610    -2.2270     0.0910 O.3   1 <1>  -0.4300 
  4 N       -1.1440    -2.4440     0.7480 N.am  1 <1>  -0.6600 
  5 C        2.2490    -1.6300    -0.3850 C.3   1 <1>   0.2800 
  6 C       -2.4940    -1.9620     1.1750 C.3   1 <1>   0.2200 
  7 C       -1.0610    -3.9240     0.6760 C.3   1 <1>   0.1400 
  8 C        3.2980    -2.7420    -0.3410 C.3   1 <1>  -0.2400 
  9 C        2.6820    -0.4910     0.5460 C.3   1 <1>  -0.2400 
 10 C        2.0670    -1.1650    -1.8350 C.3   1 <1>  -0.2400 
 11 C       -3.4740    -2.3440     0.0610 C.3   1 <1>  -0.1600 
 12 C       -2.5980    -0.4730     1.5640 C.3   1 <1>   0.1200 
 13 C       -2.0270    -4.3910    -0.4170 C.3   1 <1>  -0.1600 
 14 C       -3.4430    -3.8550    -0.1680 C.3   1 <1>   0.4230 
 15 O       -3.8550    -0.2390     2.1120 O.3   1 <1>  -0.6800 
 16 N       -4.2860    -4.1660    -1.3320 N.4   1 <1>  -0.8530 
 17 H       -2.7520    -2.5070     2.0680 H     1 <1>   0.0800 
 18 H       -0.0610    -4.2550     0.4460 H     1 <1>   0.0800 
 19 H       -1.3290    -4.3430     1.6320 H     1 <1>   0.0800 
 20 H        4.2460    -2.3740    -0.6890 H     1 <1>   0.0800 
 21 H        3.0020    -3.5620    -0.9700 H     1 <1>   0.0800 
 22 H        3.4230    -3.0980     0.6660 H     1 <1>   0.0800 
 23 H        3.6550    -0.1360     0.2620 H     1 <1>   0.0800 
 24 H        2.7290    -0.8360     1.5630 H     1 <1>   0.0800 
 25 H        2.0050     0.3410     0.4850 H     1 <1>   0.0800 
 26 H        3.0100    -0.8390    -2.2340 H     1 <1>   0.0800 
 27 H        1.3880    -0.3350    -1.8950 H     1 <1>   0.0800 
 28 H        1.7010    -1.9700    -2.4450 H     1 <1>   0.0800 
 29 H       -4.4660    -2.0450     0.3510 H     1 <1>   0.0800 
 30 H       -3.1990    -1.8060    -0.8300 H     1 <1>   0.0800 
 31 H       -2.4920     0.1680     0.7060 H     1 <1>   0.0800 
 32 H       -1.8560    -0.2240     2.3040 H     1 <1>   0.0800 
 33 H       -2.0340    -5.4660    -0.4300 H     1 <1>   0.0800 
 34 H       -1.6490    -4.0390    -1.3610 H     1 <1>   0.0800 
 35 H       -3.8420    -4.3390     0.7110 H     1 <1>   0.0800 
 36 H       -3.9220     0.6890     2.4200 H     1 <1>   0.4000 
 37 H       -3.9130    -3.7020    -2.1670 H     1 <1>   0.4500 
 38 H       -5.2420    -3.8280    -1.1810 H     1 <1>   0.4500 
 39 H       -4.3190    -5.1750    -1.5070 H     1 <1>   0.4500 
@<TRIPOS>BOND
  1   1   2  2   
  2   2   3  1   
  3   2   4  am  
  4   3   5  1   
  5   4   6  1   
  6   4   7  1   
  7   5   8  1   
  8   5   9  1   
  9   5  10  1   
 10   6  11  1   
 11   6  12  1   
 12   6  17  1   
 13   7  13  1   
 14   7  18  1   
 15   7  19  1   
 16   8  20  1   
 17   8  21  1   
 18   8  22  1   
 19   9  23  1   
 20   9  24  1   
 21   9  25  1   
 22  10  26  1   
 23  10  27  1   
 24  10  28  1   
 25  11  14  1   
 26  11  29  1   
 27  11  30  1   
 28  12  15  1   
 29  12  31  1   
 30  12  32  1   
 31  13  14  1   
 32  13  33  1   
 33  13  34  1   
 34  14  16  1   
 35  14  35  1   
 36  15  36  1   
 37  16  37  1   
 38  16  38  1   
 39  16  39  1   
@<TRIPOS>SUBSTRUCTURE
  1 ****   4 GROUP 4 **** **** 0

# MOE 2024.06 (io_trps.svl 2023.06)
