@<TRIPOS>MOLECULE
NONAME
40 43 1 0 0 
SMALL
USER_CHARGES


@<TRIPOS>ATOM
  1 S        1.9970    -0.9840     1.9510 S.3   1 <1>  -0.1570 
  2 C        1.4930    -2.2970     0.8690 C.2   1 <1>   0.2420 
  3 C        1.3890     0.2280     0.7910 C.2   1 <1>  -0.0490 
  4 N        1.5710    -3.5820     0.9590 N.2   1 <1>  -0.5650 
  5 N        0.9270    -1.7900    -0.2430 N.pl3 1 <1>   0.3340 
  6 C        0.8680    -0.3810    -0.2880 C.2   1 <1>  -0.1810 
  7 C        1.0000    -3.9640    -0.2080 C.2   1 <1>   0.0460 
  8 C        0.6030    -2.8960    -0.9470 C.2   1 <1>  -0.3020 
  9 C        0.8670    -5.4330    -0.5580 C.3   1 <1>   0.0210 
 10 C        0.0240    -6.1610     0.4880 C.3   1 <1>   0.2090 
 11 N       -0.1000    -7.5950     0.1290 N.pl3 1 <1>  -0.8690 
 12 C       -1.1900    -8.1230    -0.4740 C.ar  1 <1>   0.7200 
 13 N       -1.3980    -9.3950    -0.1790 N.ar  1 <1>  -0.6200 
 14 N       -1.9040    -7.3320    -1.2690 N.ar  1 <1>  -0.6200 
 15 C       -2.4460    -9.9710    -0.7410 C.ar  1 <1>   0.4100 
 16 C       -2.9440    -7.9120    -1.8360 C.ar  1 <1>   0.1600 
 17 N       -2.6620   -11.3130    -0.4260 N.pl3 1 <1>  -0.8380 
 18 C       -3.2500    -9.2240    -1.6030 C.ar  1 <1>   0.1900 
 19 C       -4.0090   -11.9290    -0.3690 C.3   1 <1>   0.2090 
 20 C       -1.7020   -12.0910     0.3940 C.3   1 <1>   0.2090 
 21 F       -4.2970    -9.7430    -2.2140 F     1 <1>  -0.1900 
 22 C       -3.9000   -13.0290     0.6800 C.3   1 <1>  -0.1600 
 23 C       -2.4200   -13.3980     0.6990 C.3   1 <1>  -0.1600 
 24 H        1.5010     1.2620     1.0690 H     1 <1>   0.1500 
 25 H        0.4260     0.0780    -1.1530 H     1 <1>   0.1500 
 26 H        0.1230    -2.8560    -1.9070 H     1 <1>   0.1500 
 27 H        1.8460    -5.8730    -0.5980 H     1 <1>   0.0800 
 28 H        0.4010    -5.5320    -1.5220 H     1 <1>   0.0800 
 29 H       -0.9510    -5.7070     0.5470 H     1 <1>   0.0800 
 30 H        0.4940    -6.0730     1.4530 H     1 <1>   0.0800 
 31 H        0.2950    -8.2500     0.8030 H     1 <1>   0.4000 
 32 H       -3.5580    -7.3280    -2.4980 H     1 <1>   0.1500 
 33 H       -4.2410   -12.3520    -1.3320 H     1 <1>   0.0800 
 34 H       -4.7600   -11.2070    -0.0980 H     1 <1>   0.0800 
 35 H       -1.4970   -11.5570     1.3070 H     1 <1>   0.0800 
 36 H       -0.7840   -12.2530    -0.1450 H     1 <1>   0.0800 
 37 H       -4.5300   -13.8680     0.4460 H     1 <1>   0.0800 
 38 H       -4.1880   -12.6270     1.6350 H     1 <1>   0.0800 
 39 H       -2.1090   -13.8140     1.6400 H     1 <1>   0.0800 
 40 H       -2.2070   -14.1010    -0.0870 H     1 <1>   0.0800 
@<TRIPOS>BOND
  1   1   2  1   
  2   1   3  1   
  3   2   4  2   
  4   2   5  1   
  5   3   6  2   
  6   3  24  1   
  7   4   7  1   
  8   5   6  1   
  9   5   8  1   
 10   6  25  1   
 11   7   8  2   
 12   7   9  1   
 13   8  26  1   
 14   9  10  1   
 15   9  27  1   
 16   9  28  1   
 17  10  11  1   
 18  10  29  1   
 19  10  30  1   
 20  11  12  1   
 21  11  31  1   
 22  12  13  ar  
 23  12  14  ar  
 24  13  15  ar  
 25  14  16  ar  
 26  15  17  1   
 27  15  18  ar  
 28  16  18  ar  
 29  16  32  1   
 30  17  19  1   
 31  17  20  1   
 32  18  21  1   
 33  19  22  1   
 34  19  33  1   
 35  19  34  1   
 36  20  23  1   
 37  20  35  1   
 38  20  36  1   
 39  22  23  1   
 40  22  37  1   
 41  22  38  1   
 42  23  39  1   
 43  23  40  1   
@<TRIPOS>SUBSTRUCTURE
  1 ****  11 GROUP 4 **** **** 0

# MOE 2024.06 (io_trps.svl 2023.06)
