@<TRIPOS>MOLECULE
NONAME
44 46 1 0 0 
SMALL
USER_CHARGES


@<TRIPOS>ATOM
  1 S        0.6660     1.0810     1.2000 S.o2  1 <1>   1.3330 
  2 O       -0.3470     1.2310     2.2190 O.2   1 <1>  -0.6500 
  3 O        1.8060     1.9700     1.1870 O.2   1 <1>  -0.6500 
  4 N        1.2400    -0.5160     1.2340 N.am  1 <1>  -0.8490 
  5 C       -0.1490     1.1840    -0.3920 C.3   1 <1>  -0.0550 
  6 C        1.3000    -1.0590     2.5950 C.3   1 <1>   0.1160 
  7 C        2.5360    -0.6880     0.5690 C.3   1 <1>   0.1160 
  8 C       -0.8910     2.5160    -0.6010 C.3   1 <1>  -0.0800 
  9 C       -1.5590     2.6000    -1.9670 C.3   1 <1>   0.2000 
 10 C        0.0030     3.7550    -0.5540 C.3   1 <1>   0.2090 
 11 O       -2.7750     1.9340    -1.9400 O.3   1 <1>  -0.6800 
 12 C       -1.7180     4.0950    -2.2420 C.3   1 <1>   0.2090 
 13 N       -0.6650     4.7680    -1.4170 N.pl3 1 <1>  -0.8220 
 14 C        0.1470     5.7610    -2.0030 C.2   1 <1>   0.2700 
 15 N        0.2170     5.9840    -3.2680 N.2   1 <1>  -0.3380 
 16 N        0.9760     6.6110    -1.3590 N.pl3 1 <1>   0.5930 
 17 N        1.1030     6.9620    -3.4240 N.2   1 <1>   0.0000 
 18 N        1.5710     7.3470    -2.2980 N.2   1 <1>  -0.4180 
 19 C        1.2170     6.7700     0.0360 C.ar  1 <1>  -0.0230 
 20 C        2.5180     6.8610     0.5240 C.ar  1 <1>  -0.1500 
 21 C        0.1610     6.8330     0.9410 C.ar  1 <1>  -0.1500 
 22 C        2.7560     7.0020     1.8800 C.ar  1 <1>  -0.1500 
 23 C        0.3980     6.9730     2.2970 C.ar  1 <1>  -0.1500 
 24 C        1.6960     7.0560     2.7670 C.ar  1 <1>  -0.1500 
 25 H        0.5750     1.0510    -1.1710 H     1 <1>   0.0800 
 26 H       -0.8610     0.3840    -0.4660 H     1 <1>   0.0800 
 27 H        1.6480    -2.0780     2.5760 H     1 <1>   0.0800 
 28 H        0.3190    -1.0490     3.0410 H     1 <1>   0.0800 
 29 H        1.9640    -0.4690     3.2060 H     1 <1>   0.0800 
 30 H        2.8040    -1.7300     0.5450 H     1 <1>   0.0800 
 31 H        3.3030    -0.1410     1.0920 H     1 <1>   0.0800 
 32 H        2.4840    -0.3270    -0.4440 H     1 <1>   0.0800 
 33 H       -1.6350     2.6340     0.1690 H     1 <1>   0.0800 
 34 H       -0.9460     2.1580    -2.7340 H     1 <1>   0.0800 
 35 H        0.9810     3.5350    -0.9510 H     1 <1>   0.0800 
 36 H        0.1050     4.1150     0.4570 H     1 <1>   0.0800 
 37 H       -3.3540     2.3000    -1.2430 H     1 <1>   0.4000 
 38 H       -2.6830     4.4420    -1.9170 H     1 <1>   0.0800 
 39 H       -1.6010     4.2940    -3.2930 H     1 <1>   0.0800 
 40 H        3.3500     6.8230    -0.1590 H     1 <1>   0.1500 
 41 H       -0.8540     6.7680     0.5850 H     1 <1>   0.1500 
 42 H        3.7670     7.0680     2.2460 H     1 <1>   0.1500 
 43 H       -0.4270     7.0170     2.9870 H     1 <1>   0.1500 
 44 H        1.8820     7.1630     3.8220 H     1 <1>   0.1500 
@<TRIPOS>BOND
  1   1   2  2   
  2   1   3  2   
  3   1   4  am  
  4   1   5  1   
  5   4   6  1   
  6   4   7  1   
  7   5   8  1   
  8   5  25  1   
  9   5  26  1   
 10   6  27  1   
 11   6  28  1   
 12   6  29  1   
 13   7  30  1   
 14   7  31  1   
 15   7  32  1   
 16   8   9  1   
 17   8  10  1   
 18   8  33  1   
 19   9  11  1   
 20   9  12  1   
 21   9  34  1   
 22  10  13  1   
 23  10  35  1   
 24  10  36  1   
 25  11  37  1   
 26  12  13  1   
 27  12  38  1   
 28  12  39  1   
 29  13  14  1   
 30  14  15  2   
 31  14  16  1   
 32  15  17  1   
 33  16  18  1   
 34  16  19  1   
 35  17  18  2   
 36  19  20  ar  
 37  19  21  ar  
 38  20  22  ar  
 39  20  40  1   
 40  21  23  ar  
 41  21  41  1   
 42  22  24  ar  
 43  22  42  1   
 44  23  24  ar  
 45  23  43  1   
 46  24  44  1   
@<TRIPOS>SUBSTRUCTURE
  1 ****  10 GROUP 4 **** **** 0

# MOE 2024.06 (io_trps.svl 2023.06)
