@<TRIPOS>MOLECULE
NONAME
48 50 1 0 0 
SMALL
USER_CHARGES


@<TRIPOS>ATOM
  1 S        0.8230    -0.4820     1.8630 S.3   1 <1>  -0.0800 
  2 C        1.7750    -0.8620     0.4450 C.2   1 <1>   0.1980 
  3 C       -0.4540    -1.4830     1.2420 C.2   1 <1>  -0.1100 
  4 N        1.1950    -1.6490    -0.3740 N.2   1 <1>  -0.5650 
  5 C        3.1580    -0.2330     0.3500 C.3   1 <1>   0.3890 
  6 C       -0.0790    -2.0100     0.0630 C.2   1 <1>   0.0460 
  7 N        3.0850     1.2530     0.3870 N.pl3 1 <1>  -0.8690 
  8 C       -0.9090    -2.9500    -0.8290 C.3   1 <1>   0.1810 
  9 C        4.0940     2.0420     0.8790 C.ar  1 <1>   0.4100 
 10 C       -2.2850    -3.2420    -0.2070 C.3   1 <1>  -0.2400 
 11 C       -1.1270    -2.3020    -2.2040 C.3   1 <1>  -0.2400 
 12 C       -0.1670    -4.2830    -1.0090 C.3   1 <1>  -0.2400 
 13 N        5.2920     1.4650     0.9590 N.ar  1 <1>  -0.6200 
 14 C        3.8390     3.3740     1.2560 C.ar  1 <1>   0.0860 
 15 C        6.2710     2.2040     1.4400 C.ar  1 <1>   0.1600 
 16 C        2.5220     3.9460     1.1140 C.2   1 <1>   0.5440 
 17 C        4.8960     4.1170     1.7650 C.ar  1 <1>  -0.1500 
 18 C        6.1310     3.5170     1.8550 C.ar  1 <1>  -0.1500 
 19 O        1.5540     3.3870     1.6000 O.2   1 <1>  -0.5700 
 20 N        2.3230     5.1270     0.4340 N.am  1 <1>  -0.6600 
 21 C        0.9810     5.7310     0.2830 C.3   1 <1>   0.1400 
 22 C        3.2700     5.6940    -0.5530 C.3   1 <1>   0.1400 
 23 C        1.1740     6.8800    -0.7000 C.3   1 <1>  -0.1600 
 24 C        2.3970     6.4810    -1.5220 C.3   1 <1>  -0.1600 
 25 H       -1.3490    -1.5660     1.8300 H     1 <1>   0.1500 
 26 H        3.6230    -0.5380    -0.5700 H     1 <1>   0.0800 
 27 H        3.7570    -0.5920     1.1690 H     1 <1>   0.0800 
 28 H        2.1340     1.5980     0.5880 H     1 <1>   0.4000 
 29 H       -2.8400    -2.3300    -0.0810 H     1 <1>   0.0800 
 30 H       -2.1710    -3.7140     0.7520 H     1 <1>   0.0800 
 31 H       -2.8530    -3.8980    -0.8410 H     1 <1>   0.0800 
 32 H       -1.6270    -1.3560    -2.0910 H     1 <1>   0.0800 
 33 H       -1.7210    -2.9360    -2.8370 H     1 <1>   0.0800 
 34 H       -0.1830    -2.1260    -2.6870 H     1 <1>   0.0800 
 35 H        0.0140    -4.7380    -0.0510 H     1 <1>   0.0800 
 36 H        0.7830    -4.1190    -1.4870 H     1 <1>   0.0800 
 37 H       -0.7400    -4.9620    -1.6140 H     1 <1>   0.0800 
 38 H        7.2410     1.7420     1.5090 H     1 <1>   0.1500 
 39 H        4.7430     5.1340     2.0820 H     1 <1>   0.1500 
 40 H        6.9780     4.0540     2.2420 H     1 <1>   0.1500 
 41 H        0.6090     6.0730     1.2330 H     1 <1>   0.0800 
 42 H        0.3070     4.9940    -0.1230 H     1 <1>   0.0800 
 43 H        3.8190     4.9180    -1.0610 H     1 <1>   0.0800 
 44 H        3.9530     6.3540    -0.0460 H     1 <1>   0.0800 
 45 H        1.3810     7.7800    -0.1480 H     1 <1>   0.0800 
 46 H        0.3010     7.0340    -1.3090 H     1 <1>   0.0800 
 47 H        2.0980     5.8320    -2.3270 H     1 <1>   0.0800 
 48 H        2.9140     7.3310    -1.9300 H     1 <1>   0.0800 
@<TRIPOS>BOND
  1   1   2  1   
  2   1   3  1   
  3   2   4  2   
  4   2   5  1   
  5   3   6  2   
  6   3  25  1   
  7   4   6  1   
  8   5   7  1   
  9   5  26  1   
 10   5  27  1   
 11   6   8  1   
 12   7   9  1   
 13   7  28  1   
 14   8  10  1   
 15   8  11  1   
 16   8  12  1   
 17   9  13  ar  
 18   9  14  ar  
 19  10  29  1   
 20  10  30  1   
 21  10  31  1   
 22  11  32  1   
 23  11  33  1   
 24  11  34  1   
 25  12  35  1   
 26  12  36  1   
 27  12  37  1   
 28  13  15  ar  
 29  14  16  1   
 30  14  17  ar  
 31  15  18  ar  
 32  15  38  1   
 33  16  19  2   
 34  16  20  am  
 35  17  18  ar  
 36  17  39  1   
 37  18  40  1   
 38  20  21  1   
 39  20  22  1   
 40  21  23  1   
 41  21  41  1   
 42  21  42  1   
 43  22  24  1   
 44  22  43  1   
 45  22  44  1   
 46  23  24  1   
 47  23  45  1   
 48  23  46  1   
 49  24  47  1   
 50  24  48  1   
@<TRIPOS>SUBSTRUCTURE
  1 ****   7 GROUP 4 **** **** 0

# MOE 2024.06 (io_trps.svl 2023.06)
