@<TRIPOS>MOLECULE
NONAME
52 55 1 0 0 
SMALL
USER_CHARGES


@<TRIPOS>ATOM
  1 CL      -0.7330    -2.0880     3.1480 Cl    1 <1>  -0.1770 
  2 C       -1.9470    -1.9990     1.8970 C.ar  1 <1>   0.1770 
  3 C       -2.0590    -3.0310     0.9850 C.ar  1 <1>  -0.1500 
  4 C       -2.7800    -0.8990     1.8440 C.ar  1 <1>  -0.1500 
  5 C       -3.0310    -2.9690    -0.0060 C.ar  1 <1>  -0.1440 
  6 C       -3.7510    -0.8310     0.8610 C.ar  1 <1>  -0.1500 
  7 C       -3.8820    -1.8670    -0.0630 C.ar  1 <1>   0.0830 
  8 C       -3.1910    -4.0900    -1.0380 C.3   1 <1>   0.4600 
  9 O       -4.8330    -1.8680    -1.0320 O.3   1 <1>  -0.3630 
 10 N       -4.0040    -5.2230    -0.4290 N.4   1 <1>  -0.9590 
 11 C       -1.8250    -4.6110    -1.5510 C.2   1 <1>   0.9060 
 12 C       -5.5200    -0.6880    -1.3890 C.3   1 <1>   0.0400 
 13 C       -4.3150    -6.2160    -1.4910 C.3   1 <1>   0.3430 
 14 C       -5.1970    -4.7720     0.3330 C.3   1 <1>   0.3430 
 15 O       -1.3240    -5.5580    -0.9200 O.co2 1 <1>  -0.9000 
 16 O       -1.3470    -4.1830    -2.6040 O.co2 1 <1>  -0.9000 
 17 C       -4.9680    -7.4440    -0.8620 C.3   1 <1>  -0.1600 
 18 C       -5.8640    -5.9780     0.9920 C.3   1 <1>  -0.1600 
 19 C       -6.2130    -7.0520    -0.0510 C.3   1 <1>   0.2040 
 20 C       -7.3720    -6.6070    -0.9580 C.2   1 <1>   0.5690 
 21 C       -6.8490    -8.2700     0.6050 C.ar  1 <1>  -0.1430 
 22 O       -7.3200    -5.6440    -1.6880 O.2   1 <1>  -0.5700 
 23 N       -8.4370    -7.4450    -0.8060 N.am  1 <1>  -0.4770 
 24 C       -8.1340    -8.4370     0.1220 C.ar  1 <1>   0.1170 
 25 C       -6.3250    -9.1430     1.5420 C.ar  1 <1>  -0.1500 
 26 C       -9.7310    -7.3230    -1.5170 C.3   1 <1>   0.0600 
 27 C       -8.9220    -9.4850     0.5720 C.ar  1 <1>  -0.1500 
 28 C       -7.1120   -10.1920     1.9930 C.ar  1 <1>  -0.1500 
 29 C       -8.4030   -10.3620     1.5110 C.ar  1 <1>  -0.1500 
 30 H       -1.3800    -3.8650     1.0570 H     1 <1>   0.1500 
 31 H       -2.6660    -0.1090     2.5650 H     1 <1>   0.1500 
 32 H       -4.3960     0.0270     0.8330 H     1 <1>   0.1500 
 33 H       -3.7100    -3.6980    -1.8930 H     1 <1>   0.0800 
 34 H       -3.2960    -5.6670     0.1810 H     1 <1>   0.4500 
 35 H       -6.1190    -0.8990    -2.2570 H     1 <1>   0.0800 
 36 H       -4.8010     0.0790    -1.6210 H     1 <1>   0.0800 
 37 H       -6.1540    -0.3880    -0.5740 H     1 <1>   0.0800 
 38 H       -3.4070    -6.5130    -1.9960 H     1 <1>   0.0800 
 39 H       -4.9790    -5.7760    -2.2180 H     1 <1>   0.0800 
 40 H       -5.8880    -4.2840    -0.3370 H     1 <1>   0.0800 
 41 H       -4.9080    -4.0640     1.0920 H     1 <1>   0.0800 
 42 H       -4.2500    -7.9380    -0.2320 H     1 <1>   0.0800 
 43 H       -5.2450    -8.1330    -1.6410 H     1 <1>   0.0800 
 44 H       -6.7600    -5.6560     1.4920 H     1 <1>   0.0800 
 45 H       -5.2020    -6.3830     1.7360 H     1 <1>   0.0800 
 46 H       -5.3250    -9.0180     1.9200 H     1 <1>   0.1500 
 47 H       -9.7060    -6.4820    -2.1890 H     1 <1>   0.0800 
 48 H      -10.5240    -7.1800    -0.8040 H     1 <1>   0.0800 
 49 H       -9.9180    -8.2180    -2.0840 H     1 <1>   0.0800 
 50 H       -9.9210    -9.6150     0.1980 H     1 <1>   0.1500 
 51 H       -6.7210   -10.8810     2.7220 H     1 <1>   0.1500 
 52 H       -9.0040   -11.1800     1.8690 H     1 <1>   0.1500 
@<TRIPOS>BOND
  1   1   2  1   
  2   2   3  ar  
  3   2   4  ar  
  4   3   5  ar  
  5   3  30  1   
  6   4   6  ar  
  7   4  31  1   
  8   5   7  ar  
  9   5   8  1   
 10   6   7  ar  
 11   6  32  1   
 12   7   9  1   
 13   8  10  1   
 14   8  11  1   
 15   8  33  1   
 16   9  12  1   
 17  10  13  1   
 18  10  14  1   
 19  10  34  1   
 20  11  15  ar  
 21  11  16  ar  
 22  12  35  1   
 23  12  36  1   
 24  12  37  1   
 25  13  17  1   
 26  13  38  1   
 27  13  39  1   
 28  14  18  1   
 29  14  40  1   
 30  14  41  1   
 31  17  19  1   
 32  17  42  1   
 33  17  43  1   
 34  18  19  1   
 35  18  44  1   
 36  18  45  1   
 37  19  20  1   
 38  19  21  1   
 39  20  22  2   
 40  20  23  am  
 41  21  24  ar  
 42  21  25  ar  
 43  23  24  1   
 44  23  26  1   
 45  24  27  ar  
 46  25  28  ar  
 47  25  46  1   
 48  26  47  1   
 49  26  48  1   
 50  26  49  1   
 51  27  29  ar  
 52  27  50  1   
 53  28  29  ar  
 54  28  51  1   
 55  29  52  1   
@<TRIPOS>SUBSTRUCTURE
  1 ****  14 GROUP 4 **** **** 0

# MOE 2024.06 (io_trps.svl 2023.06)
