@<TRIPOS>MOLECULE
NONAME
45 48 1 0 0 
SMALL
USER_CHARGES


@<TRIPOS>ATOM
  1 CL       0.1330     0.1170     0.1870 Cl    1 <1>  -0.1770 
  2 C       -1.3340     1.0600     0.1730 C.ar  1 <1>   0.1770 
  3 C       -1.2690     2.4240     0.1690 C.ar  1 <1>  -0.1500 
  4 C       -2.5550     0.3940     0.1670 C.ar  1 <1>  -0.1500 
  5 C       -2.4330     3.2130     0.1260 C.ar  1 <1>   0.0000 
  6 C       -3.7230     1.1190     0.1890 C.ar  1 <1>  -0.1440 
  7 C       -3.6690     2.5310     0.2040 C.ar  1 <1>   0.3610 
  8 C       -2.4160     4.6480     0.0650 C.ar  1 <1>   0.1000 
  9 C       -5.0490     0.3610     0.2060 C.3   1 <1>  -0.0960 
 10 N       -4.8230     3.2700     0.3360 N.ar  1 <1>  -0.1790 
 11 N       -1.3070     5.3900    -0.2060 N.pl3 1 <1>  -0.8380 
 12 C       -3.6380     5.2990     0.2560 C.ar  1 <1>  -0.1500 
 13 C       -4.8140     4.6120     0.3860 C.ar  1 <1>   0.2110 
 14 C       -1.0790     6.7230     0.4710 C.3   1 <1>   0.2090 
 15 C       -0.4030     5.0680    -1.3730 C.3   1 <1>   0.2090 
 16 C        0.3600     7.0850     0.9170 C.3   1 <1>   0.2200 
 17 C        1.1180     5.2320    -1.1800 C.3   1 <1>  -0.0190 
 18 N        1.1870     7.5340    -0.2380 N.am  1 <1>  -0.6600 
 19 C        1.0840     6.0150     1.7690 C.3   1 <1>   0.1200 
 20 C        1.5100     6.6880    -1.2570 C.2   1 <1>   0.5690 
 21 C        1.7900     4.5510     0.0250 C.3   1 <1>   0.1200 
 22 C        1.5990     8.9680    -0.2420 C.3   1 <1>   0.0600 
 23 O        1.0900     4.7300     1.2170 O.3   1 <1>  -0.5600 
 24 O        2.1120     7.0600    -2.2370 O.2   1 <1>  -0.5700 
 25 H       -0.3110     2.8970     0.2150 H     1 <1>   0.1500 
 26 H       -2.5440    -0.6830     0.1570 H     1 <1>   0.1500 
 27 H       -4.8800    -0.7010     0.1380 H     1 <1>   0.0800 
 28 H       -5.6620     0.6420    -0.6320 H     1 <1>   0.0800 
 29 H       -5.5820     0.5440     1.1230 H     1 <1>   0.0800 
 30 H       -5.6980     2.7490     0.4190 H     1 <1>   0.4570 
 31 H       -3.6660     6.3740     0.2640 H     1 <1>   0.1500 
 32 H       -5.7470     5.1380     0.5170 H     1 <1>   0.1500 
 33 H       -1.4350     7.5050    -0.1770 H     1 <1>   0.0800 
 34 H       -1.6820     6.7470     1.3610 H     1 <1>   0.0800 
 35 H       -0.5910     4.0630    -1.7020 H     1 <1>   0.0800 
 36 H       -0.6940     5.7040    -2.1920 H     1 <1>   0.0800 
 37 H        0.2550     7.9380     1.5630 H     1 <1>   0.0800 
 38 H        1.5670     4.7790    -2.0450 H     1 <1>   0.0800 
 39 H        0.5820     5.9310     2.7150 H     1 <1>   0.0800 
 40 H        2.1010     6.3120     1.9570 H     1 <1>   0.0800 
 41 H        2.7960     4.9130     0.1590 H     1 <1>   0.0800 
 42 H        1.8410     3.4910    -0.1470 H     1 <1>   0.0800 
 43 H        2.1700     9.1860     0.6440 H     1 <1>   0.0800 
 44 H        0.7290     9.5980    -0.2710 H     1 <1>   0.0800 
 45 H        2.2100     9.1890    -1.1010 H     1 <1>   0.0800 
@<TRIPOS>BOND
  1   1   2  1   
  2   2   3  ar  
  3   2   4  ar  
  4   3   5  ar  
  5   3  25  1   
  6   4   6  ar  
  7   4  26  1   
  8   5   7  ar  
  9   5   8  ar  
 10   6   7  ar  
 11   6   9  1   
 12   7  10  ar  
 13   8  11  1   
 14   8  12  ar  
 15   9  27  1   
 16   9  28  1   
 17   9  29  1   
 18  10  13  ar  
 19  10  30  1   
 20  11  14  1   
 21  11  15  1   
 22  12  13  ar  
 23  12  31  1   
 24  13  32  1   
 25  14  16  1   
 26  14  33  1   
 27  14  34  1   
 28  15  17  1   
 29  15  35  1   
 30  15  36  1   
 31  16  18  1   
 32  16  19  1   
 33  16  37  1   
 34  17  20  1   
 35  17  21  1   
 36  17  38  1   
 37  18  20  am  
 38  18  22  1   
 39  19  23  1   
 40  19  39  1   
 41  19  40  1   
 42  20  24  2   
 43  21  23  1   
 44  21  41  1   
 45  21  42  1   
 46  22  43  1   
 47  22  44  1   
 48  22  45  1   
@<TRIPOS>SUBSTRUCTURE
  1 ****  11 GROUP 4 **** **** 0

# MOE 2024.06 (io_trps.svl 2023.06)
