@<TRIPOS>MOLECULE
NONAME
53 56 1 0 0 
SMALL
USER_CHARGES


@<TRIPOS>ATOM
  1 O        0.4140    -0.0010     0.6760 O.2   1 <1>  -0.5700 
  2 C        0.3460     1.2020     0.7660 C.2   1 <1>   0.5690 
  3 N       -0.8100     1.8950     0.4910 N.am  1 <1>  -0.6600 
  4 C        1.6260     1.9320     1.2080 C.3   1 <1>   0.2700 
  5 C       -2.0260     1.1710    -0.0070 C.3   1 <1>   0.2200 
  6 C       -0.8630     3.3850     0.6060 C.3   1 <1>   0.1400 
  7 N        1.5880     3.4560     1.1720 N.pl3 1 <1>  -0.8380 
  8 C       -2.4560     1.6640    -1.3880 C.3   1 <1>  -0.1600 
  9 C       -3.2380     1.4050     0.8970 C.3   1 <1>  -0.1600 
 10 C        0.2170     3.9450     1.5490 C.3   1 <1>   0.2090 
 11 C        2.6710     4.2100     0.8660 C.ar  1 <1>   0.4610 
 12 C       -3.5200     2.7380    -1.1600 C.3   1 <1>  -0.1600 
 13 C       -4.1590     2.4140     0.1930 C.3   1 <1>  -0.1600 
 14 N        2.5390     5.5230     0.6650 N.ar  1 <1>  -0.1790 
 15 C        3.9860     3.6910     0.7380 C.ar  1 <1>  -0.1500 
 16 C        3.5590     6.3970     0.3280 C.ar  1 <1>   0.3610 
 17 C        5.0490     4.4750     0.4080 C.ar  1 <1>  -0.1430 
 18 C        4.8560     5.8730     0.1860 C.ar  1 <1>   0.0000 
 19 C        3.3010     7.7680     0.1310 C.ar  1 <1>  -0.1440 
 20 C        6.4410     3.8640     0.2830 C.3   1 <1>  -0.0970 
 21 C        5.8820     6.7600    -0.1650 C.ar  1 <1>  -0.1500 
 22 C        4.3420     8.6120    -0.2160 C.ar  1 <1>  -0.1430 
 23 C        1.8710     8.2970     0.3040 C.3   1 <1>  -0.0970 
 24 C        5.6280     8.0920    -0.3590 C.ar  1 <1>  -0.1500 
 25 C        4.1690    10.1090    -0.4570 C.3   1 <1>  -0.0970 
 26 H        2.4030     1.5650     0.5660 H     1 <1>   0.0800 
 27 H        1.8490     1.6120     2.2110 H     1 <1>   0.0800 
 28 H       -1.8230     0.1140    -0.0590 H     1 <1>   0.0800 
 29 H       -1.8230     3.6840     0.9850 H     1 <1>   0.0800 
 30 H       -0.7430     3.8130    -0.3730 H     1 <1>   0.0800 
 31 H       -2.9160     0.8390    -1.9050 H     1 <1>   0.0800 
 32 H       -1.6260     2.0110    -1.9790 H     1 <1>   0.0800 
 33 H       -2.9490     1.7320     1.8800 H     1 <1>   0.0800 
 34 H       -3.7680     0.4740     1.0000 H     1 <1>   0.0800 
 35 H       -0.0070     3.6210     2.5520 H     1 <1>   0.0800 
 36 H        0.1620     5.0180     1.5460 H     1 <1>   0.0800 
 37 H       -4.2510     2.7380    -1.9510 H     1 <1>   0.0800 
 38 H       -3.0610     3.7100    -1.1240 H     1 <1>   0.0800 
 39 H       -4.2810     3.3070     0.7820 H     1 <1>   0.0800 
 40 H       -5.1290     1.9700     0.0420 H     1 <1>   0.0800 
 41 H        1.6120     5.9140     0.7340 H     1 <1>   0.4570 
 42 H        4.1440     2.6460     0.9220 H     1 <1>   0.1500 
 43 H        6.4240     2.8080     0.4840 H     1 <1>   0.0800 
 44 H        7.1140     4.3260     0.9840 H     1 <1>   0.0800 
 45 H        6.8220     4.0070    -0.7130 H     1 <1>   0.0800 
 46 H        6.8900     6.4030    -0.2860 H     1 <1>   0.1500 
 47 H        1.5080     8.0820     1.2940 H     1 <1>   0.0800 
 48 H        1.2170     7.8520    -0.4250 H     1 <1>   0.0800 
 49 H        1.8050     9.3620     0.1760 H     1 <1>   0.0800 
 50 H        6.4410     8.7470    -0.6290 H     1 <1>   0.1500 
 51 H        3.4620    10.2810    -1.2480 H     1 <1>   0.0800 
 52 H        5.0980    10.5700    -0.7420 H     1 <1>   0.0800 
 53 H        3.8240    10.5930     0.4390 H     1 <1>   0.0800 
@<TRIPOS>BOND
  1   1   2  2   
  2   2   3  am  
  3   2   4  1   
  4   3   5  1   
  5   3   6  1   
  6   4   7  1   
  7   4  26  1   
  8   4  27  1   
  9   5   8  1   
 10   5   9  1   
 11   5  28  1   
 12   6  10  1   
 13   6  29  1   
 14   6  30  1   
 15   7  10  1   
 16   7  11  1   
 17   8  12  1   
 18   8  31  1   
 19   8  32  1   
 20   9  13  1   
 21   9  33  1   
 22   9  34  1   
 23  10  35  1   
 24  10  36  1   
 25  11  14  ar  
 26  11  15  ar  
 27  12  13  1   
 28  12  37  1   
 29  12  38  1   
 30  13  39  1   
 31  13  40  1   
 32  14  16  ar  
 33  14  41  1   
 34  15  17  ar  
 35  15  42  1   
 36  16  18  ar  
 37  16  19  ar  
 38  17  18  ar  
 39  17  20  1   
 40  18  21  ar  
 41  19  22  ar  
 42  19  23  1   
 43  20  43  1   
 44  20  44  1   
 45  20  45  1   
 46  21  24  ar  
 47  21  46  1   
 48  22  24  ar  
 49  22  25  1   
 50  23  47  1   
 51  23  48  1   
 52  23  49  1   
 53  24  50  1   
 54  25  51  1   
 55  25  52  1   
 56  25  53  1   
@<TRIPOS>SUBSTRUCTURE
  1 ****  11 GROUP 4 **** **** 0

# MOE 2024.06 (io_trps.svl 2023.06)
