@<TRIPOS>MOLECULE
NONAME
49 51 1 0 0 
SMALL
USER_CHARGES


@<TRIPOS>ATOM
  1 O       -0.6430     0.4790    -2.0170 O.2   1 <1>  -0.5700 
  2 C       -1.1940     1.0250    -1.0810 C.2   1 <1>   0.5440 
  3 N       -1.6930     0.2530    -0.0550 N.am  1 <1>  -0.6600 
  4 C       -1.3060     2.4680    -1.0770 C.ar  1 <1>   0.0860 
  5 C       -1.7330    -1.2380    -0.1360 C.3   1 <1>   0.1400 
  6 C       -2.1110     0.7730     1.2820 C.3   1 <1>   0.1400 
  7 C       -0.1980     3.2920    -1.0960 C.ar  1 <1>  -0.1500 
  8 C       -2.5290     3.1250    -1.0620 C.ar  1 <1>  -0.1500 
  9 C       -3.0780    -1.7710     0.3860 C.3   1 <1>   0.1200 
 10 C       -3.4400     0.1310     1.7170 C.3   1 <1>   0.1200 
 11 C       -0.3300     4.6750    -1.0850 C.ar  1 <1>   0.4100 
 12 C       -2.5700     4.5040    -1.0460 C.ar  1 <1>   0.1600 
 13 O       -3.3560    -1.2650     1.6620 O.3   1 <1>  -0.5600 
 14 N       -1.5080     5.2870    -1.0470 N.ar  1 <1>  -0.6200 
 15 N        0.8000     5.4690    -1.1140 N.pl3 1 <1>  -0.8380 
 16 C        0.7180     6.8760    -0.5920 C.3   1 <1>   0.3530 
 17 C        1.7690     5.3040    -2.2330 C.3   1 <1>   0.1290 
 18 C        2.0660     7.3770    -0.0750 C.ar  1 <1>   0.1670 
 19 N        2.5400     8.5020    -0.5960 N.ar  1 <1>  -0.6200 
 20 C        2.7240     6.6430     0.9020 C.ar  1 <1>  -0.1500 
 21 C        3.7060     8.9110    -0.1260 C.ar  1 <1>   0.1670 
 22 C        3.9400     7.0740     1.3870 C.ar  1 <1>  -0.1430 
 23 C        4.4310     8.2440     0.8480 C.ar  1 <1>  -0.1500 
 24 C        4.2380    10.1960    -0.7230 C.3   1 <1>  -0.0970 
 25 C        4.6950     6.3050     2.4550 C.3   1 <1>  -0.0970 
 26 H       -0.9330    -1.6470     0.4550 H     1 <1>   0.0800 
 27 H       -1.5960    -1.5640    -1.1530 H     1 <1>   0.0800 
 28 H       -2.2160     1.8420     1.2690 H     1 <1>   0.0800 
 29 H       -1.3530     0.5260     2.0050 H     1 <1>   0.0800 
 30 H        0.7830     2.8610    -1.1170 H     1 <1>   0.1500 
 31 H       -3.4390     2.5530    -1.0660 H     1 <1>   0.1500 
 32 H       -3.0480    -2.8440     0.4570 H     1 <1>   0.0800 
 33 H       -3.8770    -1.4910    -0.2780 H     1 <1>   0.0800 
 34 H       -4.2450     0.4530     1.0790 H     1 <1>   0.0800 
 35 H       -3.6700     0.4050     2.7310 H     1 <1>   0.0800 
 36 H       -3.5290     4.9940    -1.0330 H     1 <1>   0.1500 
 37 H        0.0090     6.9250     0.2150 H     1 <1>   0.0800 
 38 H        0.3700     7.5240    -1.3770 H     1 <1>   0.0800 
 39 H        1.5240     4.4420    -2.8290 H     1 <1>   0.0800 
 40 H        2.7620     5.1840    -1.8360 H     1 <1>   0.0800 
 41 H        1.7520     6.1740    -2.8680 H     1 <1>   0.0800 
 42 H        2.2750     5.7380     1.2690 H     1 <1>   0.1500 
 43 H        5.3730     8.6360     1.1840 H     1 <1>   0.1500 
 44 H        3.5370    10.9910    -0.5420 H     1 <1>   0.0800 
 45 H        4.3580    10.0750    -1.7840 H     1 <1>   0.0800 
 46 H        5.1850    10.4620    -0.2920 H     1 <1>   0.0800 
 47 H        4.3970     5.2720     2.4560 H     1 <1>   0.0800 
 48 H        4.4890     6.7270     3.4210 H     1 <1>   0.0800 
 49 H        5.7530     6.3540     2.2710 H     1 <1>   0.0800 
@<TRIPOS>BOND
  1   1   2  2   
  2   2   3  am  
  3   2   4  1   
  4   3   5  1   
  5   3   6  1   
  6   4   7  ar  
  7   4   8  ar  
  8   5   9  1   
  9   5  26  1   
 10   5  27  1   
 11   6  10  1   
 12   6  28  1   
 13   6  29  1   
 14   7  11  ar  
 15   7  30  1   
 16   8  12  ar  
 17   8  31  1   
 18   9  13  1   
 19   9  32  1   
 20   9  33  1   
 21  10  13  1   
 22  10  34  1   
 23  10  35  1   
 24  11  14  ar  
 25  11  15  1   
 26  12  14  ar  
 27  12  36  1   
 28  15  16  1   
 29  15  17  1   
 30  16  18  1   
 31  16  37  1   
 32  16  38  1   
 33  17  39  1   
 34  17  40  1   
 35  17  41  1   
 36  18  19  ar  
 37  18  20  ar  
 38  19  21  ar  
 39  20  22  ar  
 40  20  42  1   
 41  21  23  ar  
 42  21  24  1   
 43  22  23  ar  
 44  22  25  1   
 45  23  43  1   
 46  24  44  1   
 47  24  45  1   
 48  24  46  1   
 49  25  47  1   
 50  25  48  1   
 51  25  49  1   
@<TRIPOS>SUBSTRUCTURE
  1 ****  11 GROUP 4 **** **** 0

# MOE 2024.06 (io_trps.svl 2023.06)
