@<TRIPOS>MOLECULE
NONAME
46 48 1 0 0 
SMALL
USER_CHARGES


@<TRIPOS>ATOM
  1 S        1.2880    -0.3720     1.1510 S.3   1 <1>  -0.3320 
  2 C        0.9230    -1.9440     0.3440 C.ar  1 <1>   0.1020 
  3 C        1.8270     0.8220    -0.1530 C.3   1 <1>   0.1500 
  4 C        0.6750    -3.0220     1.1750 C.ar  1 <1>  -0.1500 
  5 C        0.8820    -2.0890    -1.0340 C.ar  1 <1>  -0.1500 
  6 C        3.2540     0.4750    -0.5830 C.3   1 <1>  -0.1600 
  7 C        1.7760     2.2260     0.4430 C.3   1 <1>  -0.1600 
  8 C        0.3870    -4.2650     0.6340 C.ar  1 <1>  -0.1430 
  9 C        0.5940    -3.3300    -1.5750 C.ar  1 <1>  -0.1500 
 10 C        3.7900     1.5380    -1.5430 C.3   1 <1>   0.1100 
 11 C        2.3540     3.2480    -0.5380 C.3   1 <1>   0.1100 
 12 C        0.3480    -4.4120    -0.7450 C.ar  1 <1>  -0.1500 
 13 C        0.1130    -5.4530     1.5370 C.3   1 <1>  -0.0970 
 14 N        3.7280     2.8680    -0.9150 N.3   1 <1>  -0.8100 
 15 C        4.3910     3.8820    -1.7780 C.3   1 <1>   0.2900 
 16 C        4.7020     5.2090    -1.0880 C.2   1 <1>   0.2980 
 17 O        3.7320     6.0650    -0.8970 O.3   1 <1>  -0.0190 
 18 N        5.8470     5.5970    -0.6980 N.2   1 <1>  -0.5650 
 19 N        4.2990     7.0750    -0.3230 N.2   1 <1>  -0.4100 
 20 C        5.5590     6.8090    -0.1930 C.2   1 <1>   0.4300 
 21 C        6.5380     7.7140     0.4200 C.2   1 <1>   0.7160 
 22 O        7.7290     7.4520     0.4780 O.2   1 <1>  -0.5700 
 23 N        6.1230     8.9140     0.9530 N.am  1 <1>  -0.7300 
 24 C        6.9790     9.9340     1.6110 C.3   1 <1>   0.0600 
 25 H        1.1360     0.7490    -0.9720 H     1 <1>   0.0800 
 26 H        0.7080    -2.8800     2.2400 H     1 <1>   0.1500 
 27 H        1.0650    -1.2640    -1.6910 H     1 <1>   0.1500 
 28 H        3.2770    -0.4870    -1.0590 H     1 <1>   0.0800 
 29 H        3.8930     0.4350     0.2820 H     1 <1>   0.0800 
 30 H        2.3500     2.2580     1.3530 H     1 <1>   0.0800 
 31 H        0.7590     2.4840     0.6780 H     1 <1>   0.0800 
 32 H        0.5590    -3.4580    -2.6430 H     1 <1>   0.1500 
 33 H        3.2140     1.5350    -2.4540 H     1 <1>   0.0800 
 34 H        4.8130     1.3000    -1.7830 H     1 <1>   0.0800 
 35 H        2.3560     4.2080    -0.0530 H     1 <1>   0.0800 
 36 H        1.7340     3.3080    -1.4170 H     1 <1>   0.0800 
 37 H        0.1230    -5.3710    -1.1770 H     1 <1>   0.1500 
 38 H        0.5510    -5.3010     2.5070 H     1 <1>   0.0800 
 39 H        0.5300    -6.3490     1.1120 H     1 <1>   0.0800 
 40 H       -0.9480    -5.5840     1.6530 H     1 <1>   0.0800 
 41 H        3.7870     4.0710    -2.6480 H     1 <1>   0.0800 
 42 H        5.3320     3.4820    -2.1150 H     1 <1>   0.0800 
 43 H        5.1220     9.1220     0.8940 H     1 <1>   0.3700 
 44 H        8.0090     9.6160     1.6200 H     1 <1>   0.0800 
 45 H        6.6540    10.0820     2.6260 H     1 <1>   0.0800 
 46 H        6.9110    10.8660     1.0760 H     1 <1>   0.0800 
@<TRIPOS>BOND
  1   1   2  1   
  2   1   3  1   
  3   2   4  ar  
  4   2   5  ar  
  5   3   6  1   
  6   3   7  1   
  7   3  25  1   
  8   4   8  ar  
  9   4  26  1   
 10   5   9  ar  
 11   5  27  1   
 12   6  10  1   
 13   6  28  1   
 14   6  29  1   
 15   7  11  1   
 16   7  30  1   
 17   7  31  1   
 18   8  12  ar  
 19   8  13  1   
 20   9  12  ar  
 21   9  32  1   
 22  10  14  1   
 23  10  33  1   
 24  10  34  1   
 25  11  14  1   
 26  11  35  1   
 27  11  36  1   
 28  12  37  1   
 29  13  38  1   
 30  13  39  1   
 31  13  40  1   
 32  14  15  1   
 33  15  16  1   
 34  15  41  1   
 35  15  42  1   
 36  16  17  1   
 37  16  18  2   
 38  17  19  1   
 39  18  20  1   
 40  19  20  2   
 41  20  21  1   
 42  21  22  2   
 43  21  23  am  
 44  23  24  1   
 45  23  43  1   
 46  24  44  1   
 47  24  45  1   
 48  24  46  1   
@<TRIPOS>SUBSTRUCTURE
  1 ****  14 GROUP 4 **** **** 0

# MOE 2024.06 (io_trps.svl 2023.06)
