@<TRIPOS>MOLECULE
NONAME
45 46 1 0 0 
SMALL
USER_CHARGES


@<TRIPOS>ATOM
  1 S        0.4510    -1.1630     0.7900 S.o2  1 <1>   1.4470 
  2 O       -0.5580    -0.8000     1.7540 O.2   1 <1>  -0.6500 
  3 O        1.3160    -2.2890     1.0520 O.2   1 <1>  -0.6500 
  4 N       -0.3730    -1.4370    -0.6560 N.am  1 <1>  -0.9140 
  5 C        1.4750     0.2740     0.4150 C.ar  1 <1>  -0.0090 
  6 C       -1.1940    -2.6440    -0.8370 C.3   1 <1>   0.2760 
  7 C        0.9120     1.4380    -0.0790 C.ar  1 <1>   0.1900 
  8 C        2.8520     0.2780     0.6110 C.ar  1 <1>  -0.1500 
  9 C       -2.3220    -2.7930     0.1850 C.3   1 <1>  -0.0800 
 10 C       -0.4440    -3.9840    -0.7520 C.3   1 <1>   0.1200 
 11 F       -0.3770     1.4890    -0.2890 F     1 <1>  -0.1900 
 12 C        1.6500     2.5700    -0.3740 C.ar  1 <1>  -0.1500 
 13 C        3.6140     1.4010     0.3220 C.ar  1 <1>  -0.1500 
 14 C       -1.7610    -3.8770     1.1050 C.3   1 <1>   0.1200 
 15 C       -3.6170    -3.2800    -0.4990 C.3   1 <1>  -0.0550 
 16 O       -1.0730    -4.7290     0.2490 O.3   1 <1>  -0.5600 
 17 C        3.0190     2.5520    -0.1720 C.ar  1 <1>  -0.1430 
 18 S       -5.0760    -3.1490     0.5340 S.o2  1 <1>   1.3330 
 19 C        3.8660     3.7730    -0.4820 C.3   1 <1>  -0.0970 
 20 O       -4.9660    -4.0240     1.6790 O.2   1 <1>  -0.6500 
 21 O       -5.3380    -1.7410     0.7250 O.2   1 <1>  -0.6500 
 22 N       -6.2900    -3.7750    -0.4750 N.am  1 <1>  -0.8490 
 23 C       -7.6080    -3.2080    -0.1720 C.3   1 <1>   0.1160 
 24 C       -6.3640    -5.2410    -0.4510 C.3   1 <1>   0.1160 
 25 H       -1.0140    -0.6440    -0.7050 H     1 <1>   0.4200 
 26 H       -1.6130    -2.5760    -1.8270 H     1 <1>   0.0800 
 27 H        3.3370    -0.6050     0.9950 H     1 <1>   0.1500 
 28 H       -2.5310    -1.8820     0.7160 H     1 <1>   0.0800 
 29 H        0.5960    -3.8800    -0.5090 H     1 <1>   0.0800 
 30 H       -0.5360    -4.5350    -1.6710 H     1 <1>   0.0800 
 31 H        1.1540     3.4450    -0.7530 H     1 <1>   0.1500 
 32 H        4.6780     1.3740     0.4850 H     1 <1>   0.1500 
 33 H       -2.5120    -4.4370     1.6330 H     1 <1>   0.0800 
 34 H       -1.0570    -3.4720     1.8120 H     1 <1>   0.0800 
 35 H       -3.4900    -4.2970    -0.8170 H     1 <1>   0.0800 
 36 H       -3.7910    -2.6860    -1.3750 H     1 <1>   0.0800 
 37 H        4.7660     3.4820    -0.9940 H     1 <1>   0.0800 
 38 H        4.1340     4.2730     0.4320 H     1 <1>   0.0800 
 39 H        3.3290     4.4630    -1.1070 H     1 <1>   0.0800 
 40 H       -8.3510    -3.6130    -0.8380 H     1 <1>   0.0800 
 41 H       -7.5890    -2.1390    -0.3020 H     1 <1>   0.0800 
 42 H       -7.8860    -3.4280     0.8460 H     1 <1>   0.0800 
 43 H       -7.0830    -5.5860    -1.1740 H     1 <1>   0.0800 
 44 H       -6.6550    -5.5880     0.5270 H     1 <1>   0.0800 
 45 H       -5.4060    -5.6660    -0.6960 H     1 <1>   0.0800 
@<TRIPOS>BOND
  1   1   2  2   
  2   1   3  2   
  3   1   4  am  
  4   1   5  1   
  5   4   6  1   
  6   4  25  1   
  7   5   7  ar  
  8   5   8  ar  
  9   6   9  1   
 10   6  10  1   
 11   6  26  1   
 12   7  11  1   
 13   7  12  ar  
 14   8  13  ar  
 15   8  27  1   
 16   9  14  1   
 17   9  15  1   
 18   9  28  1   
 19  10  16  1   
 20  10  29  1   
 21  10  30  1   
 22  12  17  ar  
 23  12  31  1   
 24  13  17  ar  
 25  13  32  1   
 26  14  16  1   
 27  14  33  1   
 28  14  34  1   
 29  15  18  1   
 30  15  35  1   
 31  15  36  1   
 32  17  19  1   
 33  18  20  2   
 34  18  21  2   
 35  18  22  am  
 36  19  37  1   
 37  19  38  1   
 38  19  39  1   
 39  22  23  1   
 40  22  24  1   
 41  23  40  1   
 42  23  41  1   
 43  23  42  1   
 44  24  43  1   
 45  24  44  1   
 46  24  45  1   
@<TRIPOS>SUBSTRUCTURE
  1 ****   4 GROUP 4 **** **** 0

# MOE 2024.06 (io_trps.svl 2023.06)
