@<TRIPOS>MOLECULE
NONAME
54 58 1 0 0 
SMALL
USER_CHARGES


@<TRIPOS>ATOM
  1 N        0.1060     0.1260    -0.4630 N.ar  1 <1>  -0.1790 
  2 C       -0.6210     1.2800    -0.3910 C.ar  1 <1>   0.7710 
  3 C        1.4120     0.0920    -0.7560 C.ar  1 <1>   0.4610 
  4 N       -0.1000     2.4520    -0.6390 N.ar  1 <1>  -0.5670 
  5 N       -1.9440     1.1620    -0.0600 N.pl3 1 <1>  -0.8380 
  6 N        2.0730    -1.0780    -0.8100 N.pl3 1 <1>  -0.9000 
  7 C        2.0050     1.3340    -1.0020 C.ar  1 <1>   0.0000 
  8 C        1.2230     2.4630    -0.9390 C.ar  1 <1>   0.1050 
  9 C       -2.9620     2.1670    -0.5420 C.3   1 <1>   0.2090 
 10 C       -2.4960     0.2240     0.9660 C.3   1 <1>   0.2090 
 11 C        3.2800     1.8210    -1.3310 C.2   1 <1>   0.1390 
 12 N        2.0320     3.5130    -1.2260 N.pl3 1 <1>   0.3140 
 13 C       -3.5500     2.9990     0.6180 C.3   1 <1>   0.1440 
 14 C       -3.0320     1.0200     2.1600 C.3   1 <1>  -0.1600 
 15 N        3.3020     3.1030    -1.4640 N.2   1 <1>  -0.7070 
 16 C        1.6690     4.9360    -1.2910 C.3   1 <1>   0.0160 
 17 C       -4.6860     3.8690     0.1150 C.ar  1 <1>   0.1660 
 18 C       -4.0750     2.0680     1.7320 C.3   1 <1>  -0.1600 
 19 C       -2.5540     4.0550     1.1710 C.3   1 <1>  -0.1600 
 20 N       -5.6590     3.4620    -0.6610 N.ar  1 <1>  -0.6200 
 21 C       -4.5820     5.1480     0.5710 C.ar  1 <1>  -0.1430 
 22 C       -3.3670     5.3330     1.4440 C.3   1 <1>  -0.0170 
 23 C       -6.5580     4.3960    -0.9820 C.ar  1 <1>   0.7200 
 24 C       -5.5510     6.0400     0.1890 C.ar  1 <1>   0.1600 
 25 N       -6.5420     5.6740    -0.5900 N.ar  1 <1>  -0.6200 
 26 N       -7.5990     4.0050    -1.8010 N.pl3 1 <1>  -0.8380 
 27 C       -8.4700     4.9940    -2.4930 C.3   1 <1>   0.1290 
 28 C       -7.9610     2.5750    -2.0000 C.3   1 <1>   0.1290 
 29 H       -0.4280    -0.7190    -0.3340 H     1 <1>   0.4570 
 30 H        3.0760    -1.1240    -1.0380 H     1 <1>   0.4000 
 31 H        1.6900    -2.0150    -0.6430 H     1 <1>   0.4000 
 32 H       -3.7640     1.6330    -1.0230 H     1 <1>   0.0800 
 33 H       -2.5390     2.8260    -1.2810 H     1 <1>   0.0800 
 34 H       -1.7450    -0.4610     1.3170 H     1 <1>   0.0800 
 35 H       -3.3000    -0.3470     0.5290 H     1 <1>   0.0800 
 36 H        4.1510     1.1990    -1.4610 H     1 <1>   0.1500 
 37 H       -2.2100     1.4970     2.6650 H     1 <1>   0.0800 
 38 H       -3.4860     0.3410     2.8600 H     1 <1>   0.0800 
 39 H        0.6040     5.0460    -1.2020 H     1 <1>   0.0800 
 40 H        1.9970     5.3370    -2.2320 H     1 <1>   0.0800 
 41 H        2.1580     5.4590    -0.4910 H     1 <1>   0.0800 
 42 H       -4.9480     1.5550     1.3660 H     1 <1>   0.0800 
 43 H       -4.3830     2.6500     2.5840 H     1 <1>   0.0800 
 44 H       -1.8270     4.2880     0.4140 H     1 <1>   0.0800 
 45 H       -2.0310     3.7230     2.0490 H     1 <1>   0.0800 
 46 H       -2.8160     6.2190     1.1820 H     1 <1>   0.0800 
 47 H       -3.6690     5.3800     2.4760 H     1 <1>   0.0800 
 48 H       -5.5160     7.0620     0.5230 H     1 <1>   0.1500 
 49 H       -7.9240     5.8990    -2.6980 H     1 <1>   0.0800 
 50 H       -9.3140     5.2280    -1.8690 H     1 <1>   0.0800 
 51 H       -8.8170     4.5900    -3.4280 H     1 <1>   0.0800 
 52 H       -7.6390     1.9820    -1.1620 H     1 <1>   0.0800 
 53 H       -7.4870     2.2060    -2.8930 H     1 <1>   0.0800 
 54 H       -9.0270     2.4740    -2.0950 H     1 <1>   0.0800 
@<TRIPOS>BOND
  1   1   2  ar  
  2   1   3  ar  
  3   1  29  1   
  4   2   4  ar  
  5   2   5  1   
  6   3   6  1   
  7   3   7  ar  
  8   4   8  ar  
  9   5   9  1   
 10   5  10  1   
 11   6  30  1   
 12   6  31  1   
 13   7   8  ar  
 14   7  11  1   
 15   8  12  1   
 16   9  13  1   
 17   9  32  1   
 18   9  33  1   
 19  10  14  1   
 20  10  34  1   
 21  10  35  1   
 22  11  15  2   
 23  11  36  1   
 24  12  15  1   
 25  12  16  1   
 26  13  17  1   
 27  13  18  1   
 28  13  19  1   
 29  14  18  1   
 30  14  37  1   
 31  14  38  1   
 32  16  39  1   
 33  16  40  1   
 34  16  41  1   
 35  17  20  ar  
 36  17  21  ar  
 37  18  42  1   
 38  18  43  1   
 39  19  22  1   
 40  19  44  1   
 41  19  45  1   
 42  20  23  ar  
 43  21  22  1   
 44  21  24  ar  
 45  22  46  1   
 46  22  47  1   
 47  23  25  ar  
 48  23  26  1   
 49  24  25  ar  
 50  24  48  1   
 51  26  27  1   
 52  26  28  1   
 53  27  49  1   
 54  27  50  1   
 55  27  51  1   
 56  28  52  1   
 57  28  53  1   
 58  28  54  1   
@<TRIPOS>SUBSTRUCTURE
  1 ****   9 GROUP 4 **** **** 0

# MOE 2024.06 (io_trps.svl 2023.06)
