@<TRIPOS>MOLECULE
NONAME
48 50 1 0 0 
SMALL
USER_CHARGES


@<TRIPOS>ATOM
  1 O       -2.2520     0.5100    -2.0010 O.2   1 <1>  -0.5700 
  2 C       -1.9360     0.4700    -0.8360 C.2   1 <1>   0.5690 
  3 N       -1.7970    -0.7130    -0.1880 N.am  1 <1>  -0.7300 
  4 C       -1.7140     1.7660    -0.0560 C.3   1 <1>  -0.0190 
  5 C       -1.9860    -2.0450    -0.8080 C.3   1 <1>   0.2200 
  6 C       -3.0380     2.5540     0.0470 C.3   1 <1>  -0.1600 
  7 C       -0.5500     2.5630    -0.6790 C.3   1 <1>  -0.1600 
  8 C       -3.3290    -2.6500    -0.4210 C.3   1 <1>  -0.0800 
  9 C       -1.0350    -3.0340    -0.1470 C.3   1 <1>   0.1200 
 10 C       -3.0090     3.6440     1.1290 C.3   1 <1>  -0.1600 
 11 C       -0.2260     3.9030     0.0040 C.3   1 <1>  -0.1600 
 12 C       -3.0370    -3.3060     0.9340 C.3   1 <1>   0.1200 
 13 C       -4.5270    -1.6810    -0.4120 C.3   1 <1>  -0.0170 
 14 O       -1.6450    -3.3680     1.0620 O.3   1 <1>  -0.5600 
 15 C       -2.4750     5.0060     0.6600 C.3   1 <1>  -0.1600 
 16 C       -1.2760     4.9810    -0.3000 C.3   1 <1>  -0.1600 
 17 C       -5.8200    -2.4190    -0.1040 C.ar  1 <1>  -0.1440 
 18 C       -6.5080    -3.1120    -1.0790 C.ar  1 <1>  -0.1500 
 19 C       -6.3730    -2.4360     1.1610 C.ar  1 <1>  -0.1500 
 20 C       -7.6790    -3.7750    -0.7500 C.ar  1 <1>   0.1600 
 21 C       -7.5500    -3.1310     1.3840 C.ar  1 <1>   0.1600 
 22 N       -8.2150    -3.8040     0.4590 N.ar  1 <1>  -0.6200 
 23 H       -1.5620    -0.7470     0.8060 H     1 <1>   0.3700 
 24 H       -1.4180     1.4890     0.9400 H     1 <1>   0.0800 
 25 H       -1.8450    -1.9910    -1.8750 H     1 <1>   0.0800 
 26 H       -3.3030     2.9700    -0.9100 H     1 <1>   0.0800 
 27 H       -3.8140     1.8560     0.3100 H     1 <1>   0.0800 
 28 H        0.3300     1.9460    -0.6400 H     1 <1>   0.0800 
 29 H       -0.7600     2.7390    -1.7210 H     1 <1>   0.0800 
 30 H       -3.5440    -3.4390    -1.1190 H     1 <1>   0.0800 
 31 H       -0.0600    -2.6180     0.0370 H     1 <1>   0.0800 
 32 H       -0.9490    -3.9320    -0.7340 H     1 <1>   0.0800 
 33 H       -4.0120     3.7960     1.4890 H     1 <1>   0.0800 
 34 H       -2.4290     3.3040     1.9690 H     1 <1>   0.0800 
 35 H       -0.1020     3.7760     1.0650 H     1 <1>   0.0800 
 36 H        0.7160     4.2440    -0.3890 H     1 <1>   0.0800 
 37 H       -3.4390    -4.3030     0.9880 H     1 <1>   0.0800 
 38 H       -3.4120    -2.7170     1.7520 H     1 <1>   0.0800 
 39 H       -4.6070    -1.2050    -1.3750 H     1 <1>   0.0800 
 40 H       -4.3790    -0.9050     0.3180 H     1 <1>   0.0800 
 41 H       -3.2730     5.5410     0.1750 H     1 <1>   0.0800 
 42 H       -2.2050     5.5740     1.5340 H     1 <1>   0.0800 
 43 H       -0.8010     5.9460    -0.2560 H     1 <1>   0.0800 
 44 H       -1.6310     4.8600    -1.3100 H     1 <1>   0.0800 
 45 H       -6.1450    -3.1420    -2.0900 H     1 <1>   0.1500 
 46 H       -5.9020    -1.9160     1.9740 H     1 <1>   0.1500 
 47 H       -8.2020    -4.3110    -1.5240 H     1 <1>   0.1500 
 48 H       -7.9660    -3.1340     2.3770 H     1 <1>   0.1500 
@<TRIPOS>BOND
  1   1   2  2   
  2   2   3  am  
  3   2   4  1   
  4   3   5  1   
  5   3  23  1   
  6   4   6  1   
  7   4   7  1   
  8   4  24  1   
  9   5   8  1   
 10   5   9  1   
 11   5  25  1   
 12   6  10  1   
 13   6  26  1   
 14   6  27  1   
 15   7  11  1   
 16   7  28  1   
 17   7  29  1   
 18   8  12  1   
 19   8  13  1   
 20   8  30  1   
 21   9  14  1   
 22   9  31  1   
 23   9  32  1   
 24  10  15  1   
 25  10  33  1   
 26  10  34  1   
 27  11  16  1   
 28  11  35  1   
 29  11  36  1   
 30  12  14  1   
 31  12  37  1   
 32  12  38  1   
 33  13  17  1   
 34  13  39  1   
 35  13  40  1   
 36  15  16  1   
 37  15  41  1   
 38  15  42  1   
 39  16  43  1   
 40  16  44  1   
 41  17  18  ar  
 42  17  19  ar  
 43  18  20  ar  
 44  18  45  1   
 45  19  21  ar  
 46  19  46  1   
 47  20  22  ar  
 48  20  47  1   
 49  21  22  ar  
 50  21  48  1   
@<TRIPOS>SUBSTRUCTURE
  1 ****  13 GROUP 4 **** **** 0

# MOE 2024.06 (io_trps.svl 2023.06)
