@<TRIPOS>MOLECULE
NONAME
53 55 1 0 0 
SMALL
USER_CHARGES


@<TRIPOS>ATOM
  1 O        0.8340     0.1210    -1.6940 O.3   1 <1>  -0.5600 
  2 C        2.0410    -0.5460    -1.4050 C.3   1 <1>   0.2000 
  3 C        0.9430     1.5020    -1.8820 C.3   1 <1>   0.1200 
  4 C        2.7410     0.0670    -0.1610 C.3   1 <1>   0.5660 
  5 C        1.7330    -2.0340    -1.1690 C.3   1 <1>   0.1200 
  6 C        1.4890     2.1670    -0.6080 C.3   1 <1>   0.3430 
  7 N        2.7950     1.5610    -0.1950 N.4   1 <1>  -0.9590 
  8 C        4.1610    -0.4620    -0.0080 C.ar  1 <1>  -0.1430 
  9 O        1.1390    -2.2130     0.0800 O.3   1 <1>  -0.6800 
 10 C        3.3120     2.1320     1.0720 C.3   1 <1>   0.4870 
 11 C        5.1410    -0.2090    -0.9620 C.ar  1 <1>  -0.1500 
 12 C        4.4850    -1.2130     1.1120 C.ar  1 <1>  -0.1500 
 13 C        3.5330     3.6140     0.8570 C.ar  1 <1>  -0.1430 
 14 C        6.4250    -0.6960    -0.7900 C.ar  1 <1>  -0.1500 
 15 C        5.7700    -1.6970     1.2840 C.ar  1 <1>  -0.1500 
 16 C        4.4120     4.0540    -0.1270 C.ar  1 <1>   0.0830 
 17 C        2.8420     4.5380     1.6230 C.ar  1 <1>  -0.1500 
 18 C        6.7400    -1.4370     0.3330 C.ar  1 <1>  -0.1500 
 19 O        5.0910     3.1330    -0.8530 O.3   1 <1>  -0.3630 
 20 C        4.5660     5.4150    -0.3780 C.ar  1 <1>  -0.1430 
 21 C        3.0080     5.8940     1.3990 C.ar  1 <1>  -0.1430 
 22 C        6.4390     2.9210    -0.4800 C.3   1 <1>   0.0400 
 23 C        3.8650     6.3220     0.3990 C.ar  1 <1>  -0.1500 
 24 C        5.4700     5.9460    -1.4830 C.3   1 <1>  -0.0970 
 25 C        2.2610     6.9160     2.2390 C.3   1 <1>  -0.0970 
 26 H        2.6710    -0.4580    -2.2710 H     1 <1>   0.0800 
 27 H        1.5820     1.6920    -2.7270 H     1 <1>   0.0800 
 28 H       -0.0400     1.8800    -2.1030 H     1 <1>   0.0800 
 29 H        2.1710    -0.2350     0.7020 H     1 <1>   0.0800 
 30 H        2.6390    -2.6160    -1.1880 H     1 <1>   0.0800 
 31 H        1.0630    -2.3990    -1.9290 H     1 <1>   0.0800 
 32 H        0.7630     2.0460     0.1790 H     1 <1>   0.0800 
 33 H        1.6150     3.2240    -0.7840 H     1 <1>   0.0800 
 34 H        3.5100     1.8340    -0.8860 H     1 <1>   0.4500 
 35 H        0.7280    -3.1020     0.1410 H     1 <1>   0.4000 
 36 H        2.6100     1.9690     1.8730 H     1 <1>   0.0800 
 37 H        4.2510     1.6700     1.3330 H     1 <1>   0.0800 
 38 H        4.9260     0.3650    -1.8480 H     1 <1>   0.1500 
 39 H        3.7420    -1.4380     1.8600 H     1 <1>   0.1500 
 40 H        7.1820    -0.5030    -1.5320 H     1 <1>   0.1500 
 41 H        6.0170    -2.2800     2.1550 H     1 <1>   0.1500 
 42 H        2.1700     4.2140     2.4000 H     1 <1>   0.1500 
 43 H        7.7390    -1.8170     0.4670 H     1 <1>   0.1500 
 44 H        6.8940     2.2660    -1.2010 H     1 <1>   0.0800 
 45 H        6.4660     2.4690     0.4960 H     1 <1>   0.0800 
 46 H        6.9600     3.8620    -0.4640 H     1 <1>   0.0800 
 47 H        3.9860     7.3780     0.2250 H     1 <1>   0.1500 
 48 H        5.0890     6.8760    -1.8650 H     1 <1>   0.0800 
 49 H        5.5250     5.2500    -2.3010 H     1 <1>   0.0800 
 50 H        6.4600     6.1140    -1.0990 H     1 <1>   0.0800 
 51 H        2.9180     7.3200     2.9890 H     1 <1>   0.0800 
 52 H        1.4130     6.4690     2.7270 H     1 <1>   0.0800 
 53 H        1.9090     7.7210     1.6190 H     1 <1>   0.0800 
@<TRIPOS>BOND
  1   1   2  1   
  2   1   3  1   
  3   2   4  1   
  4   2   5  1   
  5   2  26  1   
  6   3   6  1   
  7   3  27  1   
  8   3  28  1   
  9   4   7  1   
 10   4   8  1   
 11   4  29  1   
 12   5   9  1   
 13   5  30  1   
 14   5  31  1   
 15   6   7  1   
 16   6  32  1   
 17   6  33  1   
 18   7  10  1   
 19   7  34  1   
 20   8  11  ar  
 21   8  12  ar  
 22   9  35  1   
 23  10  13  1   
 24  10  36  1   
 25  10  37  1   
 26  11  14  ar  
 27  11  38  1   
 28  12  15  ar  
 29  12  39  1   
 30  13  16  ar  
 31  13  17  ar  
 32  14  18  ar  
 33  14  40  1   
 34  15  18  ar  
 35  15  41  1   
 36  16  19  1   
 37  16  20  ar  
 38  17  21  ar  
 39  17  42  1   
 40  18  43  1   
 41  19  22  1   
 42  20  23  ar  
 43  20  24  1   
 44  21  23  ar  
 45  21  25  1   
 46  22  44  1   
 47  22  45  1   
 48  22  46  1   
 49  23  47  1   
 50  24  48  1   
 51  24  49  1   
 52  24  50  1   
 53  25  51  1   
 54  25  52  1   
 55  25  53  1   
@<TRIPOS>SUBSTRUCTURE
  1 ****   7 GROUP 4 **** **** 0

# MOE 2024.06 (io_trps.svl 2023.06)
