@<TRIPOS>MOLECULE
NONAME
45 47 1 0 0 
SMALL
USER_CHARGES


@<TRIPOS>ATOM
  1 S       -0.0240    -0.7670    -0.5530 S.3   1 <1>  -0.4600 
  2 C       -0.7330    -2.4060    -0.8930 C.3   1 <1>   0.0700 
  3 C       -1.2650    -0.0360     0.5570 C.3   1 <1>   0.0700 
  4 C       -2.1760    -2.2360    -1.3810 C.3   1 <1>   0.1400 
  5 C       -2.6490    -0.1450    -0.0920 C.3   1 <1>   0.1400 
  6 N       -3.0080    -1.5770    -0.3280 N.am  1 <1>  -0.6600 
  7 C       -3.8560    -2.2440     0.5300 C.2   1 <1>   0.5690 
  8 O       -4.2990    -1.6810     1.5080 O.2   1 <1>  -0.5700 
  9 C       -4.2450    -3.7130     0.2730 C.3   1 <1>   0.2610 
 10 O       -3.1370    -4.5650     0.5120 O.3   1 <1>  -0.5600 
 11 C       -5.4970    -4.1440     1.0870 C.3   1 <1>   0.3640 
 12 C       -3.3720    -5.9210     0.2210 C.3   1 <1>   0.1810 
 13 N       -5.6110    -5.6230     1.3070 N.am  1 <1>  -0.6600 
 14 C       -6.7730    -3.5800     0.4350 C.ar  1 <1>  -0.1440 
 15 C       -4.6200    -6.4790     0.9070 C.2   1 <1>   0.5690 
 16 C       -6.7940    -6.0800     2.0910 C.3   1 <1>   0.0600 
 17 C       -7.3850    -4.1000    -0.7110 C.ar  1 <1>  -0.1440 
 18 C       -7.3360    -2.4640     1.0440 C.ar  1 <1>  -0.1500 
 19 O       -4.7010    -7.6760     1.0500 O.2   1 <1>  -0.5700 
 20 C       -8.5320    -3.4950    -1.2060 C.ar  1 <1>  -0.1500 
 21 C       -6.8790    -5.3260    -1.4670 C.3   1 <1>  -0.0970 
 22 C       -8.4770    -1.8690     0.5410 C.ar  1 <1>  -0.1500 
 23 C       -9.0780    -2.3860    -0.5880 C.ar  1 <1>  -0.1500 
 24 H       -0.1170    -2.8690    -1.6420 H     1 <1>   0.0800 
 25 H       -0.6950    -2.9770     0.0180 H     1 <1>   0.0800 
 26 H       -1.2310    -0.5730     1.4890 H     1 <1>   0.0800 
 27 H       -0.9860     0.9900     0.7150 H     1 <1>   0.0800 
 28 H       -2.5720    -3.2000    -1.6400 H     1 <1>   0.0800 
 29 H       -2.1830    -1.6310    -2.2710 H     1 <1>   0.0800 
 30 H       -2.6510     0.3850    -1.0280 H     1 <1>   0.0800 
 31 H       -3.3770     0.3210     0.5490 H     1 <1>   0.0800 
 32 H       -4.4860    -3.7890    -0.7690 H     1 <1>   0.0800 
 33 H       -5.4040    -3.7150     2.0700 H     1 <1>   0.0800 
 34 H       -3.4680    -6.0320    -0.8430 H     1 <1>   0.0800 
 35 H       -2.5140    -6.4770     0.5500 H     1 <1>   0.0800 
 36 H       -6.8390    -5.5500     3.0260 H     1 <1>   0.0800 
 37 H       -6.7320    -7.1350     2.2970 H     1 <1>   0.0800 
 38 H       -7.6980    -5.8930     1.5380 H     1 <1>   0.0800 
 39 H       -6.8840    -2.0380     1.9240 H     1 <1>   0.1500 
 40 H       -9.0180    -3.8860    -2.0820 H     1 <1>   0.1500 
 41 H       -7.3370    -5.3960    -2.4370 H     1 <1>   0.0800 
 42 H       -7.1240    -6.2190    -0.9200 H     1 <1>   0.0800 
 43 H       -5.8180    -5.2880    -1.6130 H     1 <1>   0.0800 
 44 H       -8.8940    -1.0050     1.0280 H     1 <1>   0.1500 
 45 H       -9.9670    -1.9290    -0.9850 H     1 <1>   0.1500 
@<TRIPOS>BOND
  1   1   2  1   
  2   1   3  1   
  3   2   4  1   
  4   2  24  1   
  5   2  25  1   
  6   3   5  1   
  7   3  26  1   
  8   3  27  1   
  9   4   6  1   
 10   4  28  1   
 11   4  29  1   
 12   5   6  1   
 13   5  30  1   
 14   5  31  1   
 15   6   7  am  
 16   7   8  2   
 17   7   9  1   
 18   9  10  1   
 19   9  11  1   
 20   9  32  1   
 21  10  12  1   
 22  11  13  1   
 23  11  14  1   
 24  11  33  1   
 25  12  15  1   
 26  12  34  1   
 27  12  35  1   
 28  13  15  am  
 29  13  16  1   
 30  14  17  ar  
 31  14  18  ar  
 32  15  19  2   
 33  16  36  1   
 34  16  37  1   
 35  16  38  1   
 36  17  20  ar  
 37  17  21  1   
 38  18  22  ar  
 39  18  39  1   
 40  20  23  ar  
 41  20  40  1   
 42  21  41  1   
 43  21  42  1   
 44  21  43  1   
 45  22  23  ar  
 46  22  44  1   
 47  23  45  1   
@<TRIPOS>SUBSTRUCTURE
  1 ****   9 GROUP 4 **** **** 0

# MOE 2024.06 (io_trps.svl 2023.06)
