@<TRIPOS>MOLECULE
NONAME
47 49 1 0 0 
SMALL
USER_CHARGES


@<TRIPOS>ATOM
  1 CL       2.2880     0.9960     2.2160 Cl    1 <1>  -0.1770 
  2 C        2.7060    -0.3180     1.1470 C.ar  1 <1>   0.1770 
  3 C        2.5070    -1.6190     1.5690 C.ar  1 <1>  -0.1500 
  4 C        3.2260    -0.0380    -0.1010 C.ar  1 <1>  -0.1500 
  5 C        2.8290    -2.6840     0.7360 C.ar  1 <1>  -0.1440 
  6 C        3.5500    -1.0880    -0.9390 C.ar  1 <1>  -0.1500 
  7 C        3.3590    -2.4000    -0.5280 C.ar  1 <1>   0.0830 
  8 C        2.5900    -4.0890     1.2860 C.3   1 <1>   0.4870 
  9 O        3.6590    -3.3560    -1.4320 O.3   1 <1>  -0.3630 
 10 N        1.7870    -4.9580     0.3850 N.4   1 <1>  -0.9590 
 11 C        4.8530    -4.1260    -1.2670 C.3   1 <1>   0.0140 
 12 C        0.7140    -4.3410    -0.4350 C.3   1 <1>   0.3430 
 13 C        1.2970    -6.2070     1.0050 C.3   1 <1>   0.3430 
 14 C        4.5290    -5.4870    -0.6850 C.2   1 <1>   0.9060 
 15 C       -0.4790    -5.3010    -0.3520 C.3   1 <1>   0.2000 
 16 C        0.0860    -6.6240     0.1700 C.3   1 <1>  -0.0800 
 17 O        3.6370    -6.1640    -1.2130 O.co2 1 <1>  -0.9000 
 18 O        4.9450    -5.7880     0.4340 O.co2 1 <1>  -0.9000 
 19 O       -1.3940    -4.8190     0.5790 O.3   1 <1>  -0.6800 
 20 C        0.4990    -7.5720    -0.9720 C.3   1 <1>  -0.0170 
 21 C        0.9960    -8.8930    -0.4040 C.ar  1 <1>  -0.1430 
 22 C        0.1270    -9.8760     0.0240 C.ar  1 <1>  -0.1500 
 23 C        2.3420    -9.1750    -0.2820 C.ar  1 <1>  -0.1500 
 24 C        0.6320   -11.0550     0.5480 C.ar  1 <1>   0.1600 
 25 C        2.7430   -10.3850     0.2580 C.ar  1 <1>   0.1600 
 26 N        1.9190   -11.3320     0.6810 N.ar  1 <1>  -0.6200 
 27 H        2.1040    -1.7780     2.5530 H     1 <1>   0.1500 
 28 H        3.3720     0.9830    -0.4080 H     1 <1>   0.1500 
 29 H        3.9510    -0.8990    -1.9190 H     1 <1>   0.1500 
 30 H        2.0710    -3.9960     2.2240 H     1 <1>   0.0800 
 31 H        3.5370    -4.5560     1.4990 H     1 <1>   0.0800 
 32 H        2.4860    -5.3150    -0.3150 H     1 <1>   0.4500 
 33 H        5.2960    -4.2610    -2.2340 H     1 <1>   0.0800 
 34 H        5.5340    -3.6010    -0.6240 H     1 <1>   0.0800 
 35 H        0.4420    -3.3640    -0.0720 H     1 <1>   0.0800 
 36 H        1.0570    -4.2600    -1.4530 H     1 <1>   0.0800 
 37 H        2.0690    -6.9620     1.0030 H     1 <1>   0.0800 
 38 H        0.9890    -6.0160     2.0190 H     1 <1>   0.0800 
 39 H       -0.9900    -5.3950    -1.2960 H     1 <1>   0.0800 
 40 H       -0.6350    -7.1370     0.7830 H     1 <1>   0.0800 
 41 H       -0.9990    -4.7350     1.4670 H     1 <1>   0.4000 
 42 H        1.2670    -7.1280    -1.5820 H     1 <1>   0.0800 
 43 H       -0.3470    -7.7660    -1.6080 H     1 <1>   0.0800 
 44 H       -0.9360    -9.7400    -0.0450 H     1 <1>   0.1500 
 45 H        3.0900    -8.4690    -0.6000 H     1 <1>   0.1500 
 46 H       -0.0600   -11.8120     0.8760 H     1 <1>   0.1500 
 47 H        3.7990   -10.5790     0.3450 H     1 <1>   0.1500 
@<TRIPOS>BOND
  1   1   2  1   
  2   2   3  ar  
  3   2   4  ar  
  4   3   5  ar  
  5   3  27  1   
  6   4   6  ar  
  7   4  28  1   
  8   5   7  ar  
  9   5   8  1   
 10   6   7  ar  
 11   6  29  1   
 12   7   9  1   
 13   8  10  1   
 14   8  30  1   
 15   8  31  1   
 16   9  11  1   
 17  10  12  1   
 18  10  13  1   
 19  10  32  1   
 20  11  14  1   
 21  11  33  1   
 22  11  34  1   
 23  12  15  1   
 24  12  35  1   
 25  12  36  1   
 26  13  16  1   
 27  13  37  1   
 28  13  38  1   
 29  14  17  ar  
 30  14  18  ar  
 31  15  16  1   
 32  15  19  1   
 33  15  39  1   
 34  16  20  1   
 35  16  40  1   
 36  19  41  1   
 37  20  21  1   
 38  20  42  1   
 39  20  43  1   
 40  21  22  ar  
 41  21  23  ar  
 42  22  24  ar  
 43  22  44  1   
 44  23  25  ar  
 45  23  45  1   
 46  24  26  ar  
 47  24  46  1   
 48  25  26  ar  
 49  25  47  1   
@<TRIPOS>SUBSTRUCTURE
  1 ****  10 GROUP 4 **** **** 0

# MOE 2024.06 (io_trps.svl 2023.06)
