@<TRIPOS>MOLECULE
NONAME
48 50 1 0 0 
SMALL
USER_CHARGES


@<TRIPOS>ATOM
  1 O       -0.8080     0.9140    -0.3190 O.2   1 <1>  -0.5700 
  2 C       -1.9090     1.3870    -0.2220 C.2   1 <1>   0.4230 
  3 C       -3.0870     0.5770    -0.0800 C.ar  1 <1>   0.0860 
  4 C       -2.0110     2.8960    -0.3290 C.3   1 <1>  -0.1790 
  5 C       -4.1550     0.8150     0.7810 C.ar  1 <1>   0.1660 
  6 C       -3.2130    -0.5620    -0.8590 C.ar  1 <1>   0.1600 
  7 N       -5.2210     0.0570     0.8030 N.ar  1 <1>  -0.6200 
  8 C       -4.1650     1.9550     1.7860 C.3   1 <1>  -0.0960 
  9 N       -4.2630    -1.3410    -0.8480 N.ar  1 <1>  -0.6200 
 10 C       -5.2420    -0.9940    -0.0170 C.ar  1 <1>   0.7200 
 11 N       -6.3580    -1.7780    -0.0020 N.pl3 1 <1>  -0.8380 
 12 C       -6.5140    -3.0120    -0.8070 C.3   1 <1>   0.2090 
 13 C       -7.4720    -1.6260     0.9580 C.3   1 <1>   0.2090 
 14 C       -7.9490    -3.4650    -0.5460 C.3   1 <1>   0.0630 
 15 C       -8.2850    -2.9130     0.8410 C.3   1 <1>  -0.1600 
 16 C       -8.2070    -4.9680    -0.7300 C.ar  1 <1>  -0.1430 
 17 C       -7.5540    -5.9620     0.0040 C.ar  1 <1>   0.0830 
 18 C       -9.1420    -5.3450    -1.6850 C.ar  1 <1>  -0.1500 
 19 O       -6.6360    -5.5760     0.9320 O.3   1 <1>  -0.3630 
 20 C       -7.8610    -7.3160    -0.2060 C.ar  1 <1>   0.0830 
 21 C       -9.4320    -6.6770    -1.9110 C.ar  1 <1>  -0.1500 
 22 C       -5.3330    -6.1150     0.8690 C.3   1 <1>   0.0400 
 23 O       -7.2470    -8.2670     0.5590 O.3   1 <1>  -0.3630 
 24 C       -8.7970    -7.6600    -1.1760 C.ar  1 <1>  -0.1500 
 25 C       -7.7130    -9.5980     0.6050 C.3   1 <1>   0.0400 
 26 H       -3.0050     3.1960    -0.6030 H     1 <1>   0.0800 
 27 H       -1.3310     3.2440    -1.0860 H     1 <1>   0.0800 
 28 H       -1.7380     3.3480     0.6060 H     1 <1>   0.0800 
 29 H       -2.4030    -0.8240    -1.5200 H     1 <1>   0.1500 
 30 H       -3.1800     2.1350     2.1740 H     1 <1>   0.0800 
 31 H       -4.8030     1.7060     2.6160 H     1 <1>   0.0800 
 32 H       -4.5450     2.8480     1.3260 H     1 <1>   0.0800 
 33 H       -5.7990    -3.7400    -0.4720 H     1 <1>   0.0800 
 34 H       -6.3520    -2.8120    -1.8520 H     1 <1>   0.0800 
 35 H       -8.0650    -0.7730     0.6730 H     1 <1>   0.0800 
 36 H       -7.1000    -1.4880     1.9600 H     1 <1>   0.0800 
 37 H       -8.5550    -2.9230    -1.2500 H     1 <1>   0.0800 
 38 H       -9.3370    -2.7320     0.9580 H     1 <1>   0.0800 
 39 H       -7.9660    -3.5890     1.6120 H     1 <1>   0.0800 
 40 H       -9.6570    -4.6010    -2.2660 H     1 <1>   0.1500 
 41 H      -10.1560    -6.9490    -2.6590 H     1 <1>   0.1500 
 42 H       -4.6560    -5.4040     1.3070 H     1 <1>   0.0800 
 43 H       -5.0710    -6.2890    -0.1600 H     1 <1>   0.0800 
 44 H       -5.3070    -7.0330     1.4270 H     1 <1>   0.0800 
 45 H       -9.0470    -8.6830    -1.3770 H     1 <1>   0.1500 
 46 H       -7.1540   -10.1200     1.3600 H     1 <1>   0.0800 
 47 H       -7.5510   -10.0590    -0.3530 H     1 <1>   0.0800 
 48 H       -8.7580    -9.5930     0.8620 H     1 <1>   0.0800 
@<TRIPOS>BOND
  1   1   2  2   
  2   2   3  1   
  3   2   4  1   
  4   3   5  ar  
  5   3   6  ar  
  6   4  26  1   
  7   4  27  1   
  8   4  28  1   
  9   5   7  ar  
 10   5   8  1   
 11   6   9  ar  
 12   6  29  1   
 13   7  10  ar  
 14   8  30  1   
 15   8  31  1   
 16   8  32  1   
 17   9  10  ar  
 18  10  11  1   
 19  11  12  1   
 20  11  13  1   
 21  12  14  1   
 22  12  33  1   
 23  12  34  1   
 24  13  15  1   
 25  13  35  1   
 26  13  36  1   
 27  14  15  1   
 28  14  16  1   
 29  14  37  1   
 30  15  38  1   
 31  15  39  1   
 32  16  17  ar  
 33  16  18  ar  
 34  17  19  1   
 35  17  20  ar  
 36  18  21  ar  
 37  18  40  1   
 38  19  22  1   
 39  20  23  1   
 40  20  24  ar  
 41  21  24  ar  
 42  21  41  1   
 43  22  42  1   
 44  22  43  1   
 45  22  44  1   
 46  23  25  1   
 47  24  45  1   
 48  25  46  1   
 49  25  47  1   
 50  25  48  1   
@<TRIPOS>SUBSTRUCTURE
  1 ****  12 GROUP 4 **** **** 0

# MOE 2024.06 (io_trps.svl 2023.06)
