@<TRIPOS>MOLECULE
NONAME
49 51 1 0 0 
SMALL
USER_CHARGES


@<TRIPOS>ATOM
  1 S       -1.7070    -0.4740    -2.4240 S.o2  1 <1>   1.2040 
  2 O       -1.0610    -1.4870    -3.2270 O.2   1 <1>  -0.6500 
  3 O       -2.5480     0.5200    -3.0540 O.2   1 <1>  -0.6500 
  4 C       -2.6120    -1.2630    -1.0700 C.ar  1 <1>  -0.0090 
  5 C       -0.4250     0.4020    -1.5510 C.3   1 <1>  -0.1350 
  6 C       -3.7010    -0.6400    -0.4730 C.ar  1 <1>  -0.1500 
  7 C       -2.2210    -2.4990    -0.5700 C.ar  1 <1>  -0.1500 
  8 C       -4.3770    -1.2270     0.5820 C.ar  1 <1>  -0.1500 
  9 C       -2.8910    -3.0920     0.4850 C.ar  1 <1>  -0.1500 
 10 C       -3.9780    -2.4620     1.0660 C.ar  1 <1>  -0.1430 
 11 C       -4.7280    -3.1230     2.2220 C.3   1 <1>   0.0440 
 12 C       -5.0720    -4.5870     1.9740 C.2   1 <1>   0.5690 
 13 O       -4.6610    -5.4040     2.7640 O.2   1 <1>  -0.5700 
 14 N       -5.8330    -4.9620     0.9000 N.am  1 <1>  -0.6600 
 15 C       -6.3840    -4.0790    -0.1590 C.3   1 <1>   0.1400 
 16 C       -6.1470    -6.3810     0.5940 C.3   1 <1>   0.1400 
 17 C       -7.4730    -4.9220    -0.8190 C.3   1 <1>   0.2000 
 18 C       -6.9190    -6.3470    -0.7300 C.3   1 <1>  -0.0800 
 19 O       -8.6200    -4.8180    -0.0450 O.3   1 <1>  -0.6800 
 20 C       -7.9580    -7.4740    -0.8730 C.3   1 <1>   0.0210 
 21 C       -7.2980    -8.8340    -0.7580 C.2   1 <1>   0.1080 
 22 N       -6.4190    -9.2650    -1.6080 N.2   1 <1>  -0.7070 
 23 C       -7.5430    -9.7540     0.2570 C.2   1 <1>  -0.1500 
 24 N       -6.0770   -10.4850    -1.1550 N.pl3 1 <1>   0.3000 
 25 C       -6.7440   -10.8030    -0.0250 C.2   1 <1>  -0.3320 
 26 C       -6.5720   -12.1100     0.7270 C.3   1 <1>  -0.0600 
 27 H        0.1860    -0.2840    -0.9970 H     1 <1>   0.0800 
 28 H       -0.8530     1.1130    -0.8720 H     1 <1>   0.0800 
 29 H        0.1990     0.9280    -2.2480 H     1 <1>   0.0800 
 30 H       -4.0280     0.3190    -0.8420 H     1 <1>   0.1500 
 31 H       -1.3820    -3.0090    -1.0150 H     1 <1>   0.1500 
 32 H       -5.2170    -0.7150     1.0190 H     1 <1>   0.1500 
 33 H       -2.5630    -4.0530     0.8480 H     1 <1>   0.1500 
 34 H       -5.6410    -2.5980     2.4250 H     1 <1>   0.0800 
 35 H       -4.1180    -3.0610     3.1050 H     1 <1>   0.0800 
 36 H       -6.7790    -3.1600     0.2380 H     1 <1>   0.0800 
 37 H       -5.6080    -3.8610    -0.8720 H     1 <1>   0.0800 
 38 H       -5.2440    -6.9620     0.5040 H     1 <1>   0.0800 
 39 H       -6.7500    -6.7880     1.3880 H     1 <1>   0.0800 
 40 H       -7.7030    -4.6110    -1.8240 H     1 <1>   0.0800 
 41 H       -6.1960    -6.4650    -1.5180 H     1 <1>   0.0800 
 42 H       -8.3800    -4.9970     0.8870 H     1 <1>   0.4000 
 43 H       -8.4350    -7.4030    -1.8340 H     1 <1>   0.0800 
 44 H       -8.7190    -7.3890    -0.1190 H     1 <1>   0.0800 
 45 H       -8.2270    -9.6280     1.0770 H     1 <1>   0.1500 
 46 H       -5.3880   -11.0740    -1.6370 H     1 <1>   0.2700 
 47 H       -7.2100   -12.1240     1.5930 H     1 <1>   0.0800 
 48 H       -5.5530   -12.2220     1.0520 H     1 <1>   0.0800 
 49 H       -6.8330   -12.9400     0.0960 H     1 <1>   0.0800 
@<TRIPOS>BOND
  1   1   2  2   
  2   1   3  2   
  3   1   4  1   
  4   1   5  1   
  5   4   6  ar  
  6   4   7  ar  
  7   5  27  1   
  8   5  28  1   
  9   5  29  1   
 10   6   8  ar  
 11   6  30  1   
 12   7   9  ar  
 13   7  31  1   
 14   8  10  ar  
 15   8  32  1   
 16   9  10  ar  
 17   9  33  1   
 18  10  11  1   
 19  11  12  1   
 20  11  34  1   
 21  11  35  1   
 22  12  13  2   
 23  12  14  am  
 24  14  15  1   
 25  14  16  1   
 26  15  17  1   
 27  15  36  1   
 28  15  37  1   
 29  16  18  1   
 30  16  38  1   
 31  16  39  1   
 32  17  18  1   
 33  17  19  1   
 34  17  40  1   
 35  18  20  1   
 36  18  41  1   
 37  19  42  1   
 38  20  21  1   
 39  20  43  1   
 40  20  44  1   
 41  21  22  2   
 42  21  23  1   
 43  22  24  1   
 44  23  25  2   
 45  23  45  1   
 46  24  25  1   
 47  24  46  1   
 48  25  26  1   
 49  26  47  1   
 50  26  48  1   
 51  26  49  1   
@<TRIPOS>SUBSTRUCTURE
  1 ****  14 GROUP 4 **** **** 0

# MOE 2024.06 (io_trps.svl 2023.06)
