@<TRIPOS>MOLECULE
NONAME
56 59 1 0 0 
SMALL
USER_CHARGES


@<TRIPOS>ATOM
  1 O        0.3450    -0.2850     0.6210 O.3   1 <1>  -0.5600 
  2 C        1.6320    -0.7060     0.2500 C.3   1 <1>   0.4240 
  3 C       -0.7440    -0.8760    -0.0280 C.3   1 <1>   0.1200 
  4 C        1.6950    -2.2040    -0.0920 C.ar  1 <1>  -0.1440 
  5 C        2.5060    -0.4100     1.4710 C.3   1 <1>  -0.1600 
  6 C        2.0710     0.1620    -0.9350 C.3   1 <1>  -0.1600 
  7 C       -0.7740    -2.3680     0.2960 C.3   1 <1>  -0.0160 
  8 C        0.5570    -2.9960    -0.0670 C.ar  1 <1>  -0.1440 
  9 C        2.9010    -2.7980    -0.4380 C.ar  1 <1>  -0.1500 
 10 C        2.4570     1.0750     1.8210 C.3   1 <1>   0.3430 
 11 C        2.0460     1.6420    -0.5560 C.3   1 <1>   0.3430 
 12 C        0.6320    -4.3450    -0.3710 C.ar  1 <1>  -0.1500 
 13 C        3.0000    -4.1430    -0.7480 C.ar  1 <1>   0.0830 
 14 N        2.8860     1.8990     0.6540 N.4   1 <1>  -0.9590 
 15 C        1.8430    -4.9420    -0.7160 C.ar  1 <1>   0.0830 
 16 O        4.2710    -4.5370    -1.0580 O.3   1 <1>  -0.3630 
 17 C        4.3500     1.8430     0.3710 C.3   1 <1>   0.5230 
 18 O        1.9090    -6.2720    -1.0200 O.3   1 <1>  -0.3630 
 19 C        4.6280    -5.8750    -1.3220 C.3   1 <1>   0.0400 
 20 C        4.7370     3.1010    -0.3850 C.2   1 <1>   0.0060 
 21 C        0.7810    -7.1180    -0.9830 C.3   1 <1>   0.0400 
 22 N        4.0450     4.1900    -0.3800 N.2   1 <1>  -0.5650 
 23 N        5.8400     3.2240    -1.1380 N.pl3 1 <1>   0.3140 
 24 C        4.7860     4.9800    -1.1690 C.2   1 <1>   0.3660 
 25 N        5.8590     4.4440    -1.6460 N.2   1 <1>  -0.7070 
 26 C        6.9170     2.2500    -1.4370 C.3   1 <1>   0.0960 
 27 C        7.8460     2.0480    -0.2320 C.3   1 <1>  -0.2400 
 28 H       -0.6550    -0.7170    -1.0890 H     1 <1>   0.0800 
 29 H       -1.6420    -0.3990     0.3250 H     1 <1>   0.0800 
 30 H        3.5210    -0.7150     1.3020 H     1 <1>   0.0800 
 31 H        2.1380    -0.9850     2.3030 H     1 <1>   0.0800 
 32 H        1.4120    -0.0070    -1.7670 H     1 <1>   0.0800 
 33 H        3.0540    -0.1150    -1.2610 H     1 <1>   0.0800 
 34 H       -1.5690    -2.8340    -0.2590 H     1 <1>   0.0800 
 35 H       -0.9690    -2.5060     1.3450 H     1 <1>   0.0800 
 36 H        3.8070    -2.2250    -0.4740 H     1 <1>   0.1500 
 37 H        3.0840     1.2760     2.6740 H     1 <1>   0.0800 
 38 H        1.4420     1.3320     2.0840 H     1 <1>   0.0800 
 39 H        1.0260     1.9240    -0.3430 H     1 <1>   0.0800 
 40 H        2.3900     2.2440    -1.3820 H     1 <1>   0.0800 
 41 H       -0.2730    -4.9190    -0.3340 H     1 <1>   0.1500 
 42 H        2.7430     2.9020     0.8730 H     1 <1>   0.4500 
 43 H        4.5910     0.9650    -0.2030 H     1 <1>   0.0800 
 44 H        4.9000     1.8160     1.2970 H     1 <1>   0.0800 
 45 H        5.6890    -5.9130    -1.4860 H     1 <1>   0.0800 
 46 H        4.1100    -6.2060    -2.2040 H     1 <1>   0.0800 
 47 H        4.3670    -6.4800    -0.4720 H     1 <1>   0.0800 
 48 H        1.1000    -8.1090    -1.2520 H     1 <1>   0.0800 
 49 H        0.0550    -6.7650    -1.6930 H     1 <1>   0.0800 
 50 H        0.3800    -7.1230     0.0150 H     1 <1>   0.0800 
 51 H        4.4880     5.9960    -1.3820 H     1 <1>   0.1500 
 52 H        7.4870     2.6300    -2.2670 H     1 <1>   0.0800 
 53 H        6.4750     1.3170    -1.7360 H     1 <1>   0.0800 
 54 H        8.2870     2.9880     0.0540 H     1 <1>   0.0800 
 55 H        8.6420     1.3760    -0.5010 H     1 <1>   0.0800 
 56 H        7.3210     1.6300     0.6070 H     1 <1>   0.0800 
@<TRIPOS>BOND
  1   1   2  1   
  2   1   3  1   
  3   2   4  1   
  4   2   5  1   
  5   2   6  1   
  6   3   7  1   
  7   3  28  1   
  8   3  29  1   
  9   4   8  ar  
 10   4   9  ar  
 11   5  10  1   
 12   5  30  1   
 13   5  31  1   
 14   6  11  1   
 15   6  32  1   
 16   6  33  1   
 17   7   8  1   
 18   7  34  1   
 19   7  35  1   
 20   8  12  ar  
 21   9  13  ar  
 22   9  36  1   
 23  10  14  1   
 24  10  37  1   
 25  10  38  1   
 26  11  14  1   
 27  11  39  1   
 28  11  40  1   
 29  12  15  ar  
 30  12  41  1   
 31  13  15  ar  
 32  13  16  1   
 33  14  17  1   
 34  14  42  1   
 35  15  18  1   
 36  16  19  1   
 37  17  20  1   
 38  17  43  1   
 39  17  44  1   
 40  18  21  1   
 41  19  45  1   
 42  19  46  1   
 43  19  47  1   
 44  20  22  2   
 45  20  23  1   
 46  21  48  1   
 47  21  49  1   
 48  21  50  1   
 49  22  24  1   
 50  23  25  1   
 51  23  26  1   
 52  24  25  2   
 53  24  51  1   
 54  26  27  1   
 55  26  52  1   
 56  26  53  1   
 57  27  54  1   
 58  27  55  1   
 59  27  56  1   
@<TRIPOS>SUBSTRUCTURE
  1 ****   6 GROUP 4 **** **** 0

# MOE 2024.06 (io_trps.svl 2023.06)
