@<TRIPOS>MOLECULE
NONAME
47 49 1 0 0 
SMALL
USER_CHARGES


@<TRIPOS>ATOM
  1 S        1.1760     0.9660     1.5940 S.o2  1 <1>   1.3330 
  2 O        0.2960     0.0830     2.3230 O.2   1 <1>  -0.6500 
  3 O        2.3260     1.5420     2.2580 O.2   1 <1>  -0.6500 
  4 N        1.7170     0.1440     0.2200 N.am  1 <1>  -0.8490 
  5 C        0.1830     2.2660     0.8910 C.3   1 <1>  -0.1350 
  6 C        3.0770     0.4880    -0.2320 C.3   1 <1>   0.3370 
  7 C        1.7010    -1.3050     0.3560 C.3   1 <1>   0.1960 
  8 C        3.2930     1.9370    -0.7490 C.2   1 <1>   0.5690 
  9 C        3.3820    -0.6090    -1.2540 C.3   1 <1>  -0.1600 
 10 C        2.5980    -1.8270    -0.7640 C.3   1 <1>  -0.1600 
 11 O        3.2590     2.1850    -1.9330 O.2   1 <1>  -0.5700 
 12 N        3.5360     2.9270     0.1550 N.am  1 <1>  -0.7300 
 13 C        3.7530     4.3550    -0.1750 C.3   1 <1>   0.1400 
 14 C        5.2500     4.6540    -0.2520 C.3   1 <1>   0.0210 
 15 C        5.4790     6.1160    -0.5850 C.2   1 <1>  -0.1810 
 16 C        5.2590     6.7290    -1.8130 C.2   1 <1>   0.1390 
 17 C        5.9260     7.1080     0.2100 C.2   1 <1>  -0.3020 
 18 N        5.5390     7.9940    -1.7860 N.2   1 <1>  -0.7070 
 19 N        5.9690     8.2510    -0.5220 N.pl3 1 <1>   0.5930 
 20 C        6.3740     9.5420    -0.0720 C.ar  1 <1>  -0.0230 
 21 C        7.3560     9.6900     0.9060 C.ar  1 <1>  -0.1500 
 22 C        5.7920    10.6910    -0.6020 C.ar  1 <1>  -0.1500 
 23 C        7.7350    10.9450     1.3460 C.ar  1 <1>  -0.1500 
 24 C        6.1700    11.9480    -0.1630 C.ar  1 <1>  -0.1500 
 25 C        7.1420    12.0760     0.8130 C.ar  1 <1>  -0.1500 
 26 H       -0.6170     1.8440     0.3160 H     1 <1>   0.0800 
 27 H        0.7730     2.8880     0.2480 H     1 <1>   0.0800 
 28 H       -0.2360     2.8710     1.6700 H     1 <1>   0.0800 
 29 H        3.7520     0.3440     0.5950 H     1 <1>   0.0800 
 30 H        2.1100    -1.5890     1.3130 H     1 <1>   0.0800 
 31 H        0.6950    -1.6840     0.2750 H     1 <1>   0.0800 
 32 H        3.0170    -0.3160    -2.2230 H     1 <1>   0.0800 
 33 H        4.4380    -0.7960    -1.3220 H     1 <1>   0.0800 
 34 H        3.2510    -2.5950    -0.3870 H     1 <1>   0.0800 
 35 H        2.0010    -2.2370    -1.5590 H     1 <1>   0.0800 
 36 H        3.4700     2.6930     1.1590 H     1 <1>   0.3700 
 37 H        3.2920     4.5820    -1.1220 H     1 <1>   0.0800 
 38 H        3.2930     4.9710     0.5790 H     1 <1>   0.0800 
 39 H        5.7120     4.4280     0.6920 H     1 <1>   0.0800 
 40 H        5.7000     4.0430    -1.0140 H     1 <1>   0.0800 
 41 H        4.8960     6.2210    -2.6920 H     1 <1>   0.1500 
 42 H        6.2110     7.0800     1.2440 H     1 <1>   0.1500 
 43 H        7.8340     8.8220     1.3250 H     1 <1>   0.1500 
 44 H        5.0380    10.5980    -1.3660 H     1 <1>   0.1500 
 45 H        8.4940    11.0450     2.1030 H     1 <1>   0.1500 
 46 H        5.7100    12.8250    -0.5830 H     1 <1>   0.1500 
 47 H        7.4360    13.0530     1.1550 H     1 <1>   0.1500 
@<TRIPOS>BOND
  1   1   2  2   
  2   1   3  2   
  3   1   4  am  
  4   1   5  1   
  5   4   6  1   
  6   4   7  1   
  7   5  26  1   
  8   5  27  1   
  9   5  28  1   
 10   6   8  1   
 11   6   9  1   
 12   6  29  1   
 13   7  10  1   
 14   7  30  1   
 15   7  31  1   
 16   8  11  2   
 17   8  12  am  
 18   9  10  1   
 19   9  32  1   
 20   9  33  1   
 21  10  34  1   
 22  10  35  1   
 23  12  13  1   
 24  12  36  1   
 25  13  14  1   
 26  13  37  1   
 27  13  38  1   
 28  14  15  1   
 29  14  39  1   
 30  14  40  1   
 31  15  16  1   
 32  15  17  2   
 33  16  18  2   
 34  16  41  1   
 35  17  19  1   
 36  17  42  1   
 37  18  19  1   
 38  19  20  1   
 39  20  21  ar  
 40  20  22  ar  
 41  21  23  ar  
 42  21  43  1   
 43  22  24  ar  
 44  22  44  1   
 45  23  25  ar  
 46  23  45  1   
 47  24  25  ar  
 48  24  46  1   
 49  25  47  1   
@<TRIPOS>SUBSTRUCTURE
  1 ****  13 GROUP 4 **** **** 0

# MOE 2024.06 (io_trps.svl 2023.06)
