@<TRIPOS>MOLECULE
NONAME
51 53 1 0 0 
SMALL
USER_CHARGES


@<TRIPOS>ATOM
  1 F       -1.2690    -1.1910     2.3660 F     1 <1>  -0.1900 
  2 C       -1.4080    -2.3220     1.7210 C.ar  1 <1>   0.1900 
  3 C       -0.6650    -2.6190     0.5730 C.ar  1 <1>   0.0830 
  4 C       -2.3280    -3.2140     2.2340 C.ar  1 <1>  -0.1500 
  5 O        0.2670    -1.8240    -0.0290 O.3   1 <1>  -0.3630 
  6 C       -0.8830    -3.8450    -0.0340 C.ar  1 <1>  -0.1500 
  7 C       -2.5200    -4.4290     1.6010 C.ar  1 <1>  -0.1500 
  8 C        0.5790    -0.5250     0.4230 C.3   1 <1>   0.0400 
  9 C       -1.8050    -4.7780     0.4520 C.ar  1 <1>   0.0530 
 10 C       -1.9970    -6.0470    -0.2160 C.2   1 <1>   0.0870 
 11 O       -1.2960    -6.3380    -1.2920 O.3   1 <1>  -0.0190 
 12 C       -2.8060    -7.1160     0.0060 C.2   1 <1>  -0.2330 
 13 N       -1.5850    -7.5120    -1.7960 N.2   1 <1>  -0.4100 
 14 C       -2.4770    -7.9970    -1.0150 C.2   1 <1>   0.3720 
 15 C       -3.8540    -7.4260     0.9160 C.2   1 <1>   1.0330 
 16 N       -3.1010    -9.2260    -1.1770 N.pl3 1 <1>  -0.8520 
 17 O       -4.8500    -6.6940     1.0120 O.co2 1 <1>  -0.9000 
 18 O       -3.9290    -8.5590     1.4260 O.co2 1 <1>  -0.9000 
 19 C       -4.2330    -9.1730    -2.1460 C.3   1 <1>   0.2090 
 20 C       -5.5650    -8.6660    -1.5160 C.3   1 <1>   0.4230 
 21 N       -6.2980    -9.6230    -0.6180 N.4   1 <1>  -0.9590 
 22 C       -6.5500    -8.2730    -2.6140 C.3   1 <1>  -0.2400 
 23 C       -6.8960    -8.8520     0.5170 C.3   1 <1>   0.3430 
 24 C       -5.4950   -10.7500    -0.0530 C.3   1 <1>   0.3430 
 25 C       -7.8920    -9.7440     1.2610 C.3   1 <1>  -0.1600 
 26 C       -6.4320   -11.7200     0.6710 C.3   1 <1>  -0.1600 
 27 C       -7.2090   -11.0120     1.7900 C.3   1 <1>  -0.1600 
 28 H       -2.8900    -2.9630     3.1160 H     1 <1>   0.1500 
 29 H       -0.3120    -4.0750    -0.9150 H     1 <1>   0.1500 
 30 H       -3.2430    -5.1090     2.0150 H     1 <1>   0.1500 
 31 H        1.3190    -0.1110    -0.2380 H     1 <1>   0.0800 
 32 H        0.9770    -0.5880     1.4200 H     1 <1>   0.0800 
 33 H       -0.3110     0.0780     0.3980 H     1 <1>   0.0800 
 34 H       -3.4420    -9.4570    -0.2240 H     1 <1>   0.4000 
 35 H       -4.3760   -10.1430    -2.5870 H     1 <1>   0.0800 
 36 H       -3.9540    -8.5040    -2.9430 H     1 <1>   0.0800 
 37 H       -5.3320    -7.7720    -0.9620 H     1 <1>   0.0800 
 38 H       -7.0680   -10.0280    -1.1510 H     1 <1>   0.4500 
 39 H       -6.8030    -9.1180    -3.2280 H     1 <1>   0.0800 
 40 H       -6.1050    -7.5210    -3.2420 H     1 <1>   0.0800 
 41 H       -7.4430    -7.8500    -2.1890 H     1 <1>   0.0800 
 42 H       -7.3910    -7.9660     0.1540 H     1 <1>   0.0800 
 43 H       -6.1260    -8.5420     1.2020 H     1 <1>   0.0800 
 44 H       -4.7700   -10.3750     0.6490 H     1 <1>   0.0800 
 45 H       -4.9710   -11.2710    -0.8360 H     1 <1>   0.0800 
 46 H       -8.7070    -9.9990     0.6080 H     1 <1>   0.0800 
 47 H       -8.2970    -9.1880     2.0890 H     1 <1>   0.0800 
 48 H       -5.8450   -12.5150     1.0980 H     1 <1>   0.0800 
 49 H       -7.1120   -12.1600    -0.0360 H     1 <1>   0.0800 
 50 H       -7.9400   -11.6790     2.2160 H     1 <1>   0.0800 
 51 H       -6.5190   -10.7340     2.5720 H     1 <1>   0.0800 
@<TRIPOS>BOND
  1   1   2  1   
  2   2   3  ar  
  3   2   4  ar  
  4   3   5  1   
  5   3   6  ar  
  6   4   7  ar  
  7   4  28  1   
  8   5   8  1   
  9   6   9  ar  
 10   6  29  1   
 11   7   9  ar  
 12   7  30  1   
 13   8  31  1   
 14   8  32  1   
 15   8  33  1   
 16   9  10  1   
 17  10  11  1   
 18  10  12  2   
 19  11  13  1   
 20  12  14  1   
 21  12  15  1   
 22  13  14  2   
 23  14  16  1   
 24  15  17  ar  
 25  15  18  ar  
 26  16  19  1   
 27  16  34  1   
 28  19  20  1   
 29  19  35  1   
 30  19  36  1   
 31  20  21  1   
 32  20  22  1   
 33  20  37  1   
 34  21  23  1   
 35  21  24  1   
 36  21  38  1   
 37  22  39  1   
 38  22  40  1   
 39  22  41  1   
 40  23  25  1   
 41  23  42  1   
 42  23  43  1   
 43  24  26  1   
 44  24  44  1   
 45  24  45  1   
 46  25  27  1   
 47  25  46  1   
 48  25  47  1   
 49  26  27  1   
 50  26  48  1   
 51  26  49  1   
 52  27  50  1   
 53  27  51  1   
@<TRIPOS>SUBSTRUCTURE
  1 ****  12 GROUP 4 **** **** 0

# MOE 2024.06 (io_trps.svl 2023.06)
