@<TRIPOS>MOLECULE
NONAME
54 57 1 0 0 
SMALL
USER_CHARGES


@<TRIPOS>ATOM
  1 O       -2.3140     4.2030    -2.2940 O.2   1 <1>  -0.5700 
  2 C       -2.0870     3.7540    -1.1850 C.2   1 <1>   0.5440 
  3 N       -3.0460     2.9640    -0.5730 N.am  1 <1>  -0.6600 
  4 C       -0.8380     4.0880    -0.5330 C.ar  1 <1>   0.0860 
  5 C       -4.2120     2.4760    -1.3680 C.3   1 <1>   0.2200 
  6 C       -2.9800     2.6480     0.8870 C.3   1 <1>   0.0600 
  7 C        0.1220     3.0860    -0.2070 C.ar  1 <1>   0.0000 
  8 C       -0.5760     5.4010    -0.2060 C.ar  1 <1>  -0.1500 
  9 C       -5.4510     3.3320    -1.1510 C.3   1 <1>  -0.1600 
 10 C       -4.6800     1.0600    -1.0390 C.3   1 <1>  -0.1600 
 11 C        1.2860     3.4570     0.5050 C.ar  1 <1>   0.0000 
 12 C       -0.0220     1.7260    -0.5670 C.ar  1 <1>  -0.1500 
 13 C        0.5840     5.7670     0.4760 C.ar  1 <1>  -0.1500 
 14 C       -6.6090     2.4590    -1.6560 C.3   1 <1>  -0.0800 
 15 C       -6.1160     1.0030    -1.5840 C.3   1 <1>  -0.0800 
 16 C        1.4920     4.8100     0.8310 C.ar  1 <1>  -0.1500 
 17 C        2.2200     2.4630     0.8630 C.ar  1 <1>  -0.1500 
 18 C        0.9040     0.7840    -0.2140 C.ar  1 <1>  -0.1500 
 19 C       -7.8680     2.5420    -0.7850 C.3   1 <1>  -0.1600 
 20 C       -7.0960     0.2560    -0.6690 C.3   1 <1>  -0.1600 
 21 C        2.0360     1.1550     0.5150 C.ar  1 <1>  -0.1500 
 22 C       -7.7470     1.3540     0.1670 C.3   1 <1>   0.4230 
 23 N       -9.0330     0.9250     0.7990 N.4   1 <1>  -0.9590 
 24 C      -10.1330     0.5750    -0.1600 C.3   1 <1>   0.2630 
 25 C       -9.5110     1.9560     1.7710 C.3   1 <1>   0.2630 
 26 H       -3.9680     2.5000    -2.4180 H     1 <1>   0.0800 
 27 H       -3.9560     2.7290     1.3300 H     1 <1>   0.0800 
 28 H       -2.3260     3.3320     1.3990 H     1 <1>   0.0800 
 29 H       -2.6080     1.6480     1.0250 H     1 <1>   0.0800 
 30 H       -1.2830     6.1650    -0.4780 H     1 <1>   0.1500 
 31 H       -5.5620     3.5530    -0.1060 H     1 <1>   0.0800 
 32 H       -5.3770     4.2510    -1.7060 H     1 <1>   0.0800 
 33 H       -4.0500     0.3290    -1.5130 H     1 <1>   0.0800 
 34 H       -4.6850     0.8950     0.0210 H     1 <1>   0.0800 
 35 H       -0.8820     1.4250    -1.1380 H     1 <1>   0.1500 
 36 H        0.7490     6.8040     0.7170 H     1 <1>   0.1500 
 37 H       -6.8330     2.7230    -2.6780 H     1 <1>   0.0800 
 38 H       -6.1060     0.5670    -2.5700 H     1 <1>   0.0800 
 39 H        2.3860     5.0820     1.3630 H     1 <1>   0.1500 
 40 H        3.0930     2.7560     1.4180 H     1 <1>   0.1500 
 41 H        0.7770    -0.2480    -0.4940 H     1 <1>   0.1500 
 42 H       -8.7200     2.4390    -1.4300 H     1 <1>   0.0800 
 43 H       -7.9290     3.4800    -0.2610 H     1 <1>   0.0800 
 44 H       -6.5980    -0.4760    -0.0590 H     1 <1>   0.0800 
 45 H       -7.8180    -0.2350    -1.2940 H     1 <1>   0.0800 
 46 H        2.7540     0.4010     0.7900 H     1 <1>   0.1500 
 47 H       -7.0450     1.6260     0.9400 H     1 <1>   0.0800 
 48 H       -8.8130     0.0720     1.3350 H     1 <1>   0.4500 
 49 H      -10.4210     1.4390    -0.7360 H     1 <1>   0.0800 
 50 H      -10.9980     0.2230     0.3790 H     1 <1>   0.0800 
 51 H       -9.8170    -0.2020    -0.8360 H     1 <1>   0.0800 
 52 H       -9.7560     2.8710     1.2550 H     1 <1>   0.0800 
 53 H       -8.7470     2.1670     2.5010 H     1 <1>   0.0800 
 54 H      -10.3910     1.6070     2.2870 H     1 <1>   0.0800 
@<TRIPOS>BOND
  1   1   2  2   
  2   2   3  am  
  3   2   4  1   
  4   3   5  1   
  5   3   6  1   
  6   4   7  ar  
  7   4   8  ar  
  8   5   9  1   
  9   5  10  1   
 10   5  26  1   
 11   6  27  1   
 12   6  28  1   
 13   6  29  1   
 14   7  11  ar  
 15   7  12  ar  
 16   8  13  ar  
 17   8  30  1   
 18   9  14  1   
 19   9  31  1   
 20   9  32  1   
 21  10  15  1   
 22  10  33  1   
 23  10  34  1   
 24  11  16  ar  
 25  11  17  ar  
 26  12  18  ar  
 27  12  35  1   
 28  13  16  ar  
 29  13  36  1   
 30  14  15  1   
 31  14  19  1   
 32  14  37  1   
 33  15  20  1   
 34  15  38  1   
 35  16  39  1   
 36  17  21  ar  
 37  17  40  1   
 38  18  21  ar  
 39  18  41  1   
 40  19  22  1   
 41  19  42  1   
 42  19  43  1   
 43  20  22  1   
 44  20  44  1   
 45  20  45  1   
 46  21  46  1   
 47  22  23  1   
 48  22  47  1   
 49  23  24  1   
 50  23  25  1   
 51  23  48  1   
 52  24  49  1   
 53  24  50  1   
 54  24  51  1   
 55  25  52  1   
 56  25  53  1   
 57  25  54  1   
@<TRIPOS>SUBSTRUCTURE
  1 ****   3 GROUP 4 **** **** 0

# MOE 2024.06 (io_trps.svl 2023.06)
