@<TRIPOS>MOLECULE
NONAME
47 50 1 0 0 
SMALL
USER_CHARGES


@<TRIPOS>ATOM
  1 O       -0.3290     2.3950     2.8420 O.2   1 <1>  -0.5700 
  2 C       -0.0340     2.9360     1.7890 C.2   1 <1>   0.5440 
  3 N       -1.0460     3.5870     1.1000 N.am  1 <1>  -0.6600 
  4 C        1.3570     2.8770     1.3380 C.ar  1 <1>   0.3960 
  5 C       -2.4840     3.2430     1.3110 C.3   1 <1>   0.1400 
  6 C       -0.8300     4.5880     0.0210 C.3   1 <1>   0.1400 
  7 N        1.6820     2.7770     0.0650 N.ar  1 <1>  -0.6200 
  8 C        2.3580     2.9180     2.3440 C.ar  1 <1>   0.1600 
  9 C       -3.1140     2.6670     0.0190 C.3   1 <1>   0.0000 
 10 C       -1.3990     4.0470    -1.2930 C.3   1 <1>  -0.1600 
 11 C        3.0110     2.7240    -0.1920 C.ar  1 <1>   0.3100 
 12 N        3.6390     2.8810     2.1420 N.ar  1 <1>  -0.6200 
 13 C       -4.6040     2.3720     0.2860 C.3   1 <1>   0.2000 
 14 C       -2.8810     3.6590    -1.1480 C.3   1 <1>  -0.1600 
 15 C       -2.5440     1.2700    -0.2860 C.3   1 <1>  -0.1600 
 16 C        3.9870     2.7790     0.8350 C.ar  1 <1>   0.3100 
 17 C        3.4440     2.6150    -1.5230 C.ar  1 <1>  -0.1500 
 18 O       -5.2850     2.2470    -0.9300 O.3   1 <1>  -0.5600 
 19 C       -4.6220     1.0110     0.9950 C.3   1 <1>  -0.1600 
 20 C       -3.3230     0.2930     0.6010 C.3   1 <1>  -0.1600 
 21 C        5.3430     2.7250     0.4840 C.ar  1 <1>  -0.1500 
 22 C        4.7770     2.5640    -1.8390 C.ar  1 <1>  -0.1500 
 23 C       -6.6550     2.4870    -0.8680 C.3   1 <1>   0.0400 
 24 C        5.7380     2.6200    -0.8250 C.ar  1 <1>  -0.1500 
 25 H       -2.5840     2.5350     2.1150 H     1 <1>   0.0800 
 26 H       -3.0070     4.1370     1.6010 H     1 <1>   0.0800 
 27 H       -1.3410     5.4970     0.2860 H     1 <1>   0.0800 
 28 H        0.2120     4.8220    -0.0930 H     1 <1>   0.0800 
 29 H        2.0150     2.9890     3.3620 H     1 <1>   0.1500 
 30 H       -1.2970     4.7950    -2.0580 H     1 <1>   0.0800 
 31 H       -0.8220     3.1910    -1.5960 H     1 <1>   0.0800 
 32 H       -5.0650     3.1520     0.8700 H     1 <1>   0.0800 
 33 H       -3.2250     3.2300    -2.0730 H     1 <1>   0.0800 
 34 H       -3.4600     4.5480    -0.9700 H     1 <1>   0.0800 
 35 H       -2.7430     1.0250    -1.3150 H     1 <1>   0.0800 
 36 H       -1.4830     1.2030    -0.1190 H     1 <1>   0.0800 
 37 H        2.6930     2.5710    -2.2900 H     1 <1>   0.1500 
 38 H       -4.6240     1.1660     2.0590 H     1 <1>   0.0800 
 39 H       -5.4870     0.4300     0.7310 H     1 <1>   0.0800 
 40 H       -2.7500     0.0600     1.4830 H     1 <1>   0.0800 
 41 H       -3.5280    -0.6180     0.0660 H     1 <1>   0.0800 
 42 H        6.0670     2.7690     1.2780 H     1 <1>   0.1500 
 43 H        5.0980     2.4800    -2.8640 H     1 <1>   0.1500 
 44 H       -7.0650     2.3290    -1.8490 H     1 <1>   0.0800 
 45 H       -6.8220     3.5060    -0.5660 H     1 <1>   0.0800 
 46 H       -7.1100     1.8050    -0.1710 H     1 <1>   0.0800 
 47 H        6.7820     2.5800    -1.0850 H     1 <1>   0.1500 
@<TRIPOS>BOND
  1   1   2  2   
  2   2   3  am  
  3   2   4  1   
  4   3   5  1   
  5   3   6  1   
  6   4   7  ar  
  7   4   8  ar  
  8   5   9  1   
  9   5  25  1   
 10   5  26  1   
 11   6  10  1   
 12   6  27  1   
 13   6  28  1   
 14   7  11  ar  
 15   8  12  ar  
 16   8  29  1   
 17   9  13  1   
 18   9  14  1   
 19   9  15  1   
 20  10  14  1   
 21  10  30  1   
 22  10  31  1   
 23  11  16  ar  
 24  11  17  ar  
 25  12  16  ar  
 26  13  18  1   
 27  13  19  1   
 28  13  32  1   
 29  14  33  1   
 30  14  34  1   
 31  15  20  1   
 32  15  35  1   
 33  15  36  1   
 34  16  21  ar  
 35  17  22  ar  
 36  17  37  1   
 37  18  23  1   
 38  19  20  1   
 39  19  38  1   
 40  19  39  1   
 41  20  40  1   
 42  20  41  1   
 43  21  24  ar  
 44  21  42  1   
 45  22  24  ar  
 46  22  43  1   
 47  23  44  1   
 48  23  45  1   
 49  23  46  1   
 50  24  47  1   
@<TRIPOS>SUBSTRUCTURE
  1 ****   3 GROUP 4 **** **** 0

# MOE 2024.06 (io_trps.svl 2023.06)
