@<TRIPOS>MOLECULE
NONAME
56 58 1 0 0 
SMALL
USER_CHARGES


@<TRIPOS>ATOM
  1 O       -0.4390     0.7660    -1.7960 O.3   1 <1>  -0.5600 
  2 C       -0.4450     2.0300    -2.3700 C.3   1 <1>   0.1200 
  3 C       -1.7380     0.4720    -1.3690 C.3   1 <1>   0.1200 
  4 C       -1.2600     2.8270    -1.3580 C.3   1 <1>   0.4230 
  5 C       -2.4090     1.8390    -1.1410 C.3   1 <1>  -0.0800 
  6 N       -0.4480     2.9400    -0.1070 N.4   1 <1>  -0.9060 
  7 C       -3.1970     1.9410     0.1810 C.3   1 <1>  -0.0170 
  8 C        0.7080     3.8690    -0.1470 C.3   1 <1>   0.4230 
  9 C       -4.3480     0.9500     0.1880 C.ar  1 <1>  -0.1440 
 10 C        1.6120     3.5780     1.0470 C.3   1 <1>  -0.1600 
 11 C        0.2360     5.3200    -0.0720 C.3   1 <1>  -0.1600 
 12 C       -4.2780    -0.2560     0.8590 C.ar  1 <1>  -0.1500 
 13 C       -5.5280     1.2060    -0.4810 C.ar  1 <1>  -0.1500 
 14 C        2.8440     4.4960     1.0660 C.3   1 <1>   0.5030 
 15 C        1.4170     6.3040    -0.0870 C.3   1 <1>   0.5030 
 16 C       -5.3560    -1.1240     0.8210 C.ar  1 <1>   0.1600 
 17 C       -6.5480     0.2680    -0.4560 C.ar  1 <1>   0.1600 
 18 N        2.4640     5.9030     0.8660 N.4   1 <1>  -0.9060 
 19 C        3.5110     4.4370     2.4380 C.3   1 <1>  -0.2400 
 20 C        3.8750     4.0840     0.0120 C.3   1 <1>  -0.2400 
 21 C        2.0210     6.4410    -1.4870 C.3   1 <1>  -0.2400 
 22 C        0.9470     7.6830     0.3700 C.3   1 <1>  -0.2400 
 23 N       -6.4860    -0.8910     0.1760 N.ar  1 <1>  -0.6200 
 24 H        0.5640     2.3740    -2.5060 H     1 <1>   0.0800 
 25 H       -0.9410     1.9700    -3.3270 H     1 <1>   0.0800 
 26 H       -2.2390    -0.0930    -2.1390 H     1 <1>   0.0800 
 27 H       -1.6730    -0.1230    -0.4740 H     1 <1>   0.0800 
 28 H       -1.5910     3.7850    -1.7260 H     1 <1>   0.0800 
 29 H       -3.1120     1.9780    -1.9460 H     1 <1>   0.0800 
 30 H       -1.0600     3.1310     0.6920 H     1 <1>   0.4500 
 31 H       -0.0930     1.9740     0.0110 H     1 <1>   0.4500 
 32 H       -3.6000     2.9330     0.2950 H     1 <1>   0.0800 
 33 H       -2.5660     1.7360     1.0290 H     1 <1>   0.0800 
 34 H        1.2640     3.7120    -1.0580 H     1 <1>   0.0800 
 35 H        1.9470     2.5550     1.0110 H     1 <1>   0.0800 
 36 H        1.0590     3.7090     1.9610 H     1 <1>   0.0800 
 37 H       -0.3350     5.4670     0.8290 H     1 <1>   0.0800 
 38 H       -0.4070     5.5460    -0.9050 H     1 <1>   0.0800 
 39 H       -3.4030    -0.5380     1.4150 H     1 <1>   0.1500 
 40 H       -5.6760     2.1210    -1.0240 H     1 <1>   0.1500 
 41 H       -5.2870    -2.0610     1.3490 H     1 <1>   0.1500 
 42 H       -7.4630     0.4820    -0.9830 H     1 <1>   0.1500 
 43 H        3.3160     6.4200     0.6250 H     1 <1>   0.4500 
 44 H        2.1970     6.2750     1.7830 H     1 <1>   0.4500 
 45 H        3.8220     3.4290     2.6570 H     1 <1>   0.0800 
 46 H        2.8390     4.7440     3.2210 H     1 <1>   0.0800 
 47 H        4.3910     5.0570     2.4710 H     1 <1>   0.0800 
 48 H        4.2950     3.1270     0.2710 H     1 <1>   0.0800 
 49 H        4.6910     4.7860    -0.0290 H     1 <1>   0.0800 
 50 H        3.4550     3.9770    -0.9670 H     1 <1>   0.0800 
 51 H        1.3130     6.9180    -2.1430 H     1 <1>   0.0800 
 52 H        2.2650     5.4980    -1.9320 H     1 <1>   0.0800 
 53 H        2.9020     7.0600    -1.4700 H     1 <1>   0.0800 
 54 H        0.1770     8.0500    -0.2880 H     1 <1>   0.0800 
 55 H        1.7530     8.3970     0.3460 H     1 <1>   0.0800 
 56 H        0.5370     7.6550     1.3640 H     1 <1>   0.0800 
@<TRIPOS>BOND
  1   1   2  1   
  2   1   3  1   
  3   2   4  1   
  4   2  24  1   
  5   2  25  1   
  6   3   5  1   
  7   3  26  1   
  8   3  27  1   
  9   4   5  1   
 10   4   6  1   
 11   4  28  1   
 12   5   7  1   
 13   5  29  1   
 14   6   8  1   
 15   6  30  1   
 16   6  31  1   
 17   7   9  1   
 18   7  32  1   
 19   7  33  1   
 20   8  10  1   
 21   8  11  1   
 22   8  34  1   
 23   9  12  ar  
 24   9  13  ar  
 25  10  14  1   
 26  10  35  1   
 27  10  36  1   
 28  11  15  1   
 29  11  37  1   
 30  11  38  1   
 31  12  16  ar  
 32  12  39  1   
 33  13  17  ar  
 34  13  40  1   
 35  14  18  1   
 36  14  19  1   
 37  14  20  1   
 38  15  18  1   
 39  15  21  1   
 40  15  22  1   
 41  16  23  ar  
 42  16  41  1   
 43  17  23  ar  
 44  17  42  1   
 45  18  43  1   
 46  18  44  1   
 47  19  45  1   
 48  19  46  1   
 49  19  47  1   
 50  20  48  1   
 51  20  49  1   
 52  20  50  1   
 53  21  51  1   
 54  21  52  1   
 55  21  53  1   
 56  22  54  1   
 57  22  55  1   
 58  22  56  1   
@<TRIPOS>SUBSTRUCTURE
  1 ****   6 GROUP 4 **** **** 0

# MOE 2024.06 (io_trps.svl 2023.06)
