@<TRIPOS>MOLECULE
NONAME
26 27 1 0 0 
SMALL
USER_CHARGES


@<TRIPOS>ATOM
  1 O       -0.6970     0.4120    -0.8750 O.2   1 <1>  -0.5700 
  2 C       -0.8280     1.5480    -0.4680 C.2   1 <1>   0.7200 
  3 N       -2.0910     2.0180    -0.2880 N.2   1 <1>  -0.6610 
  4 C        0.3310     2.6360    -0.1930 C.3   1 <1>   0.4300 
  5 C       -1.9770     3.2570    -0.1260 C.2   1 <1>   0.4390 
  6 N       -0.7220     3.6970    -0.1570 N.pl3 1 <1>  -0.8190 
  7 C        1.4650     1.5280    -0.1080 C.3   1 <1>  -0.1600 
  8 C        1.4030     3.7860    -0.0020 C.3   1 <1>  -0.1600 
  9 C       -3.1210     4.2340     0.0890 C.3   1 <1>  -0.0990 
 10 C        2.8140     1.9990     0.4090 C.3   1 <1>  -0.1600 
 11 C        2.8580     3.3730    -0.1520 C.3   1 <1>  -0.1600 
 12 C       -4.5100     3.5770     0.1370 C.3   1 <1>  -0.2400 
 13 H       -0.4570     4.6690    -0.0020 H     1 <1>   0.4000 
 14 H        1.6320     1.1330    -1.0980 H     1 <1>   0.0800 
 15 H        1.1890     0.7100     0.5390 H     1 <1>   0.0800 
 16 H        1.3050     4.1850     0.9970 H     1 <1>   0.0800 
 17 H        1.2780     4.5930    -0.7100 H     1 <1>   0.0800 
 18 H       -3.1040     4.9530    -0.7090 H     1 <1>   0.0800 
 19 H       -2.9520     4.7560     1.0130 H     1 <1>   0.0800 
 20 H        3.6280     1.3850     0.0640 H     1 <1>   0.0800 
 21 H        2.8140     2.0330     1.4870 H     1 <1>   0.0800 
 22 H        3.5330     4.0170     0.3850 H     1 <1>   0.0800 
 23 H        3.1350     3.3410    -1.1940 H     1 <1>   0.0800 
 24 H       -4.7100     3.0630    -0.7870 H     1 <1>   0.0800 
 25 H       -5.2710     4.3210     0.2920 H     1 <1>   0.0800 
 26 H       -4.5550     2.8620     0.9410 H     1 <1>   0.0800 
@<TRIPOS>BOND
  1   1   2  2   
  2   2   3  1   
  3   2   4  1   
  4   3   5  2   
  5   4   6  1   
  6   4   7  1   
  7   4   8  1   
  8   5   6  1   
  9   5   9  1   
 10   6  13  1   
 11   7  10  1   
 12   7  14  1   
 13   7  15  1   
 14   8  11  1   
 15   8  16  1   
 16   8  17  1   
 17   9  12  1   
 18   9  18  1   
 19   9  19  1   
 20  10  11  1   
 21  10  20  1   
 22  10  21  1   
 23  11  22  1   
 24  11  23  1   
 25  12  24  1   
 26  12  25  1   
 27  12  26  1   
@<TRIPOS>SUBSTRUCTURE
  1 ****   4 GROUP 4 **** **** 0

# MOE 2024.06 (io_trps.svl 2023.06)
