@<TRIPOS>MOLECULE
NONAME
55 57 1 0 0 
SMALL
USER_CHARGES


@<TRIPOS>ATOM
  1 S        0.4860     0.2620     1.5810 S.3   1 <1>  -0.0800 
  2 C        1.6580     1.4050     0.9420 C.2   1 <1>  -0.1400 
  3 C        1.5630    -1.0860     1.2870 C.2   1 <1>  -0.1100 
  4 C        2.7750     0.7590     0.5370 C.2   1 <1>  -0.1810 
  5 C        1.1970     2.8560     0.9700 C.3   1 <1>   0.6030 
  6 C        2.7140    -0.6580     0.7410 C.2   1 <1>  -0.1500 
  7 C        4.0300     1.3460    -0.0870 C.3   1 <1>  -0.0590 
  8 N        0.9760     3.4060    -0.4140 N.4   1 <1>  -0.9590 
  9 C        2.1930     3.7130     1.8040 C.3   1 <1>   0.2090 
 10 C       -0.1420     4.3930    -0.4290 C.3   1 <1>   0.2630 
 11 C        0.8040     2.3860    -1.4940 C.3   1 <1>   0.2630 
 12 N        2.1260     5.1920     1.5330 N.pl3 1 <1>  -0.8690 
 13 C        2.9690     5.7920     0.6250 C.ar  1 <1>   0.4100 
 14 N        3.3550     5.0590    -0.4120 N.ar  1 <1>  -0.6200 
 15 C        3.3510     7.1100     0.8190 C.ar  1 <1>  -0.1500 
 16 C        4.1590     5.6680    -1.2710 C.ar  1 <1>   0.1600 
 17 C        4.1920     7.7470    -0.0730 C.ar  1 <1>   0.0860 
 18 C        4.5930     6.9720    -1.1540 C.ar  1 <1>  -0.1500 
 19 C        4.5920     9.1290     0.1100 C.2   1 <1>   0.5440 
 20 O        3.7380     9.9430     0.4040 O.2   1 <1>  -0.5700 
 21 N        5.8980     9.5450    -0.0290 N.am  1 <1>  -0.6600 
 22 C        6.2050    11.0090    -0.0550 C.3   1 <1>   0.1400 
 23 C        7.0630     8.6110     0.0510 C.3   1 <1>   0.1400 
 24 C        7.5790    11.2670    -0.6810 C.3   1 <1>  -0.1600 
 25 C        8.2350     9.2720     0.7830 C.3   1 <1>  -0.1600 
 26 C        8.7110    10.5560     0.0810 C.3   1 <1>  -0.1600 
 27 H        1.2190    -2.0690     1.5590 H     1 <1>   0.1500 
 28 H        0.2540     2.8730     1.4890 H     1 <1>   0.0800 
 29 H        3.5400    -1.2950     0.4700 H     1 <1>   0.1500 
 30 H        3.9090     2.3860    -0.3170 H     1 <1>   0.0800 
 31 H        4.2630     0.8240    -0.9980 H     1 <1>   0.0800 
 32 H        4.8600     1.2360     0.5890 H     1 <1>   0.0800 
 33 H        1.8460     3.9560    -0.5820 H     1 <1>   0.4500 
 34 H        3.1960     3.3730     1.6190 H     1 <1>   0.0800 
 35 H        2.0000     3.5330     2.8470 H     1 <1>   0.0800 
 36 H       -1.0780     3.9060    -0.2100 H     1 <1>   0.0800 
 37 H       -0.2110     4.8600    -1.3980 H     1 <1>   0.0800 
 38 H        0.0300     5.1640     0.3050 H     1 <1>   0.0800 
 39 H       -0.0500     1.7620    -1.2860 H     1 <1>   0.0800 
 40 H        1.6780     1.7590    -1.5610 H     1 <1>   0.0800 
 41 H        0.6590     2.8710    -2.4450 H     1 <1>   0.0800 
 42 H        2.0040     5.7460     2.3890 H     1 <1>   0.4000 
 43 H        2.9880     7.6560     1.6700 H     1 <1>   0.1500 
 44 H        4.4920     5.0960    -2.1220 H     1 <1>   0.1500 
 45 H        5.2360     7.4000    -1.9030 H     1 <1>   0.1500 
 46 H        6.1840    11.3870     0.9530 H     1 <1>   0.0800 
 47 H        5.4460    11.5240    -0.6200 H     1 <1>   0.0800 
 48 H        7.3680     8.3440    -0.9460 H     1 <1>   0.0800 
 49 H        6.7810     7.7140     0.5760 H     1 <1>   0.0800 
 50 H        7.7700    12.3250    -0.7080 H     1 <1>   0.0800 
 51 H        7.5530    10.9190    -1.6990 H     1 <1>   0.0800 
 52 H        9.0540     8.5790     0.8590 H     1 <1>   0.0800 
 53 H        7.9160     9.5060     1.7840 H     1 <1>   0.0800 
 54 H        9.1210    11.2200     0.8230 H     1 <1>   0.0800 
 55 H        9.4990    10.3200    -0.6140 H     1 <1>   0.0800 
@<TRIPOS>BOND
  1   1   2  1   
  2   1   3  1   
  3   2   4  2   
  4   2   5  1   
  5   3   6  2   
  6   3  27  1   
  7   4   6  1   
  8   4   7  1   
  9   5   8  1   
 10   5   9  1   
 11   5  28  1   
 12   6  29  1   
 13   7  30  1   
 14   7  31  1   
 15   7  32  1   
 16   8  10  1   
 17   8  11  1   
 18   8  33  1   
 19   9  12  1   
 20   9  34  1   
 21   9  35  1   
 22  10  36  1   
 23  10  37  1   
 24  10  38  1   
 25  11  39  1   
 26  11  40  1   
 27  11  41  1   
 28  12  13  1   
 29  12  42  1   
 30  13  14  ar  
 31  13  15  ar  
 32  14  16  ar  
 33  15  17  ar  
 34  15  43  1   
 35  16  18  ar  
 36  16  44  1   
 37  17  18  ar  
 38  17  19  1   
 39  18  45  1   
 40  19  20  2   
 41  19  21  am  
 42  21  22  1   
 43  21  23  1   
 44  22  24  1   
 45  22  46  1   
 46  22  47  1   
 47  23  25  1   
 48  23  48  1   
 49  23  49  1   
 50  24  26  1   
 51  24  50  1   
 52  24  51  1   
 53  25  26  1   
 54  25  52  1   
 55  25  53  1   
 56  26  54  1   
 57  26  55  1   
@<TRIPOS>SUBSTRUCTURE
  1 ****  14 GROUP 4 **** **** 0

# MOE 2024.06 (io_trps.svl 2023.06)
