@<TRIPOS>MOLECULE
NONAME
52 56 1 0 0 
SMALL
USER_CHARGES


@<TRIPOS>ATOM
  1 O        1.9950    -2.2330     2.7230 O.3   1 <1>  -0.5130 
  2 C        0.7820    -2.4260     2.1470 C.2   1 <1>  -0.0890 
  3 N        0.5720    -2.6990     0.8230 N.pl3 1 <1>   0.5930 
  4 C       -0.4090    -2.3950     2.7680 C.2   1 <1>  -0.1500 
  5 N       -0.7620    -2.8500     0.6110 N.2   1 <1>  -0.7070 
  6 C        1.5320    -2.8440    -0.2240 C.ar  1 <1>  -0.0230 
  7 C       -1.3610    -2.6680     1.7760 C.2   1 <1>   0.2030 
  8 C        2.6530    -2.0210    -0.3040 C.ar  1 <1>  -0.1500 
  9 C        1.3590    -3.8190    -1.2050 C.ar  1 <1>  -0.1500 
 10 C       -2.7950    -2.7010     2.0560 C.2   1 <1>   0.7160 
 11 C        3.5750    -2.1730    -1.3250 C.ar  1 <1>  -0.1500 
 12 C        2.2800    -3.9720    -2.2270 C.ar  1 <1>  -0.1500 
 13 O       -3.2180    -2.0850     3.0220 O.2   1 <1>  -0.5700 
 14 N       -3.7190    -3.3810     1.2780 N.am  1 <1>  -0.6600 
 15 C        3.3900    -3.1490    -2.2870 C.ar  1 <1>  -0.1500 
 16 C       -5.1540    -2.9640     1.2230 C.3   1 <1>   0.1400 
 17 C       -3.3770    -4.4450     0.2960 C.3   1 <1>   0.1400 
 18 C       -5.4990    -2.4230    -0.1800 C.3   1 <1>   0.1440 
 19 C       -3.6690    -3.9390    -1.1210 C.3   1 <1>  -0.1600 
 20 C       -6.9720    -2.0630    -0.2040 C.ar  1 <1>   0.1670 
 21 C       -5.1290    -3.4690    -1.2570 C.3   1 <1>  -0.1600 
 22 C       -4.8190    -1.0520    -0.4460 C.3   1 <1>  -0.1600 
 23 N       -7.9670    -2.9210    -0.2430 N.ar  1 <1>  -0.6200 
 24 C       -7.1600    -0.7140    -0.1600 C.ar  1 <1>  -0.1430 
 25 C       -5.8520     0.0340    -0.1000 C.3   1 <1>  -0.0170 
 26 C       -9.1700    -2.3640    -0.2500 C.ar  1 <1>   0.4770 
 27 C       -8.4500    -0.2460    -0.1690 C.ar  1 <1>   0.1600 
 28 N       -9.4740    -1.0730    -0.2160 N.ar  1 <1>  -0.6200 
 29 C      -10.3450    -3.3100    -0.3010 C.3   1 <1>  -0.0970 
 30 H        1.9450    -2.0810     3.6870 H     1 <1>   0.4500 
 31 H       -0.6400    -2.2050     3.8010 H     1 <1>   0.1500 
 32 H        2.8090    -1.2550     0.4350 H     1 <1>   0.1500 
 33 H        0.4960    -4.4600    -1.1670 H     1 <1>   0.1500 
 34 H        4.4370    -1.5300    -1.3710 H     1 <1>   0.1500 
 35 H        2.1310    -4.7310    -2.9750 H     1 <1>   0.1500 
 36 H        4.1070    -3.2680    -3.0810 H     1 <1>   0.1500 
 37 H       -5.3650    -2.2100     1.9610 H     1 <1>   0.0800 
 38 H       -5.7740    -3.8160     1.4400 H     1 <1>   0.0800 
 39 H       -3.9830    -5.3110     0.5010 H     1 <1>   0.0800 
 40 H       -2.3480    -4.7440     0.3850 H     1 <1>   0.0800 
 41 H       -3.4790    -4.7300    -1.8250 H     1 <1>   0.0800 
 42 H       -2.9930    -3.1330    -1.3490 H     1 <1>   0.0800 
 43 H       -5.3010    -3.0660    -2.2400 H     1 <1>   0.0800 
 44 H       -5.7760    -4.3220    -1.1440 H     1 <1>   0.0800 
 45 H       -4.5850    -0.9660    -1.4930 H     1 <1>   0.0800 
 46 H       -3.9080    -0.9220     0.1100 H     1 <1>   0.0800 
 47 H       -5.8220     0.8490    -0.8030 H     1 <1>   0.0800 
 48 H       -5.6920     0.4040     0.8990 H     1 <1>   0.0800 
 49 H       -8.6480     0.8110    -0.1370 H     1 <1>   0.1500 
 50 H      -10.0090    -4.3300    -0.3380 H     1 <1>   0.0800 
 51 H      -10.9320    -3.1010    -1.1750 H     1 <1>   0.0800 
 52 H      -10.9520    -3.1710     0.5740 H     1 <1>   0.0800 
@<TRIPOS>BOND
  1   1   2  1   
  2   1  30  1   
  3   2   3  1   
  4   2   4  2   
  5   3   5  1   
  6   3   6  1   
  7   4   7  1   
  8   4  31  1   
  9   5   7  2   
 10   6   8  ar  
 11   6   9  ar  
 12   7  10  1   
 13   8  11  ar  
 14   8  32  1   
 15   9  12  ar  
 16   9  33  1   
 17  10  13  2   
 18  10  14  am  
 19  11  15  ar  
 20  11  34  1   
 21  12  15  ar  
 22  12  35  1   
 23  14  16  1   
 24  14  17  1   
 25  15  36  1   
 26  16  18  1   
 27  16  37  1   
 28  16  38  1   
 29  17  19  1   
 30  17  39  1   
 31  17  40  1   
 32  18  20  1   
 33  18  21  1   
 34  18  22  1   
 35  19  21  1   
 36  19  41  1   
 37  19  42  1   
 38  20  23  ar  
 39  20  24  ar  
 40  21  43  1   
 41  21  44  1   
 42  22  25  1   
 43  22  45  1   
 44  22  46  1   
 45  23  26  ar  
 46  24  25  1   
 47  24  27  ar  
 48  25  47  1   
 49  25  48  1   
 50  26  28  ar  
 51  26  29  1   
 52  27  28  ar  
 53  27  49  1   
 54  29  50  1   
 55  29  51  1   
 56  29  52  1   
@<TRIPOS>SUBSTRUCTURE
  1 ****  14 GROUP 4 **** **** 0

# MOE 2024.06 (io_trps.svl 2023.06)
