@<TRIPOS>MOLECULE
NONAME
58 61 1 0 0 
SMALL
USER_CHARGES


@<TRIPOS>ATOM
  1 F       -2.7420    -1.8730    -0.0250 F     1 <1>  -0.1900 
  2 C       -3.6140    -0.8980     0.0110 C.ar  1 <1>   0.1900 
  3 C       -3.7540     0.0120    -1.0440 C.ar  1 <1>   0.0830 
  4 C       -4.3960    -0.8150     1.1470 C.ar  1 <1>  -0.1500 
  5 O       -3.0420     0.0350    -2.2060 O.3   1 <1>  -0.3630 
  6 C       -4.7170     0.9990    -0.9180 C.ar  1 <1>  -0.1500 
  7 C       -5.3480     0.1830     1.2410 C.ar  1 <1>  -0.1500 
  8 C       -1.9320    -0.8030    -2.4440 C.3   1 <1>   0.0400 
  9 C       -5.5370     1.1020     0.2070 C.ar  1 <1>   0.0530 
 10 C       -6.5660     2.1070     0.2780 C.2   1 <1>   0.0870 
 11 O       -6.4060     3.2910    -0.2540 O.3   1 <1>  -0.0190 
 12 C       -7.8150     2.0780     0.8080 C.2   1 <1>  -0.0860 
 13 N       -7.4600     4.0530    -0.1180 N.2   1 <1>  -0.4100 
 14 C       -8.3270     3.3460     0.5240 C.2   1 <1>   0.3720 
 15 C       -8.4800     0.9870     1.4420 C.2   1 <1>   0.7160 
 16 N       -9.6180     3.7940     0.8530 N.pl3 1 <1>  -0.8210 
 17 O       -8.5690     0.9610     2.6570 O.2   1 <1>  -0.5700 
 18 N       -8.9470    -0.0820     0.7060 N.am  1 <1>  -0.6600 
 19 C       -9.9790     3.7060     2.2970 C.3   1 <1>   0.1290 
 20 C      -10.0550     5.0680     0.2160 C.3   1 <1>   0.1290 
 21 C       -9.0550    -0.0710    -0.7760 C.3   1 <1>   0.1400 
 22 C       -9.2290    -1.4020     1.3260 C.3   1 <1>   0.1400 
 23 C       -8.0840    -1.1010    -1.3660 C.3   1 <1>  -0.1600 
 24 C       -8.2480    -2.4340     0.7580 C.3   1 <1>  -0.1600 
 25 C       -8.2710    -2.5220    -0.7900 C.3   1 <1>   0.0000 
 26 C       -9.5940    -3.1400    -1.2980 C.3   1 <1>  -0.1600 
 27 C       -7.1120    -3.4250    -1.2820 C.3   1 <1>  -0.1600 
 28 C       -9.7660    -4.6160    -0.8890 C.3   1 <1>   0.1200 
 29 C       -7.4960    -4.9070    -1.4450 C.3   1 <1>   0.1200 
 30 O       -8.5430    -5.2220    -0.5860 O.3   1 <1>  -0.5600 
 31 H       -4.2610    -1.5240     1.9440 H     1 <1>   0.1500 
 32 H       -4.8360     1.7030    -1.7220 H     1 <1>   0.1500 
 33 H       -5.9530     0.2480     2.1290 H     1 <1>   0.1500 
 34 H       -1.5050    -0.5310    -3.3920 H     1 <1>   0.0800 
 35 H       -2.2640    -1.8250    -2.4760 H     1 <1>   0.0800 
 36 H       -1.2070    -0.6560    -1.6630 H     1 <1>   0.0800 
 37 H      -10.5630     2.8180     2.4670 H     1 <1>   0.0800 
 38 H      -10.5540     4.5610     2.6040 H     1 <1>   0.0800 
 39 H       -9.0900     3.6550     2.9040 H     1 <1>   0.0800 
 40 H       -9.8480     5.0390    -0.8400 H     1 <1>   0.0800 
 41 H       -9.5250     5.8980     0.6520 H     1 <1>   0.0800 
 42 H      -11.1130     5.2050     0.3540 H     1 <1>   0.0800 
 43 H       -8.8370     0.9060    -1.1740 H     1 <1>   0.0800 
 44 H      -10.0660    -0.3110    -1.0530 H     1 <1>   0.0800 
 45 H      -10.2440    -1.6860     1.1160 H     1 <1>   0.0800 
 46 H       -9.1160    -1.3540     2.3960 H     1 <1>   0.0800 
 47 H       -7.0810    -0.7680    -1.1680 H     1 <1>   0.0800 
 48 H       -8.2040    -1.1170    -2.4350 H     1 <1>   0.0800 
 49 H       -8.4590    -3.3910     1.1980 H     1 <1>   0.0800 
 50 H       -7.2630    -2.1550     1.0870 H     1 <1>   0.0800 
 51 H       -9.6080    -3.0960    -2.3720 H     1 <1>   0.0800 
 52 H      -10.4490    -2.5850    -0.9590 H     1 <1>   0.0800 
 53 H       -6.2730    -3.3530    -0.6130 H     1 <1>   0.0800 
 54 H       -6.7600    -3.0870    -2.2410 H     1 <1>   0.0800 
 55 H      -10.2360    -5.1790    -1.6770 H     1 <1>   0.0800 
 56 H      -10.3750    -4.6880    -0.0050 H     1 <1>   0.0800 
 57 H       -6.6630    -5.5440    -1.2040 H     1 <1>   0.0800 
 58 H       -7.8140    -5.1170    -2.4520 H     1 <1>   0.0800 
@<TRIPOS>BOND
  1   1   2  1   
  2   2   3  ar  
  3   2   4  ar  
  4   3   5  1   
  5   3   6  ar  
  6   4   7  ar  
  7   4  31  1   
  8   5   8  1   
  9   6   9  ar  
 10   6  32  1   
 11   7   9  ar  
 12   7  33  1   
 13   8  34  1   
 14   8  35  1   
 15   8  36  1   
 16   9  10  1   
 17  10  11  1   
 18  10  12  2   
 19  11  13  1   
 20  12  14  1   
 21  12  15  1   
 22  13  14  2   
 23  14  16  1   
 24  15  17  2   
 25  15  18  am  
 26  16  19  1   
 27  16  20  1   
 28  18  21  1   
 29  18  22  1   
 30  19  37  1   
 31  19  38  1   
 32  19  39  1   
 33  20  40  1   
 34  20  41  1   
 35  20  42  1   
 36  21  23  1   
 37  21  43  1   
 38  21  44  1   
 39  22  24  1   
 40  22  45  1   
 41  22  46  1   
 42  23  25  1   
 43  23  47  1   
 44  23  48  1   
 45  24  25  1   
 46  24  49  1   
 47  24  50  1   
 48  25  26  1   
 49  25  27  1   
 50  26  28  1   
 51  26  51  1   
 52  26  52  1   
 53  27  29  1   
 54  27  53  1   
 55  27  54  1   
 56  28  30  1   
 57  28  55  1   
 58  28  56  1   
 59  29  30  1   
 60  29  57  1   
 61  29  58  1   
@<TRIPOS>SUBSTRUCTURE
  1 ****   9 GROUP 4 **** **** 0

# MOE 2024.06 (io_trps.svl 2023.06)
