@<TRIPOS>MOLECULE
NONAME
44 45 1 0 0 
SMALL
USER_CHARGES


@<TRIPOS>ATOM
  1 CL      -0.4330    -1.3980     2.5590 Cl    1 <1>  -0.1770 
  2 C        0.9050    -1.8240     1.5240 C.ar  1 <1>   0.1770 
  3 C        0.9580    -3.0890     0.9800 C.ar  1 <1>  -0.1500 
  4 C        1.8880    -0.8910     1.2680 C.ar  1 <1>  -0.1500 
  5 C        2.0140    -3.4640     0.1490 C.ar  1 <1>   0.0860 
  6 C        2.9430    -1.2420     0.4460 C.ar  1 <1>  -0.1500 
  7 C        3.0140    -2.5120    -0.1090 C.ar  1 <1>  -0.1440 
  8 C        2.0330    -4.8090    -0.3970 C.2   1 <1>   0.5440 
  9 C        4.2010    -2.8490    -1.0040 C.3   1 <1>  -0.0960 
 10 O        2.1710    -5.0160    -1.5860 O.2   1 <1>  -0.5700 
 11 N        1.8610    -5.8810     0.4280 N.am  1 <1>  -0.7300 
 12 C        1.9110    -7.3040     0.0140 C.3   1 <1>   0.2200 
 13 C        0.5100    -7.8820    -0.1090 C.3   1 <1>  -0.0800 
 14 C        2.4500    -8.1300     1.1720 C.3   1 <1>   0.1200 
 15 C        0.1690    -8.2540     1.3400 C.3   1 <1>   0.1200 
 16 C       -0.5120    -6.9630    -0.8140 C.3   1 <1>  -0.0550 
 17 O        1.3740    -8.2550     2.0510 O.3   1 <1>  -0.5600 
 18 S       -2.0970    -7.7380    -1.1400 S.o2  1 <1>   1.3330 
 19 O       -1.8480    -9.0510    -1.6920 O.2   1 <1>  -0.6500 
 20 O       -2.9470    -6.8110    -1.8530 O.2   1 <1>  -0.6500 
 21 N       -2.7730    -7.9460     0.4060 N.am  1 <1>  -0.8490 
 22 C       -3.7200    -9.0650     0.4480 C.3   1 <1>   0.1160 
 23 C       -3.4170    -6.7340     0.9260 C.3   1 <1>   0.1160 
 24 H        0.1690    -3.7840     1.1980 H     1 <1>   0.1500 
 25 H        1.8260     0.0910     1.7020 H     1 <1>   0.1500 
 26 H        3.7110    -0.5150     0.2410 H     1 <1>   0.1500 
 27 H        4.9510    -2.0800    -0.9650 H     1 <1>   0.0800 
 28 H        3.8720    -2.9510    -2.0240 H     1 <1>   0.0800 
 29 H        4.6510    -3.7750    -0.6960 H     1 <1>   0.0800 
 30 H        1.7590    -5.7490     1.4370 H     1 <1>   0.3700 
 31 H        2.4950    -7.4230    -0.8840 H     1 <1>   0.0800 
 32 H        0.5830    -8.7980    -0.6700 H     1 <1>   0.0800 
 33 H        3.2790    -7.6620     1.6720 H     1 <1>   0.0800 
 34 H        2.7260    -9.1170     0.8440 H     1 <1>   0.0800 
 35 H       -0.2800    -9.2300     1.4060 H     1 <1>   0.0800 
 36 H       -0.4760    -7.5260     1.8000 H     1 <1>   0.0800 
 37 H       -0.0890    -6.6590    -1.7530 H     1 <1>   0.0800 
 38 H       -0.6650    -6.0750    -0.2340 H     1 <1>   0.0800 
 39 H       -4.1230    -9.1780     1.4400 H     1 <1>   0.0800 
 40 H       -3.2210    -9.9820     0.1820 H     1 <1>   0.0800 
 41 H       -4.5270    -8.8970    -0.2470 H     1 <1>   0.0800 
 42 H       -3.7450    -6.8960     1.9390 H     1 <1>   0.0800 
 43 H       -4.2680    -6.4690     0.3200 H     1 <1>   0.0800 
 44 H       -2.7220    -5.9120     0.9220 H     1 <1>   0.0800 
@<TRIPOS>BOND
  1   1   2  1   
  2   2   3  ar  
  3   2   4  ar  
  4   3   5  ar  
  5   3  24  1   
  6   4   6  ar  
  7   4  25  1   
  8   5   7  ar  
  9   5   8  1   
 10   6   7  ar  
 11   6  26  1   
 12   7   9  1   
 13   8  10  2   
 14   8  11  am  
 15   9  27  1   
 16   9  28  1   
 17   9  29  1   
 18  11  12  1   
 19  11  30  1   
 20  12  13  1   
 21  12  14  1   
 22  12  31  1   
 23  13  15  1   
 24  13  16  1   
 25  13  32  1   
 26  14  17  1   
 27  14  33  1   
 28  14  34  1   
 29  15  17  1   
 30  15  35  1   
 31  15  36  1   
 32  16  18  1   
 33  16  37  1   
 34  16  38  1   
 35  18  19  2   
 36  18  20  2   
 37  18  21  am  
 38  21  22  1   
 39  21  23  1   
 40  22  39  1   
 41  22  40  1   
 42  22  41  1   
 43  23  42  1   
 44  23  43  1   
 45  23  44  1   
@<TRIPOS>SUBSTRUCTURE
  1 ****  11 GROUP 4 **** **** 0

# MOE 2024.06 (io_trps.svl 2023.06)
