@<TRIPOS>MOLECULE
NONAME
42 43 1 0 0 
SMALL
USER_CHARGES


@<TRIPOS>ATOM
  1 S       -0.5260     4.4930    -0.1030 S.3   1 <1>  -0.0800 
  2 C       -0.4440     2.7490     0.0680 C.2   1 <1>   0.1980 
  3 C        1.2010     4.5650     0.0760 C.2   1 <1>  -0.1100 
  4 N        0.7370     2.2990     0.2340 N.2   1 <1>  -0.5650 
  5 C       -1.7420     1.9500     0.0050 C.3   1 <1>   0.1000 
  6 C        1.6780     3.3200     0.2380 C.2   1 <1>   0.0460 
  7 C       -2.4330     2.1030    -1.3560 C.3   1 <1>  -0.2400 
  8 C       -2.6970     2.3380     1.1420 C.3   1 <1>  -0.2400 
  9 C        3.1350     2.9160     0.4350 C.3   1 <1>   0.2910 
 10 N        4.0840     4.0010     0.0880 N.3   1 <1>  -0.8100 
 11 C        5.4350     3.7240     0.6660 C.3   1 <1>   0.1710 
 12 C        4.1770     4.1580    -1.3760 C.3   1 <1>   0.0300 
 13 C        6.3780     4.9310     0.6510 C.2   1 <1>   0.5690 
 14 O        7.5700     4.7630     0.5520 O.2   1 <1>  -0.5700 
 15 N        5.8270     6.1640     0.7470 N.am  1 <1>  -0.7300 
 16 C        6.5340     7.4430     0.5820 C.3   1 <1>   0.3200 
 17 C        5.7140     8.3610    -0.3050 C.2   1 <1>  -0.1400 
 18 S        6.3340     9.9900    -0.5230 S.3   1 <1>  -0.0800 
 19 C        4.5670     8.2020    -0.9960 C.2   1 <1>  -0.1500 
 20 C        4.9880    10.4150    -1.5650 C.2   1 <1>  -0.1100 
 21 C        4.1540     9.3700    -1.7120 C.2   1 <1>  -0.1500 
 22 H        1.6820     5.5240     0.0440 H     1 <1>   0.1500 
 23 H       -1.4810     0.9130     0.1310 H     1 <1>   0.0800 
 24 H       -2.7460     3.1190    -1.5140 H     1 <1>   0.0800 
 25 H       -3.2950     1.4640    -1.4100 H     1 <1>   0.0800 
 26 H       -1.7530     1.8270    -2.1430 H     1 <1>   0.0800 
 27 H       -3.0170     3.3600     1.0410 H     1 <1>   0.0800 
 28 H       -2.1990     2.2260     2.0900 H     1 <1>   0.0800 
 29 H       -3.5640     1.7020     1.1340 H     1 <1>   0.0800 
 30 H        3.3440     2.0440    -0.1620 H     1 <1>   0.0800 
 31 H        3.2530     2.6430     1.4690 H     1 <1>   0.0800 
 32 H        5.9030     2.9130     0.1360 H     1 <1>   0.0800 
 33 H        5.3300     3.4280     1.6940 H     1 <1>   0.0800 
 34 H        3.2090     4.3780    -1.7920 H     1 <1>   0.0800 
 35 H        4.5490     3.2550    -1.8310 H     1 <1>   0.0800 
 36 H        4.8410     4.9680    -1.6250 H     1 <1>   0.0800 
 37 H        4.8060     6.2110     0.7520 H     1 <1>   0.3700 
 38 H        7.5030     7.2760     0.1410 H     1 <1>   0.0800 
 39 H        6.6700     7.8980     1.5480 H     1 <1>   0.0800 
 40 H        3.9800     7.3010    -1.0410 H     1 <1>   0.1500 
 41 H        4.9650    11.4150    -1.9610 H     1 <1>   0.1500 
 42 H        3.2530     9.3680    -2.3000 H     1 <1>   0.1500 
@<TRIPOS>BOND
  1   1   2  1   
  2   1   3  1   
  3   2   4  2   
  4   2   5  1   
  5   3   6  2   
  6   3  22  1   
  7   4   6  1   
  8   5   7  1   
  9   5   8  1   
 10   5  23  1   
 11   6   9  1   
 12   7  24  1   
 13   7  25  1   
 14   7  26  1   
 15   8  27  1   
 16   8  28  1   
 17   8  29  1   
 18   9  10  1   
 19   9  30  1   
 20   9  31  1   
 21  10  11  1   
 22  10  12  1   
 23  11  13  1   
 24  11  32  1   
 25  11  33  1   
 26  12  34  1   
 27  12  35  1   
 28  12  36  1   
 29  13  14  2   
 30  13  15  am  
 31  15  16  1   
 32  15  37  1   
 33  16  17  1   
 34  16  38  1   
 35  16  39  1   
 36  17  18  1   
 37  17  19  2   
 38  18  20  1   
 39  19  21  1   
 40  19  40  1   
 41  20  21  2   
 42  20  41  1   
 43  21  42  1   
@<TRIPOS>SUBSTRUCTURE
  1 ****  10 GROUP 4 **** **** 0

# MOE 2024.06 (io_trps.svl 2023.06)
