@<TRIPOS>MOLECULE
NONAME
48 50 1 0 0 
SMALL
USER_CHARGES


@<TRIPOS>ATOM
  1 O       -0.7980     0.0170    -2.8360 O.2   1 <1>  -0.5700 
  2 C       -1.2560     0.8390    -2.0770 C.2   1 <1>   0.5690 
  3 N       -2.2180     0.4970    -1.1620 N.am  1 <1>  -0.6600 
  4 C       -0.7430     2.2710    -2.1830 C.3   1 <1>   0.0440 
  5 C       -2.8110     1.3880    -0.1330 C.3   1 <1>   0.1400 
  6 C       -2.6700    -0.9000    -0.9700 C.3   1 <1>   0.1400 
  7 C       -0.0810     2.7770    -0.8970 C.ar  1 <1>  -0.1440 
  8 C       -3.7810     0.4990     0.6450 C.3   1 <1>   0.2000 
  9 C       -3.2840    -0.9290     0.4300 C.3   1 <1>  -0.0800 
 10 C       -0.3900     4.0060    -0.3170 C.ar  1 <1>  -0.1440 
 11 C        0.8620     1.9590    -0.2900 C.ar  1 <1>  -0.1500 
 12 O       -3.7830     0.8070     1.9950 O.3   1 <1>  -0.6800 
 13 C       -4.3900    -1.9810     0.6000 C.3   1 <1>  -0.0170 
 14 C        0.2380     4.3770     0.8620 C.ar  1 <1>  -0.1500 
 15 C       -1.3940     4.9720    -0.9320 C.3   1 <1>  -0.0970 
 16 C        1.4850     2.3320     0.8870 C.ar  1 <1>  -0.1430 
 17 C       -3.8510    -3.3840     0.3720 C.ar  1 <1>  -0.1430 
 18 C        1.1670     3.5480     1.4620 C.ar  1 <1>  -0.1500 
 19 C        2.5110     1.4160     1.5300 C.3   1 <1>  -0.0970 
 20 C       -4.0060    -4.0460    -0.8300 C.ar  1 <1>  -0.1500 
 21 C       -3.1730    -4.0670     1.3600 C.ar  1 <1>  -0.1500 
 22 C       -3.4860    -5.3210    -0.9810 C.ar  1 <1>   0.1600 
 23 C       -2.6930    -5.3420     1.1070 C.ar  1 <1>   0.1600 
 24 N       -2.8330    -5.9850    -0.0400 N.ar  1 <1>  -0.6200 
 25 H       -0.0180     2.3140    -2.9750 H     1 <1>   0.0800 
 26 H       -1.5700     2.8840    -2.4770 H     1 <1>   0.0800 
 27 H       -2.0350     1.7530     0.5160 H     1 <1>   0.0800 
 28 H       -3.3300     2.2080    -0.5960 H     1 <1>   0.0800 
 29 H       -3.4060    -1.1320    -1.7210 H     1 <1>   0.0800 
 30 H       -1.8460    -1.5890    -1.0540 H     1 <1>   0.0800 
 31 H       -4.7800     0.6280     0.2650 H     1 <1>   0.0800 
 32 H       -2.4850    -1.1350     1.1210 H     1 <1>   0.0800 
 33 H        1.1170     1.0130    -0.7400 H     1 <1>   0.1500 
 34 H       -2.8760     0.7530     2.3560 H     1 <1>   0.4000 
 35 H       -5.1950    -1.7840    -0.0870 H     1 <1>   0.0800 
 36 H       -4.7940    -1.9150     1.5960 H     1 <1>   0.0800 
 37 H        0.0100     5.3210     1.3250 H     1 <1>   0.1500 
 38 H       -1.4220     5.8980    -0.3870 H     1 <1>   0.0800 
 39 H       -2.3790     4.5440    -0.9180 H     1 <1>   0.0800 
 40 H       -1.1170     5.1940    -1.9470 H     1 <1>   0.0800 
 41 H        1.6440     3.8570     2.3750 H     1 <1>   0.1500 
 42 H        2.5840     1.6110     2.5850 H     1 <1>   0.0800 
 43 H        3.4740     1.5790     1.0800 H     1 <1>   0.0800 
 44 H        2.2320     0.3870     1.3910 H     1 <1>   0.0800 
 45 H       -4.5230    -3.5860    -1.6510 H     1 <1>   0.1500 
 46 H       -3.0130    -3.6210     2.3250 H     1 <1>   0.1500 
 47 H       -3.6140    -5.8220    -1.9250 H     1 <1>   0.1500 
 48 H       -2.1660    -5.8590     1.8910 H     1 <1>   0.1500 
@<TRIPOS>BOND
  1   1   2  2   
  2   2   3  am  
  3   2   4  1   
  4   3   5  1   
  5   3   6  1   
  6   4   7  1   
  7   4  25  1   
  8   4  26  1   
  9   5   8  1   
 10   5  27  1   
 11   5  28  1   
 12   6   9  1   
 13   6  29  1   
 14   6  30  1   
 15   7  10  ar  
 16   7  11  ar  
 17   8   9  1   
 18   8  12  1   
 19   8  31  1   
 20   9  13  1   
 21   9  32  1   
 22  10  14  ar  
 23  10  15  1   
 24  11  16  ar  
 25  11  33  1   
 26  12  34  1   
 27  13  17  1   
 28  13  35  1   
 29  13  36  1   
 30  14  18  ar  
 31  14  37  1   
 32  15  38  1   
 33  15  39  1   
 34  15  40  1   
 35  16  18  ar  
 36  16  19  1   
 37  17  20  ar  
 38  17  21  ar  
 39  18  41  1   
 40  19  42  1   
 41  19  43  1   
 42  19  44  1   
 43  20  22  ar  
 44  20  45  1   
 45  21  23  ar  
 46  21  46  1   
 47  22  24  ar  
 48  22  47  1   
 49  23  24  ar  
 50  23  48  1   
@<TRIPOS>SUBSTRUCTURE
  1 ****   3 GROUP 4 **** **** 0

# MOE 2024.06 (io_trps.svl 2023.06)
