@<TRIPOS>MOLECULE
NONAME
45 48 1 0 0 
SMALL
USER_CHARGES


@<TRIPOS>ATOM
  1 O       -1.1870     0.1860    -1.6680 O.2   1 <1>  -0.5700 
  2 C       -1.1920     0.1240    -0.4510 C.2   1 <1>   0.7150 
  3 N       -1.4450    -1.0820     0.1300 N.am  1 <1>  -0.7300 
  4 C       -0.9670     1.2830     0.3820 C.2   1 <1>   0.1020 
  5 C       -1.8020    -2.3420    -0.5610 C.3   1 <1>   0.2200 
  6 N       -1.0880     1.3090     1.6850 N.2   1 <1>  -0.3380 
  7 N       -0.6170     2.5050    -0.0640 N.pl3 1 <1>   0.0480 
  8 C       -3.2840    -2.6540    -0.4010 C.3   1 <1>  -0.0800 
  9 C       -1.1850    -3.5150     0.1900 C.3   1 <1>   0.1200 
 10 N       -0.8300     2.5440     2.0940 N.2   1 <1>  -0.3380 
 11 C       -0.5560     3.2370     1.0440 C.2   1 <1>   0.0070 
 12 C       -0.4010     3.0070    -1.4440 C.3   1 <1>   0.0960 
 13 C       -3.3430    -3.3440     0.9650 C.3   1 <1>   0.1200 
 14 C       -4.2470    -1.4600    -0.5460 C.3   1 <1>  -0.0160 
 15 O       -2.0440    -3.7680     1.2610 O.3   1 <1>  -0.5600 
 16 C       -0.1940     4.7110     1.0360 C.3   1 <1>   0.0200 
 17 C        0.2580     4.3980    -1.4350 C.3   1 <1>  -0.1600 
 18 C       -5.6930    -1.9070    -0.4080 C.ar  1 <1>  -0.1440 
 19 C       -0.3620     5.3160    -0.3680 C.3   1 <1>  -0.1600 
 20 C       -6.3710    -2.5120    -1.4470 C.ar  1 <1>  -0.1500 
 21 C       -6.4020    -1.7320     0.7630 C.ar  1 <1>  -0.1500 
 22 C       -7.6860    -2.9080    -1.2670 C.ar  1 <1>   0.1600 
 23 C       -7.7160    -2.1640     0.8390 C.ar  1 <1>   0.1600 
 24 N       -8.3750    -2.7510    -0.1480 N.ar  1 <1>  -0.6200 
 25 H       -1.4620    -1.1200     1.1550 H     1 <1>   0.3700 
 26 H       -1.4920    -2.3120    -1.5920 H     1 <1>   0.0800 
 27 H       -3.5470    -3.3890    -1.1420 H     1 <1>   0.0800 
 28 H       -0.1970    -3.3020     0.5580 H     1 <1>   0.0800 
 29 H       -1.1660    -4.3950    -0.4300 H     1 <1>   0.0800 
 30 H        0.2170     2.3120    -1.9840 H     1 <1>   0.0800 
 31 H       -1.3590     3.0600    -1.9300 H     1 <1>   0.0800 
 32 H       -3.9990    -4.1970     0.9560 H     1 <1>   0.0800 
 33 H       -3.6440    -2.6610     1.7400 H     1 <1>   0.0800 
 34 H       -4.1050    -1.0010    -1.5100 H     1 <1>   0.0800 
 35 H       -4.0380    -0.7130     0.2000 H     1 <1>   0.0800 
 36 H       -0.8100     5.2380     1.7430 H     1 <1>   0.0800 
 37 H        0.8300     4.8080     1.3510 H     1 <1>   0.0800 
 38 H        1.3120     4.2860    -1.2430 H     1 <1>   0.0800 
 39 H        0.1540     4.8450    -2.4090 H     1 <1>   0.0800 
 40 H       -1.4110     5.4430    -0.5740 H     1 <1>   0.0800 
 41 H        0.1020     6.2870    -0.4000 H     1 <1>   0.0800 
 42 H       -5.8900    -2.6800    -2.3930 H     1 <1>   0.1500 
 43 H       -5.9480    -1.2640     1.6170 H     1 <1>   0.1500 
 44 H       -8.2000    -3.3790    -2.0880 H     1 <1>   0.1500 
 45 H       -8.2530    -2.0200     1.7600 H     1 <1>   0.1500 
@<TRIPOS>BOND
  1   1   2  2   
  2   2   3  am  
  3   2   4  1   
  4   3   5  1   
  5   3  25  1   
  6   4   6  2   
  7   4   7  1   
  8   5   8  1   
  9   5   9  1   
 10   5  26  1   
 11   6  10  1   
 12   7  11  1   
 13   7  12  1   
 14   8  13  1   
 15   8  14  1   
 16   8  27  1   
 17   9  15  1   
 18   9  28  1   
 19   9  29  1   
 20  10  11  2   
 21  11  16  1   
 22  12  17  1   
 23  12  30  1   
 24  12  31  1   
 25  13  15  1   
 26  13  32  1   
 27  13  33  1   
 28  14  18  1   
 29  14  34  1   
 30  14  35  1   
 31  16  19  1   
 32  16  36  1   
 33  16  37  1   
 34  17  19  1   
 35  17  38  1   
 36  17  39  1   
 37  18  20  ar  
 38  18  21  ar  
 39  19  40  1   
 40  19  41  1   
 41  20  22  ar  
 42  20  42  1   
 43  21  23  ar  
 44  21  43  1   
 45  22  24  ar  
 46  22  44  1   
 47  23  24  ar  
 48  23  45  1   
@<TRIPOS>SUBSTRUCTURE
  1 ****   3 GROUP 4 **** **** 0

# MOE 2024.06 (io_trps.svl 2023.06)
