@<TRIPOS>MOLECULE
NONAME
56 59 1 0 0 
SMALL
USER_CHARGES


@<TRIPOS>ATOM
  1 O        0.1210     0.6920     0.8530 O.2   1 <1>  -0.5700 
  2 C        0.2860     1.8200     0.4530 C.2   1 <1>   0.5690 
  3 N       -0.6880     2.7820     0.5570 N.am  1 <1>  -0.6600 
  4 C        1.6420     2.1180    -0.1600 C.3   1 <1>  -0.0990 
  5 C       -2.0390     2.4510     1.1140 C.3   1 <1>   0.1400 
  6 C       -0.5910     4.1950     0.1020 C.3   1 <1>   0.1400 
  7 C        2.5980     2.7030     0.8890 C.3   1 <1>  -0.0220 
  8 C       -3.1420     2.6650     0.0470 C.3   1 <1>   0.0000 
  9 C       -1.6340     4.4500    -0.9910 C.3   1 <1>  -0.1600 
 10 C        4.0200     2.8370     0.3310 C.2   1 <1>  -0.1240 
 11 C       -4.5380     2.3680     0.6210 C.3   1 <1>   0.2000 
 12 C       -3.0540     4.1050    -0.5070 C.3   1 <1>  -0.1600 
 13 C       -3.0310     1.6030    -1.0610 C.3   1 <1>  -0.1600 
 14 C        4.4460     4.0780    -0.2600 C.2   1 <1>   0.3750 
 15 C        4.9020     1.7910     0.3830 C.2   1 <1>  -0.1690 
 16 O       -4.6710     2.8600     1.9220 O.3   1 <1>  -0.5600 
 17 C       -4.6890     0.8440     0.5780 C.3   1 <1>  -0.1600 
 18 C       -3.7140     0.3520    -0.5000 C.3   1 <1>  -0.1600 
 19 N        5.6300     4.2700    -0.7370 N.2   1 <1>  -0.5760 
 20 C        3.5010     5.2620    -0.3630 C.3   1 <1>  -0.1790 
 21 N        6.1740     2.0160    -0.1260 N.pl3 1 <1>   0.6010 
 22 C        4.6410     0.3870     0.9380 C.3   1 <1>  -0.1020 
 23 C       -5.9770     2.9010     2.4040 C.3   1 <1>   0.0400 
 24 C        6.5050     3.2220    -0.6630 C.2   1 <1>   0.3120 
 25 N        7.2330     1.2120    -0.2020 N.2   1 <1>  -0.7070 
 26 N        7.7320     3.2210    -1.0780 N.2   1 <1>  -0.5650 
 27 C        8.1100     1.9820    -0.7690 C.2   1 <1>   0.3660 
 28 H        2.0460     1.1930    -0.5270 H     1 <1>   0.0800 
 29 H        1.5400     2.7690    -1.0050 H     1 <1>   0.0800 
 30 H       -2.0650     1.4380     1.4740 H     1 <1>   0.0800 
 31 H       -2.2220     3.0920     1.9580 H     1 <1>   0.0800 
 32 H       -0.7840     4.8420     0.9410 H     1 <1>   0.0800 
 33 H        0.3880     4.4250    -0.2710 H     1 <1>   0.0800 
 34 H        2.6050     2.0610     1.7520 H     1 <1>   0.0800 
 35 H        2.2210     3.6440     1.2430 H     1 <1>   0.0800 
 36 H       -1.5990     5.4860    -1.2790 H     1 <1>   0.0800 
 37 H       -1.3880     3.8620    -1.8570 H     1 <1>   0.0800 
 38 H       -5.2830     2.8280    -0.0070 H     1 <1>   0.0800 
 39 H       -3.7540     4.2390    -1.3130 H     1 <1>   0.0800 
 40 H       -3.3280     4.7900     0.2770 H     1 <1>   0.0800 
 41 H       -3.5720     1.9300    -1.9320 H     1 <1>   0.0800 
 42 H       -2.0140     1.4010    -1.3480 H     1 <1>   0.0800 
 43 H       -4.4190     0.4160     1.5280 H     1 <1>   0.0800 
 44 H       -5.7000     0.5720     0.3330 H     1 <1>   0.0800 
 45 H       -2.9750    -0.2910    -0.0500 H     1 <1>   0.0800 
 46 H       -4.2200    -0.1940    -1.2770 H     1 <1>   0.0800 
 47 H        2.6160     4.9870    -0.9020 H     1 <1>   0.0800 
 48 H        3.9750     6.0700    -0.8930 H     1 <1>   0.0800 
 49 H        3.2410     5.6160     0.6170 H     1 <1>   0.0800 
 50 H        4.9200    -0.3510     0.2050 H     1 <1>   0.0800 
 51 H        3.6130     0.2150     1.1910 H     1 <1>   0.0800 
 52 H        5.2410     0.2260     1.8170 H     1 <1>   0.0800 
 53 H       -5.9520     3.3140     3.3970 H     1 <1>   0.0800 
 54 H       -6.3790     1.9040     2.4390 H     1 <1>   0.0800 
 55 H       -6.5730     3.5290     1.7650 H     1 <1>   0.0800 
 56 H        9.1120     1.6500    -0.9910 H     1 <1>   0.1500 
@<TRIPOS>BOND
  1   1   2  2   
  2   2   3  am  
  3   2   4  1   
  4   3   5  1   
  5   3   6  1   
  6   4   7  1   
  7   4  28  1   
  8   4  29  1   
  9   5   8  1   
 10   5  30  1   
 11   5  31  1   
 12   6   9  1   
 13   6  32  1   
 14   6  33  1   
 15   7  10  1   
 16   7  34  1   
 17   7  35  1   
 18   8  11  1   
 19   8  12  1   
 20   8  13  1   
 21   9  12  1   
 22   9  36  1   
 23   9  37  1   
 24  10  14  1   
 25  10  15  2   
 26  11  16  1   
 27  11  17  1   
 28  11  38  1   
 29  12  39  1   
 30  12  40  1   
 31  13  18  1   
 32  13  41  1   
 33  13  42  1   
 34  14  19  2   
 35  14  20  1   
 36  15  21  1   
 37  15  22  1   
 38  16  23  1   
 39  17  18  1   
 40  17  43  1   
 41  17  44  1   
 42  18  45  1   
 43  18  46  1   
 44  19  24  1   
 45  20  47  1   
 46  20  48  1   
 47  20  49  1   
 48  21  24  1   
 49  21  25  1   
 50  22  50  1   
 51  22  51  1   
 52  22  52  1   
 53  23  53  1   
 54  23  54  1   
 55  23  55  1   
 56  24  26  2   
 57  25  27  2   
 58  26  27  1   
 59  27  56  1   
@<TRIPOS>SUBSTRUCTURE
  1 ****   4 GROUP 4 **** **** 0

# MOE 2024.06 (io_trps.svl 2023.06)
