@<TRIPOS>MOLECULE
NONAME
59 62 1 0 0 
SMALL
USER_CHARGES


@<TRIPOS>ATOM
  1 O       -1.1440     0.4390    -1.5390 O.2   1 <1>  -0.5700 
  2 C       -1.3750     1.1860    -0.6030 C.2   1 <1>   0.6900 
  3 N       -0.6400     2.3350    -0.4680 N.am  1 <1>  -0.6600 
  4 N       -2.3680     0.8790     0.2960 N.am  1 <1>  -0.6600 
  5 C       -0.0580     3.0110    -1.6520 C.3   1 <1>   0.1400 
  6 C       -0.1140     2.8020     0.8370 C.3   1 <1>   0.1400 
  7 C       -3.2240     1.9550     0.8820 C.3   1 <1>   0.1400 
  8 C       -2.9350    -0.4950     0.3440 C.3   1 <1>   0.1400 
  9 C       -0.3260     4.5130    -1.5440 C.3   1 <1>  -0.1600 
 10 C       -0.3860     4.2990     0.9780 C.3   1 <1>  -0.1600 
 11 C       -4.6950     1.5260     1.0100 C.3   1 <1>  -0.1600 
 12 C       -4.2750    -0.5430    -0.4070 C.3   1 <1>  -0.1600 
 13 C        0.1870     5.0680    -0.2150 C.3   1 <1>   0.2890 
 14 C       -5.1440     0.7150    -0.2130 C.3   1 <1>  -0.1600 
 15 N       -0.2380     6.4700    -0.1100 N.pl3 1 <1>  -0.8690 
 16 C        0.3620     7.4100     0.6940 C.ar  1 <1>   0.4100 
 17 N        1.6130     7.1530     1.0730 N.ar  1 <1>  -0.6200 
 18 C       -0.3470     8.5660     1.0690 C.ar  1 <1>   0.0860 
 19 C        2.1870     8.0460     1.8540 C.ar  1 <1>   0.1600 
 20 C       -1.6940     8.7880     0.6000 C.2   1 <1>   0.5440 
 21 C        0.2890     9.4780     1.8990 C.ar  1 <1>  -0.1500 
 22 C        1.5790     9.2080     2.2940 C.ar  1 <1>  -0.1500 
 23 O       -2.5530     7.9370     0.7650 O.2   1 <1>  -0.5700 
 24 N       -2.0440     9.9530    -0.0450 N.am  1 <1>  -0.6600 
 25 C       -1.0810    10.8720    -0.6910 C.3   1 <1>   0.1400 
 26 C       -3.4200    10.2080    -0.5250 C.3   1 <1>   0.1400 
 27 C       -1.8670    11.5230    -1.8230 C.3   1 <1>  -0.1600 
 28 C       -3.3180    11.4830    -1.3540 C.3   1 <1>  -0.1600 
 29 H       -0.5020     2.6250    -2.5550 H     1 <1>   0.0800 
 30 H        1.0010     2.8170    -1.6850 H     1 <1>   0.0800 
 31 H        0.9470     2.6190     0.8700 H     1 <1>   0.0800 
 32 H       -0.5680     2.2580     1.6470 H     1 <1>   0.0800 
 33 H       -3.1710     2.8200     0.2430 H     1 <1>   0.0800 
 34 H       -2.8440     2.2290     1.8500 H     1 <1>   0.0800 
 35 H       -3.0850    -0.7650     1.3750 H     1 <1>   0.0800 
 36 H       -2.2460    -1.2040    -0.0840 H     1 <1>   0.0800 
 37 H       -1.3850     4.6780    -1.6270 H     1 <1>   0.0800 
 38 H        0.1640     5.0200    -2.3550 H     1 <1>   0.0800 
 39 H        0.0700     4.6580     1.8830 H     1 <1>   0.0800 
 40 H       -1.4460     4.4600     1.0440 H     1 <1>   0.0800 
 41 H       -5.3090     2.4030     1.1160 H     1 <1>   0.0800 
 42 H       -4.8180     0.9360     1.9010 H     1 <1>   0.0800 
 43 H       -4.8140    -1.4120    -0.0770 H     1 <1>   0.0800 
 44 H       -4.0740    -0.6710    -1.4570 H     1 <1>   0.0800 
 45 H        1.2630     5.0060    -0.2010 H     1 <1>   0.0800 
 46 H       -5.0490     1.3380    -1.0870 H     1 <1>   0.0800 
 47 H       -6.1790     0.4380    -0.1190 H     1 <1>   0.0800 
 48 H       -1.2610     6.5770    -0.1720 H     1 <1>   0.4000 
 49 H        3.1990     7.8440     2.1650 H     1 <1>   0.1500 
 50 H       -0.2220    10.3680     2.2230 H     1 <1>   0.1500 
 51 H        2.1130     9.8860     2.9360 H     1 <1>   0.1500 
 52 H       -0.2210    10.3420    -1.0650 H     1 <1>   0.0800 
 53 H       -0.7710    11.6160     0.0220 H     1 <1>   0.0800 
 54 H       -4.0980    10.3210     0.3040 H     1 <1>   0.0800 
 55 H       -3.7380     9.3810    -1.1390 H     1 <1>   0.0800 
 56 H       -1.7540    10.9270    -2.7120 H     1 <1>   0.0800 
 57 H       -1.5260    12.5230    -2.0250 H     1 <1>   0.0800 
 58 H       -3.5220    12.3280    -0.7190 H     1 <1>   0.0800 
 59 H       -4.0160    11.4830    -2.1730 H     1 <1>   0.0800 
@<TRIPOS>BOND
  1   1   2  2   
  2   2   3  am  
  3   2   4  am  
  4   3   5  1   
  5   3   6  1   
  6   4   7  1   
  7   4   8  1   
  8   5   9  1   
  9   5  29  1   
 10   5  30  1   
 11   6  10  1   
 12   6  31  1   
 13   6  32  1   
 14   7  11  1   
 15   7  33  1   
 16   7  34  1   
 17   8  12  1   
 18   8  35  1   
 19   8  36  1   
 20   9  13  1   
 21   9  37  1   
 22   9  38  1   
 23  10  13  1   
 24  10  39  1   
 25  10  40  1   
 26  11  14  1   
 27  11  41  1   
 28  11  42  1   
 29  12  14  1   
 30  12  43  1   
 31  12  44  1   
 32  13  15  1   
 33  13  45  1   
 34  14  46  1   
 35  14  47  1   
 36  15  16  1   
 37  15  48  1   
 38  16  17  ar  
 39  16  18  ar  
 40  17  19  ar  
 41  18  20  1   
 42  18  21  ar  
 43  19  22  ar  
 44  19  49  1   
 45  20  23  2   
 46  20  24  am  
 47  21  22  ar  
 48  21  50  1   
 49  22  51  1   
 50  24  25  1   
 51  24  26  1   
 52  25  27  1   
 53  25  52  1   
 54  25  53  1   
 55  26  28  1   
 56  26  54  1   
 57  26  55  1   
 58  27  28  1   
 59  27  56  1   
 60  27  57  1   
 61  28  58  1   
 62  28  59  1   
@<TRIPOS>SUBSTRUCTURE
  1 ****  15 GROUP 4 **** **** 0

# MOE 2024.06 (io_trps.svl 2023.06)
