@<TRIPOS>MOLECULE
NONAME
45 46 1 0 0 
SMALL
USER_CHARGES


@<TRIPOS>ATOM
  1 S        0.1570     0.2800     0.9740 S.o2  1 <1>   1.3330 
  2 O       -1.1930     0.2350     1.4890 O.2   1 <1>  -0.6500 
  3 O        1.2540     0.5670     1.8710 O.2   1 <1>  -0.6500 
  4 N        0.4870    -1.1970     0.2060 N.am  1 <1>  -0.8490 
  5 C        0.1850     1.4520    -0.3810 C.3   1 <1>  -0.0550 
  6 C        1.9180    -1.4350    -0.0130 C.3   1 <1>   0.1160 
  7 C       -0.1050    -2.3350     0.9150 C.3   1 <1>   0.1160 
  8 C       -0.1400     2.8900     0.0570 C.3   1 <1>  -0.0800 
  9 C       -0.1860     3.8480    -1.1240 C.3   1 <1>   0.2000 
 10 C        0.9010     3.5040     0.9970 C.3   1 <1>   0.2090 
 11 O       -1.4310     3.7910    -1.7350 O.3   1 <1>  -0.6800 
 12 C        0.1090     5.2200    -0.5260 C.3   1 <1>   0.2090 
 13 N        0.9770     4.9510     0.6540 N.pl3 1 <1>  -0.8380 
 14 C        2.2450     5.5010     0.6280 C.ar  1 <1>   0.4100 
 15 N        3.0110     5.1100    -0.3860 N.ar  1 <1>  -0.6200 
 16 C        2.6630     6.3990     1.6150 C.ar  1 <1>   0.0730 
 17 C        4.2290     5.6130    -0.4440 C.ar  1 <1>   0.1670 
 18 C        1.7870     6.7820     2.6790 C.1   1 <1>   0.4840 
 19 C        3.9440     6.9090     1.5370 C.ar  1 <1>  -0.1500 
 20 C        4.7480     6.5080     0.4880 C.ar  1 <1>  -0.1440 
 21 C        5.0580     5.1370    -1.6230 C.3   1 <1>  -0.0970 
 22 N        1.1330     7.1290     3.5480 N.1   1 <1>  -0.5570 
 23 C        6.1670     7.0570     0.3960 C.3   1 <1>  -0.0970 
 24 H        1.1490     1.4360    -0.8500 H     1 <1>   0.0800 
 25 H       -0.5390     1.1460    -1.1120 H     1 <1>   0.0800 
 26 H        2.0590    -2.3380    -0.5810 H     1 <1>   0.0800 
 27 H        2.4330    -1.5290     0.9300 H     1 <1>   0.0800 
 28 H        2.3510    -0.6170    -0.5620 H     1 <1>   0.0800 
 29 H        0.1080    -3.2530     0.3940 H     1 <1>   0.0800 
 30 H       -1.1750    -2.2210     0.9690 H     1 <1>   0.0800 
 31 H        0.2860    -2.3970     1.9180 H     1 <1>   0.0800 
 32 H       -1.0860     2.9070     0.5710 H     1 <1>   0.0800 
 33 H        0.5680     3.6100    -1.8550 H     1 <1>   0.0800 
 34 H        1.8650     3.0440     0.8520 H     1 <1>   0.0800 
 35 H        0.6110     3.3800     2.0280 H     1 <1>   0.0800 
 36 H       -2.1370     3.9810    -1.0870 H     1 <1>   0.4000 
 37 H       -0.7960     5.6930    -0.1880 H     1 <1>   0.0800 
 38 H        0.6050     5.8500    -1.2440 H     1 <1>   0.0800 
 39 H        4.3000     7.6020     2.2800 H     1 <1>   0.1500 
 40 H        5.6280     5.9440    -2.0440 H     1 <1>   0.0800 
 41 H        4.4170     4.7460    -2.3930 H     1 <1>   0.0800 
 42 H        5.7230     4.3560    -1.3040 H     1 <1>   0.0800 
 43 H        6.4320     7.5930     1.2900 H     1 <1>   0.0800 
 44 H        6.2470     7.7300    -0.4390 H     1 <1>   0.0800 
 45 H        6.8710     6.2540     0.2690 H     1 <1>   0.0800 
@<TRIPOS>BOND
  1   1   2  2   
  2   1   3  2   
  3   1   4  am  
  4   1   5  1   
  5   4   6  1   
  6   4   7  1   
  7   5   8  1   
  8   5  24  1   
  9   5  25  1   
 10   6  26  1   
 11   6  27  1   
 12   6  28  1   
 13   7  29  1   
 14   7  30  1   
 15   7  31  1   
 16   8   9  1   
 17   8  10  1   
 18   8  32  1   
 19   9  11  1   
 20   9  12  1   
 21   9  33  1   
 22  10  13  1   
 23  10  34  1   
 24  10  35  1   
 25  11  36  1   
 26  12  13  1   
 27  12  37  1   
 28  12  38  1   
 29  13  14  1   
 30  14  15  ar  
 31  14  16  ar  
 32  15  17  ar  
 33  16  18  1   
 34  16  19  ar  
 35  17  20  ar  
 36  17  21  1   
 37  18  22  3   
 38  19  20  ar  
 39  19  39  1   
 40  20  23  1   
 41  21  40  1   
 42  21  41  1   
 43  21  42  1   
 44  23  43  1   
 45  23  44  1   
 46  23  45  1   
@<TRIPOS>SUBSTRUCTURE
  1 ****  10 GROUP 4 **** **** 0

# MOE 2024.06 (io_trps.svl 2023.06)
