@<TRIPOS>MOLECULE
NONAME
44 46 1 0 0 
SMALL
USER_CHARGES


@<TRIPOS>ATOM
  1 S       -0.9740    -0.4280     1.0660 S.3   1 <1>  -0.0800 
  2 C       -0.9200    -1.2820    -0.4430 C.2   1 <1>   0.4420 
  3 C       -0.3910     0.9600     0.2150 C.2   1 <1>   0.1980 
  4 N       -0.5050    -0.5360    -1.4030 N.2   1 <1>  -0.3380 
  5 N       -1.3130    -2.6000    -0.4250 N.am  1 <1>  -0.4940 
  6 N       -0.2050     0.7400    -1.0200 N.2   1 <1>  -0.3380 
  7 C       -0.1660     2.2440     0.9820 C.3   1 <1>   0.0200 
  8 C       -1.3810    -3.5310    -1.4370 C.2   1 <1>   0.6300 
  9 C        0.3790     3.3050     0.0180 C.3   1 <1>   0.3430 
 10 O       -1.0590    -3.2230    -2.5690 O.2   1 <1>  -0.5700 
 11 C       -1.8450    -4.8740    -1.1120 C.2   1 <1>   0.4360 
 12 N        0.7000     4.6070     0.6940 N.4   1 <1>  -0.9590 
 13 N       -2.1830    -5.1630     0.1260 N.2   1 <1>  -0.5760 
 14 C       -1.9280    -5.8690    -2.1450 C.2   1 <1>  -0.1360 
 15 C       -0.5270     5.3280     1.1650 C.3   1 <1>   0.2630 
 16 C        1.4730     5.4790    -0.2450 C.3   1 <1>   0.2630 
 17 C       -2.6120    -6.4420     0.3780 C.2   1 <1>  -0.0260 
 18 C       -2.3550    -7.1320    -1.8870 C.2   1 <1>  -0.1690 
 19 N       -2.7090    -7.4280    -0.5790 N.pl3 1 <1>   0.6010 
 20 C       -3.0200    -7.0190     1.5390 C.2   1 <1>  -0.1500 
 21 C       -2.4650    -8.2310    -2.9360 C.3   1 <1>  -0.1020 
 22 N       -3.1580    -8.5870    -0.0550 N.2   1 <1>  -0.7070 
 23 C       -3.3380    -8.3230     1.2080 C.2   1 <1>   0.1080 
 24 C       -3.8440    -9.3710     2.1720 C.3   1 <1>  -0.0590 
 25 H       -1.6080    -2.9770     0.4780 H     1 <1>   0.3700 
 26 H        0.5420     2.0570     1.7680 H     1 <1>   0.0800 
 27 H       -1.1030     2.5570     1.4040 H     1 <1>   0.0800 
 28 H       -0.3400     3.4680    -0.7700 H     1 <1>   0.0800 
 29 H        1.2730     2.9110    -0.4410 H     1 <1>   0.0800 
 30 H        1.3050     4.4140     1.5080 H     1 <1>   0.4500 
 31 H       -1.6380    -5.5730    -3.1390 H     1 <1>   0.1500 
 32 H       -1.1860     5.5300     0.3360 H     1 <1>   0.0800 
 33 H       -0.2570     6.2650     1.6250 H     1 <1>   0.0800 
 34 H       -1.0600     4.7360     1.8920 H     1 <1>   0.0800 
 35 H        0.8820     5.7060    -1.1190 H     1 <1>   0.0800 
 36 H        2.3760     4.9820    -0.5610 H     1 <1>   0.0800 
 37 H        1.7420     6.4050     0.2370 H     1 <1>   0.0800 
 38 H       -3.0810    -6.5590     2.5070 H     1 <1>   0.1500 
 39 H       -1.8400    -9.0630    -2.6640 H     1 <1>   0.0800 
 40 H       -2.1620    -7.8730    -3.9030 H     1 <1>   0.0800 
 41 H       -3.4820    -8.5770    -2.9990 H     1 <1>   0.0800 
 42 H       -3.9260    -8.9640     3.1630 H     1 <1>   0.0800 
 43 H       -3.1650   -10.2030     2.1870 H     1 <1>   0.0800 
 44 H       -4.8100    -9.7160     1.8520 H     1 <1>   0.0800 
@<TRIPOS>BOND
  1   1   2  1   
  2   1   3  1   
  3   2   4  2   
  4   2   5  1   
  5   3   6  2   
  6   3   7  1   
  7   4   6  1   
  8   5   8  am  
  9   5  25  1   
 10   7   9  1   
 11   7  26  1   
 12   7  27  1   
 13   8  10  2   
 14   8  11  1   
 15   9  12  1   
 16   9  28  1   
 17   9  29  1   
 18  11  13  2   
 19  11  14  1   
 20  12  15  1   
 21  12  16  1   
 22  12  30  1   
 23  13  17  1   
 24  14  18  2   
 25  14  31  1   
 26  15  32  1   
 27  15  33  1   
 28  15  34  1   
 29  16  35  1   
 30  16  36  1   
 31  16  37  1   
 32  17  19  1   
 33  17  20  2   
 34  18  19  1   
 35  18  21  1   
 36  19  22  1   
 37  20  23  1   
 38  20  38  1   
 39  21  39  1   
 40  21  40  1   
 41  21  41  1   
 42  22  23  2   
 43  23  24  1   
 44  24  42  1   
 45  24  43  1   
 46  24  44  1   
@<TRIPOS>SUBSTRUCTURE
  1 ****   5 GROUP 4 **** **** 0

# MOE 2024.06 (io_trps.svl 2023.06)
