@<TRIPOS>MOLECULE
NONAME
56 58 1 0 0 
SMALL
USER_CHARGES


@<TRIPOS>ATOM
  1 O       -1.2410    -0.3670     0.5790 O.2   1 <1>  -0.5700 
  2 C       -2.1930     0.3530     0.3460 C.2   1 <1>   0.7160 
  3 N       -3.4180    -0.0970     0.7370 N.am  1 <1>  -0.7300 
  4 C       -2.0550     1.6030    -0.3360 C.2   1 <1>  -0.0860 
  5 C       -3.7110    -1.1530     1.7500 C.3   1 <1>   0.1400 
  6 C       -3.0550     2.5690    -0.5070 C.2   1 <1>   0.3720 
  7 C       -0.9760     2.1680    -0.9430 C.2   1 <1>   0.0870 
  8 C       -3.6680    -2.5760     1.1540 C.3   1 <1>   0.3430 
  9 N       -2.6090     3.5980    -1.1340 N.2   1 <1>  -0.4100 
 10 N       -4.3770     2.4600    -0.0530 N.pl3 1 <1>  -0.8210 
 11 O       -1.3540     3.3400    -1.3850 O.3   1 <1>  -0.0190 
 12 C        0.3760     1.7260    -1.1620 C.ar  1 <1>   0.0530 
 13 N       -2.3030    -2.9150     0.6330 N.4   1 <1>  -0.9590 
 14 C       -4.6640     3.4150     1.0660 C.3   1 <1>   0.2090 
 15 C       -5.3830     2.6880    -1.1420 C.3   1 <1>   0.2090 
 16 C        0.6610     0.4590    -1.6710 C.ar  1 <1>  -0.1500 
 17 C        1.4520     2.5660    -0.8820 C.ar  1 <1>  -0.1500 
 18 C       -2.3080    -3.6250    -0.6750 C.3   1 <1>   0.4230 
 19 C       -1.4890    -3.5750     1.7020 C.3   1 <1>   0.2630 
 20 C       -6.1250     3.2920     1.5370 C.3   1 <1>   0.1200 
 21 C       -6.8200     2.5870    -0.5980 C.3   1 <1>   0.1200 
 22 C        1.9630     0.0440    -1.8800 C.ar  1 <1>  -0.1500 
 23 C        2.7570     2.1570    -1.0890 C.ar  1 <1>  -0.1500 
 24 C       -0.8770    -3.9640    -1.0970 C.3   1 <1>  -0.2400 
 25 C       -2.9280    -2.7200    -1.7420 C.3   1 <1>  -0.2400 
 26 O       -7.0130     3.4710     0.4700 O.3   1 <1>  -0.5600 
 27 C        3.0150     0.8930    -1.5880 C.ar  1 <1>  -0.1500 
 28 H       -4.1630     0.6060     0.5800 H     1 <1>   0.3700 
 29 H       -4.6920    -0.9750     2.1560 H     1 <1>   0.0800 
 30 H       -3.0050    -1.0780     2.5600 H     1 <1>   0.0800 
 31 H       -4.3990    -2.6320     0.3670 H     1 <1>   0.0800 
 32 H       -3.9530    -3.2900     1.9090 H     1 <1>   0.0800 
 33 H       -1.8440    -1.9970     0.4490 H     1 <1>   0.4500 
 34 H       -4.4840     4.4260     0.7400 H     1 <1>   0.0800 
 35 H       -4.0040     3.2110     1.8910 H     1 <1>   0.0800 
 36 H       -5.2420     1.9570    -1.9200 H     1 <1>   0.0800 
 37 H       -5.2430     3.6640    -1.5770 H     1 <1>   0.0800 
 38 H       -0.1490    -0.2050    -1.9080 H     1 <1>   0.1500 
 39 H        1.2610     3.5530    -0.4960 H     1 <1>   0.1500 
 40 H       -2.8800    -4.5360    -0.5970 H     1 <1>   0.0800 
 41 H       -1.8640    -4.5650     1.9030 H     1 <1>   0.0800 
 42 H       -1.5260    -2.9950     2.6090 H     1 <1>   0.0800 
 43 H       -0.4580    -3.6470     1.3960 H     1 <1>   0.0800 
 44 H       -6.3410     4.0480     2.2710 H     1 <1>   0.0800 
 45 H       -6.3030     2.3250     1.9730 H     1 <1>   0.0800 
 46 H       -7.0280     1.5880    -0.2590 H     1 <1>   0.0800 
 47 H       -7.5250     2.8460    -1.3670 H     1 <1>   0.0800 
 48 H        2.1630    -0.9370    -2.2740 H     1 <1>   0.1500 
 49 H        3.5720     2.8220    -0.8630 H     1 <1>   0.1500 
 50 H       -0.2530    -3.0870    -1.0840 H     1 <1>   0.0800 
 51 H       -0.8770    -4.3580    -2.0980 H     1 <1>   0.0800 
 52 H       -0.4520    -4.7220    -0.4660 H     1 <1>   0.0800 
 53 H       -2.4020    -1.7840    -1.8040 H     1 <1>   0.0800 
 54 H       -3.9690    -2.5340    -1.5580 H     1 <1>   0.0800 
 55 H       -2.8640    -3.1990    -2.7030 H     1 <1>   0.0800 
 56 H        4.0300     0.5740    -1.7500 H     1 <1>   0.1500 
@<TRIPOS>BOND
  1   1   2  2   
  2   2   3  am  
  3   2   4  1   
  4   3   5  1   
  5   3  28  1   
  6   4   6  1   
  7   4   7  2   
  8   5   8  1   
  9   5  29  1   
 10   5  30  1   
 11   6   9  2   
 12   6  10  1   
 13   7  11  1   
 14   7  12  1   
 15   8  13  1   
 16   8  31  1   
 17   8  32  1   
 18   9  11  1   
 19  10  14  1   
 20  10  15  1   
 21  12  16  ar  
 22  12  17  ar  
 23  13  18  1   
 24  13  19  1   
 25  13  33  1   
 26  14  20  1   
 27  14  34  1   
 28  14  35  1   
 29  15  21  1   
 30  15  36  1   
 31  15  37  1   
 32  16  22  ar  
 33  16  38  1   
 34  17  23  ar  
 35  17  39  1   
 36  18  24  1   
 37  18  25  1   
 38  18  40  1   
 39  19  41  1   
 40  19  42  1   
 41  19  43  1   
 42  20  26  1   
 43  20  44  1   
 44  20  45  1   
 45  21  26  1   
 46  21  46  1   
 47  21  47  1   
 48  22  27  ar  
 49  22  48  1   
 50  23  27  ar  
 51  23  49  1   
 52  24  50  1   
 53  24  51  1   
 54  24  52  1   
 55  25  53  1   
 56  25  54  1   
 57  25  55  1   
 58  27  56  1   
@<TRIPOS>SUBSTRUCTURE
  1 ****   2 GROUP 4 **** **** 0

# MOE 2024.06 (io_trps.svl 2023.06)
