@<TRIPOS>MOLECULE
NONAME
48 49 1 0 0 
SMALL
USER_CHARGES


@<TRIPOS>ATOM
  1 F        0.7450     0.0670     0.6240 F     1 <1>  -0.1900 
  2 C        1.7370     0.9070     0.4910 C.ar  1 <1>   0.1900 
  3 C        3.0260     0.4130     0.4340 C.ar  1 <1>  -0.1500 
  4 C        1.4590     2.2590     0.4120 C.ar  1 <1>  -0.1500 
  5 C        4.0710     1.3100     0.2930 C.ar  1 <1>  -0.1500 
  6 C        2.5110     3.1490     0.2710 C.ar  1 <1>  -0.1500 
  7 C        3.8230     2.6750     0.2110 C.ar  1 <1>   0.0830 
  8 O        4.9080     3.4780     0.0740 O.3   1 <1>  -0.3630 
  9 C        4.7810     4.8740    -0.0220 C.3   1 <1>   0.1200 
 10 C        6.1900     5.4450    -0.1720 C.3   1 <1>  -0.1600 
 11 C        6.1490     6.9680    -0.2880 C.3   1 <1>   0.3430 
 12 N        7.5310     7.5240    -0.3340 N.4   1 <1>  -0.9590 
 13 C        7.4930     8.9950    -0.0820 C.3   1 <1>   0.3430 
 14 C        8.2070     7.2270    -1.6400 C.3   1 <1>   0.2630 
 15 C        8.8750     9.5210     0.3060 C.3   1 <1>  -0.1600 
 16 C        8.8170    11.0360     0.5070 C.3   1 <1>   0.2000 
 17 O        8.1930    11.5700    -0.6190 O.3   1 <1>  -0.5600 
 18 C       10.2180    11.6500     0.6610 C.3   1 <1>  -0.1600 
 19 C        7.9780    12.9520    -0.5770 C.3   1 <1>   0.1200 
 20 C       10.1410    13.1800     0.7020 C.3   1 <1>  -0.1600 
 21 C        9.3230    13.6820    -0.4920 C.3   1 <1>  -0.1600 
 22 H        3.2020    -0.6460     0.4990 H     1 <1>   0.1500 
 23 H        0.4410     2.6000     0.4610 H     1 <1>   0.1500 
 24 H        5.0860     0.9560     0.2460 H     1 <1>   0.1500 
 25 H        2.2870     4.1970     0.2110 H     1 <1>   0.1500 
 26 H        4.3060     5.2310     0.8760 H     1 <1>   0.0800 
 27 H        4.1740     5.0980    -0.8840 H     1 <1>   0.0800 
 28 H        6.6320     5.0150    -1.0520 H     1 <1>   0.0800 
 29 H        6.7640     5.1630     0.6930 H     1 <1>   0.0800 
 30 H        5.6300     7.3660     0.5690 H     1 <1>   0.0800 
 31 H        5.6050     7.2570    -1.1740 H     1 <1>   0.0800 
 32 H        8.0740     7.0910     0.4270 H     1 <1>   0.4500 
 33 H        6.8050     9.2140     0.7190 H     1 <1>   0.0800 
 34 H        7.1460     9.5110    -0.9650 H     1 <1>   0.0800 
 35 H        7.6620     7.6760    -2.4540 H     1 <1>   0.0800 
 36 H        8.2600     6.1630    -1.8060 H     1 <1>   0.0800 
 37 H        9.2110     7.6180    -1.6440 H     1 <1>   0.0800 
 38 H        9.5890     9.3140    -0.4700 H     1 <1>   0.0800 
 39 H        9.2080     9.0610     1.2180 H     1 <1>   0.0800 
 40 H        8.2120    11.2740     1.3670 H     1 <1>   0.0800 
 41 H       10.8340    11.3490    -0.1680 H     1 <1>   0.0800 
 42 H       10.6790    11.2900     1.5640 H     1 <1>   0.0800 
 43 H        7.3580    13.1810     0.2730 H     1 <1>   0.0800 
 44 H        7.4560    13.2330    -1.4760 H     1 <1>   0.0800 
 45 H       11.1310    13.6030     0.6760 H     1 <1>   0.0800 
 46 H        9.6670    13.4930     1.6170 H     1 <1>   0.0800 
 47 H        9.1530    14.7400    -0.3990 H     1 <1>   0.0800 
 48 H        9.8670    13.5160    -1.4060 H     1 <1>   0.0800 
@<TRIPOS>BOND
  1   1   2  1   
  2   2   3  ar  
  3   2   4  ar  
  4   3   5  ar  
  5   3  22  1   
  6   4   6  ar  
  7   4  23  1   
  8   5   7  ar  
  9   5  24  1   
 10   6   7  ar  
 11   6  25  1   
 12   7   8  1   
 13   8   9  1   
 14   9  10  1   
 15   9  26  1   
 16   9  27  1   
 17  10  11  1   
 18  10  28  1   
 19  10  29  1   
 20  11  12  1   
 21  11  30  1   
 22  11  31  1   
 23  12  13  1   
 24  12  14  1   
 25  12  32  1   
 26  13  15  1   
 27  13  33  1   
 28  13  34  1   
 29  14  35  1   
 30  14  36  1   
 31  14  37  1   
 32  15  16  1   
 33  15  38  1   
 34  15  39  1   
 35  16  17  1   
 36  16  18  1   
 37  16  40  1   
 38  17  19  1   
 39  18  20  1   
 40  18  41  1   
 41  18  42  1   
 42  19  21  1   
 43  19  43  1   
 44  19  44  1   
 45  20  21  1   
 46  20  45  1   
 47  20  46  1   
 48  21  47  1   
 49  21  48  1   
@<TRIPOS>SUBSTRUCTURE
  1 ****  11 GROUP 4 **** **** 0

# MOE 2024.06 (io_trps.svl 2023.06)
