@<TRIPOS>MOLECULE
NONAME
52 53 1 0 0 
SMALL
USER_CHARGES


@<TRIPOS>ATOM
  1 O        1.8130     0.4870     1.5820 O.2   1 <1>  -0.5700 
  2 C        2.3150    -0.1120     0.6500 C.2   1 <1>   0.5440 
  3 N        2.4710     0.5360    -0.5610 N.am  1 <1>  -0.6600 
  4 C        2.7190    -1.4880     0.8510 C.ar  1 <1>   0.0860 
  5 C        3.0280    -0.1270    -1.7890 C.3   1 <1>   0.1400 
  6 C        2.1170     1.9780    -0.6970 C.3   1 <1>   0.1400 
  7 C        1.8000    -2.4970     1.0740 C.ar  1 <1>  -0.1500 
  8 C        4.0450    -1.8930     0.8430 C.ar  1 <1>  -0.1500 
  9 C        4.0940     0.7070    -2.5230 C.3   1 <1>   0.1400 
 10 C        3.3080     2.8590    -0.2980 C.3   1 <1>  -0.1600 
 11 C        2.2200    -3.8030     1.2490 C.ar  1 <1>   0.3920 
 12 C        4.3700    -3.2220     1.0240 C.ar  1 <1>   0.1600 
 13 N        4.9490     1.4830    -1.5800 N.am  1 <1>  -0.6600 
 14 C        4.4670     2.8620    -1.3030 C.3   1 <1>   0.1400 
 15 O        1.2610    -4.7300     1.4540 O.3   1 <1>  -0.3630 
 16 N        3.4920    -4.1900     1.2240 N.ar  1 <1>  -0.6200 
 17 C        6.0180     0.8880    -0.9540 C.2   1 <1>   0.5690 
 18 C        1.5950    -6.0890     1.6580 C.3   1 <1>   0.0400 
 19 O        6.3080    -0.2670    -1.1800 O.2   1 <1>  -0.5700 
 20 C        6.8420     1.6210     0.1100 C.3   1 <1>   0.1810 
 21 O        7.5300     2.7350    -0.4100 O.3   1 <1>  -0.5600 
 22 C        8.3780     3.3780     0.4870 C.3   1 <1>   0.1200 
 23 C        9.7490     2.6950     0.4750 C.3   1 <1>  -0.1600 
 24 C       10.7420     3.4360     1.3790 C.3   1 <1>  -0.1600 
 25 C       12.1130     2.7540     1.3660 C.3   1 <1>  -0.2400 
 26 H        2.2210    -0.3370    -2.4680 H     1 <1>   0.0800 
 27 H        3.4750    -1.0700    -1.5370 H     1 <1>   0.0800 
 28 H        1.2830     2.2000    -0.0520 H     1 <1>   0.0800 
 29 H        1.8080     2.1900    -1.7050 H     1 <1>   0.0800 
 30 H        0.7520    -2.2700     1.1150 H     1 <1>   0.1500 
 31 H        4.8210    -1.1670     0.6910 H     1 <1>   0.1500 
 32 H        3.6110     1.3790    -3.2090 H     1 <1>   0.0800 
 33 H        4.7110     0.0480    -3.1100 H     1 <1>   0.0800 
 34 H        3.6640     2.5570     0.6710 H     1 <1>   0.0800 
 35 H        2.9560     3.8690    -0.2000 H     1 <1>   0.0800 
 36 H        5.4100    -3.5060     1.0030 H     1 <1>   0.1500 
 37 H        5.2660     3.4720    -0.9230 H     1 <1>   0.0800 
 38 H        4.1430     3.3130    -2.2260 H     1 <1>   0.0800 
 39 H        0.6860    -6.6440     1.8020 H     1 <1>   0.0800 
 40 H        2.2190    -6.1660     2.5310 H     1 <1>   0.0800 
 41 H        2.1180    -6.4530     0.7910 H     1 <1>   0.0800 
 42 H        7.5590     0.9340     0.5190 H     1 <1>   0.0800 
 43 H        6.1880     1.9570     0.8930 H     1 <1>   0.0800 
 44 H        7.9380     3.3760     1.4710 H     1 <1>   0.0800 
 45 H        8.4780     4.3970     0.1540 H     1 <1>   0.0800 
 46 H       10.1240     2.6890    -0.5350 H     1 <1>   0.0800 
 47 H        9.6570     1.6790     0.8140 H     1 <1>   0.0800 
 48 H       10.3680     3.4570     2.3890 H     1 <1>   0.0800 
 49 H       10.8510     4.4530     1.0410 H     1 <1>   0.0800 
 50 H       12.0340     1.7410     1.7220 H     1 <1>   0.0800 
 51 H       12.7960     3.2870     2.0030 H     1 <1>   0.0800 
 52 H       12.5160     2.7400     0.3690 H     1 <1>   0.0800 
@<TRIPOS>BOND
  1   1   2  2   
  2   2   3  am  
  3   2   4  1   
  4   3   5  1   
  5   3   6  1   
  6   4   7  ar  
  7   4   8  ar  
  8   5   9  1   
  9   5  26  1   
 10   5  27  1   
 11   6  10  1   
 12   6  28  1   
 13   6  29  1   
 14   7  11  ar  
 15   7  30  1   
 16   8  12  ar  
 17   8  31  1   
 18   9  13  1   
 19   9  32  1   
 20   9  33  1   
 21  10  14  1   
 22  10  34  1   
 23  10  35  1   
 24  11  15  1   
 25  11  16  ar  
 26  12  16  ar  
 27  12  36  1   
 28  13  14  1   
 29  13  17  am  
 30  14  37  1   
 31  14  38  1   
 32  15  18  1   
 33  17  19  2   
 34  17  20  1   
 35  18  39  1   
 36  18  40  1   
 37  18  41  1   
 38  20  21  1   
 39  20  42  1   
 40  20  43  1   
 41  21  22  1   
 42  22  23  1   
 43  22  44  1   
 44  22  45  1   
 45  23  24  1   
 46  23  46  1   
 47  23  47  1   
 48  24  25  1   
 49  24  48  1   
 50  24  49  1   
 51  25  50  1   
 52  25  51  1   
 53  25  52  1   
@<TRIPOS>SUBSTRUCTURE
  1 ****  17 GROUP 4 **** **** 0

# MOE 2024.06 (io_trps.svl 2023.06)
