@<TRIPOS>MOLECULE
NONAME
58 61 1 0 0 
SMALL
USER_CHARGES


@<TRIPOS>ATOM
  1 S       -0.1900     0.1300    -0.4720 S.3   1 <1>  -0.0800 
  2 C       -0.9710     1.4180     0.4430 C.2   1 <1>   0.3250 
  3 C       -1.4190    -0.9870     0.0280 C.2   1 <1>  -0.1400 
  4 N       -2.0170     0.9990     1.0690 N.2   1 <1>  -0.5650 
  5 C       -0.3860     2.7360     0.4520 C.ar  1 <1>   0.0530 
  6 C       -2.2730    -0.3300     0.8290 C.2   1 <1>   0.0770 
  7 C       -1.2990    -2.3910    -0.5170 C.3   1 <1>   0.5230 
  8 C        0.0170     3.4090    -0.7120 C.ar  1 <1>   0.0830 
  9 C       -0.2150     3.3880     1.6740 C.ar  1 <1>  -0.1500 
 10 N       -2.3760    -3.2530     0.0480 N.4   1 <1>  -0.9590 
 11 O       -0.1980     2.8010    -1.9070 O.3   1 <1>  -0.3620 
 12 C        0.6000     4.6720    -0.6240 C.ar  1 <1>  -0.1500 
 13 C        0.3570     4.6420     1.7550 C.ar  1 <1>  -0.1500 
 14 C       -2.7030    -4.4480    -0.8000 C.3   1 <1>   0.3430 
 15 C       -2.1390    -3.5710     1.4890 C.3   1 <1>   0.3430 
 16 C        0.0940     3.4230    -3.1390 C.3   1 <1>   0.0400 
 17 C        0.7710     5.2840     0.6030 C.ar  1 <1>  -0.1500 
 18 C       -3.9140    -5.2910    -0.2760 C.3   1 <1>   0.4230 
 19 C       -3.1410    -4.6120     2.0240 C.3   1 <1>  -0.1600 
 20 N       -5.0610    -5.5380    -1.2520 N.4   1 <1>  -0.9590 
 21 C       -4.3970    -4.8840     1.1490 C.3   1 <1>   0.0000 
 22 C       -6.2630    -6.1730    -0.6020 C.3   1 <1>   0.3430 
 23 C       -5.5100    -4.3440    -2.0480 C.3   1 <1>   0.2630 
 24 C       -5.1510    -6.1150     1.7280 C.3   1 <1>  -0.1600 
 25 C       -5.3790    -3.6690     1.2310 C.3   1 <1>   0.1200 
 26 C       -5.8760    -6.9610     0.6550 C.3   1 <1>  -0.1600 
 27 O       -4.9740    -2.5740     0.4770 O.3   1 <1>  -0.6800 
 28 H       -3.1480    -0.7360     1.3040 H     1 <1>   0.1500 
 29 H       -0.3290    -2.7940    -0.2720 H     1 <1>   0.0800 
 30 H       -1.3840    -2.3440    -1.5910 H     1 <1>   0.0800 
 31 H       -0.5390     2.8960     2.5750 H     1 <1>   0.1500 
 32 H       -3.2370    -2.6670     0.0510 H     1 <1>   0.4500 
 33 H        0.9260     5.1990    -1.5000 H     1 <1>   0.1500 
 34 H        0.4800     5.1200     2.7120 H     1 <1>   0.1500 
 35 H       -2.9040    -4.1280    -1.8080 H     1 <1>   0.0800 
 36 H       -1.8380    -5.0910    -0.8270 H     1 <1>   0.0800 
 37 H       -1.1360    -3.9440     1.6270 H     1 <1>   0.0800 
 38 H       -2.2290    -2.6670     2.0720 H     1 <1>   0.0800 
 39 H       -0.1950     2.7530    -3.9290 H     1 <1>   0.0800 
 40 H        1.1510     3.6150    -3.1920 H     1 <1>   0.0800 
 41 H       -0.4700     4.3360    -3.2120 H     1 <1>   0.0800 
 42 H        1.2200     6.2600     0.6640 H     1 <1>   0.1500 
 43 H       -3.4780    -6.2650    -0.1240 H     1 <1>   0.0800 
 44 H       -2.5880    -5.5290     2.1470 H     1 <1>   0.0800 
 45 H       -3.4380    -4.3170     3.0160 H     1 <1>   0.0800 
 46 H       -4.7280    -6.2390    -1.9330 H     1 <1>   0.4500 
 47 H       -6.9710    -5.4100    -0.3220 H     1 <1>   0.0800 
 48 H       -6.7570    -6.8280    -1.3040 H     1 <1>   0.0800 
 49 H       -5.9260    -3.5900    -1.4010 H     1 <1>   0.0800 
 50 H       -6.2710    -4.6350    -2.7550 H     1 <1>   0.0800 
 51 H       -4.6890    -3.9150    -2.5970 H     1 <1>   0.0800 
 52 H       -4.4720    -6.7740     2.2450 H     1 <1>   0.0800 
 53 H       -5.8650    -5.7930     2.4700 H     1 <1>   0.0800 
 54 H       -5.4750    -3.3440     2.2560 H     1 <1>   0.0800 
 55 H       -6.3630    -3.9400     0.8910 H     1 <1>   0.0800 
 56 H       -6.7660    -7.3870     1.0880 H     1 <1>   0.0800 
 57 H       -5.2550    -7.7910     0.3620 H     1 <1>   0.0800 
 58 H       -5.5870    -1.8150     0.6400 H     1 <1>   0.4000 
@<TRIPOS>BOND
  1   1   2  1   
  2   1   3  1   
  3   2   4  2   
  4   2   5  1   
  5   3   6  2   
  6   3   7  1   
  7   4   6  1   
  8   5   8  ar  
  9   5   9  ar  
 10   6  28  1   
 11   7  10  1   
 12   7  29  1   
 13   7  30  1   
 14   8  11  1   
 15   8  12  ar  
 16   9  13  ar  
 17   9  31  1   
 18  10  14  1   
 19  10  15  1   
 20  10  32  1   
 21  11  16  1   
 22  12  17  ar  
 23  12  33  1   
 24  13  17  ar  
 25  13  34  1   
 26  14  18  1   
 27  14  35  1   
 28  14  36  1   
 29  15  19  1   
 30  15  37  1   
 31  15  38  1   
 32  16  39  1   
 33  16  40  1   
 34  16  41  1   
 35  17  42  1   
 36  18  20  1   
 37  18  21  1   
 38  18  43  1   
 39  19  21  1   
 40  19  44  1   
 41  19  45  1   
 42  20  22  1   
 43  20  23  1   
 44  20  46  1   
 45  21  24  1   
 46  21  25  1   
 47  22  26  1   
 48  22  47  1   
 49  22  48  1   
 50  23  49  1   
 51  23  50  1   
 52  23  51  1   
 53  24  26  1   
 54  24  52  1   
 55  24  53  1   
 56  25  27  1   
 57  25  54  1   
 58  25  55  1   
 59  26  56  1   
 60  26  57  1   
 61  27  58  1   
@<TRIPOS>SUBSTRUCTURE
  1 ****   3 GROUP 4 **** **** 0

# MOE 2024.06 (io_trps.svl 2023.06)
