@<TRIPOS>MOLECULE
NONAME
51 54 1 0 0 
SMALL
USER_CHARGES


@<TRIPOS>ATOM
  1 O       -2.1800    -0.6200    -2.7900 O.2   1 <1>  -0.5700 
  2 C       -2.4100    -0.8700    -1.6290 C.2   1 <1>   0.5690 
  3 N       -2.4670     0.1080    -0.6710 N.am  1 <1>  -0.6600 
  4 C       -2.7000    -2.3150    -1.2640 C.3   1 <1>  -0.0190 
  5 C       -2.7900    -0.2090     0.7560 C.3   1 <1>   0.2200 
  6 C       -2.0880     1.5180    -0.9600 C.3   1 <1>   0.0600 
  7 C       -1.6960    -2.9010    -0.2500 C.3   1 <1>   0.1200 
  8 C       -4.1790    -2.4800    -0.8760 C.3   1 <1>   0.1400 
  9 C       -1.7820    -1.1890     1.4100 C.3   1 <1>   0.1200 
 10 C       -4.2520    -0.6830     0.8870 C.3   1 <1>   0.1400 
 11 O       -1.0230    -1.9230     0.4880 O.3   1 <1>  -0.5600 
 12 N       -4.4660    -2.1300     0.5480 N.am  1 <1>  -0.6600 
 13 C       -4.9400    -3.0130     1.5050 C.2   1 <1>   0.5690 
 14 O       -5.0550    -2.6430     2.6530 O.2   1 <1>  -0.5700 
 15 C       -5.3280    -4.4830     1.2270 C.3   1 <1>   0.2680 
 16 C       -4.0890    -5.3270     0.8830 C.ar  1 <1>  -0.1440 
 17 C       -6.5370    -4.7050     0.2960 C.ar  1 <1>  -0.1440 
 18 C       -3.8600    -5.8740    -0.3760 C.ar  1 <1>  -0.1500 
 19 C       -3.1470    -5.5440     1.8810 C.ar  1 <1>  -0.1500 
 20 C       -6.9700    -6.0060     0.0640 C.ar  1 <1>  -0.1500 
 21 C       -7.2410    -3.6620    -0.2980 C.ar  1 <1>  -0.1500 
 22 C       -2.7140    -6.6070    -0.6310 C.ar  1 <1>  -0.1500 
 23 C       -2.0010    -6.2770     1.6280 C.ar  1 <1>  -0.1500 
 24 C       -8.0550    -6.2630    -0.7550 C.ar  1 <1>  -0.1500 
 25 C       -8.3250    -3.9170    -1.1200 C.ar  1 <1>  -0.1500 
 26 C       -1.7820    -6.8070     0.3700 C.ar  1 <1>  -0.1500 
 27 C       -8.7320    -5.2170    -1.3520 C.ar  1 <1>  -0.1500 
 28 H       -2.5800    -2.8840    -2.1680 H     1 <1>   0.0800 
 29 H       -2.7340     0.7080     1.3150 H     1 <1>   0.0800 
 30 H       -2.9000     2.1750    -0.7050 H     1 <1>   0.0800 
 31 H       -1.8590     1.6450    -2.0050 H     1 <1>   0.0800 
 32 H       -1.2170     1.7830    -0.3870 H     1 <1>   0.0800 
 33 H       -0.9370    -3.4440    -0.7860 H     1 <1>   0.0800 
 34 H       -2.1660    -3.5800     0.4330 H     1 <1>   0.0800 
 35 H       -4.4750    -3.4890    -1.0730 H     1 <1>   0.0800 
 36 H       -4.7810    -1.8560    -1.5160 H     1 <1>   0.0800 
 37 H       -2.2740    -1.8730     2.0800 H     1 <1>   0.0800 
 38 H       -1.0810    -0.6180     1.9900 H     1 <1>   0.0800 
 39 H       -4.8760    -0.0750     0.2560 H     1 <1>   0.0800 
 40 H       -4.5640    -0.4970     1.8990 H     1 <1>   0.0800 
 41 H       -5.6660    -4.8620     2.1750 H     1 <1>   0.0800 
 42 H       -4.5700    -5.7390    -1.1740 H     1 <1>   0.1500 
 43 H       -3.2980    -5.1350     2.8670 H     1 <1>   0.1500 
 44 H       -6.4580    -6.8350     0.5250 H     1 <1>   0.1500 
 45 H       -6.9690    -2.6360    -0.1280 H     1 <1>   0.1500 
 46 H       -2.5490    -7.0240    -1.6100 H     1 <1>   0.1500 
 47 H       -1.2790    -6.4320     2.4100 H     1 <1>   0.1500 
 48 H       -8.3720    -7.2780    -0.9260 H     1 <1>   0.1500 
 49 H       -8.8570    -3.1000    -1.5760 H     1 <1>   0.1500 
 50 H       -0.8900    -7.3760     0.1720 H     1 <1>   0.1500 
 51 H       -9.5760    -5.4140    -1.9910 H     1 <1>   0.1500 
@<TRIPOS>BOND
  1   1   2  2   
  2   2   3  am  
  3   2   4  1   
  4   3   5  1   
  5   3   6  1   
  6   4   7  1   
  7   4   8  1   
  8   4  28  1   
  9   5   9  1   
 10   5  10  1   
 11   5  29  1   
 12   6  30  1   
 13   6  31  1   
 14   6  32  1   
 15   7  11  1   
 16   7  33  1   
 17   7  34  1   
 18   8  12  1   
 19   8  35  1   
 20   8  36  1   
 21   9  11  1   
 22   9  37  1   
 23   9  38  1   
 24  10  12  1   
 25  10  39  1   
 26  10  40  1   
 27  12  13  am  
 28  13  14  2   
 29  13  15  1   
 30  15  16  1   
 31  15  17  1   
 32  15  41  1   
 33  16  18  ar  
 34  16  19  ar  
 35  17  20  ar  
 36  17  21  ar  
 37  18  22  ar  
 38  18  42  1   
 39  19  23  ar  
 40  19  43  1   
 41  20  24  ar  
 42  20  44  1   
 43  21  25  ar  
 44  21  45  1   
 45  22  26  ar  
 46  22  46  1   
 47  23  26  ar  
 48  23  47  1   
 49  24  27  ar  
 50  24  48  1   
 51  25  27  ar  
 52  25  49  1   
 53  26  50  1   
 54  27  51  1   
@<TRIPOS>SUBSTRUCTURE
  1 ****   8 GROUP 4 **** **** 0

# MOE 2024.06 (io_trps.svl 2023.06)
