@<TRIPOS>MOLECULE
NONAME
51 54 1 0 0 
SMALL
USER_CHARGES


@<TRIPOS>ATOM
  1 S       -0.3450     0.4980    -1.0990 S.o2  1 <1>   1.5760 
  2 O        0.6790     0.0340    -2.0080 O.2   1 <1>  -0.6500 
  3 O       -1.3370     1.4550    -1.5350 O.2   1 <1>  -0.6500 
  4 N       -1.1520    -0.8390    -0.4560 N.am  1 <1>  -0.8490 
  5 N        0.4150     1.0780     0.2910 N.am  1 <1>  -0.8490 
  6 C       -1.6210    -1.7270    -1.5210 C.3   1 <1>   0.1960 
  7 C       -2.2660    -0.4290     0.4020 C.3   1 <1>   0.1960 
  8 C        1.2450     2.2530     0.0400 C.3   1 <1>   0.2760 
  9 C        1.3180     0.0960     0.8760 C.3   1 <1>   0.1960 
 10 C       -2.1940    -3.0050    -0.9090 C.3   1 <1>  -0.1600 
 11 C       -2.8570    -1.6560     1.0950 C.3   1 <1>  -0.1600 
 12 C        2.1770     2.3160     1.2530 C.3   1 <1>  -0.1600 
 13 C        0.4200     3.5420    -0.1390 C.3   1 <1>   0.1200 
 14 C        2.2150     0.8950     1.8090 C.3   1 <1>  -0.1600 
 15 C       -3.3280    -2.6890     0.0670 C.3   1 <1>   0.4600 
 16 O        1.2690     4.6530    -0.1470 O.3   1 <1>  -0.5600 
 17 O       -4.3700    -2.1270    -0.7100 O.3   1 <1>  -0.5600 
 18 C       -3.8500    -3.9570     0.7340 C.2   1 <1>  -0.1400 
 19 C        0.6030     5.8610    -0.3300 C.3   1 <1>   0.0400 
 20 C       -5.6770    -2.1530    -0.1850 C.3   1 <1>   0.1200 
 21 S       -2.8170    -5.0490     1.6440 S.3   1 <1>  -0.0800 
 22 C       -5.1150    -4.3990     0.7240 C.2   1 <1>  -0.1810 
 23 C       -6.1790    -3.5980     0.0080 C.3   1 <1>   0.0210 
 24 C       -4.1800    -6.1120     1.9750 C.2   1 <1>  -0.1100 
 25 C       -5.3110    -5.6310     1.4240 C.2   1 <1>  -0.1500 
 26 H       -0.7990    -1.9910    -2.1650 H     1 <1>   0.0800 
 27 H       -2.3690    -1.2270    -2.1160 H     1 <1>   0.0800 
 28 H       -3.0230     0.0680    -0.1830 H     1 <1>   0.0800 
 29 H       -1.9150     0.2610     1.1510 H     1 <1>   0.0800 
 30 H        1.8370     2.0880    -0.8470 H     1 <1>   0.0800 
 31 H        1.9200    -0.3640     0.1090 H     1 <1>   0.0800 
 32 H        0.7710    -0.6680     1.4030 H     1 <1>   0.0800 
 33 H       -1.4030    -3.5200    -0.3960 H     1 <1>   0.0800 
 34 H       -2.5610    -3.6540    -1.6820 H     1 <1>   0.0800 
 35 H       -3.6690    -1.3680     1.7340 H     1 <1>   0.0800 
 36 H       -2.0990    -2.0940     1.7180 H     1 <1>   0.0800 
 37 H        1.7840     2.9900     1.9930 H     1 <1>   0.0800 
 38 H        3.1510     2.6630     0.9560 H     1 <1>   0.0800 
 39 H       -0.2730     3.6470     0.6760 H     1 <1>   0.0800 
 40 H       -0.1100     3.5220    -1.0740 H     1 <1>   0.0800 
 41 H        3.2110     0.4900     1.8230 H     1 <1>   0.0800 
 42 H        1.8090     0.8740     2.8050 H     1 <1>   0.0800 
 43 H        1.3340     6.6500    -0.3210 H     1 <1>   0.0800 
 44 H       -0.0970     6.0050     0.4740 H     1 <1>   0.0800 
 45 H        0.0950     5.8460    -1.2780 H     1 <1>   0.0800 
 46 H       -6.3160    -1.6280    -0.8730 H     1 <1>   0.0800 
 47 H       -5.6790    -1.6280     0.7530 H     1 <1>   0.0800 
 48 H       -6.3880    -4.0430    -0.9480 H     1 <1>   0.0800 
 49 H       -7.0850    -3.5860     0.5850 H     1 <1>   0.0800 
 50 H       -3.9860    -6.9970     2.5550 H     1 <1>   0.1500 
 51 H       -6.2810    -6.0930     1.4800 H     1 <1>   0.1500 
@<TRIPOS>BOND
  1   1   2  2   
  2   1   3  2   
  3   1   4  am  
  4   1   5  am  
  5   4   6  1   
  6   4   7  1   
  7   5   8  1   
  8   5   9  1   
  9   6  10  1   
 10   6  26  1   
 11   6  27  1   
 12   7  11  1   
 13   7  28  1   
 14   7  29  1   
 15   8  12  1   
 16   8  13  1   
 17   8  30  1   
 18   9  14  1   
 19   9  31  1   
 20   9  32  1   
 21  10  15  1   
 22  10  33  1   
 23  10  34  1   
 24  11  15  1   
 25  11  35  1   
 26  11  36  1   
 27  12  14  1   
 28  12  37  1   
 29  12  38  1   
 30  13  16  1   
 31  13  39  1   
 32  13  40  1   
 33  14  41  1   
 34  14  42  1   
 35  15  17  1   
 36  15  18  1   
 37  16  19  1   
 38  17  20  1   
 39  18  21  1   
 40  18  22  2   
 41  19  43  1   
 42  19  44  1   
 43  19  45  1   
 44  20  23  1   
 45  20  46  1   
 46  20  47  1   
 47  21  24  1   
 48  22  23  1   
 49  22  25  1   
 50  23  48  1   
 51  23  49  1   
 52  24  25  2   
 53  24  50  1   
 54  25  51  1   
@<TRIPOS>SUBSTRUCTURE
  1 ****   7 GROUP 4 **** **** 0

# MOE 2024.06 (io_trps.svl 2023.06)
