@<TRIPOS>MOLECULE
NONAME
50 52 1 0 0 
SMALL
USER_CHARGES


@<TRIPOS>ATOM
  1 S        0.8600     0.2430    -0.1510 S.o2  1 <1>   1.3330 
  2 O        2.0860     0.5080     0.5680 O.2   1 <1>  -0.6500 
  3 O        0.9020     0.0530    -1.5810 O.2   1 <1>  -0.6500 
  4 N        0.0390    -1.0470     0.5770 N.am  1 <1>  -0.8490 
  5 C       -0.2020     1.6480     0.1710 C.3   1 <1>  -0.0550 
  6 C        0.9510    -2.0560     1.1280 C.3   1 <1>   0.1160 
  7 C       -0.9360    -1.6950    -0.3100 C.3   1 <1>   0.1160 
  8 C        0.3290     2.9430    -0.4840 C.3   1 <1>  -0.0800 
  9 C       -0.4940     4.2020    -0.2170 C.3   1 <1>   0.2000 
 10 C        1.7520     3.3180    -0.0360 C.3   1 <1>   0.3430 
 11 O       -0.8320     4.2600     1.1330 O.3   1 <1>  -0.6800 
 12 C        0.5100     5.3190    -0.5160 C.3   1 <1>   0.3430 
 13 N        1.8330     4.8100    -0.0340 N.4   1 <1>  -0.9590 
 14 C        2.1310     5.3160     1.3350 C.3   1 <1>   0.4860 
 15 C        2.2870     6.8230     1.2680 C.ar  1 <1>  -0.1440 
 16 C        3.3520     7.3840     0.5810 C.ar  1 <1>  -0.1500 
 17 C        1.3580     7.6520     1.8770 C.ar  1 <1>  -0.1500 
 18 C        3.4950     8.7640     0.4710 C.ar  1 <1>  -0.0230 
 19 C        1.4900     9.0260     1.7860 C.ar  1 <1>  -0.1500 
 20 N        4.5840     9.3130    -0.2680 N.pl3 1 <1>   0.5930 
 21 C        2.5470     9.5780     1.0850 C.ar  1 <1>  -0.1500 
 22 N        5.1420     8.6760    -1.3320 N.2   1 <1>  -0.7070 
 23 C        5.2240    10.4890    -0.0540 C.2   1 <1>  -0.3020 
 24 C        6.0880     9.4570    -1.7500 C.2   1 <1>   0.1390 
 25 C        6.1900    10.6130    -0.9870 C.2   1 <1>  -0.1500 
 26 H       -1.1840     1.4400    -0.2080 H     1 <1>   0.0800 
 27 H       -0.2790     1.7760     1.2340 H     1 <1>   0.0800 
 28 H        0.3930    -2.8450     1.6030 H     1 <1>   0.0800 
 29 H        1.5940    -1.6090     1.8690 H     1 <1>   0.0800 
 30 H        1.5630    -2.4760     0.3470 H     1 <1>   0.0800 
 31 H       -1.4860    -2.4470     0.2300 H     1 <1>   0.0800 
 32 H       -0.4350    -2.1590    -1.1440 H     1 <1>   0.0800 
 33 H       -1.6350    -0.9700    -0.6880 H     1 <1>   0.0800 
 34 H        0.3650     2.7870    -1.5490 H     1 <1>   0.0800 
 35 H       -1.3900     4.2810    -0.8110 H     1 <1>   0.0800 
 36 H        2.4850     2.8860    -0.7000 H     1 <1>   0.0800 
 37 H        1.9280     2.9390     0.9590 H     1 <1>   0.0800 
 38 H       -1.6930     3.8210     1.3060 H     1 <1>   0.4000 
 39 H        0.2220     6.2430    -0.0410 H     1 <1>   0.0800 
 40 H        0.5550     5.4740    -1.5820 H     1 <1>   0.0800 
 41 H        2.5800     5.1490    -0.6560 H     1 <1>   0.4500 
 42 H        1.3290     5.0580     2.0090 H     1 <1>   0.0800 
 43 H        3.0440     4.8780     1.7040 H     1 <1>   0.0800 
 44 H        4.0930     6.7550     0.1140 H     1 <1>   0.1500 
 45 H        0.5250     7.2400     2.4250 H     1 <1>   0.1500 
 46 H        0.7670     9.6690     2.2600 H     1 <1>   0.1500 
 47 H        2.6270    10.6490     1.0150 H     1 <1>   0.1500 
 48 H        4.9570    11.1570     0.7430 H     1 <1>   0.1500 
 49 H        6.7210     9.2300    -2.5930 H     1 <1>   0.1500 
 50 H        6.8980    11.4100    -1.1350 H     1 <1>   0.1500 
@<TRIPOS>BOND
  1   1   2  2   
  2   1   3  2   
  3   1   4  am  
  4   1   5  1   
  5   4   6  1   
  6   4   7  1   
  7   5   8  1   
  8   5  26  1   
  9   5  27  1   
 10   6  28  1   
 11   6  29  1   
 12   6  30  1   
 13   7  31  1   
 14   7  32  1   
 15   7  33  1   
 16   8   9  1   
 17   8  10  1   
 18   8  34  1   
 19   9  11  1   
 20   9  12  1   
 21   9  35  1   
 22  10  13  1   
 23  10  36  1   
 24  10  37  1   
 25  11  38  1   
 26  12  13  1   
 27  12  39  1   
 28  12  40  1   
 29  13  14  1   
 30  13  41  1   
 31  14  15  1   
 32  14  42  1   
 33  14  43  1   
 34  15  16  ar  
 35  15  17  ar  
 36  16  18  ar  
 37  16  44  1   
 38  17  19  ar  
 39  17  45  1   
 40  18  20  1   
 41  18  21  ar  
 42  19  21  ar  
 43  19  46  1   
 44  20  22  1   
 45  20  23  1   
 46  21  47  1   
 47  22  24  2   
 48  23  25  2   
 49  23  48  1   
 50  24  25  1   
 51  24  49  1   
 52  25  50  1   
@<TRIPOS>SUBSTRUCTURE
  1 ****  13 GROUP 4 **** **** 0

# MOE 2024.06 (io_trps.svl 2023.06)
