@<TRIPOS>MOLECULE
NONAME
49 51 1 0 0 
SMALL
USER_CHARGES


@<TRIPOS>ATOM
  1 S        0.2980     0.4220    -0.1440 S.o2  1 <1>   1.3330 
  2 O        0.5470     0.7630    -1.5260 O.2   1 <1>  -0.6500 
  3 O       -0.0300    -0.9470     0.1870 O.2   1 <1>  -0.6500 
  4 N        1.6400     0.8640     0.7990 N.am  1 <1>  -0.8490 
  5 C       -1.0300     1.4610     0.4860 C.3   1 <1>  -0.0550 
  6 C        2.8760     1.0110     0.0240 C.3   1 <1>   0.1160 
  7 C        1.8650     0.0020     1.9620 C.3   1 <1>   0.1160 
  8 C       -0.9780     2.9940     0.2620 C.3   1 <1>  -0.0800 
  9 C       -0.8700     3.4260    -1.2070 C.3   1 <1>   0.2000 
 10 C        0.1510     3.7350     0.9970 C.3   1 <1>   0.2090 
 11 O       -1.7260     4.5020    -1.3840 O.3   1 <1>  -0.6800 
 12 C        0.5610     3.9350    -1.3680 C.3   1 <1>   0.2090 
 13 N        0.9190     4.4880    -0.0320 N.pl3 1 <1>  -0.8380 
 14 C        2.2250     4.8850     0.2360 C.ar  1 <1>   0.4100 
 15 N        3.1690     4.2970    -0.4920 N.ar  1 <1>  -0.6200 
 16 C        2.5120     5.8520     1.2120 C.ar  1 <1>   0.0730 
 17 C        4.4230     4.6430    -0.2660 C.ar  1 <1>   0.1670 
 18 C        1.4730     6.4880     1.9580 C.1   1 <1>   0.4840 
 19 C        3.8310     6.1950     1.4390 C.ar  1 <1>  -0.1500 
 20 C        4.8090     5.5780     0.6880 C.ar  1 <1>  -0.1440 
 21 C        5.4520     3.9230    -1.1280 C.3   1 <1>  -0.0170 
 22 N        0.6630     6.9890     2.5880 N.1   1 <1>  -0.5570 
 23 C        6.2680     5.9560     0.9190 C.3   1 <1>  -0.0170 
 24 C        6.8430     4.5700    -1.0960 C.3   1 <1>  -0.1600 
 25 C        7.2390     4.9210     0.3400 C.3   1 <1>  -0.1600 
 26 H       -1.9410     1.1130     0.0390 H     1 <1>   0.0800 
 27 H       -1.1220     1.2830     1.5390 H     1 <1>   0.0800 
 28 H        3.6680     1.3790     0.6520 H     1 <1>   0.0800 
 29 H        2.7330     1.7170    -0.7760 H     1 <1>   0.0800 
 30 H        3.1650     0.0650    -0.4020 H     1 <1>   0.0800 
 31 H        2.6590     0.4000     2.5700 H     1 <1>   0.0800 
 32 H        2.1280    -0.9940     1.6450 H     1 <1>   0.0800 
 33 H        0.9710    -0.0520     2.5610 H     1 <1>   0.0800 
 34 H       -1.9080     3.3630     0.6600 H     1 <1>   0.0800 
 35 H       -1.1330     2.6630    -1.9190 H     1 <1>   0.0800 
 36 H        0.8030     3.0690     1.5320 H     1 <1>   0.0800 
 37 H       -0.2780     4.4260     1.7020 H     1 <1>   0.0800 
 38 H       -1.3480     5.2670    -0.9010 H     1 <1>   0.4000 
 39 H        0.6360     4.6840    -2.1370 H     1 <1>   0.0800 
 40 H        1.2160     3.1190    -1.6140 H     1 <1>   0.0800 
 41 H        4.0870     6.9310     2.1820 H     1 <1>   0.1500 
 42 H        5.5230     2.9100    -0.7760 H     1 <1>   0.0800 
 43 H        5.1000     3.8910    -2.1440 H     1 <1>   0.0800 
 44 H        6.4490     6.9080     0.4520 H     1 <1>   0.0800 
 45 H        6.4560     6.0640     1.9730 H     1 <1>   0.0800 
 46 H        7.5640     3.8940    -1.5240 H     1 <1>   0.0800 
 47 H        6.8330     5.4660    -1.6940 H     1 <1>   0.0800 
 48 H        8.2400     5.3170     0.3590 H     1 <1>   0.0800 
 49 H        7.2210     4.0320     0.9470 H     1 <1>   0.0800 
@<TRIPOS>BOND
  1   1   2  2   
  2   1   3  2   
  3   1   4  am  
  4   1   5  1   
  5   4   6  1   
  6   4   7  1   
  7   5   8  1   
  8   5  26  1   
  9   5  27  1   
 10   6  28  1   
 11   6  29  1   
 12   6  30  1   
 13   7  31  1   
 14   7  32  1   
 15   7  33  1   
 16   8   9  1   
 17   8  10  1   
 18   8  34  1   
 19   9  11  1   
 20   9  12  1   
 21   9  35  1   
 22  10  13  1   
 23  10  36  1   
 24  10  37  1   
 25  11  38  1   
 26  12  13  1   
 27  12  39  1   
 28  12  40  1   
 29  13  14  1   
 30  14  15  ar  
 31  14  16  ar  
 32  15  17  ar  
 33  16  18  1   
 34  16  19  ar  
 35  17  20  ar  
 36  17  21  1   
 37  18  22  3   
 38  19  20  ar  
 39  19  41  1   
 40  20  23  1   
 41  21  24  1   
 42  21  42  1   
 43  21  43  1   
 44  23  25  1   
 45  23  44  1   
 46  23  45  1   
 47  24  25  1   
 48  24  46  1   
 49  24  47  1   
 50  25  48  1   
 51  25  49  1   
@<TRIPOS>SUBSTRUCTURE
  1 ****  14 GROUP 4 **** **** 0

# MOE 2024.06 (io_trps.svl 2023.06)
