@<TRIPOS>MOLECULE
NONAME
43 45 1 0 0 
SMALL
USER_CHARGES


@<TRIPOS>ATOM
  1 O       -0.9470     0.6080     1.5400 O.3   1 <1>  -0.5600 
  2 C       -0.0030     1.2320     0.7140 C.3   1 <1>   0.1200 
  3 C       -2.2140     1.1650     1.3620 C.3   1 <1>   0.1200 
  4 C       -0.7220     2.3630    -0.0220 C.3   1 <1>   0.2890 
  5 C       -2.1720     1.9160     0.0300 C.3   1 <1>  -0.0800 
  6 N       -0.5830     3.6360     0.7330 N.pl3 1 <1>  -0.8690 
  7 C       -2.5240     1.0050    -1.1610 C.3   1 <1>  -0.0170 
  8 C        0.4360     4.5460     0.5190 C.ar  1 <1>   0.4100 
  9 C       -3.9790     0.5650    -1.1150 C.ar  1 <1>  -0.1430 
 10 N        1.2300     4.2960    -0.5150 N.ar  1 <1>  -0.6200 
 11 C        0.6030     5.6530     1.3610 C.ar  1 <1>   0.0730 
 12 C       -4.3480    -0.7100    -0.7390 C.ar  1 <1>  -0.1500 
 13 C       -5.0070     1.4240    -1.4480 C.ar  1 <1>  -0.1500 
 14 C        2.2130     5.1460    -0.7450 C.ar  1 <1>   0.1670 
 15 C       -0.2840     5.8690     2.4600 C.1   1 <1>   0.4840 
 16 C        1.6400     6.5280     1.1070 C.ar  1 <1>  -0.1500 
 17 C       -5.6890    -1.0540    -0.7110 C.ar  1 <1>   0.1600 
 18 C       -6.3170     0.9800    -1.3860 C.ar  1 <1>   0.1600 
 19 C        2.4680     6.2710     0.0330 C.ar  1 <1>  -0.1430 
 20 C        3.0810     4.8070    -1.9440 C.3   1 <1>  -0.0970 
 21 N       -0.9910     6.0220     3.3420 N.1   1 <1>  -0.5570 
 22 N       -6.6830    -0.2390    -1.0240 N.ar  1 <1>  -0.6200 
 23 C        3.6220     7.2240    -0.2550 C.3   1 <1>  -0.0970 
 24 H        0.8170     1.5930     1.3100 H     1 <1>   0.0800 
 25 H        0.3530     0.4960     0.0160 H     1 <1>   0.0800 
 26 H       -2.9530     0.3830     1.3910 H     1 <1>   0.0800 
 27 H       -2.3870     1.8470     2.1760 H     1 <1>   0.0800 
 28 H       -0.3660     2.4790    -1.0320 H     1 <1>   0.0800 
 29 H       -2.8400     2.7580     0.0370 H     1 <1>   0.0800 
 30 H       -0.9540     3.5690     1.6850 H     1 <1>   0.4000 
 31 H       -1.8850     0.1380    -1.1680 H     1 <1>   0.0800 
 32 H       -2.3550     1.5380    -2.0810 H     1 <1>   0.0800 
 33 H       -3.6070    -1.4400    -0.4670 H     1 <1>   0.1500 
 34 H       -4.8020     2.4340    -1.7540 H     1 <1>   0.1500 
 35 H        1.7950     7.3880     1.7370 H     1 <1>   0.1500 
 36 H       -5.9590    -2.0540    -0.4140 H     1 <1>   0.1500 
 37 H       -7.1060     1.6640    -1.6480 H     1 <1>   0.1500 
 38 H        3.3160     5.6890    -2.5090 H     1 <1>   0.0800 
 39 H        2.5640     4.1240    -2.5950 H     1 <1>   0.0800 
 40 H        3.9890     4.3400    -1.6120 H     1 <1>   0.0800 
 41 H        3.7470     7.9320     0.5440 H     1 <1>   0.0800 
 42 H        3.4320     7.7680    -1.1630 H     1 <1>   0.0800 
 43 H        4.5410     6.6750    -0.3610 H     1 <1>   0.0800 
@<TRIPOS>BOND
  1   1   2  1   
  2   1   3  1   
  3   2   4  1   
  4   2  24  1   
  5   2  25  1   
  6   3   5  1   
  7   3  26  1   
  8   3  27  1   
  9   4   5  1   
 10   4   6  1   
 11   4  28  1   
 12   5   7  1   
 13   5  29  1   
 14   6   8  1   
 15   6  30  1   
 16   7   9  1   
 17   7  31  1   
 18   7  32  1   
 19   8  10  ar  
 20   8  11  ar  
 21   9  12  ar  
 22   9  13  ar  
 23  10  14  ar  
 24  11  15  1   
 25  11  16  ar  
 26  12  17  ar  
 27  12  33  1   
 28  13  18  ar  
 29  13  34  1   
 30  14  19  ar  
 31  14  20  1   
 32  15  21  3   
 33  16  19  ar  
 34  16  35  1   
 35  17  22  ar  
 36  17  36  1   
 37  18  22  ar  
 38  18  37  1   
 39  19  23  1   
 40  20  38  1   
 41  20  39  1   
 42  20  40  1   
 43  23  41  1   
 44  23  42  1   
 45  23  43  1   
@<TRIPOS>SUBSTRUCTURE
  1 ****   4 GROUP 4 **** **** 0

# MOE 2024.06 (io_trps.svl 2023.06)
