@<TRIPOS>MOLECULE
NONAME
51 53 1 0 0 
SMALL
USER_CHARGES


@<TRIPOS>ATOM
  1 S       -0.4820    -0.0730     1.4660 S.o2  1 <1>   1.4470 
  2 O       -0.2670    -1.4920     1.6760 O.2   1 <1>  -0.6500 
  3 O       -1.0490     0.7160     2.5340 O.2   1 <1>  -0.6500 
  4 N       -1.5220     0.0500     0.1210 N.am  1 <1>  -0.8490 
  5 C        1.0470     0.7090     0.8760 C.ar  1 <1>  -0.0090 
  6 C       -1.6250    -1.1660    -0.7020 C.3   1 <1>   0.1960 
  7 C       -2.8420     0.6390     0.3770 C.3   1 <1>   0.1960 
  8 C        1.0200     1.9270     0.2080 C.ar  1 <1>  -0.1500 
  9 C        2.2890     0.1220     1.0860 C.ar  1 <1>  -0.1500 
 10 C       -2.5360    -2.2460    -0.0470 C.3   1 <1>   0.4230 
 11 C       -3.7670    -0.3580     1.0990 C.3   1 <1>  -0.1600 
 12 C        2.1820     2.5320    -0.2360 C.ar  1 <1>  -0.1500 
 13 C        3.4520     0.7270     0.6420 C.ar  1 <1>  -0.1500 
 14 N       -2.5670    -3.5850    -0.7660 N.4   1 <1>  -0.9590 
 15 C       -3.9410    -1.7180     0.3650 C.3   1 <1>   0.0000 
 16 C        3.4320     1.9500    -0.0270 C.ar  1 <1>   0.0860 
 17 C       -3.6580    -4.4940    -0.2860 C.3   1 <1>   0.3430 
 18 C       -2.6090    -3.4780    -2.2600 C.3   1 <1>   0.2630 
 19 C       -4.5530    -2.7420     1.3650 C.3   1 <1>  -0.1600 
 20 C       -4.9510    -1.5490    -0.8090 C.3   1 <1>   0.1200 
 21 C        4.6650     2.5750    -0.4780 C.2   1 <1>   0.5440 
 22 C       -4.0450    -4.1870     1.1630 C.3   1 <1>  -0.1600 
 23 O       -4.3970    -0.9040    -1.9020 O.3   1 <1>  -0.6800 
 24 O        5.6680     1.9290    -0.6810 O.2   1 <1>  -0.5700 
 25 N        4.7640     3.9090    -0.6820 N.am  1 <1>  -0.8000 
 26 H       -2.0040    -0.8840    -1.6660 H     1 <1>   0.0800 
 27 H       -0.6390    -1.5720    -0.8510 H     1 <1>   0.0800 
 28 H       -2.7390     1.5360     0.9660 H     1 <1>   0.0800 
 29 H       -3.2830     0.9320    -0.5610 H     1 <1>   0.0800 
 30 H        0.0710     2.4080     0.0330 H     1 <1>   0.1500 
 31 H        2.3510    -0.8210     1.6050 H     1 <1>   0.1500 
 32 H       -2.0620    -2.4540     0.8960 H     1 <1>   0.0800 
 33 H       -3.3580    -0.5140     2.0820 H     1 <1>   0.0800 
 34 H       -4.7250     0.1080     1.2430 H     1 <1>   0.0800 
 35 H        2.1140     3.4690    -0.7600 H     1 <1>   0.1500 
 36 H        4.4010     0.2470     0.8160 H     1 <1>   0.1500 
 37 H       -1.6770    -4.0380    -0.5100 H     1 <1>   0.4500 
 38 H       -4.5300    -4.3700    -0.9060 H     1 <1>   0.0800 
 39 H       -3.3400    -5.5220    -0.3690 H     1 <1>   0.0800 
 40 H       -3.5130    -2.9870    -2.5770 H     1 <1>   0.0800 
 41 H       -2.5770    -4.4590    -2.7070 H     1 <1>   0.0800 
 42 H       -1.7670    -2.9130    -2.6240 H     1 <1>   0.0800 
 43 H       -4.3210    -2.4700     2.3820 H     1 <1>   0.0800 
 44 H       -5.6280    -2.7260     1.2940 H     1 <1>   0.0800 
 45 H       -5.8010    -0.9720    -0.4820 H     1 <1>   0.0800 
 46 H       -5.3140    -2.5010    -1.1520 H     1 <1>   0.0800 
 47 H       -4.8090    -4.8770     1.4790 H     1 <1>   0.0800 
 48 H       -3.1880    -4.3630     1.7920 H     1 <1>   0.0800 
 49 H       -5.1010    -0.5580    -2.4940 H     1 <1>   0.4000 
 50 H        5.6670     4.2870    -0.9680 H     1 <1>   0.3700 
 51 H        4.0490     4.5830    -0.4130 H     1 <1>   0.3700 
@<TRIPOS>BOND
  1   1   2  2   
  2   1   3  2   
  3   1   4  am  
  4   1   5  1   
  5   4   6  1   
  6   4   7  1   
  7   5   8  ar  
  8   5   9  ar  
  9   6  10  1   
 10   6  26  1   
 11   6  27  1   
 12   7  11  1   
 13   7  28  1   
 14   7  29  1   
 15   8  12  ar  
 16   8  30  1   
 17   9  13  ar  
 18   9  31  1   
 19  10  14  1   
 20  10  15  1   
 21  10  32  1   
 22  11  15  1   
 23  11  33  1   
 24  11  34  1   
 25  12  16  ar  
 26  12  35  1   
 27  13  16  ar  
 28  13  36  1   
 29  14  17  1   
 30  14  18  1   
 31  14  37  1   
 32  15  19  1   
 33  15  20  1   
 34  16  21  1   
 35  17  22  1   
 36  17  38  1   
 37  17  39  1   
 38  18  40  1   
 39  18  41  1   
 40  18  42  1   
 41  19  22  1   
 42  19  43  1   
 43  19  44  1   
 44  20  23  1   
 45  20  45  1   
 46  20  46  1   
 47  21  24  2   
 48  21  25  am  
 49  22  47  1   
 50  22  48  1   
 51  23  49  1   
 52  25  50  1   
 53  25  51  1   
@<TRIPOS>SUBSTRUCTURE
  1 ****   4 GROUP 4 **** **** 0

# MOE 2024.06 (io_trps.svl 2023.06)
