@<TRIPOS>MOLECULE
NONAME
63 66 1 0 0 
SMALL
USER_CHARGES


@<TRIPOS>ATOM
  1 O       -0.5900    -1.0020     1.5780 O.2   1 <1>  -0.5700 
  2 C       -0.4800    -2.2040     1.4210 C.2   1 <1>   0.5440 
  3 N       -1.2080    -3.0500     2.2340 N.am  1 <1>  -0.6600 
  4 C        0.3910    -2.7060     0.3740 C.ar  1 <1>   0.0860 
  5 C       -1.8930    -2.5560     3.4570 C.3   1 <1>   0.1400 
  6 C       -1.6300    -4.4150     1.8220 C.3   1 <1>   0.1400 
  7 C        1.3380    -3.7000     0.6230 C.ar  1 <1>  -0.1500 
  8 C        0.3140    -2.2050    -0.9240 C.ar  1 <1>  -0.1500 
  9 C       -3.3960    -2.4660     3.1910 C.3   1 <1>  -0.1600 
 10 C       -3.1240    -4.3920     1.4930 C.3   1 <1>  -0.1600 
 11 C        2.1550    -4.1850    -0.3810 C.ar  1 <1>  -0.1500 
 12 C        1.1280    -2.6870    -1.9330 C.ar  1 <1>  -0.1500 
 13 C       -3.9600    -3.7990     2.6490 C.3   1 <1>  -0.0190 
 14 C        2.0520    -3.6840    -1.6680 C.ar  1 <1>  -0.1430 
 15 C       -5.4650    -3.7530     2.3500 C.2   1 <1>   0.5690 
 16 C        2.9480    -4.2130    -2.7740 C.3   1 <1>  -0.0970 
 17 O       -6.1460    -4.4960     3.0200 O.2   1 <1>  -0.5700 
 18 N       -6.0360    -2.9450     1.3890 N.am  1 <1>  -0.6600 
 19 C       -7.5190    -2.9570     1.1700 C.3   1 <1>   0.1400 
 20 C       -5.3420    -2.0320     0.4380 C.3   1 <1>   0.1400 
 21 C       -7.8620    -3.4450    -0.2600 C.3   1 <1>   0.0000 
 22 C       -5.6190    -2.4790    -1.0020 C.3   1 <1>  -0.1600 
 23 C       -9.3820    -3.4460    -0.5000 C.3   1 <1>   0.2000 
 24 C       -7.1270    -2.5630    -1.2930 C.3   1 <1>  -0.1600 
 25 C       -7.5230    -4.9380    -0.4160 C.3   1 <1>  -0.1600 
 26 O       -9.9890    -2.3180     0.0560 O.3   1 <1>  -0.5600 
 27 C       -9.9020    -4.7380     0.1400 C.3   1 <1>  -0.1600 
 28 C       -8.7020    -5.6920     0.2070 C.3   1 <1>  -0.1600 
 29 C      -11.2970    -2.0880    -0.3620 C.3   1 <1>   0.0400 
 30 H       -1.7010    -3.2380     4.2680 H     1 <1>   0.0800 
 31 H       -1.5110    -1.5890     3.7410 H     1 <1>   0.0800 
 32 H       -1.0810    -4.7500     0.9600 H     1 <1>   0.0800 
 33 H       -1.4390    -5.1010     2.6300 H     1 <1>   0.0800 
 34 H        1.4320    -4.0890     1.6220 H     1 <1>   0.1500 
 35 H       -0.3960    -1.4240    -1.1340 H     1 <1>   0.1500 
 36 H       -3.9000    -2.2150     4.1070 H     1 <1>   0.0800 
 37 H       -3.5610    -1.6550     2.5100 H     1 <1>   0.0800 
 38 H       -3.2570    -3.8350     0.5870 H     1 <1>   0.0800 
 39 H       -3.4570    -5.3960     1.2980 H     1 <1>   0.0800 
 40 H        2.8770    -4.9520    -0.1580 H     1 <1>   0.1500 
 41 H        1.0430    -2.2790    -2.9250 H     1 <1>   0.1500 
 42 H       -3.8520    -4.4980     3.4610 H     1 <1>   0.0800 
 43 H        3.2230    -5.2340    -2.5820 H     1 <1>   0.0800 
 44 H        3.8410    -3.6180    -2.8320 H     1 <1>   0.0800 
 45 H        2.4400    -4.1710    -3.7210 H     1 <1>   0.0800 
 46 H       -8.0110    -3.5770     1.8980 H     1 <1>   0.0800 
 47 H       -7.8880    -1.9560     1.3080 H     1 <1>   0.0800 
 48 H       -5.7160    -1.0330     0.5840 H     1 <1>   0.0800 
 49 H       -4.2840    -2.0080     0.6000 H     1 <1>   0.0800 
 50 H       -5.1630    -1.7810    -1.6810 H     1 <1>   0.0800 
 51 H       -5.1600    -3.4380    -1.1650 H     1 <1>   0.0800 
 52 H       -9.5720    -3.4610    -1.5610 H     1 <1>   0.0800 
 53 H       -7.2840    -2.9410    -2.2880 H     1 <1>   0.0800 
 54 H       -7.5430    -1.5700    -1.2520 H     1 <1>   0.0800 
 55 H       -7.4650    -5.1890    -1.4610 H     1 <1>   0.0800 
 56 H       -6.5920    -5.2070     0.0520 H     1 <1>   0.0800 
 57 H      -10.2600    -4.5420     1.1360 H     1 <1>   0.0800 
 58 H      -10.6930    -5.1600    -0.4530 H     1 <1>   0.0800 
 59 H       -8.4790    -5.9170     1.2380 H     1 <1>   0.0800 
 60 H       -8.8930    -6.6130    -0.3150 H     1 <1>   0.0800 
 61 H      -11.6450    -1.1880     0.1140 H     1 <1>   0.0800 
 62 H      -11.9200    -2.9140    -0.0670 H     1 <1>   0.0800 
 63 H      -11.3130    -1.9620    -1.4300 H     1 <1>   0.0800 
@<TRIPOS>BOND
  1   1   2  2   
  2   2   3  am  
  3   2   4  1   
  4   3   5  1   
  5   3   6  1   
  6   4   7  ar  
  7   4   8  ar  
  8   5   9  1   
  9   5  30  1   
 10   5  31  1   
 11   6  10  1   
 12   6  32  1   
 13   6  33  1   
 14   7  11  ar  
 15   7  34  1   
 16   8  12  ar  
 17   8  35  1   
 18   9  13  1   
 19   9  36  1   
 20   9  37  1   
 21  10  13  1   
 22  10  38  1   
 23  10  39  1   
 24  11  14  ar  
 25  11  40  1   
 26  12  14  ar  
 27  12  41  1   
 28  13  15  1   
 29  13  42  1   
 30  14  16  1   
 31  15  17  2   
 32  15  18  am  
 33  16  43  1   
 34  16  44  1   
 35  16  45  1   
 36  18  19  1   
 37  18  20  1   
 38  19  21  1   
 39  19  46  1   
 40  19  47  1   
 41  20  22  1   
 42  20  48  1   
 43  20  49  1   
 44  21  23  1   
 45  21  24  1   
 46  21  25  1   
 47  22  24  1   
 48  22  50  1   
 49  22  51  1   
 50  23  26  1   
 51  23  27  1   
 52  23  52  1   
 53  24  53  1   
 54  24  54  1   
 55  25  28  1   
 56  25  55  1   
 57  25  56  1   
 58  26  29  1   
 59  27  28  1   
 60  27  57  1   
 61  27  58  1   
 62  28  59  1   
 63  28  60  1   
 64  29  61  1   
 65  29  62  1   
 66  29  63  1   
@<TRIPOS>SUBSTRUCTURE
  1 ****  10 GROUP 4 **** **** 0

# MOE 2024.06 (io_trps.svl 2023.06)
