@<TRIPOS>MOLECULE
NONAME
45 47 1 0 0 
SMALL
USER_CHARGES


@<TRIPOS>ATOM
  1 O       -0.4990     0.2630     2.1230 O.2   1 <1>  -0.5700 
  2 C       -0.9840     0.9370     1.2450 C.2   1 <1>   0.5690 
  3 N       -1.9480     0.4260     0.4190 N.am  1 <1>  -0.6600 
  4 C       -0.5020     2.3770     1.1030 C.3   1 <1>   0.0440 
  5 C       -2.6060     1.1190    -0.7180 C.3   1 <1>   0.1400 
  6 C       -2.3820    -0.9920     0.4750 C.3   1 <1>   0.1400 
  7 C        0.0220     2.7180    -0.2960 C.ar  1 <1>  -0.1440 
  8 C       -3.8080     0.2390    -1.0500 C.3   1 <1>   0.2000 
  9 C       -3.3120    -1.1760    -0.7310 C.3   1 <1>  -0.0800 
 10 C       -0.3690     3.8600    -0.9950 C.ar  1 <1>  -0.1440 
 11 C        0.9240     1.8400    -0.8820 C.ar  1 <1>  -0.1500 
 12 O       -4.8380     0.5760    -0.1840 O.3   1 <1>  -0.6800 
 13 C       -4.4150    -2.2280    -0.5130 C.3   1 <1>  -0.0170 
 14 C        0.1350     4.0850    -2.2680 C.ar  1 <1>  -0.1500 
 15 C       -1.3280     4.8890    -0.4110 C.3   1 <1>  -0.0970 
 16 C        1.4210     2.0740    -2.1500 C.ar  1 <1>  -0.1500 
 17 C       -3.8140    -3.6080    -0.2900 C.ar  1 <1>  -0.1440 
 18 C        1.0230     3.1980    -2.8470 C.ar  1 <1>  -0.1500 
 19 C       -3.6280    -4.1310     0.9740 C.ar  1 <1>  -0.1500 
 20 C       -3.4200    -4.4060    -1.3440 C.ar  1 <1>  -0.1500 
 21 C       -3.0690    -5.3900     1.1180 C.ar  1 <1>   0.1600 
 22 C       -2.8720    -5.6530    -1.0910 C.ar  1 <1>   0.1600 
 23 N       -2.6850    -6.1640     0.1150 N.ar  1 <1>  -0.6200 
 24 H       -1.3160     3.0110     1.3910 H     1 <1>   0.0800 
 25 H        0.2920     2.5410     1.8080 H     1 <1>   0.0800 
 26 H       -2.9040     2.1210    -0.4660 H     1 <1>   0.0800 
 27 H       -1.9270     1.1440    -1.5540 H     1 <1>   0.0800 
 28 H       -1.5340    -1.6540     0.4240 H     1 <1>   0.0800 
 29 H       -2.9070    -1.1590     1.4000 H     1 <1>   0.0800 
 30 H       -4.1550     0.3570    -2.0620 H     1 <1>   0.0800 
 31 H       -2.7000    -1.4970    -1.5550 H     1 <1>   0.0800 
 32 H        1.2460     0.9600    -0.3510 H     1 <1>   0.1500 
 33 H       -4.4790     0.6040     0.7260 H     1 <1>   0.4000 
 34 H       -5.0580    -2.2560    -1.3750 H     1 <1>   0.0800 
 35 H       -5.0260    -1.9630     0.3330 H     1 <1>   0.0800 
 36 H       -0.1590     4.9600    -2.8220 H     1 <1>   0.1500 
 37 H       -1.4280     5.7380    -1.0620 H     1 <1>   0.0800 
 38 H       -0.9600     5.2400     0.5360 H     1 <1>   0.0800 
 39 H       -2.3020     4.4560    -0.2740 H     1 <1>   0.0800 
 40 H        2.1180     1.3830    -2.5920 H     1 <1>   0.1500 
 41 H        1.4070     3.3850    -3.8340 H     1 <1>   0.1500 
 42 H       -3.9100    -3.5740     1.8490 H     1 <1>   0.1500 
 43 H       -3.5340    -4.0720    -2.3590 H     1 <1>   0.1500 
 44 H       -2.9300    -5.7820     2.1110 H     1 <1>   0.1500 
 45 H       -2.5710    -6.2630    -1.9260 H     1 <1>   0.1500 
@<TRIPOS>BOND
  1   1   2  2   
  2   2   3  am  
  3   2   4  1   
  4   3   5  1   
  5   3   6  1   
  6   4   7  1   
  7   4  24  1   
  8   4  25  1   
  9   5   8  1   
 10   5  26  1   
 11   5  27  1   
 12   6   9  1   
 13   6  28  1   
 14   6  29  1   
 15   7  10  ar  
 16   7  11  ar  
 17   8   9  1   
 18   8  12  1   
 19   8  30  1   
 20   9  13  1   
 21   9  31  1   
 22  10  14  ar  
 23  10  15  1   
 24  11  16  ar  
 25  11  32  1   
 26  12  33  1   
 27  13  17  1   
 28  13  34  1   
 29  13  35  1   
 30  14  18  ar  
 31  14  36  1   
 32  15  37  1   
 33  15  38  1   
 34  15  39  1   
 35  16  18  ar  
 36  16  40  1   
 37  17  19  ar  
 38  17  20  ar  
 39  18  41  1   
 40  19  21  ar  
 41  19  42  1   
 42  20  22  ar  
 43  20  43  1   
 44  21  23  ar  
 45  21  44  1   
 46  22  23  ar  
 47  22  45  1   
@<TRIPOS>SUBSTRUCTURE
  1 ****   3 GROUP 4 **** **** 0

# MOE 2024.06 (io_trps.svl 2023.06)
