@<TRIPOS>MOLECULE
NONAME
53 55 1 0 0 
SMALL
USER_CHARGES


@<TRIPOS>ATOM
  1 N       -0.1810     0.4150     0.4140 N.4   1 <1>  -0.9590 
  2 C       -0.5880     0.1770    -0.9960 C.3   1 <1>   0.3430 
  3 C       -0.7210     1.6860     0.9640 C.3   1 <1>   0.3430 
  4 C        1.3000     0.3370     0.5710 C.3   1 <1>   0.4860 
  5 C       -1.5220    -1.0360    -1.0780 C.3   1 <1>  -0.1600 
  6 C       -2.1980     1.5550     1.3680 C.3   1 <1>  -0.1600 
  7 C        1.7240    -1.0920     0.3010 C.ar  1 <1>  -0.1430 
  8 C       -2.6380    -1.1650    -0.0120 C.3   1 <1>  -0.1600 
  9 C       -3.2240     1.3410     0.2230 C.3   1 <1>  -0.1600 
 10 C        2.3830    -1.4180    -0.8760 C.ar  1 <1>  -0.1500 
 11 C        1.4480    -2.0890     1.2280 C.ar  1 <1>  -0.1500 
 12 C       -3.7770    -0.1060     0.0200 C.3   1 <1>   0.0000 
 13 C        2.7450    -2.7290    -1.1310 C.ar  1 <1>  -0.1500 
 14 C        1.8120    -3.3990     0.9700 C.ar  1 <1>  -0.1500 
 15 C       -4.5630    -0.2120    -1.3180 C.3   1 <1>   0.3430 
 16 C       -4.7000    -0.5020     1.2100 C.3   1 <1>  -0.1600 
 17 C        2.4580    -3.7190    -0.2100 C.ar  1 <1>  -0.1500 
 18 N       -5.6300     0.8240    -1.4430 N.4   1 <1>  -0.9060 
 19 C       -6.0840     0.1680     1.3170 C.3   1 <1>  -0.1600 
 20 C       -7.0000     0.3460    -1.1190 C.3   1 <1>   0.3430 
 21 C       -7.0740    -0.3360     0.2510 C.3   1 <1>  -0.1600 
 22 H       -0.5470    -0.3700     0.9640 H     1 <1>   0.4500 
 23 H        0.2790    -0.0120    -1.6090 H     1 <1>   0.0800 
 24 H       -1.0760     1.0500    -1.3920 H     1 <1>   0.0800 
 25 H       -0.6030     2.4810     0.2440 H     1 <1>   0.0800 
 26 H       -0.1590     1.9580     1.8440 H     1 <1>   0.0800 
 27 H        1.5840     0.6040     1.5760 H     1 <1>   0.0800 
 28 H        1.7900     1.0090    -0.1150 H     1 <1>   0.0800 
 29 H       -0.9000    -1.9140    -1.0050 H     1 <1>   0.0800 
 30 H       -1.9480    -1.0660    -2.0650 H     1 <1>   0.0800 
 31 H       -2.4490     2.4880     1.8430 H     1 <1>   0.0800 
 32 H       -2.2910     0.8110     2.1370 H     1 <1>   0.0800 
 33 H       -2.1900    -1.2410     0.9630 H     1 <1>   0.0800 
 34 H       -3.0940    -2.1290    -0.1760 H     1 <1>   0.0800 
 35 H       -2.8180     1.7210    -0.6970 H     1 <1>   0.0800 
 36 H       -4.0540     1.9870     0.4490 H     1 <1>   0.0800 
 37 H        2.6260    -0.6650    -1.6070 H     1 <1>   0.1500 
 38 H        0.9570    -1.8660     2.1590 H     1 <1>   0.1500 
 39 H        3.2570    -2.9830    -2.0450 H     1 <1>   0.1500 
 40 H        1.5990    -4.1740     1.6880 H     1 <1>   0.1500 
 41 H       -4.9940    -1.1960    -1.4060 H     1 <1>   0.0800 
 42 H       -3.8670    -0.0880    -2.1310 H     1 <1>   0.0800 
 43 H       -4.1850    -0.3200     2.1370 H     1 <1>   0.0800 
 44 H       -4.8690    -1.5660     1.1860 H     1 <1>   0.0800 
 45 H        2.7420    -4.7390    -0.4090 H     1 <1>   0.1500 
 46 H       -5.6380     1.2120    -2.3950 H     1 <1>   0.4500 
 47 H       -5.4110     1.5940    -0.8030 H     1 <1>   0.4500 
 48 H       -6.0190     1.2410     1.3200 H     1 <1>   0.0800 
 49 H       -6.4880    -0.1080     2.2790 H     1 <1>   0.0800 
 50 H       -7.3440    -0.3420    -1.8760 H     1 <1>   0.0800 
 51 H       -7.6710     1.1910    -1.1180 H     1 <1>   0.0800 
 52 H       -8.0750    -0.1910     0.6210 H     1 <1>   0.0800 
 53 H       -6.9620    -1.3990     0.1220 H     1 <1>   0.0800 
@<TRIPOS>BOND
  1   1   2  1   
  2   1   3  1   
  3   1   4  1   
  4   1  22  1   
  5   2   5  1   
  6   2  23  1   
  7   2  24  1   
  8   3   6  1   
  9   3  25  1   
 10   3  26  1   
 11   4   7  1   
 12   4  27  1   
 13   4  28  1   
 14   5   8  1   
 15   5  29  1   
 16   5  30  1   
 17   6   9  1   
 18   6  31  1   
 19   6  32  1   
 20   7  10  ar  
 21   7  11  ar  
 22   8  12  1   
 23   8  33  1   
 24   8  34  1   
 25   9  12  1   
 26   9  35  1   
 27   9  36  1   
 28  10  13  ar  
 29  10  37  1   
 30  11  14  ar  
 31  11  38  1   
 32  12  15  1   
 33  12  16  1   
 34  13  17  ar  
 35  13  39  1   
 36  14  17  ar  
 37  14  40  1   
 38  15  18  1   
 39  15  41  1   
 40  15  42  1   
 41  16  19  1   
 42  16  43  1   
 43  16  44  1   
 44  17  45  1   
 45  18  20  1   
 46  18  46  1   
 47  18  47  1   
 48  19  21  1   
 49  19  48  1   
 50  19  49  1   
 51  20  21  1   
 52  20  50  1   
 53  20  51  1   
 54  21  52  1   
 55  21  53  1   
@<TRIPOS>SUBSTRUCTURE
  1 ****   8 GROUP 4 **** **** 0

# MOE 2024.06 (io_trps.svl 2023.06)
