@<TRIPOS>MOLECULE
NONAME
48 50 1 0 0 
SMALL
USER_CHARGES


@<TRIPOS>ATOM
  1 O        2.7770     0.2220     1.5700 O.2   1 <1>  -0.5700 
  2 C        2.2000     0.2810     0.5130 C.2   1 <1>   0.6590 
  3 O        1.5680    -0.7390    -0.0490 O.3   1 <1>  -0.4300 
  4 C        2.1930     1.5920    -0.2500 C.3   1 <1>   0.0610 
  5 C        1.4300    -2.0520     0.4520 C.3   1 <1>   0.2800 
  6 C        1.5290     2.7370     0.5210 C.3   1 <1>  -0.0800 
  7 C        1.4690     1.6030    -1.5890 C.3   1 <1>   0.1200 
  8 C        3.6340     2.0510    -0.4210 C.3   1 <1>   0.3430 
  9 C        0.6080    -2.8020    -0.5960 C.3   1 <1>  -0.2400 
 10 C        0.6660    -2.0260     1.7800 C.3   1 <1>  -0.2400 
 11 C        2.8090    -2.7060     0.5880 C.3   1 <1>  -0.2400 
 12 C        0.6880     3.4440    -0.5460 C.3   1 <1>   0.1200 
 13 C        2.6650     3.6150     1.0560 C.3   1 <1>   0.3430 
 14 O        1.1550     2.9440    -1.7560 O.3   1 <1>  -0.5600 
 15 N        3.9100     2.8530     0.7980 N.4   1 <1>  -0.9590 
 16 C        5.1490     3.6720     0.7160 C.3   1 <1>   0.4860 
 17 C        6.3100     2.7570     0.3800 C.ar  1 <1>  -0.1440 
 18 C        6.7730     1.8350     1.3090 C.ar  1 <1>  -0.1500 
 19 C        6.9100     2.8280    -0.8700 C.ar  1 <1>  -0.1500 
 20 C        7.8190     0.9880     0.9870 C.ar  1 <1>  -0.1500 
 21 C        7.9560     1.9810    -1.1890 C.ar  1 <1>  -0.1500 
 22 C        8.4100     1.0600    -0.2620 C.ar  1 <1>  -0.1500 
 23 H        0.8990     2.3970     1.3250 H     1 <1>   0.0800 
 24 H        0.5470     1.0450    -1.5570 H     1 <1>   0.0800 
 25 H        2.0750     1.2670    -2.4130 H     1 <1>   0.0800 
 26 H        3.7110     2.6780    -1.2950 H     1 <1>   0.0800 
 27 H        4.3140     1.2190    -0.5120 H     1 <1>   0.0800 
 28 H        0.4550    -3.8210    -0.2900 H     1 <1>   0.0800 
 29 H        1.1200    -2.8090    -1.5420 H     1 <1>   0.0800 
 30 H       -0.3550    -2.3400    -0.7210 H     1 <1>   0.0800 
 31 H        0.4570    -3.0310     2.0990 H     1 <1>   0.0800 
 32 H       -0.2690    -1.5080     1.6680 H     1 <1>   0.0800 
 33 H        1.2440    -1.5570     2.5550 H     1 <1>   0.0800 
 34 H        2.6950    -3.7420     0.8540 H     1 <1>   0.0800 
 35 H        3.3890    -2.2380     1.3610 H     1 <1>   0.0800 
 36 H        3.3440    -2.6550    -0.3430 H     1 <1>   0.0800 
 37 H        0.7900     4.5160    -0.5450 H     1 <1>   0.0800 
 38 H       -0.3540     3.1790    -0.4600 H     1 <1>   0.0800 
 39 H        2.5440     3.8140     2.1090 H     1 <1>   0.0800 
 40 H        2.6860     4.5480     0.5160 H     1 <1>   0.0800 
 41 H        4.0340     2.1600     1.5560 H     1 <1>   0.4500 
 42 H        5.0470     4.4250    -0.0490 H     1 <1>   0.0800 
 43 H        5.3360     4.1610     1.6580 H     1 <1>   0.0800 
 44 H        6.3340     1.7630     2.2890 H     1 <1>   0.1500 
 45 H        6.5770     3.5390    -1.6070 H     1 <1>   0.1500 
 46 H        8.1790     0.2730     1.7070 H     1 <1>   0.1500 
 47 H        8.4240     2.0370    -2.1580 H     1 <1>   0.1500 
 48 H        9.2250     0.4020    -0.5110 H     1 <1>   0.1500 
@<TRIPOS>BOND
  1   1   2  2   
  2   2   3  1   
  3   2   4  1   
  4   3   5  1   
  5   4   6  1   
  6   4   7  1   
  7   4   8  1   
  8   5   9  1   
  9   5  10  1   
 10   5  11  1   
 11   6  12  1   
 12   6  13  1   
 13   6  23  1   
 14   7  14  1   
 15   7  24  1   
 16   7  25  1   
 17   8  15  1   
 18   8  26  1   
 19   8  27  1   
 20   9  28  1   
 21   9  29  1   
 22   9  30  1   
 23  10  31  1   
 24  10  32  1   
 25  10  33  1   
 26  11  34  1   
 27  11  35  1   
 28  11  36  1   
 29  12  14  1   
 30  12  37  1   
 31  12  38  1   
 32  13  15  1   
 33  13  39  1   
 34  13  40  1   
 35  15  16  1   
 36  15  41  1   
 37  16  17  1   
 38  16  42  1   
 39  16  43  1   
 40  17  18  ar  
 41  17  19  ar  
 42  18  20  ar  
 43  18  44  1   
 44  19  21  ar  
 45  19  45  1   
 46  20  22  ar  
 47  20  46  1   
 48  21  22  ar  
 49  21  47  1   
 50  22  48  1   
@<TRIPOS>SUBSTRUCTURE
  1 ****   8 GROUP 4 **** **** 0

# MOE 2024.06 (io_trps.svl 2023.06)
