@<TRIPOS>MOLECULE
NONAME
46 48 1 0 0 
SMALL
USER_CHARGES


@<TRIPOS>ATOM
  1 O        1.2920    -0.5410     2.1170 O.2   1 <1>  -0.5700 
  2 C        1.6120    -0.8020     0.9820 C.2   1 <1>   0.5690 
  3 N        2.2210     0.0830     0.1470 N.am  1 <1>  -0.4930 
  4 C        1.2340    -2.1910     0.4520 C.3   1 <1>   0.4040 
  5 C        2.4740     1.4330     0.3320 C.2   1 <1>   0.3520 
  6 N       -0.1760    -2.3340    -0.1100 N.4   1 <1>  -0.9590 
  7 N        2.8490     2.1190    -0.6950 N.2   1 <1>  -0.7070 
  8 C        2.3800     2.2040     1.4870 C.2   1 <1>  -0.1500 
  9 C       -1.1970    -1.8120     0.8700 C.3   1 <1>   0.4230 
 10 C       -0.3720    -3.7510    -0.5580 C.3   1 <1>   0.2630 
 11 N        3.0140     3.3730    -0.2230 N.pl3 1 <1>   0.3140 
 12 C        2.7330     3.4440     1.0930 C.2   1 <1>  -0.3020 
 13 C       -2.5740    -2.4820     0.7700 C.3   1 <1>  -0.1600 
 14 C       -1.5360    -0.3690     0.4840 C.3   1 <1>  -0.1600 
 15 C        3.4510     4.4710    -1.0930 C.3   1 <1>   0.0160 
 16 C       -3.2560    -1.8460    -0.4510 C.3   1 <1>  -0.0800 
 17 C       -2.5990    -0.4720    -0.6200 C.3   1 <1>  -0.0800 
 18 C       -4.7650    -1.6030    -0.3090 C.3   1 <1>  -0.1600 
 19 C       -3.7240     0.5680    -0.5450 C.3   1 <1>  -0.1600 
 20 C       -4.9820    -0.2150    -0.8980 C.3   1 <1>   0.2000 
 21 O       -6.0870     0.3770    -0.3320 O.3   1 <1>  -0.6800 
 22 H        2.5010    -0.1820    -0.7950 H     1 <1>   0.3700 
 23 H        1.3510    -2.8780     1.2740 H     1 <1>   0.0800 
 24 H        1.9500    -2.4680    -0.3020 H     1 <1>   0.0800 
 25 H       -0.2680    -1.7220    -0.9320 H     1 <1>   0.4500 
 26 H        2.0900     1.8600     2.4630 H     1 <1>   0.1500 
 27 H       -0.8170    -1.8700     1.8790 H     1 <1>   0.0800 
 28 H       -0.3490    -4.4180     0.2890 H     1 <1>   0.0800 
 29 H        0.4040    -4.0390    -1.2480 H     1 <1>   0.0800 
 30 H       -1.3220    -3.8600    -1.0550 H     1 <1>   0.0800 
 31 H        2.8010     4.3520     1.6650 H     1 <1>   0.1500 
 32 H       -2.5640    -3.5550     0.7430 H     1 <1>   0.0800 
 33 H       -3.1150    -2.2030     1.6580 H     1 <1>   0.0800 
 34 H       -1.9570     0.1040     1.3540 H     1 <1>   0.0800 
 35 H       -0.6950     0.2220     0.1730 H     1 <1>   0.0800 
 36 H        3.4830     5.3870    -0.5330 H     1 <1>   0.0800 
 37 H        2.7590     4.5670    -1.9080 H     1 <1>   0.0800 
 38 H        4.4280     4.2440    -1.4760 H     1 <1>   0.0800 
 39 H       -3.0690    -2.4320    -1.3360 H     1 <1>   0.0800 
 40 H       -2.1370    -0.4260    -1.5930 H     1 <1>   0.0800 
 41 H       -5.0580    -1.6070     0.7260 H     1 <1>   0.0800 
 42 H       -5.3370    -2.3410    -0.8440 H     1 <1>   0.0800 
 43 H       -3.5630     1.3760    -1.2370 H     1 <1>   0.0800 
 44 H       -3.8130     0.9640     0.4520 H     1 <1>   0.0800 
 45 H       -5.1210    -0.2640    -1.9660 H     1 <1>   0.0800 
 46 H       -5.9800     0.4500     0.6340 H     1 <1>   0.4000 
@<TRIPOS>BOND
  1   1   2  2   
  2   2   3  am  
  3   2   4  1   
  4   3   5  1   
  5   3  22  1   
  6   4   6  1   
  7   4  23  1   
  8   4  24  1   
  9   5   7  2   
 10   5   8  1   
 11   6   9  1   
 12   6  10  1   
 13   6  25  1   
 14   7  11  1   
 15   8  12  2   
 16   8  26  1   
 17   9  13  1   
 18   9  14  1   
 19   9  27  1   
 20  10  28  1   
 21  10  29  1   
 22  10  30  1   
 23  11  12  1   
 24  11  15  1   
 25  12  31  1   
 26  13  16  1   
 27  13  32  1   
 28  13  33  1   
 29  14  17  1   
 30  14  34  1   
 31  14  35  1   
 32  15  36  1   
 33  15  37  1   
 34  15  38  1   
 35  16  17  1   
 36  16  18  1   
 37  16  39  1   
 38  17  19  1   
 39  17  40  1   
 40  18  20  1   
 41  18  41  1   
 42  18  42  1   
 43  19  20  1   
 44  19  43  1   
 45  19  44  1   
 46  20  21  1   
 47  20  45  1   
 48  21  46  1   
@<TRIPOS>SUBSTRUCTURE
  1 ****  14 GROUP 4 **** **** 0

# MOE 2024.06 (io_trps.svl 2023.06)
