@<TRIPOS>MOLECULE
NONAME
46 49 1 0 0 
SMALL
USER_CHARGES


@<TRIPOS>ATOM
  1 S        0.8210    -1.1970     2.7020 S.3   1 <1>  -0.0800 
  2 C        0.1840    -1.5530     1.1030 C.2   1 <1>   0.3250 
  3 C       -0.7870    -0.9850     3.2990 C.2   1 <1>  -0.1100 
  4 N       -1.1010    -1.5020     1.0730 N.2   1 <1>  -0.5650 
  5 C        1.0950    -1.8590     0.0180 C.ar  1 <1>   0.0530 
  6 C       -1.6820    -1.1750     2.3070 C.2   1 <1>   0.1410 
  7 C        0.5940    -2.3180    -1.2020 C.ar  1 <1>  -0.1500 
  8 C        2.4830    -1.7180     0.1170 C.ar  1 <1>  -0.1500 
  9 C       -3.1310    -1.0850     2.4970 C.2   1 <1>   0.7160 
 10 C        1.4250    -2.6210    -2.2650 C.ar  1 <1>  -0.1500 
 11 C        3.3200    -2.0190    -0.9420 C.ar  1 <1>  -0.1500 
 12 O       -3.5870    -1.3720     3.5910 O.2   1 <1>  -0.5700 
 13 N       -4.0170    -0.6830     1.5120 N.am  1 <1>  -0.6600 
 14 C        2.7930    -2.4730    -2.1370 C.ar  1 <1>  -0.1500 
 15 C       -5.4610    -1.0530     1.5580 C.3   1 <1>   0.1400 
 16 C       -3.6370     0.0340     0.2670 C.3   1 <1>   0.1400 
 17 C       -5.7880    -2.0210     0.4050 C.3   1 <1>   0.0000 
 18 C       -3.9130    -0.8690    -0.9400 C.3   1 <1>  -0.1600 
 19 C       -7.2730    -2.4320     0.4520 C.3   1 <1>   0.2000 
 20 C       -5.3680    -1.3770    -0.9500 C.3   1 <1>  -0.1600 
 21 C       -5.1020    -3.3870     0.5950 C.3   1 <1>  -0.1600 
 22 O       -8.1080    -1.5150    -0.1580 O.3   1 <1>  -0.6800 
 23 C       -7.3690    -3.7870    -0.2480 C.3   1 <1>  -0.1600 
 24 C       -5.9630    -4.3980    -0.1700 C.3   1 <1>  -0.1600 
 25 H       -0.9250    -0.7440     4.3370 H     1 <1>   0.1500 
 26 H       -0.4690    -2.4400    -1.3160 H     1 <1>   0.1500 
 27 H        2.9290    -1.3650     1.0290 H     1 <1>   0.1500 
 28 H        1.0070    -2.9740    -3.1920 H     1 <1>   0.1500 
 29 H        4.3850    -1.9020    -0.8380 H     1 <1>   0.1500 
 30 H        3.4430    -2.7080    -2.9620 H     1 <1>   0.1500 
 31 H       -5.7080    -1.5100     2.5010 H     1 <1>   0.0800 
 32 H       -6.0560    -0.1610     1.4630 H     1 <1>   0.0800 
 33 H       -4.2310     0.9280     0.1900 H     1 <1>   0.0800 
 34 H       -2.6040     0.3330     0.2870 H     1 <1>   0.0800 
 35 H       -3.7200    -0.3150    -1.8420 H     1 <1>   0.0800 
 36 H       -3.2240    -1.6940    -0.9220 H     1 <1>   0.0800 
 37 H       -7.5910    -2.5380     1.4760 H     1 <1>   0.0800 
 38 H       -5.4970    -2.0750    -1.7580 H     1 <1>   0.0800 
 39 H       -5.9960    -0.5270    -1.1480 H     1 <1>   0.0800 
 40 H       -4.0780    -3.4010     0.2660 H     1 <1>   0.0800 
 41 H       -5.1140    -3.6480     1.6400 H     1 <1>   0.0800 
 42 H       -7.8790    -1.4480    -1.1040 H     1 <1>   0.4000 
 43 H       -8.0860    -4.4120     0.2540 H     1 <1>   0.0800 
 44 H       -7.6550    -3.6720    -1.2790 H     1 <1>   0.0800 
 45 H       -5.9730    -5.3500     0.3320 H     1 <1>   0.0800 
 46 H       -5.5710    -4.5340    -1.1630 H     1 <1>   0.0800 
@<TRIPOS>BOND
  1   1   2  1   
  2   1   3  1   
  3   2   4  2   
  4   2   5  1   
  5   3   6  2   
  6   3  25  1   
  7   4   6  1   
  8   5   7  ar  
  9   5   8  ar  
 10   6   9  1   
 11   7  10  ar  
 12   7  26  1   
 13   8  11  ar  
 14   8  27  1   
 15   9  12  2   
 16   9  13  am  
 17  10  14  ar  
 18  10  28  1   
 19  11  14  ar  
 20  11  29  1   
 21  13  15  1   
 22  13  16  1   
 23  14  30  1   
 24  15  17  1   
 25  15  31  1   
 26  15  32  1   
 27  16  18  1   
 28  16  33  1   
 29  16  34  1   
 30  17  19  1   
 31  17  20  1   
 32  17  21  1   
 33  18  20  1   
 34  18  35  1   
 35  18  36  1   
 36  19  22  1   
 37  19  23  1   
 38  19  37  1   
 39  20  38  1   
 40  20  39  1   
 41  21  24  1   
 42  21  40  1   
 43  21  41  1   
 44  22  42  1   
 45  23  24  1   
 46  23  43  1   
 47  23  44  1   
 48  24  45  1   
 49  24  46  1   
@<TRIPOS>SUBSTRUCTURE
  1 ****   4 GROUP 4 **** **** 0

# MOE 2024.06 (io_trps.svl 2023.06)
