@<TRIPOS>MOLECULE
NONAME
48 51 1 0 0 
SMALL
USER_CHARGES


@<TRIPOS>ATOM
  1 S       -0.5000     0.4210     0.4210 S.o2  1 <1>   1.0900 
  2 O       -0.9300     1.6610     1.0220 O.2   1 <1>  -0.6500 
  3 O        0.8860     0.0150     0.4110 O.2   1 <1>  -0.6500 
  4 C       -1.4450    -0.9390     1.0450 C.3   1 <1>  -0.0550 
  5 C       -1.1270     0.2770    -1.2460 C.3   1 <1>  -0.0550 
  6 C       -1.5030    -1.9180    -0.1250 C.3   1 <1>   0.1760 
  7 C       -1.8110    -1.0950    -1.3930 C.3   1 <1>  -0.1600 
  8 N       -2.5170    -2.9810     0.0950 N.pl3 1 <1>   0.3140 
  9 N       -3.7600    -2.6760     0.5080 N.2   1 <1>  -0.7070 
 10 C       -2.3790    -4.3150    -0.1190 C.2   1 <1>  -0.3320 
 11 C       -4.3920    -3.8070     0.5430 C.2   1 <1>   0.1080 
 12 C       -3.5780    -4.8770     0.1570 C.2   1 <1>   0.0630 
 13 C       -1.0950    -4.9800    -0.5980 C.3   1 <1>  -0.0600 
 14 C       -5.8400    -3.8840     0.9760 C.3   1 <1>  -0.0590 
 15 N       -3.8830    -6.2590     0.0780 N.am  1 <1>  -0.4930 
 16 C       -4.9660    -6.8740    -0.4900 C.2   1 <1>   0.7160 
 17 O       -5.8590    -6.2100    -0.9760 O.2   1 <1>  -0.5700 
 18 C       -5.0260    -8.3050    -0.5070 C.2   1 <1>  -0.0860 
 19 C       -6.0620    -9.1730    -0.3310 C.2   1 <1>   0.0870 
 20 C       -3.9440    -9.1520    -0.7490 C.2   1 <1>   0.1390 
 21 O       -5.5610   -10.3790    -0.4580 O.3   1 <1>  -0.0190 
 22 C       -7.4670    -9.0100    -0.0410 C.ar  1 <1>   0.0530 
 23 N       -4.2880   -10.3830    -0.7070 N.2   1 <1>  -0.4100 
 24 C       -7.9640    -7.9010     0.6460 C.ar  1 <1>  -0.1500 
 25 C       -8.3910    -9.9790    -0.4360 C.ar  1 <1>  -0.1500 
 26 C       -9.3120    -7.7640     0.9200 C.ar  1 <1>  -0.1500 
 27 C       -9.7400    -9.8500    -0.1630 C.ar  1 <1>  -0.1500 
 28 C      -10.2050    -8.7400     0.5170 C.ar  1 <1>  -0.1500 
 29 H       -2.4350    -0.6030     1.2930 H     1 <1>   0.0800 
 30 H       -0.9830    -1.3780     1.9070 H     1 <1>   0.0800 
 31 H       -0.3200     0.3740    -1.9480 H     1 <1>   0.0800 
 32 H       -1.8410     1.0550    -1.4400 H     1 <1>   0.0800 
 33 H       -0.5350    -2.3750    -0.2300 H     1 <1>   0.0800 
 34 H       -1.4660    -1.6060    -2.2750 H     1 <1>   0.0800 
 35 H       -2.8750    -0.9410    -1.4730 H     1 <1>   0.0800 
 36 H       -0.7880    -4.5590    -1.5390 H     1 <1>   0.0800 
 37 H       -1.2410    -6.0350    -0.7360 H     1 <1>   0.0800 
 38 H       -0.3100    -4.8370     0.1240 H     1 <1>   0.0800 
 39 H       -6.0670    -3.0680     1.6370 H     1 <1>   0.0800 
 40 H       -6.0290    -4.8090     1.4860 H     1 <1>   0.0800 
 41 H       -6.4760    -3.8180     0.1120 H     1 <1>   0.0800 
 42 H       -3.1740    -6.8670     0.4790 H     1 <1>   0.3700 
 43 H       -2.9390    -8.8260    -0.9560 H     1 <1>   0.1500 
 44 H       -7.2920    -7.1310     0.9740 H     1 <1>   0.1500 
 45 H       -8.0470   -10.8490    -0.9680 H     1 <1>   0.1500 
 46 H       -9.6690    -6.8960     1.4480 H     1 <1>   0.1500 
 47 H      -10.4300   -10.6130    -0.4800 H     1 <1>   0.1500 
 48 H      -11.2550    -8.6360     0.7290 H     1 <1>   0.1500 
@<TRIPOS>BOND
  1   1   2  2   
  2   1   3  2   
  3   1   4  1   
  4   1   5  1   
  5   4   6  1   
  6   4  29  1   
  7   4  30  1   
  8   5   7  1   
  9   5  31  1   
 10   5  32  1   
 11   6   7  1   
 12   6   8  1   
 13   6  33  1   
 14   7  34  1   
 15   7  35  1   
 16   8   9  1   
 17   8  10  1   
 18   9  11  2   
 19  10  12  2   
 20  10  13  1   
 21  11  12  1   
 22  11  14  1   
 23  12  15  1   
 24  13  36  1   
 25  13  37  1   
 26  13  38  1   
 27  14  39  1   
 28  14  40  1   
 29  14  41  1   
 30  15  16  am  
 31  15  42  1   
 32  16  17  2   
 33  16  18  1   
 34  18  19  2   
 35  18  20  1   
 36  19  21  1   
 37  19  22  1   
 38  20  23  2   
 39  20  43  1   
 40  21  23  1   
 41  22  24  ar  
 42  22  25  ar  
 43  24  26  ar  
 44  24  44  1   
 45  25  27  ar  
 46  25  45  1   
 47  26  28  ar  
 48  26  46  1   
 49  27  28  ar  
 50  27  47  1   
 51  28  48  1   
@<TRIPOS>SUBSTRUCTURE
  1 ****  12 GROUP 4 **** **** 0

# MOE 2024.06 (io_trps.svl 2023.06)
