@<TRIPOS>MOLECULE
NONAME
39 42 1 0 0 
SMALL
USER_CHARGES


@<TRIPOS>ATOM
  1 O        0.0390     0.0940     0.4180 O.3   1 <1>  -0.0190 
  2 N       -0.5980     1.1950     0.1600 N.2   1 <1>  -0.4100 
  3 C        1.3050     0.4340     0.3880 C.2   1 <1>   0.2980 
  4 C        0.2770     2.1060    -0.0080 C.2   1 <1>   0.3350 
  5 N        1.5210     1.6700     0.1340 N.2   1 <1>  -0.5650 
  6 C        2.3670    -0.6430     0.6800 C.3   1 <1>   0.4690 
  7 C       -0.0040     3.5740    -0.3350 C.3   1 <1>   0.1010 
  8 N        2.1410    -1.9480    -0.0190 N.pl3 1 <1>  -0.8380 
  9 C        3.7790    -0.2300     0.2410 C.3   1 <1>  -0.1600 
 10 C        0.0150     4.4230     0.9430 C.3   1 <1>  -0.2400 
 11 C       -1.3360     3.7690    -1.0770 C.3   1 <1>  -0.2400 
 12 C        1.2070    -2.8770     0.4110 C.ar  1 <1>   0.4100 
 13 C        3.3430    -2.3620    -0.7740 C.3   1 <1>   0.2090 
 14 C        4.4670    -1.5230    -0.1870 C.3   1 <1>  -0.1600 
 15 N        0.6260    -2.6500     1.5740 N.ar  1 <1>  -0.6200 
 16 C        0.8680    -4.0280    -0.3380 C.ar  1 <1>   0.2270 
 17 C       -0.2980    -3.5330     1.9740 C.ar  1 <1>   0.4700 
 18 N        1.2880    -4.5520    -1.5410 N.2   1 <1>  -0.5650 
 19 C       -0.0930    -4.8420     0.2050 C.ar  1 <1>   0.1050 
 20 N       -0.7040    -4.6250     1.3720 N.ar  1 <1>  -0.5670 
 21 C        0.5860    -5.6230    -1.6820 C.2   1 <1>   0.0360 
 22 N       -0.2720    -5.8580    -0.6580 N.pl3 1 <1>   0.0330 
 23 H        2.3790    -0.8230     1.7410 H     1 <1>   0.0800 
 24 H        0.7870     3.9140    -0.9800 H     1 <1>   0.0800 
 25 H        3.7150     0.4250    -0.6100 H     1 <1>   0.0800 
 26 H        4.3030     0.2780     1.0290 H     1 <1>   0.0800 
 27 H       -0.7580     4.0990     1.6170 H     1 <1>   0.0800 
 28 H       -0.1380     5.4610     0.7090 H     1 <1>   0.0800 
 29 H        0.9650     4.3190     1.4380 H     1 <1>   0.0800 
 30 H       -2.1590     3.4590    -0.4570 H     1 <1>   0.0800 
 31 H       -1.3440     3.1760    -1.9740 H     1 <1>   0.0800 
 32 H       -1.4700     4.8010    -1.3440 H     1 <1>   0.0800 
 33 H        3.5430    -3.4150    -0.6600 H     1 <1>   0.0800 
 34 H        3.1970    -2.1340    -1.8170 H     1 <1>   0.0800 
 35 H        4.8690    -2.0310     0.6730 H     1 <1>   0.0800 
 36 H        5.2550    -1.3560    -0.9000 H     1 <1>   0.0800 
 37 H       -0.7620    -3.3080     2.9190 H     1 <1>   0.1500 
 38 H        0.6550    -6.2880    -2.5270 H     1 <1>   0.1500 
 39 H       -0.9330    -6.6270    -0.5350 H     1 <1>   0.2700 
@<TRIPOS>BOND
  1   1   2  1   
  2   1   3  1   
  3   2   4  2   
  4   3   5  2   
  5   3   6  1   
  6   4   5  1   
  7   4   7  1   
  8   6   8  1   
  9   6   9  1   
 10   6  23  1   
 11   7  10  1   
 12   7  11  1   
 13   7  24  1   
 14   8  12  1   
 15   8  13  1   
 16   9  14  1   
 17   9  25  1   
 18   9  26  1   
 19  10  27  1   
 20  10  28  1   
 21  10  29  1   
 22  11  30  1   
 23  11  31  1   
 24  11  32  1   
 25  12  15  ar  
 26  12  16  ar  
 27  13  14  1   
 28  13  33  1   
 29  13  34  1   
 30  14  35  1   
 31  14  36  1   
 32  15  17  ar  
 33  16  18  1   
 34  16  19  ar  
 35  17  20  ar  
 36  17  37  1   
 37  18  21  2   
 38  19  20  ar  
 39  19  22  1   
 40  21  22  1   
 41  21  38  1   
 42  22  39  1   
@<TRIPOS>SUBSTRUCTURE
  1 ****   8 GROUP 4 **** **** 0

# MOE 2024.06 (io_trps.svl 2023.06)
