@<TRIPOS>MOLECULE
NONAME
44 46 1 0 0 
SMALL
USER_CHARGES


@<TRIPOS>ATOM
  1 O       -1.1030     0.8020     1.7790 O.2   1 <1>  -0.5700 
  2 C       -1.8060     1.2710     0.8970 C.2   1 <1>   0.7160 
  3 N       -2.9530     0.5650     0.5460 N.am  1 <1>  -0.6600 
  4 C       -1.3890     2.5360     0.3030 C.2   1 <1>   0.1410 
  5 C       -4.1110     1.2060    -0.1560 C.3   1 <1>   0.2200 
  6 C       -3.0310    -0.9010     0.8490 C.3   1 <1>   0.0600 
  7 N       -1.7940     3.0230    -0.8960 N.2   1 <1>  -0.2270 
  8 C       -0.5170     3.4370     0.8180 C.2   1 <1>  -0.3020 
  9 C       -4.6870     2.3720     0.6510 C.3   1 <1>  -0.1600 
 10 C       -5.3390     0.3170    -0.3780 C.3   1 <1>  -0.1600 
 11 N       -1.2290     4.1560    -1.1070 N.2   1 <1>  -0.4180 
 12 N       -0.4370     4.4210    -0.0690 N.pl3 1 <1>   0.3000 
 13 C       -6.0760     2.6120     0.0460 C.3   1 <1>  -0.0800 
 14 C       -6.4810     1.3070    -0.6430 C.3   1 <1>  -0.0800 
 15 C       -7.1920     2.9160     1.0540 C.3   1 <1>  -0.1600 
 16 C       -7.8450     0.9210    -0.0500 C.3   1 <1>  -0.1600 
 17 C       -8.4400     2.2260     0.4920 C.3   1 <1>   0.4230 
 18 N       -9.0460     3.0300    -0.6200 N.4   1 <1>  -0.9590 
 19 C       -9.4790     4.3970    -0.1840 C.3   1 <1>   0.2630 
 20 C      -10.2160     2.3420    -1.2560 C.3   1 <1>   0.2630 
 21 H       -3.7900     1.5590    -1.1220 H     1 <1>   0.0800 
 22 H       -3.3440    -1.4450    -0.0240 H     1 <1>   0.0800 
 23 H       -3.7260    -1.0710     1.6520 H     1 <1>   0.0800 
 24 H       -2.0700    -1.2840     1.1460 H     1 <1>   0.0800 
 25 H        0.0260     3.4030     1.7450 H     1 <1>   0.1500 
 26 H       -4.7610     2.0770     1.6830 H     1 <1>   0.0800 
 27 H       -4.0810     3.2570     0.5760 H     1 <1>   0.0800 
 28 H       -5.1980    -0.3540    -1.2080 H     1 <1>   0.0800 
 29 H       -5.5510    -0.2430     0.5150 H     1 <1>   0.0800 
 30 H        0.1350     5.2710    -0.0130 H     1 <1>   0.2700 
 31 H       -6.0130     3.3940    -0.6940 H     1 <1>   0.0800 
 32 H       -6.5640     1.4830    -1.7040 H     1 <1>   0.0800 
 33 H       -7.2970     3.9670     1.2460 H     1 <1>   0.0800 
 34 H       -6.9620     2.4440     1.9930 H     1 <1>   0.0800 
 35 H       -7.6990     0.2660     0.7910 H     1 <1>   0.0800 
 36 H       -8.4630     0.4000    -0.7550 H     1 <1>   0.0800 
 37 H       -9.1690     2.0400     1.2650 H     1 <1>   0.0800 
 38 H       -8.3050     3.1360    -1.3270 H     1 <1>   0.4500 
 39 H      -10.1850     4.3260     0.6280 H     1 <1>   0.0800 
 40 H       -9.9480     4.9180    -1.0030 H     1 <1>   0.0800 
 41 H       -8.6340     4.9800     0.1410 H     1 <1>   0.0800 
 42 H      -10.9770     2.1390    -0.5190 H     1 <1>   0.0800 
 43 H       -9.9150     1.4120    -1.7080 H     1 <1>   0.0800 
 44 H      -10.6410     2.9650    -2.0260 H     1 <1>   0.0800 
@<TRIPOS>BOND
  1   1   2  2   
  2   2   3  am  
  3   2   4  1   
  4   3   5  1   
  5   3   6  1   
  6   4   7  1   
  7   4   8  2   
  8   5   9  1   
  9   5  10  1   
 10   5  21  1   
 11   6  22  1   
 12   6  23  1   
 13   6  24  1   
 14   7  11  2   
 15   8  12  1   
 16   8  25  1   
 17   9  13  1   
 18   9  26  1   
 19   9  27  1   
 20  10  14  1   
 21  10  28  1   
 22  10  29  1   
 23  11  12  1   
 24  12  30  1   
 25  13  14  1   
 26  13  15  1   
 27  13  31  1   
 28  14  16  1   
 29  14  32  1   
 30  15  17  1   
 31  15  33  1   
 32  15  34  1   
 33  16  17  1   
 34  16  35  1   
 35  16  36  1   
 36  17  18  1   
 37  17  37  1   
 38  18  19  1   
 39  18  20  1   
 40  18  38  1   
 41  19  39  1   
 42  19  40  1   
 43  19  41  1   
 44  20  42  1   
 45  20  43  1   
 46  20  44  1   
@<TRIPOS>SUBSTRUCTURE
  1 ****   9 GROUP 4 **** **** 0

# MOE 2024.06 (io_trps.svl 2023.06)
