@<TRIPOS>MOLECULE
NONAME
47 49 1 0 0 
SMALL
USER_CHARGES


@<TRIPOS>ATOM
  1 O        0.3520     0.0000    -0.6180 O.3   1 <1>  -0.5600 
  2 C        1.6180    -0.6150    -0.6690 C.3   1 <1>   0.2000 
  3 C        0.3470     1.3840    -0.8060 C.3   1 <1>   0.1200 
  4 C        2.5980     0.0280     0.3500 C.3   1 <1>   0.5660 
  5 C        1.4440    -2.1140    -0.3720 C.3   1 <1>   0.1200 
  6 C        1.1840     2.0680     0.2880 C.3   1 <1>   0.3430 
  7 N        2.5820     1.5260     0.3290 N.4   1 <1>  -0.9590 
  8 C        4.0300    -0.4230     0.0980 C.ar  1 <1>  -0.1440 
  9 O        1.2180    -2.3120     0.9880 O.3   1 <1>  -0.6800 
 10 C        3.3710     2.0870     1.4560 C.3   1 <1>   0.4870 
 11 C        4.7160    -0.0690    -1.0590 C.ar  1 <1>  -0.1500 
 12 C        4.6690    -1.2000     1.0540 C.ar  1 <1>  -0.1500 
 13 C        3.6010     3.5570     1.1720 C.ar  1 <1>  -0.1440 
 14 C        6.0240    -0.4780    -1.2460 C.ar  1 <1>  -0.1500 
 15 C        5.9770    -1.6070     0.8640 C.ar  1 <1>  -0.1500 
 16 C        2.8220     4.5240     1.7910 C.ar  1 <1>  -0.1500 
 17 C        4.5920     3.9440     0.2800 C.ar  1 <1>  -0.1500 
 18 C        6.6560    -1.2440    -0.2840 C.ar  1 <1>  -0.1500 
 19 C        3.0230     5.8620     1.5060 C.ar  1 <1>  -0.1500 
 20 C        4.7930     5.2840    -0.0030 C.ar  1 <1>  -0.1500 
 21 C        4.0030     6.2520     0.6080 C.ar  1 <1>   0.0820 
 22 O        4.1290     7.5820     0.3850 O.3   1 <1>  -0.3620 
 23 C        5.1500     8.1010    -0.4380 C.3   1 <1>   0.0400 
 24 H        1.9890    -0.5020    -1.6720 H     1 <1>   0.0800 
 25 H        0.7260     1.6070    -1.7890 H     1 <1>   0.0800 
 26 H       -0.6760     1.7160    -0.7500 H     1 <1>   0.0800 
 27 H        2.3010    -0.3060     1.3300 H     1 <1>   0.0800 
 28 H        2.3330    -2.6590    -0.6410 H     1 <1>   0.0800 
 29 H        0.6070    -2.5070    -0.9260 H     1 <1>   0.0800 
 30 H        0.6990     1.9050     1.2370 H     1 <1>   0.0800 
 31 H        1.2070     3.1310     0.1070 H     1 <1>   0.0800 
 32 H        3.0660     1.8170    -0.5230 H     1 <1>   0.4500 
 33 H        0.8690    -3.2140     1.1510 H     1 <1>   0.4000 
 34 H        2.8440     1.9610     2.3880 H     1 <1>   0.0800 
 35 H        4.3250     1.5910     1.5320 H     1 <1>   0.0800 
 36 H        4.2520     0.5190    -1.8320 H     1 <1>   0.1500 
 37 H        4.1560    -1.5040     1.9530 H     1 <1>   0.1500 
 38 H        6.5570    -0.2050    -2.1420 H     1 <1>   0.1500 
 39 H        6.4700    -2.2110     1.6080 H     1 <1>   0.1500 
 40 H        2.0570     4.2560     2.5010 H     1 <1>   0.1500 
 41 H        5.2220     3.2120    -0.1980 H     1 <1>   0.1500 
 42 H        7.6750    -1.5630    -0.4310 H     1 <1>   0.1500 
 43 H        2.4250     6.6210     1.9800 H     1 <1>   0.1500 
 44 H        5.5670     5.5590    -0.6960 H     1 <1>   0.1500 
 45 H        5.0680     9.1730    -0.4360 H     1 <1>   0.0800 
 46 H        5.0180     7.7280    -1.4380 H     1 <1>   0.0800 
 47 H        6.1050     7.8080    -0.0380 H     1 <1>   0.0800 
@<TRIPOS>BOND
  1   1   2  1   
  2   1   3  1   
  3   2   4  1   
  4   2   5  1   
  5   2  24  1   
  6   3   6  1   
  7   3  25  1   
  8   3  26  1   
  9   4   7  1   
 10   4   8  1   
 11   4  27  1   
 12   5   9  1   
 13   5  28  1   
 14   5  29  1   
 15   6   7  1   
 16   6  30  1   
 17   6  31  1   
 18   7  10  1   
 19   7  32  1   
 20   8  11  ar  
 21   8  12  ar  
 22   9  33  1   
 23  10  13  1   
 24  10  34  1   
 25  10  35  1   
 26  11  14  ar  
 27  11  36  1   
 28  12  15  ar  
 29  12  37  1   
 30  13  16  ar  
 31  13  17  ar  
 32  14  18  ar  
 33  14  38  1   
 34  15  18  ar  
 35  15  39  1   
 36  16  19  ar  
 37  16  40  1   
 38  17  20  ar  
 39  17  41  1   
 40  18  42  1   
 41  19  21  ar  
 42  19  43  1   
 43  20  21  ar  
 44  20  44  1   
 45  21  22  1   
 46  22  23  1   
 47  23  45  1   
 48  23  46  1   
 49  23  47  1   
@<TRIPOS>SUBSTRUCTURE
  1 ****   7 GROUP 4 **** **** 0

# MOE 2024.06 (io_trps.svl 2023.06)
