@<TRIPOS>MOLECULE
NONAME
39 41 1 0 0 
SMALL
USER_CHARGES


@<TRIPOS>ATOM
  1 O       -1.7260     0.8840    -1.5110 O.2   1 <1>  -0.5700 
  2 C       -1.6340     0.8950    -0.2990 C.2   1 <1>   0.7150 
  3 N       -1.8730    -0.2580     0.3780 N.am  1 <1>  -0.7300 
  4 C       -1.2940     2.0790     0.4370 C.2   1 <1>  -0.2370 
  5 C       -2.2260    -1.5600    -0.2270 C.3   1 <1>   0.2200 
  6 N       -1.0240     3.2960    -0.1110 N.pl3 1 <1>   0.3140 
  7 C       -1.1640     2.2610     1.7820 C.2   1 <1>  -0.1500 
  8 C       -3.7140    -1.8070    -0.0430 C.3   1 <1>  -0.0800 
  9 C       -1.6220    -2.6850     0.6060 C.3   1 <1>   0.1200 
 10 N       -0.7380     4.2190     0.8200 N.2   1 <1>  -0.7070 
 11 C       -1.0140     3.6720    -1.5350 C.3   1 <1>   0.0160 
 12 C       -0.8240     3.5890     1.9510 C.2   1 <1>   0.1390 
 13 C       -3.7770    -2.4040     1.3680 C.3   1 <1>   0.1200 
 14 C       -4.2610    -2.7720    -1.1130 C.3   1 <1>  -0.0160 
 15 O       -2.4950    -2.8710     1.6790 O.3   1 <1>  -0.5600 
 16 C       -5.7550    -3.0030    -0.9420 C.ar  1 <1>  -0.1440 
 17 C       -6.2620    -4.1810    -0.4320 C.ar  1 <1>  -0.1500 
 18 C       -6.6820    -2.0420    -1.2920 C.ar  1 <1>  -0.1500 
 19 C       -7.6320    -4.3350    -0.2950 C.ar  1 <1>   0.1600 
 20 C       -8.0320    -2.2960    -1.1150 C.ar  1 <1>   0.1600 
 21 N       -8.5290    -3.4190    -0.6230 N.ar  1 <1>  -0.6200 
 22 H       -1.8380    -0.2540     1.3970 H     1 <1>   0.3700 
 23 H       -1.9080    -1.5980    -1.2560 H     1 <1>   0.0800 
 24 H       -1.2910     1.5480     2.5760 H     1 <1>   0.1500 
 25 H       -4.2690    -0.8870    -0.0960 H     1 <1>   0.0800 
 26 H       -0.6390    -2.4490     0.9730 H     1 <1>   0.0800 
 27 H       -1.5920    -3.6020     0.0450 H     1 <1>   0.0800 
 28 H       -0.2910     3.0710    -2.0550 H     1 <1>   0.0800 
 29 H       -0.7520     4.7100    -1.6270 H     1 <1>   0.0800 
 30 H       -1.9900     3.5090    -1.9520 H     1 <1>   0.0800 
 31 H       -0.6470     4.0650     2.9020 H     1 <1>   0.1500 
 32 H       -4.4730    -3.2200     1.4510 H     1 <1>   0.0800 
 33 H       -4.0300    -1.6480     2.0910 H     1 <1>   0.0800 
 34 H       -3.7430    -3.7140    -1.0670 H     1 <1>   0.0800 
 35 H       -4.0890    -2.3540    -2.0900 H     1 <1>   0.0800 
 36 H       -5.6080    -4.9820    -0.1390 H     1 <1>   0.1500 
 37 H       -6.3680    -1.0990    -1.7000 H     1 <1>   0.1500 
 38 H       -8.0100    -5.2600     0.1050 H     1 <1>   0.1500 
 39 H       -8.7400    -1.5340    -1.3930 H     1 <1>   0.1500 
@<TRIPOS>BOND
  1   1   2  2   
  2   2   3  am  
  3   2   4  1   
  4   3   5  1   
  5   3  22  1   
  6   4   6  1   
  7   4   7  2   
  8   5   8  1   
  9   5   9  1   
 10   5  23  1   
 11   6  10  1   
 12   6  11  1   
 13   7  12  1   
 14   7  24  1   
 15   8  13  1   
 16   8  14  1   
 17   8  25  1   
 18   9  15  1   
 19   9  26  1   
 20   9  27  1   
 21  10  12  2   
 22  11  28  1   
 23  11  29  1   
 24  11  30  1   
 25  12  31  1   
 26  13  15  1   
 27  13  32  1   
 28  13  33  1   
 29  14  16  1   
 30  14  34  1   
 31  14  35  1   
 32  16  17  ar  
 33  16  18  ar  
 34  17  19  ar  
 35  17  36  1   
 36  18  20  ar  
 37  18  37  1   
 38  19  21  ar  
 39  19  38  1   
 40  20  21  ar  
 41  20  39  1   
@<TRIPOS>SUBSTRUCTURE
  1 ****   8 GROUP 4 **** **** 0

# MOE 2024.06 (io_trps.svl 2023.06)
