@<TRIPOS>MOLECULE
NONAME
26 26 1 0 0 
SMALL
USER_CHARGES


@<TRIPOS>ATOM
  1 N       -5.5300     3.1160     0.4170 N.3   1 <1>  -0.8100 
  2 C       -4.2720     2.4930    -0.0400 C.3   1 <1>   0.1100 
  3 C       -6.7190     2.4010    -0.0790 C.3   1 <1>   0.1100 
  4 C       -5.5790     4.5430     0.0710 C.3   1 <1>   0.0300 
  5 C       -4.1980     0.9980     0.3590 C.3   1 <1>   0.4230 
  6 C       -6.6770     0.9180     0.3370 C.3   1 <1>   0.3430 
  7 N       -5.4060     0.2580    -0.1100 N.4   1 <1>  -0.9060 
  8 C       -2.9620     0.2910    -0.2150 C.3   1 <1>  -0.1600 
  9 C       -1.6390     0.8490     0.3320 C.3   1 <1>  -0.2400 
 10 H       -4.1800     2.5930    -1.1090 H     1 <1>   0.0800 
 11 H       -3.4470     3.0170     0.4120 H     1 <1>   0.0800 
 12 H       -7.6030     2.8540     0.3390 H     1 <1>   0.0800 
 13 H       -6.7800     2.4820    -1.1510 H     1 <1>   0.0800 
 14 H       -6.4740     4.9900     0.4690 H     1 <1>   0.0800 
 15 H       -5.5660     4.6790    -0.9980 H     1 <1>   0.0800 
 16 H       -4.7330     5.0550     0.4980 H     1 <1>   0.0800 
 17 H       -4.1520     0.9500     1.4350 H     1 <1>   0.0800 
 18 H       -7.5280     0.4060    -0.0820 H     1 <1>   0.0800 
 19 H       -6.7540     0.8680     1.4110 H     1 <1>   0.0800 
 20 H       -5.3840     0.2330    -1.1330 H     1 <1>   0.4500 
 21 H       -5.3670    -0.7070     0.2340 H     1 <1>   0.4500 
 22 H       -3.0030    -0.7540     0.0400 H     1 <1>   0.0800 
 23 H       -2.9530     0.3770    -1.2890 H     1 <1>   0.0800 
 24 H       -1.6210     0.8090     1.4080 H     1 <1>   0.0800 
 25 H       -1.4800     1.8660     0.0200 H     1 <1>   0.0800 
 26 H       -0.8150     0.2610    -0.0360 H     1 <1>   0.0800 
@<TRIPOS>BOND
  1   1   2  1   
  2   1   3  1   
  3   1   4  1   
  4   2   5  1   
  5   2  10  1   
  6   2  11  1   
  7   3   6  1   
  8   3  12  1   
  9   3  13  1   
 10   4  14  1   
 11   4  15  1   
 12   4  16  1   
 13   5   7  1   
 14   5   8  1   
 15   5  17  1   
 16   6   7  1   
 17   6  18  1   
 18   6  19  1   
 19   7  20  1   
 20   7  21  1   
 21   8   9  1   
 22   8  22  1   
 23   8  23  1   
 24   9  24  1   
 25   9  25  1   
 26   9  26  1   
@<TRIPOS>SUBSTRUCTURE
  1 ****   2 GROUP 4 **** **** 0

# MOE 2024.06 (io_trps.svl 2023.06)
