@<TRIPOS>MOLECULE
NONAME
48 51 1 0 0 
SMALL
USER_CHARGES


@<TRIPOS>ATOM
  1 O       -0.9120     0.4490    -1.3130 O.3   1 <1>  -0.0190 
  2 N        0.1460     1.1910    -1.1800 N.2   1 <1>  -0.4100 
  3 C       -1.9420     0.9460    -0.6880 C.2   1 <1>  -0.0400 
  4 C       -0.1980     2.2090    -0.4500 C.2   1 <1>   0.2350 
  5 C       -1.5510     2.0870    -0.1060 C.2   1 <1>  -0.1500 
  6 C       -3.2800     0.2230    -0.7200 C.3   1 <1>   0.3890 
  7 C        0.6950     3.2840    -0.0620 C.ar  1 <1>   0.0540 
  8 N       -3.2180    -1.1110    -0.0510 N.pl3 1 <1>  -0.8380 
  9 C        0.2710     4.4420     0.5770 C.ar  1 <1>  -0.1500 
 10 C        2.0600     3.2310    -0.3080 C.ar  1 <1>  -0.1500 
 11 C       -4.2010    -2.0420    -0.3270 C.ar  1 <1>   0.4100 
 12 C       -2.4240    -1.2000     1.2070 C.3   1 <1>   0.1290 
 13 C        1.1780     5.4270     0.9200 C.ar  1 <1>   0.1600 
 14 C        2.8860     4.2690     0.0750 C.ar  1 <1>   0.1600 
 15 N       -5.3670    -1.5900    -0.7560 N.ar  1 <1>  -0.6200 
 16 C       -3.9850    -3.3900    -0.1650 C.ar  1 <1>  -0.1500 
 17 N        2.4780     5.3690     0.6860 N.ar  1 <1>  -0.6200 
 18 C       -6.2790    -2.5140    -0.9870 C.ar  1 <1>   0.4700 
 19 C       -5.0080    -4.2620    -0.4460 C.ar  1 <1>   0.4100 
 20 N       -6.1830    -3.8210    -0.8580 N.ar  1 <1>  -0.6200 
 21 N       -4.8380    -5.6260    -0.3140 N.pl3 1 <1>  -0.8380 
 22 C       -3.7900    -6.2930    -1.1280 C.3   1 <1>   0.2090 
 23 C       -6.0110    -6.4880    -0.0120 C.3   1 <1>   0.2090 
 24 C       -3.2950    -7.5440    -0.3960 C.3   1 <1>  -0.1600 
 25 C       -5.5440    -7.7490     0.7240 C.3   1 <1>  -0.1600 
 26 C       -4.4520    -8.4950    -0.0570 C.3   1 <1>  -0.1600 
 27 H       -2.1240     2.7680     0.4940 H     1 <1>   0.1500 
 28 H       -3.5790     0.0910    -1.7460 H     1 <1>   0.0800 
 29 H       -4.0260     0.8220    -0.2290 H     1 <1>   0.0800 
 30 H       -0.7660     4.5900     0.8100 H     1 <1>   0.1500 
 31 H        2.4800     2.3730    -0.8020 H     1 <1>   0.1500 
 32 H       -1.3780    -1.2950     0.9680 H     1 <1>   0.0800 
 33 H       -2.7280    -2.0520     1.7900 H     1 <1>   0.0800 
 34 H       -2.5710    -0.3150     1.8000 H     1 <1>   0.0800 
 35 H        0.8180     6.3130     1.4150 H     1 <1>   0.1500 
 36 H        3.9410     4.1930    -0.1320 H     1 <1>   0.1500 
 37 H       -3.0400    -3.7580     0.1720 H     1 <1>   0.1500 
 38 H       -7.2330    -2.1510    -1.3290 H     1 <1>   0.1500 
 39 H       -2.9670    -5.6220    -1.3030 H     1 <1>   0.0800 
 40 H       -4.2090    -6.5670    -2.0810 H     1 <1>   0.0800 
 41 H       -6.5020    -6.7530    -0.9320 H     1 <1>   0.0800 
 42 H       -6.7110    -5.9480     0.6040 H     1 <1>   0.0800 
 43 H       -2.7990    -7.2390     0.5080 H     1 <1>   0.0800 
 44 H       -2.5760    -8.0540    -1.0120 H     1 <1>   0.0800 
 45 H       -6.3860    -8.3980     0.8830 H     1 <1>   0.0800 
 46 H       -5.1650    -7.4590     1.6880 H     1 <1>   0.0800 
 47 H       -4.0870    -9.3220     0.5260 H     1 <1>   0.0800 
 48 H       -4.8710    -8.8860    -0.9680 H     1 <1>   0.0800 
@<TRIPOS>BOND
  1   1   2  1   
  2   1   3  1   
  3   2   4  2   
  4   3   5  2   
  5   3   6  1   
  6   4   5  1   
  7   4   7  1   
  8   5  27  1   
  9   6   8  1   
 10   6  28  1   
 11   6  29  1   
 12   7   9  ar  
 13   7  10  ar  
 14   8  11  1   
 15   8  12  1   
 16   9  13  ar  
 17   9  30  1   
 18  10  14  ar  
 19  10  31  1   
 20  11  15  ar  
 21  11  16  ar  
 22  12  32  1   
 23  12  33  1   
 24  12  34  1   
 25  13  17  ar  
 26  13  35  1   
 27  14  17  ar  
 28  14  36  1   
 29  15  18  ar  
 30  16  19  ar  
 31  16  37  1   
 32  18  20  ar  
 33  18  38  1   
 34  19  20  ar  
 35  19  21  1   
 36  21  22  1   
 37  21  23  1   
 38  22  24  1   
 39  22  39  1   
 40  22  40  1   
 41  23  25  1   
 42  23  41  1   
 43  23  42  1   
 44  24  26  1   
 45  24  43  1   
 46  24  44  1   
 47  25  26  1   
 48  25  45  1   
 49  25  46  1   
 50  26  47  1   
 51  26  48  1   
@<TRIPOS>SUBSTRUCTURE
  1 ****   8 GROUP 4 **** **** 0

# MOE 2024.06 (io_trps.svl 2023.06)
