@<TRIPOS>MOLECULE
NONAME
45 46 1 0 0 
SMALL
USER_CHARGES


@<TRIPOS>ATOM
  1 N       -0.9970    -1.3230    -1.3720 N.ar  1 <1>  -0.6200 
  2 C       -2.0150    -1.6170    -0.5860 C.ar  1 <1>   0.4100 
  3 C       -0.2350    -2.3800    -1.6260 C.ar  1 <1>   0.1600 
  4 N       -2.8840    -0.5690    -0.2630 N.pl3 1 <1>  -0.8380 
  5 C       -2.2510    -2.9320    -0.0750 C.ar  1 <1>   0.4100 
  6 C       -0.4710    -3.6510    -1.1300 C.ar  1 <1>   0.1600 
  7 C       -2.2370     0.6300     0.3400 C.3   1 <1>   0.1290 
  8 C       -3.8290    -0.2040    -1.3520 C.3   1 <1>   0.1290 
  9 N       -1.4900    -3.9780    -0.3350 N.ar  1 <1>  -0.6200 
 10 N       -3.3500    -3.1620     0.7380 N.pl3 1 <1>  -0.8690 
 11 C       -3.1740    -3.8600     2.0450 C.3   1 <1>   0.2090 
 12 C       -3.7980    -5.2680     1.9910 C.3   1 <1>   0.3430 
 13 N       -3.4000    -5.9570     0.7240 N.4   1 <1>  -0.9590 
 14 C       -4.5210    -6.5550    -0.0530 C.3   1 <1>   0.4230 
 15 C       -2.2620    -6.8850     0.9750 C.3   1 <1>   0.3430 
 16 C       -3.9880    -7.1550    -1.3610 C.3   1 <1>  -0.1600 
 17 C       -5.5730    -5.4940    -0.3880 C.3   1 <1>  -0.2400 
 18 C       -1.7380    -7.4860    -0.3290 C.3   1 <1>  -0.1600 
 19 C       -2.8560    -8.1590    -1.1260 C.3   1 <1>  -0.1600 
 20 H        0.6170    -2.2180    -2.2620 H     1 <1>   0.1500 
 21 H        0.2120    -4.4380    -1.3990 H     1 <1>   0.1500 
 22 H       -1.4980     0.3250     1.0610 H     1 <1>   0.0800 
 23 H       -2.9750     1.2370     0.8330 H     1 <1>   0.0800 
 24 H       -1.7510     1.2110    -0.4250 H     1 <1>   0.0800 
 25 H       -4.2680    -1.0930    -1.7710 H     1 <1>   0.0800 
 26 H       -3.3050     0.3230    -2.1310 H     1 <1>   0.0800 
 27 H       -4.6130     0.4230    -0.9650 H     1 <1>   0.0800 
 28 H       -3.8140    -2.2430     0.8490 H     1 <1>   0.4000 
 29 H       -3.6430    -3.2870     2.8260 H     1 <1>   0.0800 
 30 H       -2.1250    -3.9390     2.2800 H     1 <1>   0.0800 
 31 H       -4.8670    -5.1630     2.0390 H     1 <1>   0.0800 
 32 H       -3.4880    -5.8410     2.8480 H     1 <1>   0.0800 
 33 H       -3.0240    -5.1720     0.1420 H     1 <1>   0.4500 
 34 H       -4.9780    -7.3400     0.5270 H     1 <1>   0.0800 
 35 H       -2.5850    -7.6820     1.6250 H     1 <1>   0.0800 
 36 H       -1.4610    -6.3520     1.4610 H     1 <1>   0.0800 
 37 H       -3.6360    -6.3630    -2.0010 H     1 <1>   0.0800 
 38 H       -4.7920    -7.6520    -1.8770 H     1 <1>   0.0800 
 39 H       -5.1220    -4.6580    -0.8920 H     1 <1>   0.0800 
 40 H       -6.0870    -5.1490     0.4880 H     1 <1>   0.0800 
 41 H       -6.3150    -5.9160    -1.0420 H     1 <1>   0.0800 
 42 H       -0.9730    -8.2080    -0.1010 H     1 <1>   0.0800 
 43 H       -1.2830    -6.7100    -0.9190 H     1 <1>   0.0800 
 44 H       -2.4730    -8.5060    -2.0720 H     1 <1>   0.0800 
 45 H       -3.2300    -9.0130    -0.5860 H     1 <1>   0.0800 
@<TRIPOS>BOND
  1   1   2  ar  
  2   1   3  ar  
  3   2   4  1   
  4   2   5  ar  
  5   3   6  ar  
  6   3  20  1   
  7   4   7  1   
  8   4   8  1   
  9   5   9  ar  
 10   5  10  1   
 11   6   9  ar  
 12   6  21  1   
 13   7  22  1   
 14   7  23  1   
 15   7  24  1   
 16   8  25  1   
 17   8  26  1   
 18   8  27  1   
 19  10  11  1   
 20  10  28  1   
 21  11  12  1   
 22  11  29  1   
 23  11  30  1   
 24  12  13  1   
 25  12  31  1   
 26  12  32  1   
 27  13  14  1   
 28  13  15  1   
 29  13  33  1   
 30  14  16  1   
 31  14  17  1   
 32  14  34  1   
 33  15  18  1   
 34  15  35  1   
 35  15  36  1   
 36  16  19  1   
 37  16  37  1   
 38  16  38  1   
 39  17  39  1   
 40  17  40  1   
 41  17  41  1   
 42  18  19  1   
 43  18  42  1   
 44  18  43  1   
 45  19  44  1   
 46  19  45  1   
@<TRIPOS>SUBSTRUCTURE
  1 ****   5 GROUP 4 **** **** 0

# MOE 2024.06 (io_trps.svl 2023.06)
