@<TRIPOS>MOLECULE
NONAME
55 58 1 0 0 
SMALL
USER_CHARGES


@<TRIPOS>ATOM
  1 N       -0.8990     0.1030     0.0980 N.ar  1 <1>  -0.6200 
  2 C        0.3160     0.3820    -0.3440 C.ar  1 <1>   0.7710 
  3 C       -1.6950     1.1050     0.4160 C.ar  1 <1>   0.4100 
  4 N        0.7520     1.6470    -0.4500 N.ar  1 <1>  -0.1790 
  5 N        1.1520    -0.6350    -0.7000 N.pl3 1 <1>  -0.8380 
  6 N       -2.9460     0.7740     0.8130 N.pl3 1 <1>  -0.8380 
  7 C       -1.2710     2.4550     0.3470 C.ar  1 <1>  -0.1430 
  8 C       -0.0160     2.7070    -0.1100 C.ar  1 <1>   0.2180 
  9 C        2.4710    -0.5160    -1.3990 C.3   1 <1>   0.1290 
 10 C        0.7660    -2.0680    -0.4710 C.3   1 <1>   0.1290 
 11 C       -3.1970    -0.3540     1.7630 C.3   1 <1>   0.2090 
 12 C       -4.1550     1.1130     0.0020 C.3   1 <1>   0.2090 
 13 C       -2.1920     3.5890     0.8030 C.3   1 <1>  -0.0170 
 14 C        0.5840     4.1050    -0.2350 C.3   1 <1>  -0.0170 
 15 C       -3.8140    -1.5680     1.0420 C.3   1 <1>   0.1100 
 16 C       -4.7510    -0.1420    -0.6660 C.3   1 <1>   0.1100 
 17 C       -1.4300     4.8950     1.0640 C.3   1 <1>  -0.1600 
 18 C       -0.4740     5.2080    -0.0910 C.3   1 <1>  -0.1600 
 19 N       -5.0550    -1.2130     0.3100 N.3   1 <1>  -0.8100 
 20 C       -5.6390    -2.3790    -0.3740 C.3   1 <1>   0.1100 
 21 C       -6.3600    -3.2870     0.6240 C.3   1 <1>   0.0960 
 22 N       -7.0680    -4.3550    -0.0980 N.pl3 1 <1>   0.3140 
 23 N       -6.4400    -5.3590    -0.6950 N.2   1 <1>  -0.7070 
 24 C       -8.3820    -4.5020    -0.2840 C.2   1 <1>   0.0360 
 25 C       -7.4200    -6.0390    -1.1960 C.2   1 <1>   0.3660 
 26 N       -8.6480    -5.5530    -0.9730 N.2   1 <1>  -0.5650 
 27 H        1.7050     1.7470    -0.7690 H     1 <1>   0.4570 
 28 H        2.5900     0.4390    -1.8770 H     1 <1>   0.0800 
 29 H        2.5460    -1.2740    -2.1630 H     1 <1>   0.0800 
 30 H        3.2730    -0.6660    -0.6940 H     1 <1>   0.0800 
 31 H        0.0560    -2.1620     0.3330 H     1 <1>   0.0800 
 32 H        1.6330    -2.6510    -0.2100 H     1 <1>   0.0800 
 33 H        0.3280    -2.4750    -1.3660 H     1 <1>   0.0800 
 34 H       -3.8710    -0.0230     2.5340 H     1 <1>   0.0800 
 35 H       -2.2760    -0.6490     2.2350 H     1 <1>   0.0800 
 36 H       -3.8970     1.8210    -0.7650 H     1 <1>   0.0800 
 37 H       -4.8970     1.5610     0.6400 H     1 <1>   0.0800 
 38 H       -2.7070     3.3030     1.7050 H     1 <1>   0.0800 
 39 H       -2.9340     3.7640     0.0440 H     1 <1>   0.0800 
 40 H        1.0720     4.2190    -1.1880 H     1 <1>   0.0800 
 41 H        1.3240     4.2320     0.5370 H     1 <1>   0.0800 
 42 H       -4.0250    -2.3220     1.7770 H     1 <1>   0.0800 
 43 H       -3.0840    -1.9640     0.3560 H     1 <1>   0.0800 
 44 H       -4.0520    -0.5070    -1.3990 H     1 <1>   0.0800 
 45 H       -5.6550     0.1410    -1.1770 H     1 <1>   0.0800 
 46 H       -0.8740     4.8090     1.9830 H     1 <1>   0.0800 
 47 H       -2.1350     5.7010     1.1840 H     1 <1>   0.0800 
 48 H       -1.0390     5.2900    -1.0050 H     1 <1>   0.0800 
 49 H        0.0100     6.1550     0.0800 H     1 <1>   0.0800 
 50 H       -4.8720    -2.9300    -0.8930 H     1 <1>   0.0800 
 51 H       -6.3610    -2.0370    -1.0970 H     1 <1>   0.0800 
 52 H       -7.0720    -2.7160     1.1890 H     1 <1>   0.0800 
 53 H       -5.6560    -3.7470     1.2910 H     1 <1>   0.0800 
 54 H       -9.1120    -3.8140     0.1030 H     1 <1>   0.1500 
 55 H       -7.2820    -6.9460    -1.7630 H     1 <1>   0.1500 
@<TRIPOS>BOND
  1   1   2  ar  
  2   1   3  ar  
  3   2   4  ar  
  4   2   5  1   
  5   3   6  1   
  6   3   7  ar  
  7   4   8  ar  
  8   4  27  1   
  9   5   9  1   
 10   5  10  1   
 11   6  11  1   
 12   6  12  1   
 13   7   8  ar  
 14   7  13  1   
 15   8  14  1   
 16   9  28  1   
 17   9  29  1   
 18   9  30  1   
 19  10  31  1   
 20  10  32  1   
 21  10  33  1   
 22  11  15  1   
 23  11  34  1   
 24  11  35  1   
 25  12  16  1   
 26  12  36  1   
 27  12  37  1   
 28  13  17  1   
 29  13  38  1   
 30  13  39  1   
 31  14  18  1   
 32  14  40  1   
 33  14  41  1   
 34  15  19  1   
 35  15  42  1   
 36  15  43  1   
 37  16  19  1   
 38  16  44  1   
 39  16  45  1   
 40  17  18  1   
 41  17  46  1   
 42  17  47  1   
 43  18  48  1   
 44  18  49  1   
 45  19  20  1   
 46  20  21  1   
 47  20  50  1   
 48  20  51  1   
 49  21  22  1   
 50  21  52  1   
 51  21  53  1   
 52  22  23  1   
 53  22  24  1   
 54  23  25  2   
 55  24  26  2   
 56  24  54  1   
 57  25  26  1   
 58  25  55  1   
@<TRIPOS>SUBSTRUCTURE
  1 ****   6 GROUP 4 **** **** 0

# MOE 2024.06 (io_trps.svl 2023.06)
