@<TRIPOS>MOLECULE
NONAME
54 57 1 0 0 
SMALL
USER_CHARGES


@<TRIPOS>ATOM
  1 O       -2.2730     0.0520    -1.8850 O.2   1 <1>  -0.5700 
  2 C       -2.0340     0.0940    -0.7020 C.2   1 <1>   0.5690 
  3 N       -1.8530    -1.0400     0.0180 N.am  1 <1>  -0.7300 
  4 C       -1.9800     1.4350     0.0260 C.3   1 <1>  -0.0190 
  5 C       -1.9400    -2.4170    -0.5250 C.3   1 <1>   0.2200 
  6 C       -3.4010     1.9700     0.2870 C.3   1 <1>  -0.1600 
  7 C       -1.1420     2.4780    -0.7400 C.3   1 <1>  -0.1600 
  8 C       -3.2960    -3.0470    -0.2270 C.3   1 <1>  -0.0800 
  9 C       -1.0310    -3.3190     0.2970 C.3   1 <1>   0.1200 
 10 C       -3.3720     3.3200     1.0170 C.3   1 <1>  -0.1600 
 11 C       -1.1140     3.8260    -0.0050 C.3   1 <1>  -0.1600 
 12 C       -3.1220    -3.5470     1.2130 C.3   1 <1>   0.1200 
 13 C       -4.5100    -2.1180    -0.4420 C.3   1 <1>  -0.0170 
 14 O       -1.7460    -3.5830     1.4660 O.3   1 <1>  -0.5600 
 15 C       -2.5340     4.3550     0.2490 C.3   1 <1>  -0.0800 
 16 C       -5.9000    -2.7340    -0.2460 C.ar  1 <1>  -0.1440 
 17 C       -2.4840     5.6790     1.0170 C.3   1 <1>  -0.2400 
 18 C       -7.0390    -1.8910    -0.2340 C.ar  1 <1>   0.0000 
 19 C       -6.1190    -4.0730    -0.0830 C.ar  1 <1>  -0.1500 
 20 C       -8.3050    -2.4870    -0.0160 C.ar  1 <1>   0.3100 
 21 C       -6.9970    -0.4900    -0.4340 C.ar  1 <1>  -0.1500 
 22 C       -7.4160    -4.5610     0.1140 C.ar  1 <1>   0.1600 
 23 N       -8.4770    -3.8210     0.1570 N.ar  1 <1>  -0.6200 
 24 C       -9.4470    -1.6700     0.0200 C.ar  1 <1>  -0.1500 
 25 C       -8.1290     0.2780    -0.3960 C.ar  1 <1>  -0.1500 
 26 C       -9.3710    -0.3160    -0.1630 C.ar  1 <1>  -0.1500 
 27 H       -1.7030    -1.0030     1.0290 H     1 <1>   0.3700 
 28 H       -1.5060     1.2740     0.9770 H     1 <1>   0.0800 
 29 H       -1.6940    -2.4270    -1.5740 H     1 <1>   0.0800 
 30 H       -3.9110     2.0860    -0.6550 H     1 <1>   0.0800 
 31 H       -3.9530     1.2580     0.8750 H     1 <1>   0.0800 
 32 H       -0.1380     2.1130    -0.8640 H     1 <1>   0.0800 
 33 H       -1.5610     2.6210    -1.7220 H     1 <1>   0.0800 
 34 H       -3.3980    -3.9010    -0.8730 H     1 <1>   0.0800 
 35 H       -0.0900    -2.8570     0.5400 H     1 <1>   0.0800 
 36 H       -0.8630    -4.2550    -0.2080 H     1 <1>   0.0800 
 37 H       -2.9580     3.1820     2.0010 H     1 <1>   0.0800 
 38 H       -4.3790     3.6830     1.1300 H     1 <1>   0.0800 
 39 H       -0.5630     4.5390    -0.5950 H     1 <1>   0.0800 
 40 H       -0.5990     3.7080     0.9330 H     1 <1>   0.0800 
 41 H       -3.5240    -4.5350     1.3520 H     1 <1>   0.0800 
 42 H       -3.5660    -2.8710     1.9230 H     1 <1>   0.0800 
 43 H       -4.4590    -1.7170    -1.4410 H     1 <1>   0.0800 
 44 H       -4.4240    -1.2940     0.2420 H     1 <1>   0.0800 
 45 H       -3.0050     4.5350    -0.7040 H     1 <1>   0.0800 
 46 H       -2.0190     5.5450     1.9780 H     1 <1>   0.0800 
 47 H       -3.4780     6.0620     1.1670 H     1 <1>   0.0800 
 48 H       -1.9220     6.4100     0.4620 H     1 <1>   0.0800 
 49 H       -5.3300    -4.7980    -0.0990 H     1 <1>   0.1500 
 50 H       -6.0560    -0.0080    -0.6270 H     1 <1>   0.1500 
 51 H       -7.5390    -5.6230     0.2410 H     1 <1>   0.1500 
 52 H      -10.3910    -2.1500     0.1970 H     1 <1>   0.1500 
 53 H       -8.0790     1.3430    -0.5480 H     1 <1>   0.1500 
 54 H      -10.2550     0.2980    -0.1330 H     1 <1>   0.1500 
@<TRIPOS>BOND
  1   1   2  2   
  2   2   3  am  
  3   2   4  1   
  4   3   5  1   
  5   3  27  1   
  6   4   6  1   
  7   4   7  1   
  8   4  28  1   
  9   5   8  1   
 10   5   9  1   
 11   5  29  1   
 12   6  10  1   
 13   6  30  1   
 14   6  31  1   
 15   7  11  1   
 16   7  32  1   
 17   7  33  1   
 18   8  12  1   
 19   8  13  1   
 20   8  34  1   
 21   9  14  1   
 22   9  35  1   
 23   9  36  1   
 24  10  15  1   
 25  10  37  1   
 26  10  38  1   
 27  11  15  1   
 28  11  39  1   
 29  11  40  1   
 30  12  14  1   
 31  12  41  1   
 32  12  42  1   
 33  13  16  1   
 34  13  43  1   
 35  13  44  1   
 36  15  17  1   
 37  15  45  1   
 38  16  18  ar  
 39  16  19  ar  
 40  17  46  1   
 41  17  47  1   
 42  17  48  1   
 43  18  20  ar  
 44  18  21  ar  
 45  19  22  ar  
 46  19  49  1   
 47  20  23  ar  
 48  20  24  ar  
 49  21  25  ar  
 50  21  50  1   
 51  22  23  ar  
 52  22  51  1   
 53  24  26  ar  
 54  24  52  1   
 55  25  26  ar  
 56  25  53  1   
 57  26  54  1   
@<TRIPOS>SUBSTRUCTURE
  1 ****  13 GROUP 4 **** **** 0

# MOE 2024.06 (io_trps.svl 2023.06)
