@<TRIPOS>MOLECULE
NONAME
44 46 1 0 0 
SMALL
USER_CHARGES


@<TRIPOS>ATOM
  1 O        0.1620    -0.0700    -2.0630 O.2   1 <1>  -0.5700 
  2 C       -0.6720     0.6980    -1.6460 C.2   1 <1>   0.5690 
  3 N       -1.7950     0.2480    -1.0030 N.am  1 <1>  -0.6600 
  4 C       -0.4460     2.1840    -1.8890 C.3   1 <1>   0.0440 
  5 C       -2.8540     1.0790    -0.3730 C.3   1 <1>   0.1400 
  6 C       -2.0290    -1.1910    -0.7280 C.3   1 <1>   0.1400 
  7 C       -0.3660     3.0010    -0.5970 C.ar  1 <1>  -0.1440 
  8 C       -3.9020     0.0750     0.1040 C.3   1 <1>   0.2000 
  9 C       -3.1370    -1.2260     0.3250 C.3   1 <1>  -0.0800 
 10 C       -1.1860     4.0970    -0.3340 C.ar  1 <1>   0.0820 
 11 C        0.5560     2.6180     0.3660 C.ar  1 <1>  -0.1500 
 12 O       -4.5070     0.4850     1.2810 O.3   1 <1>  -0.6800 
 13 C       -4.0280    -2.4750     0.2420 C.3   1 <1>   0.0210 
 14 O       -2.0860     4.5380    -1.2290 O.3   1 <1>  -0.5320 
 15 C       -1.0950     4.7760     0.8680 C.ar  1 <1>  -0.1500 
 16 C        0.6520     3.3000     1.5670 C.ar  1 <1>  -0.1500 
 17 C       -3.2020    -3.7430     0.3270 C.2   1 <1>   0.1080 
 18 C       -0.1750     4.3800     1.8210 C.ar  1 <1>  -0.1500 
 19 N       -2.4630    -4.0350     1.3520 N.2   1 <1>  -0.7070 
 20 C       -3.1290    -4.7140    -0.6660 C.2   1 <1>  -0.1500 
 21 N       -1.8930    -5.2130     1.0370 N.pl3 1 <1>   0.3000 
 22 C       -2.2800    -5.6440    -0.1810 C.2   1 <1>  -0.3320 
 23 C       -1.8070    -6.9380    -0.8180 C.3   1 <1>  -0.0600 
 24 H        0.4790     2.3040    -2.4220 H     1 <1>   0.0800 
 25 H       -1.2300     2.5260    -2.5330 H     1 <1>   0.0800 
 26 H       -2.4360     1.6110     0.4650 H     1 <1>   0.0800 
 27 H       -3.2760     1.7680    -1.0820 H     1 <1>   0.0800 
 28 H       -2.3430    -1.6730    -1.6380 H     1 <1>   0.0800 
 29 H       -1.1320    -1.6680    -0.3670 H     1 <1>   0.0800 
 30 H       -4.6640    -0.0380    -0.6480 H     1 <1>   0.0800 
 31 H       -2.6550    -1.2040     1.2870 H     1 <1>   0.0800 
 32 H        1.2050     1.7760     0.1890 H     1 <1>   0.1500 
 33 H       -3.8510     0.5160     2.0040 H     1 <1>   0.4000 
 34 H       -4.5820    -2.4740    -0.6790 H     1 <1>   0.0800 
 35 H       -4.7320    -2.4670     1.0550 H     1 <1>   0.0800 
 36 H       -1.9730     4.1540    -2.1140 H     1 <1>   0.4500 
 37 H       -1.7420     5.6160     1.0510 H     1 <1>   0.1500 
 38 H        1.3720     2.9890     2.3050 H     1 <1>   0.1500 
 39 H       -0.1020     4.9100     2.7550 H     1 <1>   0.1500 
 40 H       -3.6470    -4.7010    -1.6080 H     1 <1>   0.1500 
 41 H       -1.2460    -5.6940     1.6730 H     1 <1>   0.2700 
 42 H       -2.2550    -7.0590    -1.7880 H     1 <1>   0.0800 
 43 H       -2.0840    -7.7780    -0.2050 H     1 <1>   0.0800 
 44 H       -0.7370    -6.9260    -0.9340 H     1 <1>   0.0800 
@<TRIPOS>BOND
  1   1   2  2   
  2   2   3  am  
  3   2   4  1   
  4   3   5  1   
  5   3   6  1   
  6   4   7  1   
  7   4  24  1   
  8   4  25  1   
  9   5   8  1   
 10   5  26  1   
 11   5  27  1   
 12   6   9  1   
 13   6  28  1   
 14   6  29  1   
 15   7  10  ar  
 16   7  11  ar  
 17   8   9  1   
 18   8  12  1   
 19   8  30  1   
 20   9  13  1   
 21   9  31  1   
 22  10  14  1   
 23  10  15  ar  
 24  11  16  ar  
 25  11  32  1   
 26  12  33  1   
 27  13  17  1   
 28  13  34  1   
 29  13  35  1   
 30  14  36  1   
 31  15  18  ar  
 32  15  37  1   
 33  16  18  ar  
 34  16  38  1   
 35  17  19  2   
 36  17  20  1   
 37  18  39  1   
 38  19  21  1   
 39  20  22  2   
 40  20  40  1   
 41  21  22  1   
 42  21  41  1   
 43  22  23  1   
 44  23  42  1   
 45  23  43  1   
 46  23  44  1   
@<TRIPOS>SUBSTRUCTURE
  1 ****   3 GROUP 4 **** **** 0

# MOE 2024.06 (io_trps.svl 2023.06)
