@<TRIPOS>MOLECULE
NONAME
43 46 1 0 0 
SMALL
USER_CHARGES


@<TRIPOS>ATOM
  1 S        2.0450     0.5640     1.6370 S.3   1 <1>  -0.0800 
  2 C        2.1390    -0.1610     0.0310 C.ar  1 <1>   0.0400 
  3 C        1.2980    -0.8820     2.2970 C.2   1 <1>  -0.1100 
  4 C        1.6170    -1.4460     0.0540 C.ar  1 <1>   0.0000 
  5 C        2.6560     0.4320    -1.1060 C.ar  1 <1>  -0.1500 
  6 C        1.1180    -1.8380     1.3560 C.2   1 <1>  -0.0860 
  7 C        1.6390    -2.1720    -1.1350 C.ar  1 <1>  -0.1500 
  8 C        2.6560    -0.3040    -2.2770 C.ar  1 <1>  -0.1500 
  9 C        0.4990    -3.1240     1.5800 C.2   1 <1>   0.7160 
 10 C        2.1520    -1.6010    -2.2880 C.ar  1 <1>  -0.1500 
 11 O        1.0460    -3.9100     2.3290 O.2   1 <1>  -0.5700 
 12 N       -0.6980    -3.4780     0.9810 N.am  1 <1>  -0.6600 
 13 C       -1.5390    -2.4780     0.2530 C.3   1 <1>   0.2200 
 14 C       -1.2260    -4.8730     1.1250 C.3   1 <1>   0.0600 
 15 C       -2.0810    -2.9690    -1.0880 C.3   1 <1>  -0.1600 
 16 C       -2.7790    -2.0680     1.0400 C.3   1 <1>  -0.1600 
 17 C       -3.2480    -2.0200    -1.3900 C.3   1 <1>  -0.0800 
 18 C       -3.7350    -1.4950    -0.0150 C.3   1 <1>  -0.0800 
 19 C       -4.3270    -2.6620    -2.2870 C.3   1 <1>   0.1400 
 20 C       -5.2160    -1.7940     0.2880 C.3   1 <1>  -0.0990 
 21 N       -5.6090    -1.9460    -2.1240 N.am  1 <1>  -0.7300 
 22 C       -6.0710    -1.5210    -0.9300 C.2   1 <1>   0.5690 
 23 O       -7.1270    -0.9540    -0.8280 O.2   1 <1>  -0.5700 
 24 H        1.0570    -0.8770     3.3450 H     1 <1>   0.1500 
 25 H        3.0460     1.4330    -1.0700 H     1 <1>   0.1500 
 26 H        1.2590    -3.1790    -1.1530 H     1 <1>   0.1500 
 27 H        3.0510     0.1240    -3.1830 H     1 <1>   0.1500 
 28 H        2.1670    -2.1660    -3.2040 H     1 <1>   0.1500 
 29 H       -0.9800    -1.5800     0.0580 H     1 <1>   0.0800 
 30 H       -2.2980    -4.8750     1.1920 H     1 <1>   0.0800 
 31 H       -0.8380    -5.3400     2.0140 H     1 <1>   0.0800 
 32 H       -0.9260    -5.4590     0.2740 H     1 <1>   0.0800 
 33 H       -1.3280    -2.9260    -1.8550 H     1 <1>   0.0800 
 34 H       -2.4520    -3.9730    -1.0030 H     1 <1>   0.0800 
 35 H       -3.2220    -2.9240     1.5140 H     1 <1>   0.0800 
 36 H       -2.5370    -1.3350     1.7890 H     1 <1>   0.0800 
 37 H       -2.8480    -1.1760    -1.9280 H     1 <1>   0.0800 
 38 H       -3.6200    -0.4230    -0.0290 H     1 <1>   0.0800 
 39 H       -4.4810    -3.6910    -2.0100 H     1 <1>   0.0800 
 40 H       -4.0170    -2.6290    -3.3180 H     1 <1>   0.0800 
 41 H       -5.5570    -1.1900     1.1090 H     1 <1>   0.0800 
 42 H       -5.3470    -2.8270     0.5500 H     1 <1>   0.0800 
 43 H       -6.2010    -1.7910    -2.9430 H     1 <1>   0.3700 
@<TRIPOS>BOND
  1   1   2  1   
  2   1   3  1   
  3   2   4  ar  
  4   2   5  ar  
  5   3   6  2   
  6   3  24  1   
  7   4   6  1   
  8   4   7  ar  
  9   5   8  ar  
 10   5  25  1   
 11   6   9  1   
 12   7  10  ar  
 13   7  26  1   
 14   8  10  ar  
 15   8  27  1   
 16   9  11  2   
 17   9  12  am  
 18  10  28  1   
 19  12  13  1   
 20  12  14  1   
 21  13  15  1   
 22  13  16  1   
 23  13  29  1   
 24  14  30  1   
 25  14  31  1   
 26  14  32  1   
 27  15  17  1   
 28  15  33  1   
 29  15  34  1   
 30  16  18  1   
 31  16  35  1   
 32  16  36  1   
 33  17  18  1   
 34  17  19  1   
 35  17  37  1   
 36  18  20  1   
 37  18  38  1   
 38  19  21  1   
 39  19  39  1   
 40  19  40  1   
 41  20  22  1   
 42  20  41  1   
 43  20  42  1   
 44  21  22  am  
 45  21  43  1   
 46  22  23  2   
@<TRIPOS>SUBSTRUCTURE
  1 ****  13 GROUP 4 **** **** 0

# MOE 2024.06 (io_trps.svl 2023.06)
