@<TRIPOS>MOLECULE
NONAME
46 48 1 0 0 
SMALL
USER_CHARGES


@<TRIPOS>ATOM
  1 O        1.5260     0.4820     2.5200 O.2   1 <1>  -0.5700 
  2 C        1.8920     0.0800     1.4300 C.2   1 <1>   0.5440 
  3 N        1.7870     0.9190     0.3360 N.am  1 <1>  -0.6600 
  4 C        2.4960    -1.2250     1.3420 C.ar  1 <1>   0.0860 
  5 C        2.0590     0.4690    -1.0710 C.3   1 <1>   0.1400 
  6 C        1.6330     2.3840     0.5430 C.3   1 <1>   0.1400 
  7 C        1.8240    -2.3210     0.7920 C.ar  1 <1>   0.3920 
  8 C        3.7880    -1.4270     1.8040 C.ar  1 <1>  -0.1500 
  9 C        3.0930     1.3390    -1.8040 C.3   1 <1>   0.1400 
 10 C        2.9920     3.0100     0.8970 C.3   1 <1>  -0.1600 
 11 O        0.5690    -2.1230     0.3390 O.3   1 <1>  -0.3630 
 12 N        2.3400    -3.5460     0.6670 N.ar  1 <1>  -0.6200 
 13 C        4.3330    -2.6840     1.6770 C.ar  1 <1>  -0.1500 
 14 N        4.2080     1.7360    -0.8950 N.am  1 <1>  -0.6600 
 15 C        4.0150     3.0630    -0.2490 C.3   1 <1>   0.1400 
 16 C       -0.2030    -3.1720    -0.2020 C.3   1 <1>   0.1200 
 17 C        3.5770    -3.6930     1.1080 C.ar  1 <1>   0.1600 
 18 C        5.1930     0.8150    -0.5600 C.2   1 <1>   0.7160 
 19 C       -1.5550    -2.5970    -0.6140 C.3   1 <1>  -0.2400 
 20 O        5.2690    -0.1850    -1.2610 O.2   1 <1>  -0.5700 
 21 C        6.1270     0.9430     0.5640 C.2   1 <1>   0.2030 
 22 N        6.0900     1.7890     1.5830 N.2   1 <1>  -0.7070 
 23 C        7.2360     0.0950     0.7100 C.2   1 <1>  -0.1500 
 24 N        7.1440     1.4870     2.3520 N.pl3 1 <1>   0.3000 
 25 C        7.8540     0.4650     1.8470 C.2   1 <1>  -0.3020 
 26 H        1.1360     0.4730    -1.6220 H     1 <1>   0.0800 
 27 H        2.4250    -0.5400    -1.0790 H     1 <1>   0.0800 
 28 H        0.9450     2.5530     1.3540 H     1 <1>   0.0800 
 29 H        1.2180     2.8440    -0.3360 H     1 <1>   0.0800 
 30 H        4.3390    -0.6120     2.2430 H     1 <1>   0.1500 
 31 H        2.6090     2.2170    -2.1940 H     1 <1>   0.0800 
 32 H        3.4830     0.7930    -2.6460 H     1 <1>   0.0800 
 33 H        3.4170     2.4810     1.7320 H     1 <1>   0.0800 
 34 H        2.8200     4.0170     1.2280 H     1 <1>   0.0800 
 35 H        5.3350    -2.8820     2.0130 H     1 <1>   0.1500 
 36 H        4.9550     3.4360     0.1180 H     1 <1>   0.0800 
 37 H        3.6760     3.7630    -0.9920 H     1 <1>   0.0800 
 38 H       -0.3190    -3.9320     0.5520 H     1 <1>   0.0800 
 39 H        0.3200    -3.5770    -1.0520 H     1 <1>   0.0800 
 40 H        4.0140    -4.6730     1.0120 H     1 <1>   0.1500 
 41 H       -2.0560    -2.1850     0.2440 H     1 <1>   0.0800 
 42 H       -2.1690    -3.3760    -1.0290 H     1 <1>   0.0800 
 43 H       -1.4210    -1.8310    -1.3560 H     1 <1>   0.0800 
 44 H        7.5020    -0.6890     0.0220 H     1 <1>   0.1500 
 45 H        7.3550     1.9960     3.2210 H     1 <1>   0.2700 
 46 H        8.7380     0.0710     2.3150 H     1 <1>   0.1500 
@<TRIPOS>BOND
  1   1   2  2   
  2   2   3  am  
  3   2   4  1   
  4   3   5  1   
  5   3   6  1   
  6   4   7  ar  
  7   4   8  ar  
  8   5   9  1   
  9   5  26  1   
 10   5  27  1   
 11   6  10  1   
 12   6  28  1   
 13   6  29  1   
 14   7  11  1   
 15   7  12  ar  
 16   8  13  ar  
 17   8  30  1   
 18   9  14  1   
 19   9  31  1   
 20   9  32  1   
 21  10  15  1   
 22  10  33  1   
 23  10  34  1   
 24  11  16  1   
 25  12  17  ar  
 26  13  17  ar  
 27  13  35  1   
 28  14  15  1   
 29  14  18  am  
 30  15  36  1   
 31  15  37  1   
 32  16  19  1   
 33  16  38  1   
 34  16  39  1   
 35  17  40  1   
 36  18  20  2   
 37  18  21  1   
 38  19  41  1   
 39  19  42  1   
 40  19  43  1   
 41  21  22  2   
 42  21  23  1   
 43  22  24  1   
 44  23  25  2   
 45  23  44  1   
 46  24  25  1   
 47  24  45  1   
 48  25  46  1   
@<TRIPOS>SUBSTRUCTURE
  1 ****   4 GROUP 4 **** **** 0

# MOE 2024.06 (io_trps.svl 2023.06)
