@<TRIPOS>MOLECULE
NONAME
34 36 1 0 0 
SMALL
USER_CHARGES


@<TRIPOS>ATOM
  1 F       -0.9950    -1.2920     1.3180 F     1 <1>  -0.3400 
  2 C       -0.1000    -1.6350     0.4040 C.3   1 <1>   1.1640 
  3 F        1.0730    -1.1890     0.8360 F     1 <1>  -0.3400 
  4 F       -0.3860    -0.9470    -0.6910 F     1 <1>  -0.3400 
  5 C       -0.0910    -3.1550     0.1450 C.ar  1 <1>  -0.1440 
  6 C        1.0280    -3.9410     0.3220 C.ar  1 <1>  -0.1500 
  7 C       -1.2610    -3.7780    -0.3020 C.ar  1 <1>  -0.1500 
  8 C        1.0050    -5.3230     0.0790 C.ar  1 <1>   0.3610 
  9 C       -1.3030    -5.1290    -0.5290 C.ar  1 <1>  -0.1500 
 10 N        2.1620    -6.0600     0.1940 N.ar  1 <1>  -0.1790 
 11 C       -0.1910    -5.9640    -0.3080 C.ar  1 <1>   0.0000 
 12 C        2.2000    -7.3810    -0.0470 C.ar  1 <1>   0.2180 
 13 C       -0.1880    -7.3910    -0.4700 C.ar  1 <1>   0.1000 
 14 C        1.0460    -8.0410    -0.3770 C.ar  1 <1>  -0.1500 
 15 C        3.5340    -8.1020     0.0650 C.3   1 <1>  -0.0970 
 16 N       -1.3000    -8.1400    -0.6810 N.3   1 <1>  -0.5900 
 17 C       -1.5210    -9.6280    -0.8640 C.3   1 <1>   0.2450 
 18 C       -2.8030    -7.9650    -0.6320 C.3   1 <1>   0.2450 
 19 C       -2.8980    -9.4440    -0.1740 C.3   1 <1>   0.2580 
 20 O       -2.8090    -9.5640     1.2130 O.3   1 <1>  -0.6580 
 21 H        1.9490    -3.4880     0.6490 H     1 <1>   0.1500 
 22 H       -2.1460    -3.1810    -0.4740 H     1 <1>   0.1500 
 23 H       -2.2200    -5.5430    -0.8980 H     1 <1>   0.1500 
 24 H        3.0190    -5.5660     0.4520 H     1 <1>   0.4570 
 25 H        1.0850    -9.0990    -0.5610 H     1 <1>   0.1500 
 26 H        4.2420    -7.6950    -0.6350 H     1 <1>   0.0800 
 27 H        3.4180    -9.1500    -0.1520 H     1 <1>   0.0800 
 28 H        3.9300    -8.0110     1.0610 H     1 <1>   0.0800 
 29 H       -0.8300   -10.2340    -0.3050 H     1 <1>   0.0000 
 30 H       -1.5920    -9.8820    -1.9070 H     1 <1>   0.0000 
 31 H       -3.2060    -7.7900    -1.6140 H     1 <1>   0.0000 
 32 H       -3.1250    -7.2620     0.1160 H     1 <1>   0.0000 
 33 H       -3.7140   -10.0200    -0.5700 H     1 <1>   0.0000 
 34 H       -2.0870    -8.9900     1.5340 H     1 <1>   0.4000 
@<TRIPOS>BOND
  1   1   2  1   
  2   2   3  1   
  3   2   4  1   
  4   2   5  1   
  5   5   6  ar  
  6   5   7  ar  
  7   6   8  ar  
  8   6  21  1   
  9   7   9  ar  
 10   7  22  1   
 11   8  10  ar  
 12   8  11  ar  
 13   9  11  ar  
 14   9  23  1   
 15  10  12  ar  
 16  10  24  1   
 17  11  13  ar  
 18  12  14  ar  
 19  12  15  1   
 20  13  14  ar  
 21  13  16  1   
 22  14  25  1   
 23  15  26  1   
 24  15  27  1   
 25  15  28  1   
 26  16  17  1   
 27  16  18  1   
 28  17  19  1   
 29  17  29  1   
 30  17  30  1   
 31  18  19  1   
 32  18  31  1   
 33  18  32  1   
 34  19  20  1   
 35  19  33  1   
 36  20  34  1   
@<TRIPOS>SUBSTRUCTURE
  1 ****  11 GROUP 4 **** **** 0

# MOE 2024.06 (io_trps.svl 2023.06)
