@<TRIPOS>MOLECULE
NONAME
53 55 1 0 0 
SMALL
USER_CHARGES


@<TRIPOS>ATOM
  1 O        0.6790    -0.7890    -0.1740 O.2   1 <1>  -0.5700 
  2 C        1.7860    -0.3110    -0.2170 C.2   1 <1>   0.5690 
  3 N        2.5110     0.1050     0.8530 N.am  1 <1>  -0.6600 
  4 C        2.5430    -0.1120    -1.4970 C.3   1 <1>  -0.0990 
  5 C        3.8150     0.6820     0.4530 C.3   1 <1>   0.3000 
  6 C        2.0150     0.0380     2.2570 C.3   1 <1>   0.0600 
  7 C        3.9770     0.1260    -0.9890 C.3   1 <1>  -0.1860 
  8 C        4.9250     0.2310     1.4050 C.3   1 <1>  -0.1600 
  9 C        3.6970     2.2070     0.5780 C.3   1 <1>  -0.1600 
 10 C        4.8450     0.9520    -1.9100 C.2   1 <1>   0.9060 
 11 C        6.2650     0.8280     0.9950 C.3   1 <1>   0.3430 
 12 C        4.9980     2.9430     0.2720 C.3   1 <1>   0.3430 
 13 O        4.3840     1.9520    -2.4600 O.co2 1 <1>  -0.9000 
 14 O        6.0570     0.7190    -1.9310 O.co2 1 <1>  -0.9000 
 15 N        6.2390     2.3260     0.8660 N.4   1 <1>  -0.9590 
 16 C        7.3840     2.6860    -0.0340 C.3   1 <1>   0.4860 
 17 C        7.5060     4.1860    -0.1680 C.ar  1 <1>  -0.1440 
 18 C        8.1080     4.9610     0.7960 C.ar  1 <1>   0.1600 
 19 C        7.0060     4.8360    -1.2750 C.ar  1 <1>   0.1600 
 20 N        8.1830     6.2630     0.6960 N.ar  1 <1>  -0.6200 
 21 N        7.0670     6.1390    -1.3960 N.ar  1 <1>  -0.6200 
 22 C        7.6480     6.7900    -0.4010 C.ar  1 <1>   0.7200 
 23 N        7.6790     8.1290    -0.5620 N.pl3 1 <1>  -0.8690 
 24 C        8.5730     9.0570     0.1290 C.3   1 <1>   0.2890 
 25 C        7.8040    10.3490     0.3740 C.3   1 <1>  -0.2400 
 26 C        9.7880     9.2950    -0.7590 C.3   1 <1>  -0.2400 
 27 H        2.1490     0.7510    -2.0040 H     1 <1>   0.0800 
 28 H        2.4770    -0.9750    -2.1320 H     1 <1>   0.0800 
 29 H        0.9990    -0.3220     2.2690 H     1 <1>   0.0800 
 30 H        2.0350     1.0130     2.7080 H     1 <1>   0.0800 
 31 H        2.6210    -0.6400     2.8290 H     1 <1>   0.0800 
 32 H        4.4430    -0.8390    -0.9230 H     1 <1>   0.0800 
 33 H        5.0020    -0.8420     1.3860 H     1 <1>   0.0800 
 34 H        4.7110     0.5340     2.4130 H     1 <1>   0.0800 
 35 H        3.3930     2.4740     1.5720 H     1 <1>   0.0800 
 36 H        2.9430     2.5650    -0.1010 H     1 <1>   0.0800 
 37 H        6.5620     0.3820     0.0630 H     1 <1>   0.0800 
 38 H        7.0100     0.5450     1.7200 H     1 <1>   0.0800 
 39 H        4.9070     3.9630     0.6100 H     1 <1>   0.0800 
 40 H        5.1170     3.0020    -0.7940 H     1 <1>   0.0800 
 41 H        6.3830     2.7460     1.7880 H     1 <1>   0.4500 
 42 H        7.2290     2.2630    -1.0140 H     1 <1>   0.0800 
 43 H        8.3030     2.2820     0.3550 H     1 <1>   0.0800 
 44 H        8.5380     4.5110     1.6750 H     1 <1>   0.1500 
 45 H        6.5360     4.2770    -2.0740 H     1 <1>   0.1500 
 46 H        7.3570     8.4240    -1.4810 H     1 <1>   0.4000 
 47 H        8.8860     8.6440     1.0740 H     1 <1>   0.0800 
 48 H        7.4830    10.7840    -0.5560 H     1 <1>   0.0800 
 49 H        8.4300    11.0560     0.8870 H     1 <1>   0.0800 
 50 H        6.9450    10.1490     0.9880 H     1 <1>   0.0800 
 51 H        9.4940     9.7130    -1.7050 H     1 <1>   0.0800 
 52 H       10.3030     8.3660    -0.9250 H     1 <1>   0.0800 
 53 H       10.4650     9.9760    -0.2770 H     1 <1>   0.0800 
@<TRIPOS>BOND
  1   1   2  2   
  2   2   3  am  
  3   2   4  1   
  4   3   5  1   
  5   3   6  1   
  6   4   7  1   
  7   4  27  1   
  8   4  28  1   
  9   5   7  1   
 10   5   8  1   
 11   5   9  1   
 12   6  29  1   
 13   6  30  1   
 14   6  31  1   
 15   7  10  1   
 16   7  32  1   
 17   8  11  1   
 18   8  33  1   
 19   8  34  1   
 20   9  12  1   
 21   9  35  1   
 22   9  36  1   
 23  10  13  ar  
 24  10  14  ar  
 25  11  15  1   
 26  11  37  1   
 27  11  38  1   
 28  12  15  1   
 29  12  39  1   
 30  12  40  1   
 31  15  16  1   
 32  15  41  1   
 33  16  17  1   
 34  16  42  1   
 35  16  43  1   
 36  17  18  ar  
 37  17  19  ar  
 38  18  20  ar  
 39  18  44  1   
 40  19  21  ar  
 41  19  45  1   
 42  20  22  ar  
 43  21  22  ar  
 44  22  23  1   
 45  23  24  1   
 46  23  46  1   
 47  24  25  1   
 48  24  26  1   
 49  24  47  1   
 50  25  48  1   
 51  25  49  1   
 52  25  50  1   
 53  26  51  1   
 54  26  52  1   
 55  26  53  1   
@<TRIPOS>SUBSTRUCTURE
  1 ****  12 GROUP 4 **** **** 0

# MOE 2024.06 (io_trps.svl 2023.06)
