@<TRIPOS>MOLECULE
NONAME
32 32 1 0 0 
SMALL
USER_CHARGES


@<TRIPOS>ATOM
  1 CL       0.0540    -0.3900    -1.4530 Cl    1 <1>  -0.1770 
  2 C        1.4480    -1.0110    -0.5870 C.ar  1 <1>   0.1770 
  3 C        1.5840    -2.3690    -0.3250 C.ar  1 <1>   0.4100 
  4 C        2.4290    -0.1640    -0.1500 C.ar  1 <1>   0.1600 
  5 N        2.6390    -2.8210     0.3300 N.ar  1 <1>  -0.6200 
  6 N        0.6450    -3.2880    -0.7380 N.pl3 1 <1>  -0.8690 
  7 N        3.4880    -0.6070     0.5070 N.ar  1 <1>  -0.6200 
  8 C        3.5250    -1.9150     0.7060 C.ar  1 <1>   0.4770 
  9 C        0.5550    -4.6740    -0.2300 C.3   1 <1>   0.2890 
 10 C        4.7260    -2.4450     1.4520 C.3   1 <1>  -0.0970 
 11 C        1.4510    -5.5830    -1.0970 C.3   1 <1>   0.1200 
 12 C       -0.9270    -5.0690    -0.2370 C.3   1 <1>  -0.1600 
 13 O        1.7590    -6.7690    -0.4320 O.3   1 <1>  -0.6800 
 14 C       -1.1780    -6.4650     0.3370 C.3   1 <1>   0.0700 
 15 S       -2.9710    -6.7130     0.4080 S.3   1 <1>  -0.4600 
 16 C       -3.1230    -8.4180     1.0030 C.3   1 <1>  -0.0100 
 17 H        2.3510     0.8920    -0.3380 H     1 <1>   0.1500 
 18 H       -0.2150    -2.9260    -1.1610 H     1 <1>   0.4000 
 19 H        0.9220    -4.6880     0.7830 H     1 <1>   0.0800 
 20 H        5.3310    -1.6350     1.8190 H     1 <1>   0.0800 
 21 H        5.3170    -3.0510     0.7910 H     1 <1>   0.0800 
 22 H        4.4000    -3.0410     2.2830 H     1 <1>   0.0800 
 23 H        2.3800    -5.0860    -1.3200 H     1 <1>   0.0800 
 24 H        0.9530    -5.8340    -2.0170 H     1 <1>   0.0800 
 25 H       -1.3050    -5.0390    -1.2430 H     1 <1>   0.0800 
 26 H       -1.4730    -4.3580     0.3580 H     1 <1>   0.0800 
 27 H        2.4220    -6.5950     0.2660 H     1 <1>   0.4000 
 28 H       -0.7990    -6.5610     1.3390 H     1 <1>   0.0800 
 29 H       -0.7740    -7.2380    -0.2920 H     1 <1>   0.0800 
 30 H       -4.1720    -8.6490     1.0660 H     1 <1>   0.0800 
 31 H       -2.6590    -8.4760     1.9710 H     1 <1>   0.0800 
 32 H       -2.6310    -9.0610     0.2960 H     1 <1>   0.0800 
@<TRIPOS>BOND
  1   1   2  1   
  2   2   3  ar  
  3   2   4  ar  
  4   3   5  ar  
  5   3   6  1   
  6   4   7  ar  
  7   4  17  1   
  8   5   8  ar  
  9   6   9  1   
 10   6  18  1   
 11   7   8  ar  
 12   8  10  1   
 13   9  11  1   
 14   9  12  1   
 15   9  19  1   
 16  10  20  1   
 17  10  21  1   
 18  10  22  1   
 19  11  13  1   
 20  11  23  1   
 21  11  24  1   
 22  12  14  1   
 23  12  25  1   
 24  12  26  1   
 25  13  27  1   
 26  14  15  1   
 27  14  28  1   
 28  14  29  1   
 29  15  16  1   
 30  16  30  1   
 31  16  31  1   
 32  16  32  1   
@<TRIPOS>SUBSTRUCTURE
  1 ****   6 GROUP 4 **** **** 0

# MOE 2024.06 (io_trps.svl 2023.06)
