@<TRIPOS>MOLECULE
NONAME
50 53 1 0 0 
SMALL
USER_CHARGES


@<TRIPOS>ATOM
  1 S       -1.4230     1.2350     2.2700 S.3   1 <1>  -0.0800 
  2 C       -2.1540     0.9770     0.6870 C.2   1 <1>   0.4620 
  3 C        0.0600     1.7130     1.4960 C.2   1 <1>  -0.1100 
  4 N       -1.3510     1.2340    -0.2840 N.2   1 <1>  -0.5650 
  5 N       -3.4590     0.5380     0.5890 N.pl3 1 <1>  -0.8220 
  6 C       -0.1090     1.6460     0.1660 C.2   1 <1>   0.0460 
  7 C       -4.3020     0.1060     1.7360 C.3   1 <1>   0.2090 
  8 C       -4.0720     0.2610    -0.7350 C.3   1 <1>   0.2090 
  9 C        0.9280     1.9740    -0.8990 C.3   1 <1>   0.3010 
 10 C       -4.5160    -1.4040     1.6400 C.3   1 <1>  -0.1600 
 11 C       -4.2800    -1.2470    -0.8670 C.3   1 <1>  -0.1600 
 12 O        1.9880     2.6830    -0.3460 O.3   1 <1>  -0.6800 
 13 C       -5.1260    -1.8080     0.2890 C.3   1 <1>   0.4240 
 14 O       -6.3890    -1.1830     0.2540 O.3   1 <1>  -0.5600 
 15 C       -5.2490    -3.3440     0.1950 C.ar  1 <1>  -0.1430 
 16 C       -7.3460    -1.7120    -0.6110 C.3   1 <1>   0.1200 
 17 C       -6.4790    -3.9610     0.0040 C.ar  1 <1>  -0.1430 
 18 C       -4.1200    -4.1470     0.2920 C.ar  1 <1>  -0.1500 
 19 C       -7.7250    -3.1090    -0.1300 C.3   1 <1>  -0.0170 
 20 C       -6.5730    -5.3420    -0.0660 C.ar  1 <1>  -0.1500 
 21 C       -4.1920    -5.5270     0.2110 C.ar  1 <1>   0.0820 
 22 C       -5.4410    -6.1450     0.0460 C.ar  1 <1>   0.0820 
 23 O       -2.9940    -6.1700     0.3100 O.3   1 <1>  -0.3620 
 24 O       -5.5320    -7.5080     0.0130 O.3   1 <1>  -0.3620 
 25 C       -2.7520    -7.3700    -0.3900 C.3   1 <1>   0.0400 
 26 C       -6.7680    -8.1760     0.1420 C.3   1 <1>   0.0400 
 27 H        0.8930     1.9860     2.1170 H     1 <1>   0.1500 
 28 H       -5.2490     0.6160     1.6890 H     1 <1>   0.0800 
 29 H       -3.8460     0.3490     2.6780 H     1 <1>   0.0800 
 30 H       -3.4390     0.6140    -1.5310 H     1 <1>   0.0800 
 31 H       -5.0150     0.7760    -0.8040 H     1 <1>   0.0800 
 32 H        0.4870     2.5810    -1.6700 H     1 <1>   0.0800 
 33 H        1.3130     1.0700    -1.3350 H     1 <1>   0.0800 
 34 H       -5.1620    -1.7340     2.4310 H     1 <1>   0.0800 
 35 H       -3.5640    -1.8830     1.7760 H     1 <1>   0.0800 
 36 H       -3.3130    -1.7130    -0.8660 H     1 <1>   0.0800 
 37 H       -4.7380    -1.4750    -1.8100 H     1 <1>   0.0800 
 38 H        1.6480     3.5020     0.0610 H     1 <1>   0.4000 
 39 H       -6.9470    -1.7400    -1.6090 H     1 <1>   0.0800 
 40 H       -8.2020    -1.0610    -0.5920 H     1 <1>   0.0800 
 41 H       -3.1490    -3.7080     0.4310 H     1 <1>   0.1500 
 42 H       -8.4070    -3.5520    -0.8330 H     1 <1>   0.0800 
 43 H       -8.2190    -3.0370     0.8230 H     1 <1>   0.0800 
 44 H       -7.5420    -5.7770    -0.2090 H     1 <1>   0.1500 
 45 H       -1.6890    -7.4980    -0.4780 H     1 <1>   0.0800 
 46 H       -3.2000    -7.3060    -1.3660 H     1 <1>   0.0800 
 47 H       -3.1700    -8.1880     0.1690 H     1 <1>   0.0800 
 48 H       -6.5700    -9.2300     0.2140 H     1 <1>   0.0800 
 49 H       -7.3660    -7.9770    -0.7300 H     1 <1>   0.0800 
 50 H       -7.2590    -7.8340     1.0360 H     1 <1>   0.0800 
@<TRIPOS>BOND
  1   1   2  1   
  2   1   3  1   
  3   2   4  2   
  4   2   5  1   
  5   3   6  2   
  6   3  27  1   
  7   4   6  1   
  8   5   7  1   
  9   5   8  1   
 10   6   9  1   
 11   7  10  1   
 12   7  28  1   
 13   7  29  1   
 14   8  11  1   
 15   8  30  1   
 16   8  31  1   
 17   9  12  1   
 18   9  32  1   
 19   9  33  1   
 20  10  13  1   
 21  10  34  1   
 22  10  35  1   
 23  11  13  1   
 24  11  36  1   
 25  11  37  1   
 26  12  38  1   
 27  13  14  1   
 28  13  15  1   
 29  14  16  1   
 30  15  17  ar  
 31  15  18  ar  
 32  16  19  1   
 33  16  39  1   
 34  16  40  1   
 35  17  19  1   
 36  17  20  ar  
 37  18  21  ar  
 38  18  41  1   
 39  19  42  1   
 40  19  43  1   
 41  20  22  ar  
 42  20  44  1   
 43  21  22  ar  
 44  21  23  1   
 45  22  24  1   
 46  23  25  1   
 47  24  26  1   
 48  25  45  1   
 49  25  46  1   
 50  25  47  1   
 51  26  48  1   
 52  26  49  1   
 53  26  50  1   
@<TRIPOS>SUBSTRUCTURE
  1 ****  13 GROUP 4 **** **** 0

# MOE 2024.06 (io_trps.svl 2023.06)
