@<TRIPOS>MOLECULE
NONAME
41 43 1 0 0 
SMALL
USER_CHARGES


@<TRIPOS>ATOM
  1 CL      -0.3260     0.3610     1.7240 Cl    1 <1>  -0.1230 
  2 C       -1.0670     1.7320     0.9230 C.2   1 <1>   0.1230 
  3 C       -2.3900     1.9980     0.8180 C.2   1 <1>  -0.3020 
  4 C       -0.3610     2.7370     0.2810 C.2   1 <1>  -0.1500 
  5 N       -2.5410     3.1520     0.1210 N.pl3 1 <1>   0.0480 
  6 C       -1.2880     3.6310    -0.2030 C.2   1 <1>  -0.2370 
  7 C       -3.8410     3.7550    -0.2390 C.3   1 <1>   0.0160 
  8 C       -1.0730     4.8520    -0.9340 C.2   1 <1>   0.7150 
  9 O       -1.7210     5.0830    -1.9350 O.2   1 <1>  -0.5700 
 10 N       -0.1250     5.7750    -0.5410 N.am  1 <1>  -0.6600 
 11 C        0.4040     5.8160     0.8740 C.3   1 <1>   0.2200 
 12 C        0.2250     6.8870    -1.4840 C.3   1 <1>   0.1400 
 13 C        0.1970     7.1830     1.5480 C.3   1 <1>   0.1200 
 14 C        1.8940     5.4000     0.9220 C.3   1 <1>   0.3430 
 15 C        1.4770     7.7030    -1.1100 C.3   1 <1>  -0.0800 
 16 O        1.2620     8.0400     1.2660 O.3   1 <1>  -0.5600 
 17 N        2.5580     5.4830    -0.4270 N.4   1 <1>  -0.9590 
 18 C        1.2050     8.6850     0.0400 C.3   1 <1>   0.1200 
 19 C        2.7720     6.8930    -0.8890 C.3   1 <1>   0.3430 
 20 C        3.8270     4.7000    -0.4630 C.3   1 <1>   0.2630 
 21 H       -3.2140     1.4200     1.1970 H     1 <1>   0.1500 
 22 H        0.7080     2.7570     0.1930 H     1 <1>   0.1500 
 23 H       -4.6370     3.2140     0.2380 H     1 <1>   0.0800 
 24 H       -3.9680     3.7090    -1.3060 H     1 <1>   0.0800 
 25 H       -3.8620     4.7810     0.0790 H     1 <1>   0.0800 
 26 H       -0.1520     5.1200     1.4770 H     1 <1>   0.0800 
 27 H        0.3700     6.4640    -2.4650 H     1 <1>   0.0800 
 28 H       -0.6230     7.5490    -1.5570 H     1 <1>   0.0800 
 29 H        0.1900     7.0510     2.6160 H     1 <1>   0.0800 
 30 H       -0.7360     7.6360     1.2610 H     1 <1>   0.0800 
 31 H        1.9400     4.3840     1.2770 H     1 <1>   0.0800 
 32 H        2.4190     6.0140     1.6360 H     1 <1>   0.0800 
 33 H        1.6680     8.3370    -1.9580 H     1 <1>   0.0800 
 34 H        1.8680     5.0720    -1.0800 H     1 <1>   0.4500 
 35 H        0.2480     9.1710    -0.0630 H     1 <1>   0.0800 
 36 H        1.9650     9.4490     0.0560 H     1 <1>   0.0800 
 37 H        3.3940     7.4150    -0.1790 H     1 <1>   0.0800 
 38 H        3.3050     6.8640    -1.8250 H     1 <1>   0.0800 
 39 H        4.5440     5.1200     0.2250 H     1 <1>   0.0800 
 40 H        4.2500     4.7170    -1.4550 H     1 <1>   0.0800 
 41 H        3.6430     3.6740    -0.1870 H     1 <1>   0.0800 
@<TRIPOS>BOND
  1   1   2  1   
  2   2   3  2   
  3   2   4  1   
  4   3   5  1   
  5   3  21  1   
  6   4   6  2   
  7   4  22  1   
  8   5   6  1   
  9   5   7  1   
 10   6   8  1   
 11   7  23  1   
 12   7  24  1   
 13   7  25  1   
 14   8   9  2   
 15   8  10  am  
 16  10  11  1   
 17  10  12  1   
 18  11  13  1   
 19  11  14  1   
 20  11  26  1   
 21  12  15  1   
 22  12  27  1   
 23  12  28  1   
 24  13  16  1   
 25  13  29  1   
 26  13  30  1   
 27  14  17  1   
 28  14  31  1   
 29  14  32  1   
 30  15  18  1   
 31  15  19  1   
 32  15  33  1   
 33  16  18  1   
 34  17  19  1   
 35  17  20  1   
 36  17  34  1   
 37  18  35  1   
 38  18  36  1   
 39  19  37  1   
 40  19  38  1   
 41  20  39  1   
 42  20  40  1   
 43  20  41  1   
@<TRIPOS>SUBSTRUCTURE
  1 ****  10 GROUP 4 **** **** 0

# MOE 2024.06 (io_trps.svl 2023.06)
