@<TRIPOS>MOLECULE
NONAME
49 51 1 0 0 
SMALL
USER_CHARGES


@<TRIPOS>ATOM
  1 S       -0.2330     0.0550    -0.1360 S.3   1 <1>  -0.0800 
  2 C       -1.8600     0.7060    -0.2160 C.2   1 <1>  -0.1400 
  3 C        0.4720     1.6610    -0.1830 C.2   1 <1>  -0.1400 
  4 C       -1.8220     2.0530    -0.2790 C.2   1 <1>  -0.1500 
  5 C       -2.9720    -0.3210    -0.2060 C.3   1 <1>   0.5230 
  6 C       -0.4970     2.5920    -0.2580 C.2   1 <1>  -0.1500 
  7 C        1.9890     1.7350    -0.1370 C.3   1 <1>   0.0200 
  8 N       -4.2470     0.3380     0.1660 N.4   1 <1>  -0.9590 
  9 C        2.5020     3.1770    -0.1850 C.3   1 <1>  -0.2400 
 10 C       -4.2630     0.8230     1.5750 C.3   1 <1>   0.3430 
 11 C       -5.4620    -0.4360    -0.1720 C.3   1 <1>   0.3430 
 12 C       -5.6130     1.4710     1.9150 C.3   1 <1>  -0.1600 
 13 C       -6.6860     0.4900    -0.1200 C.3   1 <1>  -0.1600 
 14 C       -6.4660     1.7950     0.6770 C.3   1 <1>   0.2800 
 15 O       -5.6780     2.6370    -0.1370 O.3   1 <1>  -0.5600 
 16 C       -7.7960     2.4600     1.0950 C.3   1 <1>  -0.1600 
 17 C       -6.2020     3.8520    -0.6030 C.3   1 <1>   0.1200 
 18 C       -8.5540     3.1290    -0.0660 C.3   1 <1>   0.2800 
 19 C       -7.6050     3.6240    -1.1640 C.3   1 <1>  -0.1600 
 20 O       -9.1830     4.2310     0.4610 O.3   1 <1>  -0.6800 
 21 C       -9.6720     2.2580    -0.6380 C.3   1 <1>  -0.2400 
 22 H       -2.6650     2.7200    -0.3430 H     1 <1>   0.1500 
 23 H       -2.7410    -1.0990     0.5030 H     1 <1>   0.0800 
 24 H       -3.0490    -0.7620    -1.1870 H     1 <1>   0.0800 
 25 H       -0.3370     3.6560    -0.3020 H     1 <1>   0.1500 
 26 H        2.3910     1.1870    -0.9720 H     1 <1>   0.0800 
 27 H        2.3350     1.2640     0.7660 H     1 <1>   0.0800 
 28 H       -4.3220     1.2080    -0.3940 H     1 <1>   0.4500 
 29 H        2.1830     3.6560    -1.0940 H     1 <1>   0.0800 
 30 H        3.5760     3.1850    -0.1520 H     1 <1>   0.0800 
 31 H        2.1280     3.7340     0.6550 H     1 <1>   0.0800 
 32 H       -3.4820     1.5560     1.7050 H     1 <1>   0.0800 
 33 H       -4.0710     0.0080     2.2550 H     1 <1>   0.0800 
 34 H       -5.5840    -1.2410     0.5350 H     1 <1>   0.0800 
 35 H       -5.3780    -0.8600    -1.1600 H     1 <1>   0.0800 
 36 H       -5.4360     2.3650     2.4850 H     1 <1>   0.0800 
 37 H       -6.1610     0.8020     2.5540 H     1 <1>   0.0800 
 38 H       -7.4920    -0.0700     0.3190 H     1 <1>   0.0800 
 39 H       -6.9860     0.7260    -1.1240 H     1 <1>   0.0800 
 40 H       -7.5660     3.2020     1.8400 H     1 <1>   0.0800 
 41 H       -8.4310     1.7370     1.5760 H     1 <1>   0.0800 
 42 H       -5.5440     4.2230    -1.3700 H     1 <1>   0.0800 
 43 H       -6.2160     4.5560     0.2120 H     1 <1>   0.0800 
 44 H       -7.5300     2.8960    -1.9510 H     1 <1>   0.0800 
 45 H       -7.9840     4.5270    -1.6100 H     1 <1>   0.0800 
 46 H       -8.5310     4.8820     0.7760 H     1 <1>   0.4000 
 47 H       -9.2800     1.3590    -1.0710 H     1 <1>   0.0800 
 48 H      -10.2020     2.7960    -1.4040 H     1 <1>   0.0800 
 49 H      -10.3680     1.9870     0.1360 H     1 <1>   0.0800 
@<TRIPOS>BOND
  1   1   2  1   
  2   1   3  1   
  3   2   4  2   
  4   2   5  1   
  5   3   6  2   
  6   3   7  1   
  7   4   6  1   
  8   4  22  1   
  9   5   8  1   
 10   5  23  1   
 11   5  24  1   
 12   6  25  1   
 13   7   9  1   
 14   7  26  1   
 15   7  27  1   
 16   8  10  1   
 17   8  11  1   
 18   8  28  1   
 19   9  29  1   
 20   9  30  1   
 21   9  31  1   
 22  10  12  1   
 23  10  32  1   
 24  10  33  1   
 25  11  13  1   
 26  11  34  1   
 27  11  35  1   
 28  12  14  1   
 29  12  36  1   
 30  12  37  1   
 31  13  14  1   
 32  13  38  1   
 33  13  39  1   
 34  14  15  1   
 35  14  16  1   
 36  15  17  1   
 37  16  18  1   
 38  16  40  1   
 39  16  41  1   
 40  17  19  1   
 41  17  42  1   
 42  17  43  1   
 43  18  19  1   
 44  18  20  1   
 45  18  21  1   
 46  19  44  1   
 47  19  45  1   
 48  20  46  1   
 49  21  47  1   
 50  21  48  1   
 51  21  49  1   
@<TRIPOS>SUBSTRUCTURE
  1 ****   8 GROUP 4 **** **** 0

# MOE 2024.06 (io_trps.svl 2023.06)
