@<TRIPOS>MOLECULE
NONAME
55 58 1 0 0 
SMALL
USER_CHARGES


@<TRIPOS>ATOM
  1 O        1.2150    -1.0330    -2.3000 O.2   1 <1>  -0.5700 
  2 C        1.8000    -1.7400    -1.5170 C.2   1 <1>   0.5690 
  3 N        1.1730    -2.4850    -0.5560 N.am  1 <1>  -0.6600 
  4 C        3.3110    -1.8210    -1.5870 C.3   1 <1>  -0.0990 
  5 C        1.9600    -3.2960     0.4040 C.3   1 <1>   0.1400 
  6 C       -0.3030    -2.4640    -0.3670 C.3   1 <1>   0.0600 
  7 C        3.7690    -3.2860    -1.4780 C.3   1 <1>  -0.0800 
  8 C        3.0790    -4.0640    -0.3330 C.3   1 <1>  -0.0800 
  9 C        5.2820    -3.4250    -1.2610 C.3   1 <1>  -0.1600 
 10 C        4.2070    -4.5200     0.6020 C.3   1 <1>  -0.1600 
 11 C        5.4300    -4.6050    -0.3090 C.3   1 <1>   0.4230 
 12 N        6.7550    -4.6550     0.3810 N.4   1 <1>  -0.9590 
 13 C        6.9460    -3.8340     1.6200 C.3   1 <1>   0.4860 
 14 C        7.1570    -6.0670     0.6400 C.3   1 <1>   0.2630 
 15 C        7.0570    -2.3540     1.2950 C.ar  1 <1>  -0.1440 
 16 C        8.0700    -1.8850     0.4530 C.ar  1 <1>   0.0000 
 17 C        6.1410    -1.4680     1.8420 C.ar  1 <1>  -0.1500 
 18 C        9.0290    -2.7820    -0.1490 C.ar  1 <1>   0.0000 
 19 C        8.1270    -0.5240     0.1760 C.ar  1 <1>  -0.1500 
 20 C        6.2130    -0.1180     1.5520 C.ar  1 <1>  -0.1500 
 21 C       10.0140    -3.4040     0.6130 C.ar  1 <1>  -0.1500 
 22 C        8.9560    -3.0820    -1.5060 C.ar  1 <1>  -0.1500 
 23 C        7.2080     0.3540     0.7170 C.ar  1 <1>  -0.1500 
 24 C       10.8730    -4.3270     0.0460 C.ar  1 <1>  -0.1500 
 25 C        9.8140    -4.0040    -2.0770 C.ar  1 <1>  -0.1500 
 26 C       10.7690    -4.6330    -1.2990 C.ar  1 <1>  -0.1500 
 27 H        3.6470    -1.3940    -2.5150 H     1 <1>   0.0800 
 28 H        3.7080    -1.2310    -0.7820 H     1 <1>   0.0800 
 29 H        2.3790    -2.6270     1.1350 H     1 <1>   0.0800 
 30 H        1.3160    -3.9920     0.9150 H     1 <1>   0.0800 
 31 H       -0.6990    -3.4580    -0.4800 H     1 <1>   0.0800 
 32 H       -0.7680    -1.8250    -1.0980 H     1 <1>   0.0800 
 33 H       -0.5400    -2.0930     0.6140 H     1 <1>   0.0800 
 34 H        3.5050    -3.7750    -2.4030 H     1 <1>   0.0800 
 35 H        2.6280    -4.9420    -0.7660 H     1 <1>   0.0800 
 36 H        5.6580    -2.5200    -0.8270 H     1 <1>   0.0800 
 37 H        5.7860    -3.6070    -2.1940 H     1 <1>   0.0800 
 38 H        3.9780    -5.4680     1.0560 H     1 <1>   0.0800 
 39 H        4.3400    -3.7720     1.3590 H     1 <1>   0.0800 
 40 H        5.3210    -5.4940    -0.9100 H     1 <1>   0.0800 
 41 H        7.4430    -4.2650    -0.2850 H     1 <1>   0.4500 
 42 H        6.1390    -4.0050     2.3120 H     1 <1>   0.0800 
 43 H        7.8600    -4.1330     2.1070 H     1 <1>   0.0800 
 44 H        6.4900    -6.5230     1.3540 H     1 <1>   0.0800 
 45 H        8.1620    -6.1030     1.0300 H     1 <1>   0.0800 
 46 H        7.1290    -6.6370    -0.2740 H     1 <1>   0.0800 
 47 H        5.3610    -1.8100     2.5010 H     1 <1>   0.1500 
 48 H        8.9030    -0.1480    -0.4700 H     1 <1>   0.1500 
 49 H        5.5000     0.5690     1.9760 H     1 <1>   0.1500 
 50 H       10.1140    -3.1560     1.6560 H     1 <1>   0.1500 
 51 H        8.2270    -2.5820    -2.1220 H     1 <1>   0.1500 
 52 H        7.2680     1.4060     0.4920 H     1 <1>   0.1500 
 53 H       11.6330    -4.8000     0.6460 H     1 <1>   0.1500 
 54 H        9.7500    -4.2270    -3.1300 H     1 <1>   0.1500 
 55 H       11.4430    -5.3480    -1.7430 H     1 <1>   0.1500 
@<TRIPOS>BOND
  1   1   2  2   
  2   2   3  am  
  3   2   4  1   
  4   3   5  1   
  5   3   6  1   
  6   4   7  1   
  7   4  27  1   
  8   4  28  1   
  9   5   8  1   
 10   5  29  1   
 11   5  30  1   
 12   6  31  1   
 13   6  32  1   
 14   6  33  1   
 15   7   8  1   
 16   7   9  1   
 17   7  34  1   
 18   8  10  1   
 19   8  35  1   
 20   9  11  1   
 21   9  36  1   
 22   9  37  1   
 23  10  11  1   
 24  10  38  1   
 25  10  39  1   
 26  11  12  1   
 27  11  40  1   
 28  12  13  1   
 29  12  14  1   
 30  12  41  1   
 31  13  15  1   
 32  13  42  1   
 33  13  43  1   
 34  14  44  1   
 35  14  45  1   
 36  14  46  1   
 37  15  16  ar  
 38  15  17  ar  
 39  16  18  1   
 40  16  19  ar  
 41  17  20  ar  
 42  17  47  1   
 43  18  21  ar  
 44  18  22  ar  
 45  19  23  ar  
 46  19  48  1   
 47  20  23  ar  
 48  20  49  1   
 49  21  24  ar  
 50  21  50  1   
 51  22  25  ar  
 52  22  51  1   
 53  23  52  1   
 54  24  26  ar  
 55  24  53  1   
 56  25  26  ar  
 57  25  54  1   
 58  26  55  1   
@<TRIPOS>SUBSTRUCTURE
  1 ****   9 GROUP 4 **** **** 0

# MOE 2024.06 (io_trps.svl 2023.06)
