@<TRIPOS>MOLECULE
Untitled Document
58 61 1 0 0 
SMALL
USER_CHARGES


@<TRIPOS>ATOM
  1 F        2.1640     1.6900    -0.5410 F     1 <1>  -0.1900 
  2 C        3.4250     1.7930    -0.8490 C.ar  1 <1>   0.5000 
  3 N        3.7900     2.9430    -1.3880 N.ar  1 <1>  -0.6200 
  4 C        4.2360     0.7090    -0.5800 C.ar  1 <1>  -0.1500 
  5 C        5.0770     3.0000    -1.6900 C.ar  1 <1>   0.1600 
  6 C        5.5850     0.7860    -0.8850 C.ar  1 <1>   0.0000 
  7 C        5.9880     1.9810    -1.4660 C.ar  1 <1>  -0.1500 
  8 C        6.5070    -0.2970    -0.6280 C.ar  1 <1>   0.3100 
  9 N        6.9540    -0.9560    -1.6960 N.ar  1 <1>  -0.6200 
 10 C        6.9030    -0.6200     0.6760 C.ar  1 <1>  -0.1440 
 11 C        7.7900    -1.9500    -1.4780 C.ar  1 <1>   0.1600 
 12 C        7.7760    -1.6670     0.8810 C.ar  1 <1>  -0.1500 
 13 C        6.3990     0.1660     1.8810 C.3   1 <1>  -0.0970 
 14 C        8.2330    -2.3490    -0.2270 C.ar  1 <1>  -0.1430 
 15 C        9.2230    -3.5010    -0.0790 C.3   1 <1>   0.0440 
 16 C       10.6750    -3.0490    -0.0640 C.2   1 <1>   0.5690 
 17 O       11.5280    -3.9010    -0.0930 O.2   1 <1>  -0.5700 
 18 N       10.9440    -1.7140    -0.0110 N.am  1 <1>  -0.5470 
 19 C       12.1120    -0.9800     0.0450 C.ar  1 <1>   0.4270 
 20 N       11.8840     0.3180     0.1610 N.ar  1 <1>  -0.6200 
 21 C       13.3910    -1.5310    -0.0150 C.ar  1 <1>  -0.1500 
 22 C       12.9620     1.0880     0.2190 C.ar  1 <1>   0.1600 
 23 C       14.4970    -0.7150     0.0470 C.ar  1 <1>  -0.1500 
 24 C       14.2820     0.6480     0.1680 C.ar  1 <1>   0.1000 
 25 N       15.3500     1.5480     0.2360 N.pl3 1 <1>  -0.8380 
 26 C       16.1550     1.6900    -1.0160 C.3   1 <1>   0.2090 
 27 C       16.2160     1.4330     1.4530 C.3   1 <1>   0.2090 
 28 C       17.1360     2.8730    -0.9230 C.3   1 <1>   0.1400 
 29 C       17.1940     2.6150     1.5580 C.3   1 <1>   0.1400 
 30 N       17.9940     2.7690     0.3010 N.am  1 <1>  -0.6600 
 31 C       19.3630     2.7440     0.3210 C.2   1 <1>   0.5690 
 32 O       19.9860     2.5670     1.3400 O.2   1 <1>  -0.5700 
 33 C       20.1550     2.9350    -0.9510 C.3   1 <1>  -0.1790 
 34 H        3.8200    -0.1790    -0.1440 H     1 <1>   0.1500 
 35 H        5.4260     3.9120    -2.1440 H     1 <1>   0.1500 
 36 H        7.0180     2.1070    -1.7470 H     1 <1>   0.1500 
 37 H        8.1470    -2.4750    -2.3490 H     1 <1>   0.1500 
 38 H        8.0960    -1.9410     1.8730 H     1 <1>   0.1500 
 39 H        6.5040     1.2230     1.7090 H     1 <1>   0.0800 
 40 H        6.9590    -0.0820     2.7650 H     1 <1>   0.0800 
 41 H        5.3630    -0.0570     2.0620 H     1 <1>   0.0800 
 42 H        9.0960    -4.1980    -0.8880 H     1 <1>   0.0800 
 43 H        9.0280    -4.0320     0.8340 H     1 <1>   0.0800 
 44 H       10.1340    -1.0950     0.0050 H     1 <1>   0.3700 
 45 H       13.5230    -2.5910    -0.1110 H     1 <1>   0.1500 
 46 H       12.8050     2.1470     0.3140 H     1 <1>   0.1500 
 47 H       15.4920    -1.1150     0.0030 H     1 <1>   0.1500 
 48 H       15.4900     1.8430    -1.8480 H     1 <1>   0.0800 
 49 H       16.7090     0.7840    -1.1930 H     1 <1>   0.0800 
 50 H       16.7780     0.5160     1.4150 H     1 <1>   0.0800 
 51 H       15.5940     1.4070     2.3310 H     1 <1>   0.0800 
 52 H       16.5720     3.7880    -0.8750 H     1 <1>   0.0800 
 53 H       17.7340     2.9010    -1.8150 H     1 <1>   0.0800 
 54 H       17.8410     2.4610     2.4040 H     1 <1>   0.0800 
 55 H       16.6360     3.5170     1.7320 H     1 <1>   0.0800 
 56 H       19.8810     3.8620    -1.4170 H     1 <1>   0.0800 
 57 H       19.9720     2.1170    -1.6210 H     1 <1>   0.0800 
 58 H       21.2050     2.9630    -0.7220 H     1 <1>   0.0800 
@<TRIPOS>BOND
  1   1   2  1   
  2   2   3  ar  
  3   2   4  ar  
  4   3   5  ar  
  5   4   6  ar  
  6   4  34  1   
  7   5   7  ar  
  8   5  35  1   
  9   6   7  ar  
 10   6   8  1   
 11   7  36  1   
 12   8   9  ar  
 13   8  10  ar  
 14   9  11  ar  
 15  10  12  ar  
 16  10  13  1   
 17  11  14  ar  
 18  11  37  1   
 19  12  14  ar  
 20  12  38  1   
 21  13  39  1   
 22  13  40  1   
 23  13  41  1   
 24  14  15  1   
 25  15  16  1   
 26  15  42  1   
 27  15  43  1   
 28  16  17  2   
 29  16  18  am  
 30  18  19  1   
 31  18  44  1   
 32  19  20  ar  
 33  19  21  ar  
 34  20  22  ar  
 35  21  23  ar  
 36  21  45  1   
 37  22  24  ar  
 38  22  46  1   
 39  23  24  ar  
 40  23  47  1   
 41  24  25  1   
 42  25  26  1   
 43  25  27  1   
 44  26  28  1   
 45  26  48  1   
 46  26  49  1   
 47  27  29  1   
 48  27  50  1   
 49  27  51  1   
 50  28  30  1   
 51  28  52  1   
 52  28  53  1   
 53  29  30  1   
 54  29  54  1   
 55  29  55  1   
 56  30  31  am  
 57  31  32  2   
 58  31  33  1   
 59  33  56  1   
 60  33  57  1   
 61  33  58  1   
@<TRIPOS>SUBSTRUCTURE
  1 ****  20 GROUP 4 **** **** 0

# MOE 2024.06 (io_trps.svl 2023.06)
