@<TRIPOS>MOLECULE
NONAME
58 60 1 0 0 
SMALL
USER_CHARGES


@<TRIPOS>ATOM
  1 O       -1.1060    -1.2400    -2.8360 O.2   1 <1>  -0.5700 
  2 C       -2.1340    -1.4430    -2.2100 C.2   1 <1>   0.6900 
  3 N       -3.0610    -0.5400    -1.8510 N.am  1 <1>  -0.3680 
  4 N       -2.5600    -2.6110    -1.7420 N.am  1 <1>  -0.4900 
  5 N       -4.0760    -1.1270    -1.1440 N.2   1 <1>  -0.5120 
  6 C       -3.7630    -2.3900    -1.0820 C.2   1 <1>   0.5100 
  7 C       -4.4780    -3.4910    -0.4320 C.2   1 <1>   0.6300 
  8 O       -3.9410    -4.5920    -0.3900 O.2   1 <1>  -0.5700 
  9 N       -5.7380    -3.3950     0.1530 N.am  1 <1>  -0.6600 
 10 C       -6.1630    -4.4070     1.1640 C.3   1 <1>   0.1400 
 11 C       -6.7080    -2.3090    -0.1770 C.3   1 <1>   0.1400 
 12 C       -6.8760    -5.5920     0.4930 C.3   1 <1>   0.1400 
 13 C       -8.1680    -2.7820    -0.2390 C.3   1 <1>  -0.1600 
 14 N       -8.2710    -5.2480     0.0540 N.am  1 <1>  -0.6600 
 15 C       -8.3550    -4.1330    -0.9390 C.3   1 <1>   0.1400 
 16 C       -9.4220    -5.8600     0.5030 C.2   1 <1>   0.5690 
 17 O      -10.5150    -5.4550     0.1740 O.2   1 <1>  -0.5700 
 18 C       -9.3730    -7.1180     1.4240 C.3   1 <1>   0.4840 
 19 N      -10.4590    -8.1620     1.1850 N.4   1 <1>  -0.9590 
 20 C       -9.3370    -6.7320     2.9080 C.3   1 <1>  -0.2400 
 21 C      -10.4910    -8.6160    -0.2480 C.3   1 <1>   0.4230 
 22 C      -11.8100    -7.6500     1.6160 C.3   1 <1>   0.2630 
 23 C      -11.5420    -9.7310    -0.4290 C.3   1 <1>  -0.1600 
 24 C       -9.1030    -9.1250    -0.6900 C.3   1 <1>  -0.1600 
 25 C      -11.5490   -10.3020    -1.8540 C.3   1 <1>  -0.1600 
 26 C       -9.1180    -9.6990    -2.1140 C.3   1 <1>  -0.1600 
 27 C      -10.1620   -10.8090    -2.2560 C.3   1 <1>  -0.1600 
 28 H       -2.9800     0.4550    -2.0780 H     1 <1>   0.3700 
 29 H       -2.0650    -3.4960    -1.8090 H     1 <1>   0.3700 
 30 H       -6.7970    -3.9540     1.9060 H     1 <1>   0.0800 
 31 H       -5.2880    -4.7760     1.6730 H     1 <1>   0.0800 
 32 H       -6.4650    -1.9030    -1.1440 H     1 <1>   0.0800 
 33 H       -6.6130    -1.5140     0.5440 H     1 <1>   0.0800 
 34 H       -6.8860    -6.4030     1.1940 H     1 <1>   0.0800 
 35 H       -6.2990    -5.9130    -0.3580 H     1 <1>   0.0800 
 36 H       -8.7170    -2.0400    -0.7890 H     1 <1>   0.0800 
 37 H       -8.5980    -2.8110     0.7460 H     1 <1>   0.0800 
 38 H       -7.6140    -4.2660    -1.7090 H     1 <1>   0.0800 
 39 H       -9.3190    -4.1430    -1.4210 H     1 <1>   0.0800 
 40 H       -8.4340    -7.5970     1.2180 H     1 <1>   0.0800 
 41 H      -10.2310    -8.9840     1.7540 H     1 <1>   0.4500 
 42 H      -10.1710    -6.1030     3.1660 H     1 <1>   0.0800 
 43 H       -8.4430    -6.1690     3.1080 H     1 <1>   0.0800 
 44 H       -9.3280    -7.6050     3.5340 H     1 <1>   0.0800 
 45 H      -10.7670    -7.7850    -0.8790 H     1 <1>   0.0800 
 46 H      -12.1270    -6.8390     0.9790 H     1 <1>   0.0800 
 47 H      -11.7800    -7.2960     2.6320 H     1 <1>   0.0800 
 48 H      -12.5470    -8.4330     1.5630 H     1 <1>   0.0800 
 49 H      -12.5310    -9.3560    -0.2420 H     1 <1>   0.0800 
 50 H      -11.3420   -10.5340     0.2590 H     1 <1>   0.0800 
 51 H       -8.7670    -9.8950    -0.0170 H     1 <1>   0.0800 
 52 H       -8.3840    -8.3270    -0.6920 H     1 <1>   0.0800 
 53 H      -11.8650    -9.5410    -2.5480 H     1 <1>   0.0800 
 54 H      -12.2560   -11.1130    -1.9170 H     1 <1>   0.0800 
 55 H       -8.1460   -10.0920    -2.3590 H     1 <1>   0.0800 
 56 H       -9.3370    -8.9130    -2.8190 H     1 <1>   0.0800 
 57 H      -10.1870   -11.1510    -3.2780 H     1 <1>   0.0800 
 58 H       -9.8880   -11.6480    -1.6390 H     1 <1>   0.0800 
@<TRIPOS>BOND
  1   1   2  2   
  2   2   3  am  
  3   2   4  am  
  4   3   5  1   
  5   3  28  1   
  6   4   6  1   
  7   4  29  1   
  8   5   6  2   
  9   6   7  1   
 10   7   8  2   
 11   7   9  am  
 12   9  10  1   
 13   9  11  1   
 14  10  12  1   
 15  10  30  1   
 16  10  31  1   
 17  11  13  1   
 18  11  32  1   
 19  11  33  1   
 20  12  14  1   
 21  12  34  1   
 22  12  35  1   
 23  13  15  1   
 24  13  36  1   
 25  13  37  1   
 26  14  15  1   
 27  14  16  am  
 28  15  38  1   
 29  15  39  1   
 30  16  17  2   
 31  16  18  1   
 32  18  19  1   
 33  18  20  1   
 34  18  40  1   
 35  19  21  1   
 36  19  22  1   
 37  19  41  1   
 38  20  42  1   
 39  20  43  1   
 40  20  44  1   
 41  21  23  1   
 42  21  24  1   
 43  21  45  1   
 44  22  46  1   
 45  22  47  1   
 46  22  48  1   
 47  23  25  1   
 48  23  49  1   
 49  23  50  1   
 50  24  26  1   
 51  24  51  1   
 52  24  52  1   
 53  25  27  1   
 54  25  53  1   
 55  25  54  1   
 56  26  27  1   
 57  26  55  1   
 58  26  56  1   
 59  27  57  1   
 60  27  58  1   
@<TRIPOS>SUBSTRUCTURE
  1 ****  14 GROUP 4 **** **** 0

# MOE 2024.06 (io_trps.svl 2023.06)
