@<TRIPOS>MOLECULE
NONAME
44 45 1 0 0 
SMALL
USER_CHARGES


@<TRIPOS>ATOM
  1 S        0.2040    -0.8760     0.1880 S.3   1 <1>  -0.0800 
  2 C        0.0590    -2.6240     0.2040 C.2   1 <1>  -0.1100 
  3 C       -1.1400    -0.7340    -0.9290 C.2   1 <1>  -0.1100 
  4 C       -0.9520    -3.0290    -0.5880 C.2   1 <1>  -0.1810 
  5 C       -1.6320    -1.9480    -1.2380 C.2   1 <1>  -0.1500 
  6 C       -1.3770    -4.4690    -0.8080 C.3   1 <1>   0.0210 
  7 C       -2.6980    -4.7400    -0.0790 C.3   1 <1>  -0.0990 
  8 C       -3.1360    -6.1880    -0.2200 C.2   1 <1>   0.5690 
  9 O       -3.1530    -6.6670    -1.3260 O.2   1 <1>  -0.5700 
 10 N       -3.5590    -6.9110     0.8630 N.am  1 <1>  -0.6600 
 11 C       -3.4250    -8.3960     0.8360 C.3   1 <1>   0.3200 
 12 C       -4.2630    -6.3020     2.0400 C.3   1 <1>   0.1400 
 13 C       -4.8030    -8.9950     0.6630 C.2   1 <1>  -0.3320 
 14 C       -5.5240    -5.5070     1.6200 C.3   1 <1>   0.3430 
 15 N       -5.4990    -9.6390     1.6230 N.pl3 1 <1>   0.0330 
 16 C       -5.5740    -9.0090    -0.4460 C.2   1 <1>   0.0770 
 17 N       -6.3440    -6.2690     0.6250 N.4   1 <1>  -0.9590 
 18 C       -6.6760    -9.9550     1.0430 C.2   1 <1>   0.0360 
 19 N       -6.7700    -9.5660    -0.1870 N.2   1 <1>  -0.5650 
 20 C       -6.4460    -5.5860    -0.7000 C.3   1 <1>   0.2630 
 21 C       -7.6960    -6.6530     1.1280 C.3   1 <1>   0.2630 
 22 H        0.7580    -3.1660     0.8160 H     1 <1>   0.1500 
 23 H       -1.4190     0.2560    -1.2430 H     1 <1>   0.1500 
 24 H       -2.4520    -2.1270    -1.9110 H     1 <1>   0.1500 
 25 H       -0.6150    -5.1300    -0.4300 H     1 <1>   0.0800 
 26 H       -1.4810    -4.6560    -1.8630 H     1 <1>   0.0800 
 27 H       -3.4620    -4.1070    -0.4880 H     1 <1>   0.0800 
 28 H       -2.5610    -4.4860     0.9540 H     1 <1>   0.0800 
 29 H       -2.9620    -8.7410     1.7450 H     1 <1>   0.0800 
 30 H       -2.7970    -8.6990     0.0130 H     1 <1>   0.0800 
 31 H       -3.5880    -5.6550     2.5730 H     1 <1>   0.0800 
 32 H       -4.5590    -7.0780     2.7240 H     1 <1>   0.0800 
 33 H       -5.2150    -4.5690     1.1910 H     1 <1>   0.0800 
 34 H       -6.1130    -5.2850     2.4950 H     1 <1>   0.0800 
 35 H       -5.2030    -9.8870     2.5740 H     1 <1>   0.2700 
 36 H       -5.3280    -8.6260    -1.4270 H     1 <1>   0.1500 
 37 H       -5.8270    -7.1570     0.4470 H     1 <1>   0.4500 
 38 H       -7.4500   -10.4880     1.5700 H     1 <1>   0.1500 
 39 H       -6.9490    -4.6390    -0.5990 H     1 <1>   0.0800 
 40 H       -7.0010    -6.2020    -1.3900 H     1 <1>   0.0800 
 41 H       -5.4640    -5.4200    -1.1130 H     1 <1>   0.0800 
 42 H       -8.3030    -5.7780     1.2860 H     1 <1>   0.0800 
 43 H       -7.6100    -7.1950     2.0550 H     1 <1>   0.0800 
 44 H       -8.1850    -7.2920     0.4090 H     1 <1>   0.0800 
@<TRIPOS>BOND
  1   1   2  1   
  2   1   3  1   
  3   2   4  2   
  4   2  22  1   
  5   3   5  2   
  6   3  23  1   
  7   4   5  1   
  8   4   6  1   
  9   5  24  1   
 10   6   7  1   
 11   6  25  1   
 12   6  26  1   
 13   7   8  1   
 14   7  27  1   
 15   7  28  1   
 16   8   9  2   
 17   8  10  am  
 18  10  11  1   
 19  10  12  1   
 20  11  13  1   
 21  11  29  1   
 22  11  30  1   
 23  12  14  1   
 24  12  31  1   
 25  12  32  1   
 26  13  15  1   
 27  13  16  2   
 28  14  17  1   
 29  14  33  1   
 30  14  34  1   
 31  15  18  1   
 32  15  35  1   
 33  16  19  1   
 34  16  36  1   
 35  17  20  1   
 36  17  21  1   
 37  17  37  1   
 38  18  19  2   
 39  18  38  1   
 40  20  39  1   
 41  20  40  1   
 42  20  41  1   
 43  21  42  1   
 44  21  43  1   
 45  21  44  1   
@<TRIPOS>SUBSTRUCTURE
  1 ****   8 GROUP 4 **** **** 0

# MOE 2024.06 (io_trps.svl 2023.06)
