@<TRIPOS>MOLECULE
NONAME
52 54 1 0 0 
SMALL
USER_CHARGES


@<TRIPOS>ATOM
  1 O       -1.0630     2.1440     2.3140 O.2   1 <1>  -0.5700 
  2 C       -1.0600     2.3960     1.1170 C.2   1 <1>   0.7150 
  3 N       -2.2560     2.2890     0.4230 N.am  1 <1>  -0.6600 
  4 C        0.2100     2.7950     0.5240 C.2   1 <1>   0.1010 
  5 C       -3.5250     1.8960     1.0980 C.3   1 <1>   0.1400 
  6 C       -2.3710     2.6650    -1.0150 C.3   1 <1>   0.1400 
  7 N        0.5530     2.9570    -0.7410 N.2   1 <1>  -0.5650 
  8 N        1.2620     3.0480     1.3450 N.pl3 1 <1>   0.0330 
  9 C       -4.6070     2.9600     0.8800 C.3   1 <1>  -0.1600 
 10 C       -3.8220     2.6650    -1.5090 C.3   1 <1>  -0.1600 
 11 C        1.8410     3.3220    -0.7050 C.2   1 <1>   0.0770 
 12 C        2.2960     3.3850     0.5640 C.2   1 <1>  -0.3020 
 13 C       -4.7480     3.4800    -0.5780 C.3   1 <1>   0.2800 
 14 O       -4.2450     4.8020    -0.5530 O.3   1 <1>  -0.5600 
 15 C       -6.2580     3.4690    -1.0250 C.3   1 <1>   0.2000 
 16 C       -4.6780     5.6980    -1.5280 C.3   1 <1>   0.1200 
 17 O       -6.3870     3.2160    -2.4040 O.3   1 <1>  -0.6800 
 18 C       -6.9550     4.8190    -0.6800 C.3   1 <1>   0.3000 
 19 C       -6.1900     5.9540    -1.3970 C.3   1 <1>  -0.1600 
 20 N       -6.8520     5.1230     0.7680 N.am  1 <1>  -0.7300 
 21 C       -8.4310     4.8630    -1.1090 C.3   1 <1>  -0.2400 
 22 C       -7.4530     4.6470     1.8910 C.2   1 <1>   0.5690 
 23 O       -7.0260     5.0130     2.9580 O.2   1 <1>  -0.5700 
 24 C       -8.6410     3.6820     1.8990 C.3   1 <1>   0.1810 
 25 O       -8.3420     2.4590     1.2750 O.3   1 <1>  -0.5600 
 26 C       -9.3860     1.5400     1.3010 C.3   1 <1>   0.0400 
 27 H       -3.8520     0.9550     0.6910 H     1 <1>   0.0800 
 28 H       -3.3790     1.7560     2.1550 H     1 <1>   0.0800 
 29 H       -1.9620     3.6540    -1.1430 H     1 <1>   0.0800 
 30 H       -1.7880     1.9810    -1.6080 H     1 <1>   0.0800 
 31 H        1.2140     2.9700     2.3670 H     1 <1>   0.2700 
 32 H       -4.4070     3.7840     1.5430 H     1 <1>   0.0800 
 33 H       -5.5300     2.5240     1.2120 H     1 <1>   0.0800 
 34 H       -4.1740     1.6510    -1.5730 H     1 <1>   0.0800 
 35 H       -3.8360     3.0610    -2.5060 H     1 <1>   0.0800 
 36 H        2.3920     3.5270    -1.6090 H     1 <1>   0.1500 
 37 H        3.2710     3.6420     0.9360 H     1 <1>   0.1500 
 38 H       -6.7730     2.6580    -0.5480 H     1 <1>   0.0800 
 39 H       -4.1300     6.6150    -1.3960 H     1 <1>   0.0800 
 40 H       -4.4310     5.2920    -2.4930 H     1 <1>   0.0800 
 41 H       -5.8850     3.8810    -2.9100 H     1 <1>   0.4000 
 42 H       -6.3580     6.8880    -0.8910 H     1 <1>   0.0800 
 43 H       -6.5710     6.0820    -2.3930 H     1 <1>   0.0800 
 44 H       -5.9780     5.6180     0.9710 H     1 <1>   0.3700 
 45 H       -8.5100     4.8730    -2.1810 H     1 <1>   0.0800 
 46 H       -8.9120     5.7440    -0.7260 H     1 <1>   0.0800 
 47 H       -8.9510     3.9870    -0.7760 H     1 <1>   0.0800 
 48 H       -9.4790     4.1360     1.4050 H     1 <1>   0.0800 
 49 H       -8.9090     3.4790     2.9210 H     1 <1>   0.0800 
 50 H       -9.0600     0.6480     0.7960 H     1 <1>   0.0800 
 51 H      -10.2390     1.9540     0.7900 H     1 <1>   0.0800 
 52 H       -9.6310     1.3090     2.3240 H     1 <1>   0.0800 
@<TRIPOS>BOND
  1   1   2  2   
  2   2   3  am  
  3   2   4  1   
  4   3   5  1   
  5   3   6  1   
  6   4   7  2   
  7   4   8  1   
  8   5   9  1   
  9   5  27  1   
 10   5  28  1   
 11   6  10  1   
 12   6  29  1   
 13   6  30  1   
 14   7  11  1   
 15   8  12  1   
 16   8  31  1   
 17   9  13  1   
 18   9  32  1   
 19   9  33  1   
 20  10  13  1   
 21  10  34  1   
 22  10  35  1   
 23  11  12  2   
 24  11  36  1   
 25  12  37  1   
 26  13  14  1   
 27  13  15  1   
 28  14  16  1   
 29  15  17  1   
 30  15  18  1   
 31  15  38  1   
 32  16  19  1   
 33  16  39  1   
 34  16  40  1   
 35  17  41  1   
 36  18  19  1   
 37  18  20  1   
 38  18  21  1   
 39  19  42  1   
 40  19  43  1   
 41  20  22  am  
 42  20  44  1   
 43  21  45  1   
 44  21  46  1   
 45  21  47  1   
 46  22  23  2   
 47  22  24  1   
 48  24  25  1   
 49  24  48  1   
 50  24  49  1   
 51  25  26  1   
 52  26  50  1   
 53  26  51  1   
 54  26  52  1   
@<TRIPOS>SUBSTRUCTURE
  1 ****  13 GROUP 4 **** **** 0

# MOE 2024.06 (io_trps.svl 2023.06)
