@<TRIPOS>MOLECULE
NONAME
50 53 1 0 0 
SMALL
USER_CHARGES


@<TRIPOS>ATOM
  1 S        2.2400    -0.1070    -2.1100 S.3   1 <1>  -0.0800 
  2 C        1.4850    -0.6410    -0.6090 C.2   1 <1>   0.3250 
  3 C        1.5650    -1.4600    -2.9470 C.2   1 <1>  -0.1100 
  4 N        0.8060    -1.7290    -0.7860 N.2   1 <1>  -0.5650 
  5 C        1.6860     0.1490     0.6010 C.ar  1 <1>   0.6730 
  6 C        0.8290    -2.2080    -2.1000 C.2   1 <1>   0.1410 
  7 N        1.0710    -0.2610     1.7230 N.ar  1 <1>  -0.6200 
  8 N        2.4680     1.2380     0.5300 N.ar  1 <1>  -0.6200 
  9 C        0.1310    -3.4380    -2.4630 C.2   1 <1>   0.7160 
 10 C        1.2560     0.4530     2.8060 C.ar  1 <1>   0.1600 
 11 C        2.6350     1.9330     1.6290 C.ar  1 <1>   0.1600 
 12 O        0.6110    -4.1690    -3.3110 O.2   1 <1>  -0.5700 
 13 N       -1.0480    -3.8490    -1.8630 N.am  1 <1>  -0.6600 
 14 C        2.0410     1.5770     2.8130 C.ar  1 <1>  -0.1500 
 15 C       -1.3940    -5.2900    -1.7590 C.3   1 <1>   0.1400 
 16 C       -1.9840    -2.9380    -1.1470 C.3   1 <1>   0.1400 
 17 C       -1.4310    -5.7020    -0.2680 C.3   1 <1>   0.4230 
 18 C       -2.0150    -3.3270     0.3360 C.3   1 <1>  -0.1600 
 19 N       -1.6160    -7.1990    -0.0510 N.4   1 <1>  -0.9590 
 20 C       -2.3990    -4.8160     0.5740 C.3   1 <1>   0.0000 
 21 C       -2.0610    -7.5670     1.3340 C.3   1 <1>   0.3430 
 22 C       -2.4770    -7.8960    -1.0630 C.3   1 <1>   0.2630 
 23 C       -2.2090    -5.1400     2.0850 C.3   1 <1>  -0.1600 
 24 C       -3.8720    -5.0740     0.1440 C.3   1 <1>   0.1200 
 25 C       -1.5980    -6.5280     2.3530 C.3   1 <1>  -0.1600 
 26 O       -4.7410    -4.1560     0.7080 O.3   1 <1>  -0.6800 
 27 H        1.7820    -1.5780    -3.9940 H     1 <1>   0.1500 
 28 H        0.7680     0.1330     3.7120 H     1 <1>   0.1500 
 29 H        3.2620     2.8090     1.5830 H     1 <1>   0.1500 
 30 H        2.1850     2.1540     3.7070 H     1 <1>   0.1500 
 31 H       -2.3440    -5.4460    -2.2380 H     1 <1>   0.0800 
 32 H       -0.6550    -5.8830    -2.2690 H     1 <1>   0.0800 
 33 H       -1.6810    -1.9100    -1.2530 H     1 <1>   0.0800 
 34 H       -2.9680    -3.0230    -1.5760 H     1 <1>   0.0800 
 35 H       -0.4480    -5.4650     0.1050 H     1 <1>   0.0800 
 36 H       -1.0370    -3.1290     0.7400 H     1 <1>   0.0800 
 37 H       -2.6930    -2.6700     0.8500 H     1 <1>   0.0800 
 38 H       -0.6680    -7.5920    -0.1530 H     1 <1>   0.4500 
 39 H       -3.1370    -7.6220     1.3690 H     1 <1>   0.0800 
 40 H       -1.6720    -8.5380     1.5980 H     1 <1>   0.0800 
 41 H       -3.4810    -7.5040    -1.0410 H     1 <1>   0.0800 
 42 H       -2.5190    -8.9530    -0.8530 H     1 <1>   0.0800 
 43 H       -2.0770    -7.7670    -2.0550 H     1 <1>   0.0800 
 44 H       -1.5630    -4.4120     2.5500 H     1 <1>   0.0800 
 45 H       -3.1510    -5.0680     2.6000 H     1 <1>   0.0800 
 46 H       -4.2040    -6.0520     0.4410 H     1 <1>   0.0800 
 47 H       -3.9920    -4.9860    -0.9210 H     1 <1>   0.0800 
 48 H       -1.8780    -6.8510     3.3410 H     1 <1>   0.0800 
 49 H       -0.5220    -6.4700     2.3340 H     1 <1>   0.0800 
 50 H       -4.7030    -4.1600     1.6850 H     1 <1>   0.4000 
@<TRIPOS>BOND
  1   1   2  1   
  2   1   3  1   
  3   2   4  2   
  4   2   5  1   
  5   3   6  2   
  6   3  27  1   
  7   4   6  1   
  8   5   7  ar  
  9   5   8  ar  
 10   6   9  1   
 11   7  10  ar  
 12   8  11  ar  
 13   9  12  2   
 14   9  13  am  
 15  10  14  ar  
 16  10  28  1   
 17  11  14  ar  
 18  11  29  1   
 19  13  15  1   
 20  13  16  1   
 21  14  30  1   
 22  15  17  1   
 23  15  31  1   
 24  15  32  1   
 25  16  18  1   
 26  16  33  1   
 27  16  34  1   
 28  17  19  1   
 29  17  20  1   
 30  17  35  1   
 31  18  20  1   
 32  18  36  1   
 33  18  37  1   
 34  19  21  1   
 35  19  22  1   
 36  19  38  1   
 37  20  23  1   
 38  20  24  1   
 39  21  25  1   
 40  21  39  1   
 41  21  40  1   
 42  22  41  1   
 43  22  42  1   
 44  22  43  1   
 45  23  25  1   
 46  23  44  1   
 47  23  45  1   
 48  24  26  1   
 49  24  46  1   
 50  24  47  1   
 51  25  48  1   
 52  25  49  1   
 53  26  50  1   
@<TRIPOS>SUBSTRUCTURE
  1 ****  18 GROUP 4 **** **** 0

# MOE 2024.06 (io_trps.svl 2023.06)
