@<TRIPOS>MOLECULE
NONAME
41 44 1 0 0 
SMALL
USER_CHARGES


@<TRIPOS>ATOM
  1 O       -0.4760    -0.6240     1.0560 O.3   1 <1>  -0.5600 
  2 C       -0.0700    -1.6310     0.1610 C.3   1 <1>   0.4180 
  3 C       -1.3190     0.3860     0.5720 C.3   1 <1>   0.1200 
  4 C       -1.2150    -2.0100    -0.7770 C.2   1 <1>  -0.2880 
  5 C        0.2940    -2.8350     1.0460 C.3   1 <1>  -0.1600 
  6 C        1.1340    -1.1190    -0.6470 C.3   1 <1>  -0.1600 
  7 C       -2.6520    -0.2000     0.0920 C.3   1 <1>  -0.0220 
  8 C       -2.3960    -1.3890    -0.8150 C.2   1 <1>  -0.2760 
  9 C        1.4860    -3.6120     0.4920 C.3   1 <1>   0.2090 
 10 C        2.4280    -1.2810     0.1440 C.3   1 <1>   0.2090 
 11 C       -3.5520    -1.7890    -1.7130 C.3   1 <1>  -0.1020 
 12 N        2.6910    -2.7290     0.4110 N.pl3 1 <1>  -0.8220 
 13 C        3.8000    -3.2790    -0.2560 C.2   1 <1>   0.2700 
 14 N        3.7260    -4.1300    -1.2400 N.2   1 <1>  -0.3380 
 15 N        5.0810    -2.9860     0.0380 N.pl3 1 <1>   0.3340 
 16 N        4.9690    -4.4130    -1.6280 N.2   1 <1>  -0.3380 
 17 C        5.7750    -3.7280    -0.8640 C.2   1 <1>   0.1420 
 18 C        5.7320    -2.1850     0.9770 C.2   1 <1>  -0.1810 
 19 C        7.1940    -3.6650    -0.8590 C.2   1 <1>  -0.1050 
 20 C        7.0890    -2.1210     0.9900 C.2   1 <1>  -0.1500 
 21 C        7.8400    -2.8780     0.0470 C.2   1 <1>  -0.1500 
 22 H       -0.8230     0.8940    -0.2340 H     1 <1>   0.0800 
 23 H       -1.4860     1.0860     1.3720 H     1 <1>   0.0800 
 24 H       -0.9740    -2.8490    -1.4060 H     1 <1>   0.1500 
 25 H       -0.5510    -3.4910     1.1330 H     1 <1>   0.0800 
 26 H        0.5520    -2.5020     2.0350 H     1 <1>   0.0800 
 27 H        0.9970    -0.0930    -0.9270 H     1 <1>   0.0800 
 28 H        1.2310    -1.6850    -1.5560 H     1 <1>   0.0800 
 29 H       -3.1900     0.5650    -0.4380 H     1 <1>   0.0800 
 30 H       -3.2440    -0.5050     0.9370 H     1 <1>   0.0800 
 31 H        1.2450    -3.9950    -0.4850 H     1 <1>   0.0800 
 32 H        1.7080    -4.4470     1.1340 H     1 <1>   0.0800 
 33 H        2.3490    -0.7570     1.0820 H     1 <1>   0.0800 
 34 H        3.2440    -0.8540    -0.4150 H     1 <1>   0.0800 
 35 H       -3.8060    -0.9800    -2.3750 H     1 <1>   0.0800 
 36 H       -4.4130    -2.0380    -1.1190 H     1 <1>   0.0800 
 37 H       -3.2880    -2.6460    -2.3070 H     1 <1>   0.0800 
 38 H        5.0970    -1.6510     1.6600 H     1 <1>   0.1500 
 39 H        7.7190    -4.2570    -1.5870 H     1 <1>   0.1500 
 40 H        7.6250    -1.5120     1.7000 H     1 <1>   0.1500 
 41 H        8.9150    -2.8120     0.0730 H     1 <1>   0.1500 
@<TRIPOS>BOND
  1   1   2  1   
  2   1   3  1   
  3   2   4  1   
  4   2   5  1   
  5   2   6  1   
  6   3   7  1   
  7   3  22  1   
  8   3  23  1   
  9   4   8  2   
 10   4  24  1   
 11   5   9  1   
 12   5  25  1   
 13   5  26  1   
 14   6  10  1   
 15   6  27  1   
 16   6  28  1   
 17   7   8  1   
 18   7  29  1   
 19   7  30  1   
 20   8  11  1   
 21   9  12  1   
 22   9  31  1   
 23   9  32  1   
 24  10  12  1   
 25  10  33  1   
 26  10  34  1   
 27  11  35  1   
 28  11  36  1   
 29  11  37  1   
 30  12  13  1   
 31  13  14  2   
 32  13  15  1   
 33  14  16  1   
 34  15  17  1   
 35  15  18  1   
 36  16  17  2   
 37  17  19  1   
 38  18  20  2   
 39  18  38  1   
 40  19  21  2   
 41  19  39  1   
 42  20  21  1   
 43  20  40  1   
 44  21  41  1   
@<TRIPOS>SUBSTRUCTURE
  1 ****  12 GROUP 4 **** **** 0

# MOE 2024.06 (io_trps.svl 2023.06)
