@<TRIPOS>MOLECULE
NONAME
46 48 1 0 0 
SMALL
USER_CHARGES


@<TRIPOS>ATOM
  1 O       -1.0220     0.8930     1.8060 O.3   1 <1>  -0.0190 
  2 N       -1.1940    -0.3940     1.8170 N.2   1 <1>  -0.4100 
  3 C       -1.4250     1.2560     0.6140 C.2   1 <1>   0.2980 
  4 C       -1.6680    -0.7210     0.6790 C.2   1 <1>   0.3350 
  5 N       -1.8420     0.3120    -0.1350 N.2   1 <1>  -0.5650 
  6 C       -1.3700     2.7350     0.2420 C.3   1 <1>   0.2900 
  7 C       -2.0320    -2.1380     0.2310 C.3   1 <1>   0.1010 
  8 N        0.0100     3.2760     0.1330 N.3   1 <1>  -0.8100 
  9 C       -3.5220    -2.4160     0.4770 C.3   1 <1>  -0.2400 
 10 C       -1.1750    -3.2110     0.9210 C.3   1 <1>  -0.2400 
 11 C       -0.0200     4.7370    -0.0630 C.3   1 <1>   0.1100 
 12 C        0.7860     2.5840    -0.9110 C.3   1 <1>   0.1100 
 13 C        1.3080     5.3680     0.3690 C.3   1 <1>   0.0200 
 14 C        1.8500     1.7270    -0.2350 C.3   1 <1>  -0.2400 
 15 C        1.2720     6.8850     0.2710 C.2   1 <1>   0.0060 
 16 N        0.3990     7.5640    -0.3920 N.2   1 <1>  -0.5650 
 17 N        2.1970     7.6550     0.8990 N.pl3 1 <1>   0.0330 
 18 C        0.7590     8.8640    -0.1980 C.ar  1 <1>   0.2270 
 19 C        1.8800     8.9400     0.6070 C.ar  1 <1>  -0.1520 
 20 C        0.1700    10.0310    -0.6810 C.ar  1 <1>  -0.1500 
 21 C        2.4440    10.1700     0.9520 C.ar  1 <1>  -0.1500 
 22 C        0.7180    11.2500    -0.3450 C.ar  1 <1>  -0.1500 
 23 C        1.8550    11.3180     0.4710 C.ar  1 <1>  -0.1500 
 24 H       -1.9030     3.2790     1.0010 H     1 <1>   0.0800 
 25 H       -1.8850     2.8760    -0.6920 H     1 <1>   0.0800 
 26 H       -1.8470    -2.1970    -0.8270 H     1 <1>   0.0800 
 27 H       -3.7430    -2.3540     1.5280 H     1 <1>   0.0800 
 28 H       -3.7870    -3.3950     0.1200 H     1 <1>   0.0800 
 29 H       -4.1200    -1.6870    -0.0420 H     1 <1>   0.0800 
 30 H       -1.3470    -3.2030     1.9830 H     1 <1>   0.0800 
 31 H       -0.1320    -3.0150     0.7440 H     1 <1>   0.0800 
 32 H       -1.4120    -4.1860     0.5380 H     1 <1>   0.0800 
 33 H       -0.7970     5.1700     0.5440 H     1 <1>   0.0800 
 34 H       -0.2320     4.9770    -1.0920 H     1 <1>   0.0800 
 35 H        1.2700     3.2930    -1.5640 H     1 <1>   0.0800 
 36 H        0.1510     1.9630    -1.5220 H     1 <1>   0.0800 
 37 H        2.1050     5.0050    -0.2520 H     1 <1>   0.0800 
 38 H        1.5040     5.0850     1.3870 H     1 <1>   0.0800 
 39 H        2.4910     2.3400     0.3720 H     1 <1>   0.0800 
 40 H        2.4480     1.2360    -0.9810 H     1 <1>   0.0800 
 41 H        1.3920     0.9740     0.3800 H     1 <1>   0.0800 
 42 H        2.9770     7.3370     1.4790 H     1 <1>   0.2700 
 43 H       -0.7000     9.9480    -1.3040 H     1 <1>   0.1500 
 44 H        3.3160    10.2120     1.5800 H     1 <1>   0.1500 
 45 H        0.2760    12.1610    -0.7090 H     1 <1>   0.1500 
 46 H        2.2640    12.2830     0.7180 H     1 <1>   0.1500 
@<TRIPOS>BOND
  1   1   2  1   
  2   1   3  1   
  3   2   4  2   
  4   3   5  2   
  5   3   6  1   
  6   4   5  1   
  7   4   7  1   
  8   6   8  1   
  9   6  24  1   
 10   6  25  1   
 11   7   9  1   
 12   7  10  1   
 13   7  26  1   
 14   8  11  1   
 15   8  12  1   
 16   9  27  1   
 17   9  28  1   
 18   9  29  1   
 19  10  30  1   
 20  10  31  1   
 21  10  32  1   
 22  11  13  1   
 23  11  33  1   
 24  11  34  1   
 25  12  14  1   
 26  12  35  1   
 27  12  36  1   
 28  13  15  1   
 29  13  37  1   
 30  13  38  1   
 31  14  39  1   
 32  14  40  1   
 33  14  41  1   
 34  15  16  2   
 35  15  17  1   
 36  16  18  1   
 37  17  19  1   
 38  17  42  1   
 39  18  19  ar  
 40  18  20  ar  
 41  19  21  ar  
 42  20  22  ar  
 43  20  43  1   
 44  21  23  ar  
 45  21  44  1   
 46  22  23  ar  
 47  22  45  1   
 48  23  46  1   
@<TRIPOS>SUBSTRUCTURE
  1 ****  11 GROUP 4 **** **** 0

# MOE 2024.06 (io_trps.svl 2023.06)
