@<TRIPOS>MOLECULE
NONAME
38 39 1 0 0 
SMALL
USER_CHARGES


@<TRIPOS>ATOM
  1 O       -1.2750     0.1830    -2.9520 O.2   1 <1>  -0.5700 
  2 C       -1.7550     0.6320    -1.9320 C.2   1 <1>   0.5440 
  3 N       -2.3690    -0.2340    -1.0510 N.am  1 <1>  -0.6600 
  4 C       -1.6980     2.0560    -1.6960 C.ar  1 <1>   0.0860 
  5 C       -2.0770    -1.7030    -1.1630 C.3   1 <1>   0.3200 
  6 C       -3.2900     0.2560     0.0360 C.3   1 <1>   0.1400 
  7 C       -2.2950     2.9360    -2.5940 C.ar  1 <1>   0.1600 
  8 C       -1.0650     2.6080    -0.5910 C.ar  1 <1>  -0.1500 
  9 C       -3.0970    -2.5970    -0.4800 C.2   1 <1>  -0.3320 
 10 C       -4.6080     0.8120    -0.5400 C.3   1 <1>   0.1200 
 11 N       -2.3450     4.2520    -2.4670 N.ar  1 <1>  -0.6200 
 12 C       -1.0920     3.9780    -0.4370 C.ar  1 <1>  -0.1430 
 13 N       -4.4170    -2.5920    -0.7450 N.pl3 1 <1>   0.0330 
 14 C       -2.9120    -3.5370     0.4730 C.2   1 <1>   0.0770 
 15 O       -5.0110     0.0690    -1.6450 O.3   1 <1>  -0.6800 
 16 C       -1.7410     4.7430    -1.3960 C.ar  1 <1>   0.1600 
 17 C       -0.4150     4.6370     0.7530 C.3   1 <1>  -0.0970 
 18 C       -4.9510    -3.5240     0.0720 C.2   1 <1>   0.0070 
 19 N       -4.0770    -4.1150     0.8180 N.2   1 <1>  -0.5650 
 20 C       -6.4330    -3.8250     0.1050 C.3   1 <1>  -0.0600 
 21 H       -1.1060    -1.8880    -0.7370 H     1 <1>   0.0800 
 22 H       -2.0300    -1.9820    -2.2020 H     1 <1>   0.0800 
 23 H       -2.8070     1.0280     0.6070 H     1 <1>   0.0800 
 24 H       -3.5140    -0.5270     0.7380 H     1 <1>   0.0800 
 25 H       -2.7640     2.5170    -3.4680 H     1 <1>   0.1500 
 26 H       -0.5650     1.9720     0.1190 H     1 <1>   0.1500 
 27 H       -4.4750     1.8320    -0.8590 H     1 <1>   0.0800 
 28 H       -5.3910     0.7820     0.1970 H     1 <1>   0.0800 
 29 H       -4.9210    -1.9530    -1.3740 H     1 <1>   0.2700 
 30 H       -1.9880    -3.8360     0.9400 H     1 <1>   0.1500 
 31 H       -4.2390    -0.0270    -2.2450 H     1 <1>   0.4000 
 32 H       -1.7630     5.8130    -1.2800 H     1 <1>   0.1500 
 33 H       -0.3670     3.9580     1.5860 H     1 <1>   0.0800 
 34 H       -0.9610     5.5110     1.0610 H     1 <1>   0.0800 
 35 H        0.5850     4.9290     0.4880 H     1 <1>   0.0800 
 36 H       -6.9850    -2.9350     0.3450 H     1 <1>   0.0800 
 37 H       -6.6350    -4.5700     0.8540 H     1 <1>   0.0800 
 38 H       -6.7540    -4.1990    -0.8490 H     1 <1>   0.0800 
@<TRIPOS>BOND
  1   1   2  2   
  2   2   3  am  
  3   2   4  1   
  4   3   5  1   
  5   3   6  1   
  6   4   7  ar  
  7   4   8  ar  
  8   5   9  1   
  9   5  21  1   
 10   5  22  1   
 11   6  10  1   
 12   6  23  1   
 13   6  24  1   
 14   7  11  ar  
 15   7  25  1   
 16   8  12  ar  
 17   8  26  1   
 18   9  13  1   
 19   9  14  2   
 20  10  15  1   
 21  10  27  1   
 22  10  28  1   
 23  11  16  ar  
 24  12  16  ar  
 25  12  17  1   
 26  13  18  1   
 27  13  29  1   
 28  14  19  1   
 29  14  30  1   
 30  15  31  1   
 31  16  32  1   
 32  17  33  1   
 33  17  34  1   
 34  17  35  1   
 35  18  19  2   
 36  18  20  1   
 37  20  36  1   
 38  20  37  1   
 39  20  38  1   
@<TRIPOS>SUBSTRUCTURE
  1 ****   3 GROUP 4 **** **** 0

# MOE 2024.06 (io_trps.svl 2023.06)
