@<TRIPOS>MOLECULE
NONAME
45 46 1 0 0 
SMALL
USER_CHARGES


@<TRIPOS>ATOM
  1 S       -0.4480     0.6870    -0.7050 S.o2  1 <1>   1.3330 
  2 O       -0.7610    -0.7020    -0.9560 O.2   1 <1>  -0.6500 
  3 O       -1.2420     1.7050    -1.3540 O.2   1 <1>  -0.6500 
  4 N        1.1820     0.9150    -1.1290 N.am  1 <1>  -0.8490 
  5 C       -0.5180     0.9440     1.0790 C.3   1 <1>  -0.0550 
  6 C        1.3450     1.4670    -2.4820 C.3   1 <1>   0.1160 
  7 C        1.9990    -0.2950    -0.9880 C.3   1 <1>   0.1160 
  8 C       -0.1290     2.3180     1.6850 C.3   1 <1>  -0.0800 
  9 C       -0.8160     3.5210     1.0370 C.3   1 <1>   0.2000 
 10 C        1.3750     2.6380     1.6140 C.3   1 <1>   0.1100 
 11 O       -1.0600     4.4420     2.0390 O.3   1 <1>  -0.6800 
 12 C        0.2690     4.1080     0.1440 C.3   1 <1>   0.1100 
 13 N        1.5200     3.9170     0.8990 N.3   1 <1>  -0.8100 
 14 C        2.7050     3.9060     0.0100 C.3   1 <1>   0.2900 
 15 C        2.7490     5.0900    -0.9490 C.2   1 <1>   0.0060 
 16 N        2.7320     4.9500    -2.2390 N.2   1 <1>  -0.5650 
 17 N        2.8160     6.3830    -0.5430 N.pl3 1 <1>   0.0480 
 18 C        2.7890     6.2120    -2.7000 C.2   1 <1>   0.0770 
 19 C        2.8420     7.0980    -1.6830 C.2   1 <1>  -0.3020 
 20 C        2.8480     6.9340     0.8300 C.3   1 <1>   0.0960 
 21 C        4.2880     7.0250     1.3420 C.3   1 <1>  -0.2400 
 22 H       -1.5290     0.7490     1.3810 H     1 <1>   0.0800 
 23 H        0.0850     0.1930     1.5510 H     1 <1>   0.0800 
 24 H        2.3870     1.6260    -2.7000 H     1 <1>   0.0800 
 25 H        0.8460     2.4180    -2.5640 H     1 <1>   0.0800 
 26 H        0.9260     0.7960    -3.2140 H     1 <1>   0.0800 
 27 H        3.0350    -0.0650    -1.1720 H     1 <1>   0.0800 
 28 H        1.6780    -1.0490    -1.6890 H     1 <1>   0.0800 
 29 H        1.9090    -0.6900     0.0090 H     1 <1>   0.0800 
 30 H       -0.4090     2.2690     2.7230 H     1 <1>   0.0800 
 31 H       -1.7410     3.3060     0.5310 H     1 <1>   0.0800 
 32 H        1.9090     1.8490     1.1150 H     1 <1>   0.0800 
 33 H        1.7820     2.7430     2.6050 H     1 <1>   0.0800 
 34 H       -0.1850     4.7910     2.3100 H     1 <1>   0.4000 
 35 H        0.0890     5.1470    -0.0720 H     1 <1>   0.0800 
 36 H        0.3110     3.5700    -0.7840 H     1 <1>   0.0800 
 37 H        3.5970     3.9070     0.6100 H     1 <1>   0.0800 
 38 H        2.7090     3.0070    -0.5800 H     1 <1>   0.0800 
 39 H        2.7880     6.4210    -3.7570 H     1 <1>   0.1500 
 40 H        2.8940     8.1700    -1.7090 H     1 <1>   0.1500 
 41 H        2.4000     7.9120     0.8160 H     1 <1>   0.0800 
 42 H        2.2620     6.3080     1.4770 H     1 <1>   0.0800 
 43 H        4.8730     7.6610     0.7000 H     1 <1>   0.0800 
 44 H        4.7350     6.0480     1.3770 H     1 <1>   0.0800 
 45 H        4.2960     7.4400     2.3330 H     1 <1>   0.0800 
@<TRIPOS>BOND
  1   1   2  2   
  2   1   3  2   
  3   1   4  am  
  4   1   5  1   
  5   4   6  1   
  6   4   7  1   
  7   5   8  1   
  8   5  22  1   
  9   5  23  1   
 10   6  24  1   
 11   6  25  1   
 12   6  26  1   
 13   7  27  1   
 14   7  28  1   
 15   7  29  1   
 16   8   9  1   
 17   8  10  1   
 18   8  30  1   
 19   9  11  1   
 20   9  12  1   
 21   9  31  1   
 22  10  13  1   
 23  10  32  1   
 24  10  33  1   
 25  11  34  1   
 26  12  13  1   
 27  12  35  1   
 28  12  36  1   
 29  13  14  1   
 30  14  15  1   
 31  14  37  1   
 32  14  38  1   
 33  15  16  2   
 34  15  17  1   
 35  16  18  1   
 36  17  19  1   
 37  17  20  1   
 38  18  19  2   
 39  18  39  1   
 40  19  40  1   
 41  20  21  1   
 42  20  41  1   
 43  20  42  1   
 44  21  43  1   
 45  21  44  1   
 46  21  45  1   
@<TRIPOS>SUBSTRUCTURE
  1 ****  12 GROUP 4 **** **** 0

# MOE 2024.06 (io_trps.svl 2023.06)
