@<TRIPOS>MOLECULE
NONAME
51 53 1 0 0 
SMALL
USER_CHARGES


@<TRIPOS>ATOM
  1 F       -0.9190    -1.1600     2.2120 F     1 <1>  -0.1900 
  2 C       -1.3500    -2.1770     1.5100 C.ar  1 <1>   0.1900 
  3 C       -0.4880    -2.9690     0.7420 C.ar  1 <1>   0.0830 
  4 C       -2.7080    -2.4270     1.5620 C.ar  1 <1>  -0.1500 
  5 O        0.8620    -2.8230     0.6110 O.3   1 <1>  -0.3630 
  6 C       -1.0440    -4.0210     0.0330 C.ar  1 <1>  -0.1500 
  7 C       -3.2300    -3.4840     0.8400 C.ar  1 <1>  -0.1500 
  8 C        1.6000    -1.8380     1.3010 C.3   1 <1>   0.0400 
  9 C       -2.4110    -4.3080     0.0630 C.ar  1 <1>   0.0530 
 10 C       -2.9510    -5.4170    -0.6850 C.2   1 <1>   0.0870 
 11 O       -2.3430    -5.8610    -1.7610 O.3   1 <1>  -0.0190 
 12 C       -4.0530    -6.1880    -0.5220 C.2   1 <1>  -0.2330 
 13 N       -2.9730    -6.8610    -2.3250 N.2   1 <1>  -0.4100 
 14 C       -4.0090    -7.0710    -1.5970 C.2   1 <1>   0.3720 
 15 C       -5.0780    -6.1940     0.4570 C.2   1 <1>   1.0330 
 16 N       -4.9490    -8.0660    -1.8930 N.pl3 1 <1>  -0.8210 
 17 O       -6.0470    -5.4270     0.3660 O.co2 1 <1>  -0.9000 
 18 O       -5.1640    -7.1070     1.2990 O.co2 1 <1>  -0.9000 
 19 C       -6.2960    -7.5550    -2.3150 C.3   1 <1>   0.2090 
 20 C       -4.9310    -9.2370    -0.9570 C.3   1 <1>   0.2090 
 21 C       -7.3960    -7.5490    -1.2200 C.3   1 <1>   0.3430 
 22 C       -6.3160    -9.6320    -0.3990 C.3   1 <1>   0.3430 
 23 N       -7.1370    -8.4360    -0.0290 N.4   1 <1>  -0.9590 
 24 C       -8.2740    -8.6390     0.8890 C.3   1 <1>   0.5030 
 25 C       -9.3400    -9.5120     0.2240 C.3   1 <1>  -0.2400 
 26 C       -7.7690    -9.3110     2.1670 C.3   1 <1>  -0.2400 
 27 C       -8.8670    -7.2790     1.2670 C.3   1 <1>  -0.2400 
 28 H       -3.3490    -1.8020     2.1570 H     1 <1>   0.1500 
 29 H       -0.3930    -4.6380    -0.5590 H     1 <1>   0.1500 
 30 H       -4.2900    -3.6660     0.8780 H     1 <1>   0.1500 
 31 H        2.6370    -1.9560     1.0430 H     1 <1>   0.0800 
 32 H        1.4680    -1.9800     2.3590 H     1 <1>   0.0800 
 33 H        1.2570    -0.8660     0.9950 H     1 <1>   0.0800 
 34 H       -6.6370    -8.1610    -3.1350 H     1 <1>   0.0800 
 35 H       -6.1920    -6.5520    -2.6960 H     1 <1>   0.0800 
 36 H       -4.2800    -9.0200    -0.1260 H     1 <1>   0.0800 
 37 H       -4.5070   -10.0800    -1.4720 H     1 <1>   0.0800 
 38 H       -8.3260    -7.8260    -1.6840 H     1 <1>   0.0800 
 39 H       -7.5130    -6.5350    -0.8740 H     1 <1>   0.0800 
 40 H       -6.1580   -10.2570     0.4610 H     1 <1>   0.0800 
 41 H       -6.8400   -10.2100    -1.1400 H     1 <1>   0.0800 
 42 H       -6.4770    -7.8590     0.5560 H     1 <1>   0.4500 
 43 H       -8.9470   -10.4790    -0.0310 H     1 <1>   0.0800 
 44 H       -9.7330    -9.0430    -0.6590 H     1 <1>   0.0800 
 45 H      -10.1590    -9.6620     0.9050 H     1 <1>   0.0800 
 46 H       -7.4560   -10.3230     1.9950 H     1 <1>   0.0800 
 47 H       -8.5540    -9.3430     2.9010 H     1 <1>   0.0800 
 48 H       -6.9510    -8.7500     2.5860 H     1 <1>   0.0800 
 49 H       -9.3300    -6.7930     0.4290 H     1 <1>   0.0800 
 50 H       -8.1000    -6.6350     1.6660 H     1 <1>   0.0800 
 51 H       -9.6210    -7.3990     2.0240 H     1 <1>   0.0800 
@<TRIPOS>BOND
  1   1   2  1   
  2   2   3  ar  
  3   2   4  ar  
  4   3   5  1   
  5   3   6  ar  
  6   4   7  ar  
  7   4  28  1   
  8   5   8  1   
  9   6   9  ar  
 10   6  29  1   
 11   7   9  ar  
 12   7  30  1   
 13   8  31  1   
 14   8  32  1   
 15   8  33  1   
 16   9  10  1   
 17  10  11  1   
 18  10  12  2   
 19  11  13  1   
 20  12  14  1   
 21  12  15  1   
 22  13  14  2   
 23  14  16  1   
 24  15  17  ar  
 25  15  18  ar  
 26  16  19  1   
 27  16  20  1   
 28  19  21  1   
 29  19  34  1   
 30  19  35  1   
 31  20  22  1   
 32  20  36  1   
 33  20  37  1   
 34  21  23  1   
 35  21  38  1   
 36  21  39  1   
 37  22  23  1   
 38  22  40  1   
 39  22  41  1   
 40  23  24  1   
 41  23  42  1   
 42  24  25  1   
 43  24  26  1   
 44  24  27  1   
 45  25  43  1   
 46  25  44  1   
 47  25  45  1   
 48  26  46  1   
 49  26  47  1   
 50  26  48  1   
 51  27  49  1   
 52  27  50  1   
 53  27  51  1   
@<TRIPOS>SUBSTRUCTURE
  1 ****  12 GROUP 4 **** **** 0

# MOE 2024.06 (io_trps.svl 2023.06)
