@<TRIPOS>MOLECULE
NONAME
61 65 1 0 0 
SMALL
USER_CHARGES


@<TRIPOS>ATOM
  1 O       -1.4400     0.8750     2.5370 O.2   1 <1>  -0.5700 
  2 C       -1.7220     0.8530     1.3520 C.2   1 <1>   0.7160 
  3 N       -2.0370    -0.3540     0.7700 N.am  1 <1>  -0.6600 
  4 C       -1.6790     2.0510     0.5810 C.2   1 <1>  -0.0860 
  5 C       -2.5220    -1.4840     1.6230 C.3   1 <1>   0.3210 
  6 C       -2.0830    -0.5690    -0.7060 C.3   1 <1>   0.0600 
  7 C       -2.7220     2.9620     0.3680 C.2   1 <1>   0.3720 
  8 C       -0.6480     2.5620    -0.1410 C.2   1 <1>   0.0870 
  9 C       -3.7470    -2.1790     1.0300 C.2   1 <1>   0.1080 
 10 N       -2.3350     3.9110    -0.4160 N.2   1 <1>  -0.4100 
 11 N       -4.0130     2.9000     0.9270 N.pl3 1 <1>  -0.8210 
 12 O       -1.0890     3.6510    -0.7120 O.3   1 <1>  -0.0190 
 13 C        0.7010     2.1070    -0.3580 C.ar  1 <1>   0.0530 
 14 N       -4.9440    -1.6600     1.0270 N.2   1 <1>  -0.7070 
 15 C       -3.7300    -3.4340     0.4230 C.2   1 <1>  -0.1810 
 16 C       -5.0120     3.9460     0.5740 C.3   1 <1>   0.2090 
 17 C       -4.6960     1.5830     1.0320 C.3   1 <1>   0.2090 
 18 C        1.4170     1.4270     0.6290 C.ar  1 <1>  -0.1500 
 19 C        1.3410     2.3280    -1.5780 C.ar  1 <1>  -0.1500 
 20 N       -5.7190    -2.5800     0.4180 N.pl3 1 <1>   0.3000 
 21 C       -5.0010    -3.6540     0.0400 C.2   1 <1>  -0.3320 
 22 C       -2.5980    -4.4170     0.1850 C.3   1 <1>   0.0210 
 23 C       -6.2970     3.1940     0.2520 C.3   1 <1>  -0.1600 
 24 C       -6.1840     1.8950     1.0360 C.3   1 <1>  -0.1600 
 25 C        2.7030     0.9730     0.4070 C.ar  1 <1>  -0.1500 
 26 C        2.6280     1.8780    -1.8070 C.ar  1 <1>  -0.1500 
 27 C       -5.5060    -4.8960    -0.6690 C.3   1 <1>   0.0200 
 28 C       -3.1660    -5.8030    -0.1780 C.3   1 <1>  -0.1600 
 29 C        3.3200     1.1940    -0.8210 C.ar  1 <1>   0.0830 
 30 C       -4.3130    -5.7080    -1.2050 C.3   1 <1>  -0.1600 
 31 O        4.5720     0.7810    -1.1230 O.3   1 <1>  -0.3620 
 32 C        5.3820     0.1210    -0.1760 C.3   1 <1>   0.0400 
 33 H       -2.7910    -1.1230     2.6010 H     1 <1>   0.0800 
 34 H       -1.7250    -2.1940     1.7440 H     1 <1>   0.0800 
 35 H       -1.5130     0.1810    -1.2250 H     1 <1>   0.0800 
 36 H       -3.1030    -0.5320    -1.0490 H     1 <1>   0.0800 
 37 H       -1.6700    -1.5330    -0.9460 H     1 <1>   0.0800 
 38 H       -4.7060     4.5490    -0.2640 H     1 <1>   0.0800 
 39 H       -5.1570     4.5820     1.4300 H     1 <1>   0.0800 
 40 H       -4.4090     1.0690     1.9340 H     1 <1>   0.0800 
 41 H       -4.4520     0.9770     0.1770 H     1 <1>   0.0800 
 42 H        0.9640     1.2570     1.5900 H     1 <1>   0.1500 
 43 H        0.8220     2.8580    -2.3570 H     1 <1>   0.1500 
 44 H       -6.7270    -2.4460     0.2800 H     1 <1>   0.2700 
 45 H       -1.9850    -4.4990     1.0640 H     1 <1>   0.0800 
 46 H       -1.9900    -4.0540    -0.6240 H     1 <1>   0.0800 
 47 H       -6.3200     2.9840    -0.8030 H     1 <1>   0.0800 
 48 H       -7.1700     3.7630     0.5180 H     1 <1>   0.0800 
 49 H       -6.5020     2.0470     2.0530 H     1 <1>   0.0800 
 50 H       -6.7550     1.0940     0.6030 H     1 <1>   0.0800 
 51 H        3.2100     0.4530     1.1980 H     1 <1>   0.1500 
 52 H        3.1080     2.0540    -2.7530 H     1 <1>   0.1500 
 53 H       -6.1550    -4.6260    -1.4840 H     1 <1>   0.0800 
 54 H       -6.0660    -5.4930     0.0300 H     1 <1>   0.0800 
 55 H       -3.5410    -6.2700     0.7170 H     1 <1>   0.0800 
 56 H       -2.3760    -6.4220    -0.5660 H     1 <1>   0.0800 
 57 H       -3.9410    -5.2320    -2.0960 H     1 <1>   0.0800 
 58 H       -4.6460    -6.6960    -1.4750 H     1 <1>   0.0800 
 59 H        6.3300    -0.0910    -0.6380 H     1 <1>   0.0800 
 60 H        4.9040    -0.7970     0.1140 H     1 <1>   0.0800 
 61 H        5.5250     0.7680     0.6720 H     1 <1>   0.0800 
@<TRIPOS>BOND
  1   1   2  2   
  2   2   3  am  
  3   2   4  1   
  4   3   5  1   
  5   3   6  1   
  6   4   7  1   
  7   4   8  2   
  8   5   9  1   
  9   5  33  1   
 10   5  34  1   
 11   6  35  1   
 12   6  36  1   
 13   6  37  1   
 14   7  10  2   
 15   7  11  1   
 16   8  12  1   
 17   8  13  1   
 18   9  14  2   
 19   9  15  1   
 20  10  12  1   
 21  11  16  1   
 22  11  17  1   
 23  13  18  ar  
 24  13  19  ar  
 25  14  20  1   
 26  15  21  2   
 27  15  22  1   
 28  16  23  1   
 29  16  38  1   
 30  16  39  1   
 31  17  24  1   
 32  17  40  1   
 33  17  41  1   
 34  18  25  ar  
 35  18  42  1   
 36  19  26  ar  
 37  19  43  1   
 38  20  21  1   
 39  20  44  1   
 40  21  27  1   
 41  22  28  1   
 42  22  45  1   
 43  22  46  1   
 44  23  24  1   
 45  23  47  1   
 46  23  48  1   
 47  24  49  1   
 48  24  50  1   
 49  25  29  ar  
 50  25  51  1   
 51  26  29  ar  
 52  26  52  1   
 53  27  30  1   
 54  27  53  1   
 55  27  54  1   
 56  28  30  1   
 57  28  55  1   
 58  28  56  1   
 59  29  31  1   
 60  30  57  1   
 61  30  58  1   
 62  31  32  1   
 63  32  59  1   
 64  32  60  1   
 65  32  61  1   
@<TRIPOS>SUBSTRUCTURE
  1 ****   3 GROUP 4 **** **** 0

# MOE 2024.06 (io_trps.svl 2023.06)
