@<TRIPOS>MOLECULE
NONAME
21 22 1 0 0 
SMALL
USER_CHARGES


@<TRIPOS>ATOM
  1 S       -0.2090     0.3240    -1.2260 S.o2  1 <1>   1.2860 
  2 O        0.5440    -0.5920    -2.0560 O.2   1 <1>  -0.6500 
  3 O       -0.9100     1.4370    -1.8270 O.2   1 <1>  -0.6500 
  4 C       -1.3910    -0.6340    -0.2450 C.ar  1 <1>  -0.0090 
  5 C        0.8840     0.9800     0.0560 C.3   1 <1>  -0.0770 
  6 C       -2.5590    -0.0850     0.2510 C.ar  1 <1>  -0.1500 
  7 C       -1.1760    -1.9630     0.0840 C.ar  1 <1>  -0.1500 
  8 C        2.3120     1.3690    -0.1980 C.3   1 <1>  -0.2000 
  9 C        2.0000     0.1930     0.6820 C.3   1 <1>  -0.2000 
 10 C       -3.3980    -0.8720     1.0160 C.ar  1 <1>   0.5000 
 11 C       -2.0920    -2.6550     0.8610 C.ar  1 <1>   0.1600 
 12 F       -4.4870    -0.3250     1.4700 F     1 <1>  -0.1900 
 13 N       -3.2070    -2.1360     1.3440 N.ar  1 <1>  -0.6200 
 14 H        0.3590     1.6360     0.7240 H     1 <1>   0.1000 
 15 H       -2.8260     0.9370     0.0480 H     1 <1>   0.1500 
 16 H       -0.2930    -2.4680    -0.2690 H     1 <1>   0.1500 
 17 H        2.6890     2.2730     0.2480 H     1 <1>   0.1000 
 18 H        2.7320     1.1820    -1.1730 H     1 <1>   0.1000 
 19 H        2.2340    -0.7890     0.3060 H     1 <1>   0.1000 
 20 H        2.1720     0.2830     1.7410 H     1 <1>   0.1000 
 21 H       -1.8960    -3.6890     1.0960 H     1 <1>   0.1500 
@<TRIPOS>BOND
  1   1   2  2   
  2   1   3  2   
  3   1   4  1   
  4   1   5  1   
  5   4   6  ar  
  6   4   7  ar  
  7   5   8  1   
  8   5   9  1   
  9   5  14  1   
 10   6  10  ar  
 11   6  15  1   
 12   7  11  ar  
 13   7  16  1   
 14   8   9  1   
 15   8  17  1   
 16   8  18  1   
 17   9  19  1   
 18   9  20  1   
 19  10  12  1   
 20  10  13  ar  
 21  11  13  ar  
 22  11  21  1   
@<TRIPOS>SUBSTRUCTURE
  1 ****   4 GROUP 4 **** **** 0

# MOE 2024.06 (io_trps.svl 2023.06)
