@<TRIPOS>MOLECULE
NONAME
54 56 1 0 0 
SMALL
USER_CHARGES


@<TRIPOS>ATOM
  1 S       -0.4280    -0.4850    -0.5740 S.3   1 <1>  -0.0800 
  2 C       -1.1900    -1.5360     0.6110 C.2   1 <1>  -0.1400 
  3 C       -0.9370     0.9520     0.2970 C.2   1 <1>  -0.1400 
  4 C       -1.7670    -0.8050     1.5840 C.2   1 <1>  -0.1500 
  5 C       -1.0800    -3.0270     0.3850 C.3   1 <1>   0.5230 
  6 C       -1.6260     0.6070     1.4020 C.2   1 <1>  -0.1500 
  7 C       -0.5320     2.2880    -0.3030 C.3   1 <1>   0.0200 
  8 N       -2.2620    -3.4900    -0.3910 N.4   1 <1>  -0.9590 
  9 C       -1.0260     3.4720     0.5320 C.3   1 <1>  -0.2400 
 10 C       -2.3740    -4.9880    -0.4310 C.3   1 <1>   0.5660 
 11 C       -2.3440    -2.8850    -1.7620 C.3   1 <1>   0.3430 
 12 C       -1.0400    -5.6010    -0.8660 C.ar  1 <1>  -0.1430 
 13 C       -3.5830    -5.4630    -1.2940 C.3   1 <1>   0.2000 
 14 C       -3.4920    -3.4870    -2.6040 C.3   1 <1>   0.1200 
 15 C       -0.2460    -6.1860     0.1120 C.ar  1 <1>  -0.1500 
 16 C       -0.5860    -5.5980    -2.1810 C.ar  1 <1>  -0.1500 
 17 O       -4.2790    -4.3700    -1.8510 O.3   1 <1>  -0.5600 
 18 C       -4.5960    -6.2630    -0.4640 C.3   1 <1>   0.1200 
 19 C        0.9850    -6.7350    -0.2000 C.ar  1 <1>   0.0830 
 20 C        0.6490    -6.1360    -2.5000 C.ar  1 <1>  -0.1500 
 21 O       -3.9230    -7.1300     0.3890 O.3   1 <1>  -0.6800 
 22 O        1.6800    -7.3020     0.8150 O.3   1 <1>  -0.3630 
 23 C        1.4510    -6.6870    -1.5170 C.ar  1 <1>   0.0830 
 24 C        1.9000    -8.6940     0.7310 C.3   1 <1>   0.0400 
 25 O        2.6620    -7.1610    -1.8960 O.3   1 <1>  -0.3630 
 26 C        3.7980    -6.5200    -1.3560 C.3   1 <1>   0.0400 
 27 H       -2.2950    -1.1850     2.4430 H     1 <1>   0.1500 
 28 H       -1.0560    -3.5240     1.3410 H     1 <1>   0.0800 
 29 H       -0.1650    -3.2550    -0.1380 H     1 <1>   0.0800 
 30 H       -2.0480     1.2950     2.1140 H     1 <1>   0.1500 
 31 H        0.5410     2.3280    -0.3750 H     1 <1>   0.0800 
 32 H       -0.9350     2.3630    -1.2980 H     1 <1>   0.0800 
 33 H       -3.1030    -3.1650     0.0980 H     1 <1>   0.4500 
 34 H       -0.6130     3.4270     1.5240 H     1 <1>   0.0800 
 35 H       -2.0990     3.4610     0.5990 H     1 <1>   0.0800 
 36 H       -0.7200     4.3970     0.0760 H     1 <1>   0.0800 
 37 H       -2.5500    -5.3320     0.5750 H     1 <1>   0.0800 
 38 H       -2.5010    -1.8210    -1.6790 H     1 <1>   0.0800 
 39 H       -1.4130    -3.0280    -2.2850 H     1 <1>   0.0800 
 40 H       -3.2460    -6.0890    -2.1010 H     1 <1>   0.0800 
 41 H       -3.1070    -4.0140    -3.4600 H     1 <1>   0.0800 
 42 H       -4.1340    -2.7010    -2.9630 H     1 <1>   0.0800 
 43 H       -0.5700    -6.2380     1.1380 H     1 <1>   0.1500 
 44 H       -1.1730    -5.1870    -2.9810 H     1 <1>   0.1500 
 45 H       -5.2300    -6.8440    -1.1110 H     1 <1>   0.0800 
 46 H       -5.1980    -5.6060     0.1410 H     1 <1>   0.0800 
 47 H        1.0050    -6.1320    -3.5160 H     1 <1>   0.1500 
 48 H       -4.5470    -7.7670     0.8010 H     1 <1>   0.4000 
 49 H        2.3670    -9.0170     1.6430 H     1 <1>   0.0800 
 50 H        2.5450    -8.9060    -0.1030 H     1 <1>   0.0800 
 51 H        0.9540    -9.1900     0.6050 H     1 <1>   0.0800 
 52 H        4.6720    -6.9370    -1.8240 H     1 <1>   0.0800 
 53 H        3.8380    -6.6910    -0.2960 H     1 <1>   0.0800 
 54 H        3.7360    -5.4670    -1.5640 H     1 <1>   0.0800 
@<TRIPOS>BOND
  1   1   2  1   
  2   1   3  1   
  3   2   4  2   
  4   2   5  1   
  5   3   6  2   
  6   3   7  1   
  7   4   6  1   
  8   4  27  1   
  9   5   8  1   
 10   5  28  1   
 11   5  29  1   
 12   6  30  1   
 13   7   9  1   
 14   7  31  1   
 15   7  32  1   
 16   8  10  1   
 17   8  11  1   
 18   8  33  1   
 19   9  34  1   
 20   9  35  1   
 21   9  36  1   
 22  10  12  1   
 23  10  13  1   
 24  10  37  1   
 25  11  14  1   
 26  11  38  1   
 27  11  39  1   
 28  12  15  ar  
 29  12  16  ar  
 30  13  17  1   
 31  13  18  1   
 32  13  40  1   
 33  14  17  1   
 34  14  41  1   
 35  14  42  1   
 36  15  19  ar  
 37  15  43  1   
 38  16  20  ar  
 39  16  44  1   
 40  18  21  1   
 41  18  45  1   
 42  18  46  1   
 43  19  22  1   
 44  19  23  ar  
 45  20  23  ar  
 46  20  47  1   
 47  21  48  1   
 48  22  24  1   
 49  23  25  1   
 50  24  49  1   
 51  24  50  1   
 52  24  51  1   
 53  25  26  1   
 54  26  52  1   
 55  26  53  1   
 56  26  54  1   
@<TRIPOS>SUBSTRUCTURE
  1 ****   5 GROUP 4 **** **** 0

# MOE 2024.06 (io_trps.svl 2023.06)
