@<TRIPOS>MOLECULE
NONAME
51 52 1 0 0 
SMALL
USER_CHARGES


@<TRIPOS>ATOM
  1 O       -0.4860    -0.7630    -0.7970 O.2   1 <1>  -0.5700 
  2 C       -1.2910     0.0420    -0.3890 C.2   1 <1>   0.5690 
  3 N       -2.6330    -0.1130    -0.6830 N.am  1 <1>  -0.6600 
  4 C       -0.6950     1.2020     0.4310 C.3   1 <1>   0.2610 
  5 C       -3.1220    -1.4780    -1.0870 C.3   1 <1>   0.3210 
  6 C       -3.6930     0.8730    -0.2960 C.3   1 <1>   0.1400 
  7 O       -1.5770     1.7200     1.4190 O.3   1 <1>  -0.2170 
  8 C       -0.3080     2.4250    -0.3960 C.3   1 <1>  -0.0990 
  9 C       -4.0070    -2.0930    -0.0020 C.2   1 <1>   0.0460 
 10 C       -4.8840     0.9270    -1.2710 C.3   1 <1>   0.3430 
 11 N       -1.6890     3.0350     1.3410 N.2   1 <1>  -0.5130 
 12 C       -1.0100     3.4930     0.3880 C.2   1 <1>   0.3280 
 13 N       -5.3390    -1.8570     0.0590 N.2   1 <1>  -0.5650 
 14 C       -3.6200    -2.9240     0.9930 C.2   1 <1>  -0.3320 
 15 N       -6.0260     1.7290    -0.7180 N.4   1 <1>  -0.9590 
 16 C       -0.8610     4.9570    -0.0370 C.3   1 <1>  -0.0190 
 17 C       -5.7280    -2.5640     1.0720 C.2   1 <1>   0.0360 
 18 N       -4.7310    -3.2330     1.6850 N.pl3 1 <1>   0.0330 
 19 C       -2.2470    -3.4680     1.3570 C.3   1 <1>  -0.0600 
 20 C       -6.7040     0.9700     0.3840 C.3   1 <1>   0.2630 
 21 C       -7.0080     2.0500    -1.7960 C.3   1 <1>   0.2630 
 22 C        0.5540     5.4780     0.2580 C.3   1 <1>  -0.2400 
 23 C       -1.8920     5.8710     0.6450 C.3   1 <1>  -0.2400 
 24 H        0.1670     0.8380     0.9600 H     1 <1>   0.0800 
 25 H       -2.2980    -2.1450    -1.2670 H     1 <1>   0.0800 
 26 H       -3.6720    -1.4170    -2.0080 H     1 <1>   0.0800 
 27 H       -3.2740     1.8590    -0.2750 H     1 <1>   0.0800 
 28 H       -4.0290     0.6190     0.6940 H     1 <1>   0.0800 
 29 H       -0.6840     2.3650    -1.4010 H     1 <1>   0.0800 
 30 H        0.7580     2.5570    -0.4040 H     1 <1>   0.0800 
 31 H       -5.2300    -0.0710    -1.4790 H     1 <1>   0.0800 
 32 H       -4.5450     1.3660    -2.1940 H     1 <1>   0.0800 
 33 H       -5.6530     2.6090    -0.3290 H     1 <1>   0.4500 
 34 H       -1.0280     5.0110    -1.0990 H     1 <1>   0.0800 
 35 H       -6.7460    -2.6350     1.4140 H     1 <1>   0.1500 
 36 H       -4.8050    -3.8530     2.4980 H     1 <1>   0.2700 
 37 H       -1.4900    -3.0630     0.7090 H     1 <1>   0.0800 
 38 H       -2.2350    -4.5400     1.2640 H     1 <1>   0.0800 
 39 H       -1.9990    -3.2030     2.3690 H     1 <1>   0.0800 
 40 H       -7.0790     0.0300     0.0120 H     1 <1>   0.0800 
 41 H       -7.5270     1.5390     0.7830 H     1 <1>   0.0800 
 42 H       -6.0110     0.7620     1.1820 H     1 <1>   0.0800 
 43 H       -7.4130     1.1420    -2.2150 H     1 <1>   0.0800 
 44 H       -6.5320     2.6110    -2.5830 H     1 <1>   0.0800 
 45 H       -7.8200     2.6380    -1.3990 H     1 <1>   0.0800 
 46 H        0.7650     5.4080     1.3110 H     1 <1>   0.0800 
 47 H        0.6440     6.5080    -0.0410 H     1 <1>   0.0800 
 48 H        1.2920     4.9100    -0.2790 H     1 <1>   0.0800 
 49 H       -1.7540     5.8610     1.7130 H     1 <1>   0.0800 
 50 H       -2.8900     5.5330     0.4300 H     1 <1>   0.0800 
 51 H       -1.7910     6.8830     0.2950 H     1 <1>   0.0800 
@<TRIPOS>BOND
  1   1   2  2   
  2   2   3  am  
  3   2   4  1   
  4   3   5  1   
  5   3   6  1   
  6   4   7  1   
  7   4   8  1   
  8   4  24  1   
  9   5   9  1   
 10   5  25  1   
 11   5  26  1   
 12   6  10  1   
 13   6  27  1   
 14   6  28  1   
 15   7  11  1   
 16   8  12  1   
 17   8  29  1   
 18   8  30  1   
 19   9  13  1   
 20   9  14  2   
 21  10  15  1   
 22  10  31  1   
 23  10  32  1   
 24  11  12  2   
 25  12  16  1   
 26  13  17  2   
 27  14  18  1   
 28  14  19  1   
 29  15  20  1   
 30  15  21  1   
 31  15  33  1   
 32  16  22  1   
 33  16  23  1   
 34  16  34  1   
 35  17  18  1   
 36  17  35  1   
 37  18  36  1   
 38  19  37  1   
 39  19  38  1   
 40  19  39  1   
 41  20  40  1   
 42  20  41  1   
 43  20  42  1   
 44  21  43  1   
 45  21  44  1   
 46  21  45  1   
 47  22  46  1   
 48  22  47  1   
 49  22  48  1   
 50  23  49  1   
 51  23  50  1   
 52  23  51  1   
@<TRIPOS>SUBSTRUCTURE
  1 ****   6 GROUP 4 **** **** 0

# MOE 2024.06 (io_trps.svl 2023.06)
