@<TRIPOS>MOLECULE
NONAME
60 63 1 0 0 
SMALL
USER_CHARGES


@<TRIPOS>ATOM
  1 O       -0.2640     0.1730    -0.2060 O.2   1 <1>  -0.5700 
  2 C        0.7060    -0.5150    -0.4660 C.2   1 <1>   0.5440 
  3 N        0.5070    -1.8150    -0.8900 N.am  1 <1>  -0.6600 
  4 C        2.0320     0.0630    -0.3410 C.ar  1 <1>   0.0860 
  5 C        1.5110    -2.5920    -1.6680 C.3   1 <1>   0.1400 
  6 C       -0.8120    -2.4860    -0.7290 C.3   1 <1>   0.1400 
  7 C        3.0460    -0.5760     0.3690 C.ar  1 <1>  -0.1500 
  8 C        2.3310     1.2920    -0.9280 C.ar  1 <1>  -0.1500 
  9 C        1.7220    -3.9610    -1.0170 C.3   1 <1>  -0.1600 
 10 C       -0.6160    -3.8610    -0.0830 C.3   1 <1>  -0.1600 
 11 C        4.3130    -0.0300     0.4770 C.ar  1 <1>   0.0820 
 12 C        3.5920     1.8510    -0.8270 C.ar  1 <1>  -0.1500 
 13 C        0.3900    -4.7240    -0.8670 C.3   1 <1>  -0.0190 
 14 O        5.2260    -0.7420     1.1830 O.3   1 <1>  -0.3630 
 15 C        4.5880     1.1930    -0.1280 C.ar  1 <1>  -0.1500 
 16 C        0.5730    -6.0940    -0.2050 C.2   1 <1>   0.5690 
 17 C        6.5300    -0.2510     1.4040 C.3   1 <1>   0.0400 
 18 O        1.3820    -6.2090     0.6860 O.2   1 <1>  -0.5700 
 19 N       -0.1770    -7.1680    -0.6060 N.am  1 <1>  -0.6600 
 20 C       -1.3490    -7.1680    -1.5190 C.3   1 <1>   0.1400 
 21 C       -0.0250    -8.5070     0.0190 C.3   1 <1>   0.1400 
 22 C       -2.2060    -8.3300    -1.0230 C.3   1 <1>   0.2000 
 23 C       -1.1740    -9.3550    -0.5420 C.3   1 <1>  -0.0800 
 24 O       -2.9510    -7.8790     0.0560 O.3   1 <1>  -0.6800 
 25 C       -1.7040   -10.4160     0.4400 C.3   1 <1>  -0.0170 
 26 C       -0.6240   -11.4310     0.7780 C.ar  1 <1>  -0.1430 
 27 C       -0.3600   -12.5100    -0.0420 C.ar  1 <1>  -0.1500 
 28 C        0.1500   -11.3280     1.9170 C.ar  1 <1>  -0.1500 
 29 C        0.6380   -13.4060     0.3050 C.ar  1 <1>   0.1600 
 30 C        1.1250   -12.2790     2.1700 C.ar  1 <1>   0.1600 
 31 N        1.3890   -13.3150     1.3900 N.ar  1 <1>  -0.6200 
 32 H        1.1430    -2.7210    -2.6720 H     1 <1>   0.0800 
 33 H        2.4480    -2.0680    -1.7290 H     1 <1>   0.0800 
 34 H       -1.4640    -1.8940    -0.1100 H     1 <1>   0.0800 
 35 H       -1.2720    -2.5890    -1.6960 H     1 <1>   0.0800 
 36 H        2.8420    -1.5150     0.8500 H     1 <1>   0.1500 
 37 H        1.5550     1.8090    -1.4650 H     1 <1>   0.1500 
 38 H        2.4040    -4.5390    -1.6150 H     1 <1>   0.0800 
 39 H        2.1760    -3.8200    -0.0510 H     1 <1>   0.0800 
 40 H       -0.2620    -3.7220     0.9250 H     1 <1>   0.0800 
 41 H       -1.5660    -4.3610    -0.0260 H     1 <1>   0.0800 
 42 H        3.7970     2.8010    -1.2910 H     1 <1>   0.1500 
 43 H        0.0050    -4.8780    -1.8580 H     1 <1>   0.0800 
 44 H        5.5600     1.6440    -0.0640 H     1 <1>   0.1500 
 45 H        7.0600    -0.9710     2.0030 H     1 <1>   0.0800 
 46 H        6.4660     0.6850     1.9300 H     1 <1>   0.0800 
 47 H        7.0240    -0.1300     0.4570 H     1 <1>   0.0800 
 48 H       -1.8940    -6.2410    -1.4940 H     1 <1>   0.0800 
 49 H       -1.0110    -7.3640    -2.5220 H     1 <1>   0.0800 
 50 H        0.9340    -8.9340    -0.2230 H     1 <1>   0.0800 
 51 H       -0.1060    -8.4060     1.0880 H     1 <1>   0.0800 
 52 H       -2.8800    -8.7130    -1.7700 H     1 <1>   0.0800 
 53 H       -0.7960    -9.8640    -1.4120 H     1 <1>   0.0800 
 54 H       -2.3470    -7.4420     0.6910 H     1 <1>   0.4000 
 55 H       -2.5440   -10.9230     0.0000 H     1 <1>   0.0800 
 56 H       -2.0520    -9.9490     1.3460 H     1 <1>   0.0800 
 57 H       -0.9200   -12.6640    -0.9450 H     1 <1>   0.1500 
 58 H        0.0070   -10.5200     2.6100 H     1 <1>   0.1500 
 59 H        0.8300   -14.2410    -0.3470 H     1 <1>   0.1500 
 60 H        1.7200   -12.1810     3.0620 H     1 <1>   0.1500 
@<TRIPOS>BOND
  1   1   2  2   
  2   2   3  am  
  3   2   4  1   
  4   3   5  1   
  5   3   6  1   
  6   4   7  ar  
  7   4   8  ar  
  8   5   9  1   
  9   5  32  1   
 10   5  33  1   
 11   6  10  1   
 12   6  34  1   
 13   6  35  1   
 14   7  11  ar  
 15   7  36  1   
 16   8  12  ar  
 17   8  37  1   
 18   9  13  1   
 19   9  38  1   
 20   9  39  1   
 21  10  13  1   
 22  10  40  1   
 23  10  41  1   
 24  11  14  1   
 25  11  15  ar  
 26  12  15  ar  
 27  12  42  1   
 28  13  16  1   
 29  13  43  1   
 30  14  17  1   
 31  15  44  1   
 32  16  18  2   
 33  16  19  am  
 34  17  45  1   
 35  17  46  1   
 36  17  47  1   
 37  19  20  1   
 38  19  21  1   
 39  20  22  1   
 40  20  48  1   
 41  20  49  1   
 42  21  23  1   
 43  21  50  1   
 44  21  51  1   
 45  22  23  1   
 46  22  24  1   
 47  22  52  1   
 48  23  25  1   
 49  23  53  1   
 50  24  54  1   
 51  25  26  1   
 52  25  55  1   
 53  25  56  1   
 54  26  27  ar  
 55  26  28  ar  
 56  27  29  ar  
 57  27  57  1   
 58  28  30  ar  
 59  28  58  1   
 60  29  31  ar  
 61  29  59  1   
 62  30  31  ar  
 63  30  60  1   
@<TRIPOS>SUBSTRUCTURE
  1 ****  16 GROUP 4 **** **** 0

# MOE 2024.06 (io_trps.svl 2023.06)
