@<TRIPOS>MOLECULE
NONAME
54 57 1 0 0 
SMALL
USER_CHARGES


@<TRIPOS>ATOM
  1 O       -3.0490     0.7450    -1.7020 O.2   1 <1>  -0.5700 
  2 C       -2.4100     0.6950    -0.6770 C.2   1 <1>   0.5690 
  3 N       -2.0980    -0.4940    -0.1040 N.am  1 <1>  -0.7300 
  4 C       -1.9640     1.9850     0.0120 C.3   1 <1>  -0.0190 
  5 C       -2.5280    -1.8040    -0.6380 C.3   1 <1>   0.2200 
  6 C       -3.1830     2.6610     0.6720 C.3   1 <1>  -0.1600 
  7 C       -1.1960     2.8900    -0.9760 C.3   1 <1>  -0.1600 
  8 C       -3.8720    -2.1660    -0.0310 C.3   1 <1>  -0.0800 
  9 C       -1.6320    -2.9140    -0.1030 C.3   1 <1>   0.1200 
 10 C       -2.8950     3.9840     1.3990 C.3   1 <1>  -0.1600 
 11 C       -0.3940     4.0010    -0.2800 C.3   1 <1>  -0.1600 
 12 C       -3.4690    -2.8330     1.2880 C.3   1 <1>   0.1200 
 13 C       -4.6690    -3.1100    -0.9510 C.3   1 <1>  -0.0170 
 14 O       -2.1430    -3.2590     1.1490 O.3   1 <1>  -0.5600 
 15 C       -2.6370     5.1420     0.4250 C.3   1 <1>  -0.1600 
 16 C       -1.1750     5.2980    -0.0210 C.3   1 <1>  -0.1600 
 17 C       -6.0720    -3.3640    -0.4090 C.ar  1 <1>  -0.1440 
 18 C       -7.1000    -2.3950    -0.4950 C.ar  1 <1>   0.0000 
 19 C       -6.3740    -4.5540     0.1840 C.ar  1 <1>  -0.1500 
 20 C       -8.3620    -2.7260     0.0570 C.ar  1 <1>   0.3100 
 21 C       -6.9540    -1.1220    -1.0960 C.ar  1 <1>  -0.1500 
 22 C       -7.6580    -4.7820     0.6920 C.ar  1 <1>   0.1600 
 23 N       -8.6240    -3.9200     0.6460 N.ar  1 <1>  -0.6200 
 24 C       -9.3990    -1.7810    -0.0030 C.ar  1 <1>  -0.1500 
 25 C       -7.9860    -0.2250    -1.1390 C.ar  1 <1>  -0.1500 
 26 C       -9.2250    -0.5550    -0.5850 C.ar  1 <1>  -0.1500 
 27 H       -1.6410    -0.5320     0.8090 H     1 <1>   0.3700 
 28 H       -1.2820     1.7060     0.7950 H     1 <1>   0.0800 
 29 H       -2.5420    -1.7730    -1.7150 H     1 <1>   0.0800 
 30 H       -3.9410     2.8250    -0.0760 H     1 <1>   0.0800 
 31 H       -3.5980     1.9700     1.3850 H     1 <1>   0.0800 
 32 H       -0.4960     2.2700    -1.5090 H     1 <1>   0.0800 
 33 H       -1.8680     3.3050    -1.7080 H     1 <1>   0.0800 
 34 H       -4.4580    -1.2850     0.1590 H     1 <1>   0.0800 
 35 H       -0.6050    -2.6090    -0.0050 H     1 <1>   0.0800 
 36 H       -1.6940    -3.7850    -0.7300 H     1 <1>   0.0800 
 37 H       -3.7690     4.2310     1.9770 H     1 <1>   0.0800 
 38 H       -2.0770     3.8750     2.0910 H     1 <1>   0.0800 
 39 H        0.0030     3.6310     0.6500 H     1 <1>   0.0800 
 40 H        0.4530     4.2500    -0.8960 H     1 <1>   0.0800 
 41 H       -4.0840    -3.6800     1.5360 H     1 <1>   0.0800 
 42 H       -3.4980    -2.1230     2.0950 H     1 <1>   0.0800 
 43 H       -4.1450    -4.0450    -1.0540 H     1 <1>   0.0800 
 44 H       -4.7460    -2.6860    -1.9370 H     1 <1>   0.0800 
 45 H       -3.2630     5.0250    -0.4430 H     1 <1>   0.0800 
 46 H       -2.9350     6.0620     0.8970 H     1 <1>   0.0800 
 47 H       -0.6440     5.8600     0.7280 H     1 <1>   0.0800 
 48 H       -1.1670     5.8910    -0.9190 H     1 <1>   0.0800 
 49 H       -5.6460    -5.3390     0.2790 H     1 <1>   0.1500 
 50 H       -6.0120    -0.8430    -1.5330 H     1 <1>   0.1500 
 51 H       -7.8540    -5.7360     1.1530 H     1 <1>   0.1500 
 52 H      -10.3430    -2.0580     0.4280 H     1 <1>   0.1500 
 53 H       -7.8570     0.7410    -1.5980 H     1 <1>   0.1500 
 54 H      -10.0290     0.1590    -0.6240 H     1 <1>   0.1500 
@<TRIPOS>BOND
  1   1   2  2   
  2   2   3  am  
  3   2   4  1   
  4   3   5  1   
  5   3  27  1   
  6   4   6  1   
  7   4   7  1   
  8   4  28  1   
  9   5   8  1   
 10   5   9  1   
 11   5  29  1   
 12   6  10  1   
 13   6  30  1   
 14   6  31  1   
 15   7  11  1   
 16   7  32  1   
 17   7  33  1   
 18   8  12  1   
 19   8  13  1   
 20   8  34  1   
 21   9  14  1   
 22   9  35  1   
 23   9  36  1   
 24  10  15  1   
 25  10  37  1   
 26  10  38  1   
 27  11  16  1   
 28  11  39  1   
 29  11  40  1   
 30  12  14  1   
 31  12  41  1   
 32  12  42  1   
 33  13  17  1   
 34  13  43  1   
 35  13  44  1   
 36  15  16  1   
 37  15  45  1   
 38  15  46  1   
 39  16  47  1   
 40  16  48  1   
 41  17  18  ar  
 42  17  19  ar  
 43  18  20  ar  
 44  18  21  ar  
 45  19  22  ar  
 46  19  49  1   
 47  20  23  ar  
 48  20  24  ar  
 49  21  25  ar  
 50  21  50  1   
 51  22  23  ar  
 52  22  51  1   
 53  24  26  ar  
 54  24  52  1   
 55  25  26  ar  
 56  25  53  1   
 57  26  54  1   
@<TRIPOS>SUBSTRUCTURE
  1 ****   8 GROUP 4 **** **** 0

# MOE 2024.06 (io_trps.svl 2023.06)
