@<TRIPOS>MOLECULE
NONAME
54 57 1 0 0 
SMALL
USER_CHARGES


@<TRIPOS>ATOM
  1 O       -1.7590     0.1710     1.5880 O.3   1 <1>  -0.3630 
  2 C       -2.3800     0.6470     0.4800 C.ar  1 <1>   0.0830 
  3 C       -1.2100     1.0190     2.5710 C.3   1 <1>   0.0400 
  4 C       -2.9480    -0.2870    -0.3940 C.ar  1 <1>   0.0000 
  5 C       -2.4600     2.0090     0.1950 C.ar  1 <1>  -0.1500 
  6 C       -2.8850    -1.7020    -0.1190 C.ar  1 <1>   0.6200 
  7 C       -3.5800     0.1830    -1.5460 C.ar  1 <1>  -0.1500 
  8 C       -3.0950     2.4490    -0.9510 C.ar  1 <1>  -0.1500 
  9 N       -1.9480    -2.4110    -0.7560 N.ar  1 <1>  -0.6200 
 10 N       -3.7790    -2.2100     0.7330 N.ar  1 <1>  -0.6200 
 11 C       -3.6550     1.5340    -1.8240 C.ar  1 <1>  -0.1500 
 12 C       -1.8760    -3.6860    -0.4740 C.ar  1 <1>   0.1600 
 13 C       -3.6860    -3.4870     1.0010 C.ar  1 <1>   0.1600 
 14 C       -2.7400    -4.2890     0.4090 C.ar  1 <1>  -0.1430 
 15 C       -2.6630    -5.7640     0.7290 C.3   1 <1>   0.4860 
 16 N       -3.2810    -6.5680    -0.3720 N.4   1 <1>  -0.9590 
 17 C       -4.7210    -6.2230    -0.5870 C.3   1 <1>   0.3430 
 18 C       -3.2790    -8.0200    -0.0140 C.3   1 <1>   0.3430 
 19 C       -5.5010    -7.0910     0.4030 C.3   1 <1>   0.2000 
 20 C       -4.6990    -8.3930     0.4530 C.3   1 <1>  -0.0800 
 21 O       -5.4460    -6.4940     1.6590 O.3   1 <1>  -0.6800 
 22 C       -5.3160    -9.4770    -0.4510 C.3   1 <1>   0.0210 
 23 C       -4.5430   -10.7790    -0.3620 C.2   1 <1>   0.1080 
 24 N       -3.3020   -10.8900    -0.7240 N.2   1 <1>  -0.7070 
 25 C       -5.0650   -11.9790     0.1050 C.2   1 <1>  -0.1500 
 26 N       -3.0000   -12.1890    -0.5060 N.pl3 1 <1>   0.3000 
 27 C       -4.0520   -12.8630     0.0010 C.2   1 <1>  -0.3320 
 28 C       -4.0260   -14.3390     0.3570 C.3   1 <1>  -0.0600 
 29 H       -0.8050     0.4030     3.3530 H     1 <1>   0.0800 
 30 H       -1.9900     1.6460     2.9650 H     1 <1>   0.0800 
 31 H       -0.4270     1.6070     2.1260 H     1 <1>   0.0800 
 32 H       -2.0320     2.7410     0.8520 H     1 <1>   0.1500 
 33 H       -4.0150    -0.5250    -2.2270 H     1 <1>   0.1500 
 34 H       -3.1530     3.5020    -1.1660 H     1 <1>   0.1500 
 35 H       -4.1480     1.8760    -2.7180 H     1 <1>   0.1500 
 36 H       -1.1040    -4.2530    -0.9680 H     1 <1>   0.1500 
 37 H       -4.3900    -3.8950     1.7090 H     1 <1>   0.1500 
 38 H       -3.1760    -5.9540     1.6580 H     1 <1>   0.0800 
 39 H       -1.6310    -6.0480     0.8560 H     1 <1>   0.0800 
 40 H       -2.7490    -6.4110    -1.2370 H     1 <1>   0.4500 
 41 H       -4.9290    -5.1760    -0.4430 H     1 <1>   0.0800 
 42 H       -5.0060    -6.4990    -1.5890 H     1 <1>   0.0800 
 43 H       -3.0190    -8.6020    -0.8830 H     1 <1>   0.0800 
 44 H       -2.5590    -8.2340     0.7600 H     1 <1>   0.0800 
 45 H       -6.5350    -7.2120     0.1230 H     1 <1>   0.0800 
 46 H       -4.6610    -8.7860     1.4550 H     1 <1>   0.0800 
 47 H       -6.0670    -6.9280     2.2840 H     1 <1>   0.4000 
 48 H       -5.3260    -9.1580    -1.4790 H     1 <1>   0.0800 
 49 H       -6.3330    -9.6640    -0.1540 H     1 <1>   0.0800 
 50 H       -6.0650   -12.1490     0.4640 H     1 <1>   0.1500 
 51 H       -2.0760   -12.5890    -0.7150 H     1 <1>   0.2700 
 52 H       -4.9830   -14.6450     0.7400 H     1 <1>   0.0800 
 53 H       -3.2800   -14.5300     1.1090 H     1 <1>   0.0800 
 54 H       -3.8030   -14.9290    -0.5150 H     1 <1>   0.0800 
@<TRIPOS>BOND
  1   1   2  1   
  2   1   3  1   
  3   2   4  ar  
  4   2   5  ar  
  5   3  29  1   
  6   3  30  1   
  7   3  31  1   
  8   4   6  1   
  9   4   7  ar  
 10   5   8  ar  
 11   5  32  1   
 12   6   9  ar  
 13   6  10  ar  
 14   7  11  ar  
 15   7  33  1   
 16   8  11  ar  
 17   8  34  1   
 18   9  12  ar  
 19  10  13  ar  
 20  11  35  1   
 21  12  14  ar  
 22  12  36  1   
 23  13  14  ar  
 24  13  37  1   
 25  14  15  1   
 26  15  16  1   
 27  15  38  1   
 28  15  39  1   
 29  16  17  1   
 30  16  18  1   
 31  16  40  1   
 32  17  19  1   
 33  17  41  1   
 34  17  42  1   
 35  18  20  1   
 36  18  43  1   
 37  18  44  1   
 38  19  20  1   
 39  19  21  1   
 40  19  45  1   
 41  20  22  1   
 42  20  46  1   
 43  21  47  1   
 44  22  23  1   
 45  22  48  1   
 46  22  49  1   
 47  23  24  2   
 48  23  25  1   
 49  24  26  1   
 50  25  27  2   
 51  25  50  1   
 52  26  27  1   
 53  26  51  1   
 54  27  28  1   
 55  28  52  1   
 56  28  53  1   
 57  28  54  1   
@<TRIPOS>SUBSTRUCTURE
  1 ****  14 GROUP 4 **** **** 0

# MOE 2024.06 (io_trps.svl 2023.06)
