@<TRIPOS>MOLECULE
NONAME
40 41 1 0 0 
SMALL
USER_CHARGES


@<TRIPOS>ATOM
  1 N       -0.4950    -0.2440     0.2370 N.ar  1 <1>  -0.6200 
  2 C       -1.5040    -1.0970     0.2940 C.ar  1 <1>   0.4100 
  3 C        0.6720    -0.8300     0.4740 C.ar  1 <1>   0.1600 
  4 N       -2.7840    -0.5620     0.0710 N.pl3 1 <1>  -0.8380 
  5 C       -1.3340    -2.4920     0.5780 C.ar  1 <1>   0.4100 
  6 C        0.8320    -2.1770     0.7470 C.ar  1 <1>   0.1600 
  7 C       -2.9090     0.4890    -0.9760 C.3   1 <1>   0.1290 
  8 C       -3.5470    -0.2500     1.3060 C.3   1 <1>   0.1290 
  9 N       -0.1610    -3.0550     0.8050 N.ar  1 <1>  -0.6200 
 10 N       -2.4440    -3.3280     0.6140 N.pl3 1 <1>  -0.8690 
 11 C       -2.3250    -4.7200     0.1490 C.3   1 <1>   0.2090 
 12 C       -3.7100    -5.3580     0.1460 C.3   1 <1>  -0.1600 
 13 C       -3.6250    -6.8150    -0.2950 C.3   1 <1>   0.2090 
 14 N       -4.9860    -7.3910    -0.3010 N.pl3 1 <1>  -0.8690 
 15 C       -5.1370    -8.7720    -0.1560 C.ar  1 <1>   0.1000 
 16 C       -6.0730    -9.3210     0.7250 C.ar  1 <1>   0.1600 
 17 C       -4.3650    -9.6550    -0.8930 C.ar  1 <1>  -0.1500 
 18 N       -6.2800   -10.6120     0.9330 N.ar  1 <1>  -0.6200 
 19 C       -4.5640   -11.0040    -0.6940 C.ar  1 <1>  -0.1500 
 20 C       -5.5180   -11.4240     0.2170 C.ar  1 <1>   0.1600 
 21 H        1.5430    -0.1990     0.4490 H     1 <1>   0.1500 
 22 H        1.8220    -2.5560     0.9260 H     1 <1>   0.1500 
 23 H       -2.3010     0.2300    -1.8260 H     1 <1>   0.0800 
 24 H       -2.5740     1.4360    -0.5880 H     1 <1>   0.0800 
 25 H       -3.9330     0.5730    -1.2930 H     1 <1>   0.0800 
 26 H       -3.3970    -1.0240     2.0400 H     1 <1>   0.0800 
 27 H       -4.5980    -0.1840     1.0820 H     1 <1>   0.0800 
 28 H       -3.2100     0.6860     1.7170 H     1 <1>   0.0800 
 29 H       -3.2430    -2.8210     0.2140 H     1 <1>   0.4000 
 30 H       -1.6690    -5.2580     0.8140 H     1 <1>   0.0800 
 31 H       -1.8990    -4.7320    -0.8410 H     1 <1>   0.0800 
 32 H       -4.3460    -4.8190    -0.5340 H     1 <1>   0.0800 
 33 H       -4.1160    -5.3090     1.1400 H     1 <1>   0.0800 
 34 H       -2.9980    -7.3730     0.3810 H     1 <1>   0.0800 
 35 H       -3.2110    -6.8780    -1.2880 H     1 <1>   0.0800 
 36 H       -5.6310    -6.8300     0.2660 H     1 <1>   0.4000 
 37 H       -6.6820    -8.6400     1.2900 H     1 <1>   0.1500 
 38 H       -3.6410    -9.2960    -1.6000 H     1 <1>   0.1500 
 39 H       -3.9880   -11.7270    -1.2420 H     1 <1>   0.1500 
 40 H       -5.6650   -12.4810     0.3630 H     1 <1>   0.1500 
@<TRIPOS>BOND
  1   1   2  ar  
  2   1   3  ar  
  3   2   4  1   
  4   2   5  ar  
  5   3   6  ar  
  6   3  21  1   
  7   4   7  1   
  8   4   8  1   
  9   5   9  ar  
 10   5  10  1   
 11   6   9  ar  
 12   6  22  1   
 13   7  23  1   
 14   7  24  1   
 15   7  25  1   
 16   8  26  1   
 17   8  27  1   
 18   8  28  1   
 19  10  11  1   
 20  10  29  1   
 21  11  12  1   
 22  11  30  1   
 23  11  31  1   
 24  12  13  1   
 25  12  32  1   
 26  12  33  1   
 27  13  14  1   
 28  13  34  1   
 29  13  35  1   
 30  14  15  1   
 31  14  36  1   
 32  15  16  ar  
 33  15  17  ar  
 34  16  18  ar  
 35  16  37  1   
 36  17  19  ar  
 37  17  38  1   
 38  18  20  ar  
 39  19  20  ar  
 40  19  39  1   
 41  20  40  1   
@<TRIPOS>SUBSTRUCTURE
  1 ****  11 GROUP 4 **** **** 0

# MOE 2024.06 (io_trps.svl 2023.06)
