@<TRIPOS>MOLECULE
NONAME
54 56 1 0 0 
SMALL
USER_CHARGES


@<TRIPOS>ATOM
  1 N       -0.1260    -0.4110     0.1260 N.4   1 <1>  -0.9590 
  2 C       -0.5250     0.9560     0.5880 C.3   1 <1>   0.3430 
  3 C        0.8410    -0.3160    -1.0150 C.3   1 <1>   0.3430 
  4 C       -1.3360    -1.2300    -0.1880 C.3   1 <1>   0.3430 
  5 C        0.7070     1.7140     1.0830 C.3   1 <1>  -0.1600 
  6 C        2.1070     0.4110    -0.5590 C.3   1 <1>  -0.1600 
  7 C       -1.0200    -2.7340    -0.3530 C.3   1 <1>  -0.0800 
  8 C        1.7910     1.8030     0.0010 C.3   1 <1>  -0.1600 
  9 C       -2.3250    -3.5080    -0.6690 C.3   1 <1>   0.3430 
 10 C       -0.2980    -3.3340     0.8730 C.3   1 <1>  -0.1600 
 11 N       -2.3220    -4.9190    -0.1520 N.4   1 <1>  -0.9590 
 12 C        0.0070    -4.8300     0.6570 C.3   1 <1>  -0.1600 
 13 C       -0.9770    -5.5560    -0.2680 C.3   1 <1>   0.3430 
 14 C       -3.3950    -5.7300    -0.8050 C.3   1 <1>   0.3430 
 15 C       -3.6730    -6.9980     0.0010 C.3   1 <1>  -0.1600 
 16 C       -4.8480    -7.7860    -0.5930 C.3   1 <1>   0.0960 
 17 N       -5.0670    -9.0070     0.2010 N.pl3 1 <1>   0.0480 
 18 C       -5.8580    -9.1230     1.3000 C.2   1 <1>  -0.3020 
 19 C       -4.4700   -10.2120     0.0060 C.2   1 <1>  -0.3020 
 20 C       -5.7650   -10.3850     1.7940 C.2   1 <1>  -0.1500 
 21 C       -4.8780   -11.0810     0.9670 C.2   1 <1>  -0.1500 
 22 H        0.3810    -0.8360     0.9130 H     1 <1>   0.4500 
 23 H       -1.2420     0.8840     1.3910 H     1 <1>   0.0800 
 24 H       -0.9780     1.5010    -0.2250 H     1 <1>   0.0800 
 25 H        0.3920     0.2250    -1.8330 H     1 <1>   0.0800 
 26 H        1.1090    -1.3000    -1.3640 H     1 <1>   0.0800 
 27 H       -1.7950    -0.8540    -1.0890 H     1 <1>   0.0800 
 28 H       -2.0480    -1.1160     0.6140 H     1 <1>   0.0800 
 29 H        1.1010     1.2300     1.9600 H     1 <1>   0.0800 
 30 H        0.4150     2.7090     1.3720 H     1 <1>   0.0800 
 31 H        2.7760     0.5110    -1.3970 H     1 <1>   0.0800 
 32 H        2.6140    -0.1790     0.1850 H     1 <1>   0.0800 
 33 H       -0.3820    -2.8450    -1.2120 H     1 <1>   0.0800 
 34 H        2.6850     2.2440     0.4130 H     1 <1>   0.0800 
 35 H        1.4510     2.4430    -0.7970 H     1 <1>   0.0800 
 36 H       -2.4670    -3.5170    -1.7390 H     1 <1>   0.0800 
 37 H       -3.1650    -2.9890    -0.2350 H     1 <1>   0.0800 
 38 H       -0.9230    -3.2250     1.7450 H     1 <1>   0.0800 
 39 H        0.6300    -2.8250     1.0730 H     1 <1>   0.0800 
 40 H       -2.5350    -4.8930     0.8560 H     1 <1>   0.4500 
 41 H        0.0290    -5.3290     1.6120 H     1 <1>   0.0800 
 42 H        0.9920    -4.9400     0.2360 H     1 <1>   0.0800 
 43 H       -0.6340    -5.4880    -1.2890 H     1 <1>   0.0800 
 44 H       -1.0160    -6.5990     0.0030 H     1 <1>   0.0800 
 45 H       -3.1040    -5.9900    -1.8110 H     1 <1>   0.0800 
 46 H       -4.3030    -5.1510    -0.8570 H     1 <1>   0.0800 
 47 H       -3.9190    -6.7370     1.0160 H     1 <1>   0.0800 
 48 H       -2.8090    -7.6390     0.0000 H     1 <1>   0.0800 
 49 H       -4.6440    -8.0760    -1.6080 H     1 <1>   0.0800 
 50 H       -5.7520    -7.2030    -0.5740 H     1 <1>   0.0800 
 51 H       -6.4500    -8.3100     1.6810 H     1 <1>   0.1500 
 52 H       -3.7870   -10.4000    -0.8030 H     1 <1>   0.1500 
 53 H       -6.2650   -10.8000     2.6520 H     1 <1>   0.1500 
 54 H       -4.5940   -12.1120     1.0940 H     1 <1>   0.1500 
@<TRIPOS>BOND
  1   1   2  1   
  2   1   3  1   
  3   1   4  1   
  4   1  22  1   
  5   2   5  1   
  6   2  23  1   
  7   2  24  1   
  8   3   6  1   
  9   3  25  1   
 10   3  26  1   
 11   4   7  1   
 12   4  27  1   
 13   4  28  1   
 14   5   8  1   
 15   5  29  1   
 16   5  30  1   
 17   6   8  1   
 18   6  31  1   
 19   6  32  1   
 20   7   9  1   
 21   7  10  1   
 22   7  33  1   
 23   8  34  1   
 24   8  35  1   
 25   9  11  1   
 26   9  36  1   
 27   9  37  1   
 28  10  12  1   
 29  10  38  1   
 30  10  39  1   
 31  11  13  1   
 32  11  14  1   
 33  11  40  1   
 34  12  13  1   
 35  12  41  1   
 36  12  42  1   
 37  13  43  1   
 38  13  44  1   
 39  14  15  1   
 40  14  45  1   
 41  14  46  1   
 42  15  16  1   
 43  15  47  1   
 44  15  48  1   
 45  16  17  1   
 46  16  49  1   
 47  16  50  1   
 48  17  18  1   
 49  17  19  1   
 50  18  20  2   
 51  18  51  1   
 52  19  21  2   
 53  19  52  1   
 54  20  21  1   
 55  20  53  1   
 56  21  54  1   
@<TRIPOS>SUBSTRUCTURE
  1 ****  11 GROUP 4 **** **** 0

# MOE 2024.06 (io_trps.svl 2023.06)
