@<TRIPOS>MOLECULE
NONAME
48 49 1 0 0 
SMALL
USER_CHARGES


@<TRIPOS>ATOM
  1 N       -0.4540    -1.1790     0.0130 N.ar  1 <1>  -0.6200 
  2 C       -1.4490    -0.3110    -0.0110 C.ar  1 <1>   0.4100 
  3 C        0.6870    -0.6520    -0.4210 C.ar  1 <1>   0.1600 
  4 N       -2.6470    -0.8540     0.4630 N.pl3 1 <1>  -0.8380 
  5 C       -1.3080     1.0390    -0.4940 C.ar  1 <1>   0.4100 
  6 C        0.8280     0.6460    -0.8700 C.ar  1 <1>   0.1600 
  7 C       -3.7240    -0.9010    -0.5620 C.3   1 <1>   0.3530 
  8 C       -3.1260    -0.2540     1.7420 C.3   1 <1>   0.1290 
  9 N       -0.1600     1.5270    -0.9280 N.ar  1 <1>  -0.6200 
 10 N       -2.3800     1.9380    -0.5510 N.pl3 1 <1>  -0.8380 
 11 C       -4.7370    -2.0370    -0.3630 C.ar  1 <1>  -0.1430 
 12 C       -2.7250     2.4270    -1.9150 C.3   1 <1>   0.1290 
 13 C       -2.2970     3.0580     0.4260 C.3   1 <1>   0.1290 
 14 C       -4.5170    -3.2530     0.3000 C.ar  1 <1>  -0.1430 
 15 C       -5.9830    -1.8090    -0.9330 C.ar  1 <1>  -0.1500 
 16 C       -5.5420    -4.1890     0.3660 C.ar  1 <1>  -0.1500 
 17 C       -3.2140    -3.6520     0.9880 C.3   1 <1>   0.4860 
 18 C       -6.9940    -2.7480    -0.8600 C.ar  1 <1>  -0.1500 
 19 C       -6.7730    -3.9430    -0.2090 C.ar  1 <1>  -0.1500 
 20 N       -2.0610    -3.6610     0.0520 N.4   1 <1>  -0.9590 
 21 C       -2.3550    -4.2800    -1.2720 C.3   1 <1>   0.2630 
 22 C       -0.8430    -4.2240     0.6900 C.3   1 <1>   0.2630 
 23 H        1.5540    -1.2890    -0.4170 H     1 <1>   0.1500 
 24 H        1.7950     0.9840    -1.2020 H     1 <1>   0.1500 
 25 H       -3.2790    -1.0120    -1.5370 H     1 <1>   0.0800 
 26 H       -4.2460     0.0410    -0.5600 H     1 <1>   0.0800 
 27 H       -2.3020    -0.1420     2.4260 H     1 <1>   0.0800 
 28 H       -3.8700    -0.8870     2.1940 H     1 <1>   0.0800 
 29 H       -3.5610     0.7150     1.5630 H     1 <1>   0.0800 
 30 H       -2.6870     1.6130    -2.6180 H     1 <1>   0.0800 
 31 H       -2.0210     3.1810    -2.2250 H     1 <1>   0.0800 
 32 H       -3.7160     2.8450    -1.9170 H     1 <1>   0.0800 
 33 H       -1.9530     2.6910     1.3780 H     1 <1>   0.0800 
 34 H       -3.2660     3.5080     0.5540 H     1 <1>   0.0800 
 35 H       -1.6020     3.8020     0.0750 H     1 <1>   0.0800 
 36 H       -6.1840    -0.8860    -1.4500 H     1 <1>   0.1500 
 37 H       -5.3980    -5.1290     0.8730 H     1 <1>   0.1500 
 38 H       -3.3320    -4.6320     1.4170 H     1 <1>   0.0800 
 39 H       -3.0150    -2.9600     1.7900 H     1 <1>   0.0800 
 40 H       -7.9520    -2.5480    -1.3090 H     1 <1>   0.1500 
 41 H       -7.5590    -4.6760    -0.1480 H     1 <1>   0.1500 
 42 H       -1.8720    -2.6340    -0.0790 H     1 <1>   0.4500 
 43 H       -2.5960    -5.3230    -1.1530 H     1 <1>   0.0800 
 44 H       -1.4990    -4.1900    -1.9210 H     1 <1>   0.0800 
 45 H       -3.1900    -3.7830    -1.7390 H     1 <1>   0.0800 
 46 H       -0.9820    -5.2670     0.9190 H     1 <1>   0.0800 
 47 H       -0.6230    -3.6880     1.6000 H     1 <1>   0.0800 
 48 H        0.0000    -4.1190     0.0270 H     1 <1>   0.0800 
@<TRIPOS>BOND
  1   1   2  ar  
  2   1   3  ar  
  3   2   4  1   
  4   2   5  ar  
  5   3   6  ar  
  6   3  23  1   
  7   4   7  1   
  8   4   8  1   
  9   5   9  ar  
 10   5  10  1   
 11   6   9  ar  
 12   6  24  1   
 13   7  11  1   
 14   7  25  1   
 15   7  26  1   
 16   8  27  1   
 17   8  28  1   
 18   8  29  1   
 19  10  12  1   
 20  10  13  1   
 21  11  14  ar  
 22  11  15  ar  
 23  12  30  1   
 24  12  31  1   
 25  12  32  1   
 26  13  33  1   
 27  13  34  1   
 28  13  35  1   
 29  14  16  ar  
 30  14  17  1   
 31  15  18  ar  
 32  15  36  1   
 33  16  19  ar  
 34  16  37  1   
 35  17  20  1   
 36  17  38  1   
 37  17  39  1   
 38  18  19  ar  
 39  18  40  1   
 40  19  41  1   
 41  20  21  1   
 42  20  22  1   
 43  20  42  1   
 44  21  43  1   
 45  21  44  1   
 46  21  45  1   
 47  22  46  1   
 48  22  47  1   
 49  22  48  1   
@<TRIPOS>SUBSTRUCTURE
  1 ****   4 GROUP 4 **** **** 0

# MOE 2024.06 (io_trps.svl 2023.06)
