@<TRIPOS>MOLECULE
NONAME
53 54 1 0 0 
SMALL
USER_CHARGES


@<TRIPOS>ATOM
  1 O       -0.6510     0.1810     1.6170 O.2   1 <1>  -0.5700 
  2 C       -1.1740     0.7020     0.6620 C.2   1 <1>   0.5690 
  3 N       -1.9120    -0.0090    -0.2300 N.am  1 <1>  -0.7300 
  4 C       -1.0140     2.2080     0.4640 C.3   1 <1>  -0.0190 
  5 C       -2.1350    -1.4720    -0.1670 C.3   1 <1>   0.1400 
  6 C       -2.3710     2.9380     0.4790 C.3   1 <1>  -0.1600 
  7 C       -0.2040     2.5430    -0.8120 C.3   1 <1>  -0.1600 
  8 C       -3.4860    -1.7640     0.4860 C.3   1 <1>  -0.0170 
  9 C       -2.2070     4.4720     0.4400 C.3   1 <1>   0.2000 
 10 C       -0.4610     3.9640    -1.3550 C.3   1 <1>  -0.1600 
 11 C       -3.7550    -3.2600     0.4870 C.ar  1 <1>  -0.1440 
 12 O       -3.2990     5.0030    -0.2680 O.3   1 <1>  -0.5600 
 13 C       -0.8870     4.9230    -0.2400 C.3   1 <1>   0.2000 
 14 C       -4.5440    -3.8350    -0.4980 C.ar  1 <1>  -0.1500 
 15 C       -3.2070    -4.0630     1.4740 C.ar  1 <1>  -0.1500 
 16 C       -4.4600     5.1800     0.4830 C.3   1 <1>   0.0400 
 17 O       -1.0680     6.1710    -0.7990 O.3   1 <1>  -0.6800 
 18 C       -4.7830    -5.1990    -0.4990 C.ar  1 <1>  -0.1500 
 19 C       -3.4450    -5.4260     1.4760 C.ar  1 <1>  -0.1500 
 20 C       -4.2310    -6.0040     0.4940 C.ar  1 <1>   0.0820 
 21 O       -4.4140    -7.3460     0.5680 O.3   1 <1>  -0.3620 
 22 C       -5.2020    -8.0310    -0.3780 C.3   1 <1>   0.1200 
 23 C       -5.2090    -9.5150    -0.0110 C.3   1 <1>  -0.1600 
 24 C       -6.0500   -10.3310    -0.9990 C.3   1 <1>  -0.2400 
 25 H       -2.3490     0.4780    -1.0130 H     1 <1>   0.3700 
 26 H       -0.4520     2.5680     1.3090 H     1 <1>   0.0800 
 27 H       -2.1080    -1.8830    -1.1610 H     1 <1>   0.0800 
 28 H       -1.3510    -1.9360     0.4090 H     1 <1>   0.0800 
 29 H       -2.9130     2.6640     1.3680 H     1 <1>   0.0800 
 30 H       -2.9420     2.6220    -0.3760 H     1 <1>   0.0800 
 31 H        0.8420     2.4340    -0.5820 H     1 <1>   0.0800 
 32 H       -0.4280     1.8400    -1.5960 H     1 <1>   0.0800 
 33 H       -3.4770    -1.4010     1.4990 H     1 <1>   0.0800 
 34 H       -4.2670    -1.2550    -0.0500 H     1 <1>   0.0800 
 35 H       -2.2100     4.8720     1.4410 H     1 <1>   0.0800 
 36 H       -1.2500     3.9220    -2.0870 H     1 <1>   0.0800 
 37 H        0.4280     4.3330    -1.8360 H     1 <1>   0.0800 
 38 H       -0.0970     4.9980     0.4870 H     1 <1>   0.0800 
 39 H       -4.9760    -3.2240    -1.2710 H     1 <1>   0.1500 
 40 H       -2.5920    -3.6310     2.2450 H     1 <1>   0.1500 
 41 H       -5.2180     5.5870    -0.1630 H     1 <1>   0.0800 
 42 H       -4.2630     5.8690     1.2860 H     1 <1>   0.0800 
 43 H       -4.7890     4.2310     0.8690 H     1 <1>   0.0800 
 44 H       -2.0190     6.2170    -1.0490 H     1 <1>   0.4000 
 45 H       -5.3980    -5.6120    -1.2750 H     1 <1>   0.1500 
 46 H       -3.0210    -6.0510     2.2410 H     1 <1>   0.1500 
 47 H       -6.1990    -7.6260    -0.3450 H     1 <1>   0.0800 
 48 H       -4.7690    -7.8820    -1.3520 H     1 <1>   0.0800 
 49 H       -4.1980    -9.8840    -0.0160 H     1 <1>   0.0800 
 50 H       -5.6130    -9.6310     0.9800 H     1 <1>   0.0800 
 51 H       -5.6530   -10.2420    -1.9950 H     1 <1>   0.0800 
 52 H       -7.0700    -9.9890    -0.9980 H     1 <1>   0.0800 
 53 H       -6.0380   -11.3700    -0.7180 H     1 <1>   0.0800 
@<TRIPOS>BOND
  1   1   2  2   
  2   2   3  am  
  3   2   4  1   
  4   3   5  1   
  5   3  25  1   
  6   4   6  1   
  7   4   7  1   
  8   4  26  1   
  9   5   8  1   
 10   5  27  1   
 11   5  28  1   
 12   6   9  1   
 13   6  29  1   
 14   6  30  1   
 15   7  10  1   
 16   7  31  1   
 17   7  32  1   
 18   8  11  1   
 19   8  33  1   
 20   8  34  1   
 21   9  12  1   
 22   9  13  1   
 23   9  35  1   
 24  10  13  1   
 25  10  36  1   
 26  10  37  1   
 27  11  14  ar  
 28  11  15  ar  
 29  12  16  1   
 30  13  17  1   
 31  13  38  1   
 32  14  18  ar  
 33  14  39  1   
 34  15  19  ar  
 35  15  40  1   
 36  16  41  1   
 37  16  42  1   
 38  16  43  1   
 39  17  44  1   
 40  18  20  ar  
 41  18  45  1   
 42  19  20  ar  
 43  19  46  1   
 44  20  21  1   
 45  21  22  1   
 46  22  23  1   
 47  22  47  1   
 48  22  48  1   
 49  23  24  1   
 50  23  49  1   
 51  23  50  1   
 52  24  51  1   
 53  24  52  1   
 54  24  53  1   
@<TRIPOS>SUBSTRUCTURE
  1 ****   5 GROUP 4 **** **** 0

# MOE 2024.06 (io_trps.svl 2023.06)
