@<TRIPOS>MOLECULE
NONAME
45 47 1 0 0 
SMALL
USER_CHARGES


@<TRIPOS>ATOM
  1 O       -0.0160     0.8680     1.1970 O.2   1 <1>  -0.5700 
  2 C       -0.3140     1.7380     0.4110 C.2   1 <1>   0.5770 
  3 N       -1.6260     2.1330     0.2560 N.am  1 <1>  -0.6600 
  4 C        0.8200     2.3560    -0.4010 C.3   1 <1>   0.0530 
  5 C       -2.1500     3.0270    -0.8140 C.3   1 <1>   0.1400 
  6 C       -2.6800     1.6380     1.1870 C.3   1 <1>   0.1400 
  7 C        0.9200     3.8830    -0.2510 C.3   1 <1>   0.2580 
  8 C        2.1400     2.4110     0.3900 C.3   1 <1>   0.2580 
  9 C        0.9950     1.8030    -1.8360 C.3   1 <1>  -0.2400 
 10 C       -2.8700     4.2210    -0.1800 C.3   1 <1>  -0.1600 
 11 C       -3.4020     2.8320     1.8190 C.3   1 <1>  -0.1600 
 12 O        2.3260     3.7240    -0.1250 O.3   1 <1>  -0.5160 
 13 C       -4.0060     3.7780     0.7690 C.3   1 <1>   0.2800 
 14 O       -4.4510     4.8880     1.4940 O.3   1 <1>  -0.5600 
 15 C       -5.2200     3.1030     0.0810 C.3   1 <1>  -0.1600 
 16 C       -5.1880     5.8750     0.8360 C.3   1 <1>   0.1200 
 17 C       -6.1850     4.0630    -0.6210 C.3   1 <1>   0.2800 
 18 C       -6.4750     5.2690     0.2710 C.3   1 <1>  -0.1600 
 19 O       -5.5990     4.5150    -1.7780 O.3   1 <1>  -0.6800 
 20 C       -7.4700     3.3570    -1.0490 C.3   1 <1>  -0.2400 
 21 H       -2.8300     2.4690    -1.4340 H     1 <1>   0.0800 
 22 H       -1.3620     3.3850    -1.4490 H     1 <1>   0.0800 
 23 H       -2.2490     1.0360     1.9690 H     1 <1>   0.0800 
 24 H       -3.3720     1.0200     0.6430 H     1 <1>   0.0800 
 25 H        0.5120     4.2810     0.6630 H     1 <1>   0.0000 
 26 H        0.6860     4.4500    -1.1340 H     1 <1>   0.0000 
 27 H        2.9170     1.7560     0.0380 H     1 <1>   0.0000 
 28 H        2.0410     2.4540     1.4620 H     1 <1>   0.0000 
 29 H        0.1080     1.9610    -2.4200 H     1 <1>   0.0800 
 30 H        1.1900     0.7460    -1.7930 H     1 <1>   0.0800 
 31 H        1.8220     2.2820    -2.3310 H     1 <1>   0.0800 
 32 H       -3.2320     4.8480    -0.9680 H     1 <1>   0.0800 
 33 H       -2.1490     4.7880     0.3810 H     1 <1>   0.0800 
 34 H       -2.6910     3.3720     2.4190 H     1 <1>   0.0800 
 35 H       -4.1720     2.4710     2.4770 H     1 <1>   0.0800 
 36 H       -5.7830     2.6000     0.8460 H     1 <1>   0.0800 
 37 H       -4.9060     2.3430    -0.6090 H     1 <1>   0.0800 
 38 H       -4.5820     6.3190     0.0670 H     1 <1>   0.0800 
 39 H       -5.4260     6.6350     1.5600 H     1 <1>   0.0800 
 40 H       -7.0280     6.0120    -0.2760 H     1 <1>   0.0800 
 41 H       -7.0860     4.9600     1.1000 H     1 <1>   0.0800 
 42 H       -4.8760     5.1240    -1.5510 H     1 <1>   0.4000 
 43 H       -7.9930     2.9800    -0.1890 H     1 <1>   0.0800 
 44 H       -7.2430     2.5310    -1.6990 H     1 <1>   0.0800 
 45 H       -8.1170     4.0420    -1.5660 H     1 <1>   0.0800 
@<TRIPOS>BOND
  1   1   2  2   
  2   2   3  am  
  3   2   4  1   
  4   3   5  1   
  5   3   6  1   
  6   4   7  1   
  7   4   8  1   
  8   4   9  1   
  9   5  10  1   
 10   5  21  1   
 11   5  22  1   
 12   6  11  1   
 13   6  23  1   
 14   6  24  1   
 15   7  12  1   
 16   7  25  1   
 17   7  26  1   
 18   8  12  1   
 19   8  27  1   
 20   8  28  1   
 21   9  29  1   
 22   9  30  1   
 23   9  31  1   
 24  10  13  1   
 25  10  32  1   
 26  10  33  1   
 27  11  13  1   
 28  11  34  1   
 29  11  35  1   
 30  13  14  1   
 31  13  15  1   
 32  14  16  1   
 33  15  17  1   
 34  15  36  1   
 35  15  37  1   
 36  16  18  1   
 37  16  38  1   
 38  16  39  1   
 39  17  18  1   
 40  17  19  1   
 41  17  20  1   
 42  18  40  1   
 43  18  41  1   
 44  19  42  1   
 45  20  43  1   
 46  20  44  1   
 47  20  45  1   
@<TRIPOS>SUBSTRUCTURE
  1 ****   5 GROUP 4 **** **** 0

# MOE 2024.06 (io_trps.svl 2023.06)
