@<TRIPOS>MOLECULE
NONAME
49 51 1 0 0 
SMALL
USER_CHARGES


@<TRIPOS>ATOM
  1 O        2.2620    -4.1700     1.0270 O.3   1 <1>  -0.6800 
  2 C        1.0490    -3.9150     0.4110 C.3   1 <1>   0.2000 
  3 C        1.2310    -4.0450    -1.0950 C.3   1 <1>  -0.1600 
  4 C        0.6880    -2.4500     0.6170 C.3   1 <1>  -0.1600 
  5 C        1.7630    -2.6870    -1.5880 C.3   1 <1>  -0.0800 
  6 C        1.3520    -1.6550    -0.5230 C.3   1 <1>  -0.0800 
  7 C        3.2970    -2.6280    -1.6710 C.3   1 <1>  -0.1600 
  8 C        2.6440    -0.9520    -0.0890 C.3   1 <1>  -0.1600 
  9 C        3.7580    -1.9500    -0.3830 C.3   1 <1>   0.4230 
 10 N        5.0800    -1.2820    -0.5400 N.4   1 <1>  -0.9590 
 11 C        5.4690    -0.5620     0.7120 C.3   1 <1>   0.4860 
 12 C        6.1400    -2.2600    -0.9570 C.3   1 <1>   0.2630 
 13 C        6.7530     0.2020     0.4890 C.ar  1 <1>  -0.1430 
 14 C        7.9480    -0.2380     1.0080 C.ar  1 <1>   0.1600 
 15 C        6.7820     1.3670    -0.2430 C.ar  1 <1>   0.1600 
 16 N        9.0740     0.3980     0.7960 N.ar  1 <1>  -0.6200 
 17 N        7.8960     2.0190    -0.4660 N.ar  1 <1>  -0.6200 
 18 C        8.9970     1.5030     0.0680 C.ar  1 <1>   0.4770 
 19 C       10.3160     2.2510    -0.1760 C.3   1 <1>   0.0630 
 20 C       10.2850     3.6720     0.4100 C.3   1 <1>  -0.2400 
 21 C       10.6770     2.3010    -1.6690 C.3   1 <1>  -0.2400 
 22 H        2.3760    -5.1370     1.1250 H     1 <1>   0.4000 
 23 H        0.3060    -4.5850     0.8130 H     1 <1>   0.0800 
 24 H        1.8480    -4.8820    -1.3690 H     1 <1>   0.0800 
 25 H        0.2580    -4.1990    -1.5290 H     1 <1>   0.0800 
 26 H       -0.3790    -2.3590     0.5080 H     1 <1>   0.0800 
 27 H        0.9460    -2.1060     1.6030 H     1 <1>   0.0800 
 28 H        1.3330    -2.4540    -2.5490 H     1 <1>   0.0800 
 29 H        0.6520    -0.9370    -0.9190 H     1 <1>   0.0800 
 30 H        3.5640    -2.0240    -2.5210 H     1 <1>   0.0800 
 31 H        3.7260    -3.6080    -1.7790 H     1 <1>   0.0800 
 32 H        2.6090    -0.6740     0.9490 H     1 <1>   0.0800 
 33 H        2.7670    -0.0720    -0.6950 H     1 <1>   0.0800 
 34 H        3.7980    -2.6800     0.4080 H     1 <1>   0.0800 
 35 H        4.9790    -0.5860    -1.2880 H     1 <1>   0.4500 
 36 H        4.6950     0.1310     0.9990 H     1 <1>   0.0800 
 37 H        5.5990    -1.2690     1.5160 H     1 <1>   0.0800 
 38 H        6.2670    -3.0210    -0.2050 H     1 <1>   0.0800 
 39 H        7.0830    -1.7560    -1.1030 H     1 <1>   0.0800 
 40 H        5.8690    -2.7360    -1.8850 H     1 <1>   0.0800 
 41 H        7.9970    -1.1320     1.6070 H     1 <1>   0.1500 
 42 H        5.8820     1.7830    -0.6630 H     1 <1>   0.1500 
 43 H       11.0990     1.7100     0.3290 H     1 <1>   0.0800 
 44 H        9.5350     4.2660    -0.0820 H     1 <1>   0.0800 
 45 H       11.2400     4.1500     0.2880 H     1 <1>   0.0800 
 46 H       10.0540     3.6310     1.4600 H     1 <1>   0.0800 
 47 H        9.9360     2.8580    -2.2160 H     1 <1>   0.0800 
 48 H       10.7230     1.3040    -2.0700 H     1 <1>   0.0800 
 49 H       11.6340     2.7710    -1.8080 H     1 <1>   0.0800 
@<TRIPOS>BOND
  1   1   2  1   
  2   1  22  1   
  3   2   3  1   
  4   2   4  1   
  5   2  23  1   
  6   3   5  1   
  7   3  24  1   
  8   3  25  1   
  9   4   6  1   
 10   4  26  1   
 11   4  27  1   
 12   5   6  1   
 13   5   7  1   
 14   5  28  1   
 15   6   8  1   
 16   6  29  1   
 17   7   9  1   
 18   7  30  1   
 19   7  31  1   
 20   8   9  1   
 21   8  32  1   
 22   8  33  1   
 23   9  10  1   
 24   9  34  1   
 25  10  11  1   
 26  10  12  1   
 27  10  35  1   
 28  11  13  1   
 29  11  36  1   
 30  11  37  1   
 31  12  38  1   
 32  12  39  1   
 33  12  40  1   
 34  13  14  ar  
 35  13  15  ar  
 36  14  16  ar  
 37  14  41  1   
 38  15  17  ar  
 39  15  42  1   
 40  16  18  ar  
 41  17  18  ar  
 42  18  19  1   
 43  19  20  1   
 44  19  21  1   
 45  19  43  1   
 46  20  44  1   
 47  20  45  1   
 48  20  46  1   
 49  21  47  1   
 50  21  48  1   
 51  21  49  1   
@<TRIPOS>SUBSTRUCTURE
  1 ****  10 GROUP 4 **** **** 0

# MOE 2024.06 (io_trps.svl 2023.06)
