@<TRIPOS>MOLECULE
NONAME
50 52 1 0 0 
SMALL
USER_CHARGES


@<TRIPOS>ATOM
  1 S        0.5640    -0.5420     1.2350 S.3   1 <1>  -0.0800 
  2 C       -0.1010    -2.0660     0.6660 C.2   1 <1>  -0.1400 
  3 C        2.1860    -1.0200     0.7690 C.2   1 <1>  -0.1100 
  4 C        0.8800    -2.8480     0.1720 C.2   1 <1>  -0.1500 
  5 C       -1.5990    -2.2370     0.8260 C.3   1 <1>   0.3200 
  6 C        2.1800    -2.2510     0.2280 C.2   1 <1>  -0.1500 
  7 N       -2.0530    -3.3830     0.0050 N.am  1 <1>  -0.7300 
  8 C       -2.9540    -4.3090     0.4260 C.2   1 <1>   0.5690 
  9 O       -3.4980    -4.2160     1.5010 O.2   1 <1>  -0.5700 
 10 C       -3.3210    -5.5120    -0.4650 C.3   1 <1>   0.4040 
 11 N       -4.5750    -6.2470    -0.0260 N.4   1 <1>  -0.9590 
 12 C       -4.7730    -7.6140    -0.6050 C.3   1 <1>   0.4230 
 13 C       -5.7690    -5.3630    -0.1840 C.3   1 <1>   0.3430 
 14 C       -5.9940    -8.2540     0.0790 C.3   1 <1>  -0.1600 
 15 C       -3.4690    -8.4330    -0.4760 C.3   1 <1>  -0.1600 
 16 C       -6.9750    -5.9850     0.5130 C.3   1 <1>  -0.1600 
 17 C       -7.2560    -7.3910    -0.0190 C.3   1 <1>  -0.1600 
 18 C       -3.5690    -9.9650    -0.6700 C.3   1 <1>  -0.0170 
 19 C       -4.1780   -10.7190     0.5080 C.ar  1 <1>   0.1670 
 20 N       -3.8340   -10.3110     1.7210 N.ar  1 <1>  -0.6200 
 21 C       -5.0440   -11.7760     0.2650 C.ar  1 <1>  -0.1500 
 22 C       -4.3690   -10.9830     2.7290 C.ar  1 <1>   0.1600 
 23 C       -5.6000   -12.4610     1.3240 C.ar  1 <1>  -0.1500 
 24 C       -5.2450   -12.0450     2.5880 C.ar  1 <1>  -0.1500 
 25 H        2.9810    -0.3190     0.9520 H     1 <1>   0.1500 
 26 H        0.7600    -3.8360    -0.2330 H     1 <1>   0.1500 
 27 H       -2.0990    -1.3440     0.4910 H     1 <1>   0.0800 
 28 H       -1.8370    -2.3910     1.8660 H     1 <1>   0.0800 
 29 H        3.0460    -2.7750    -0.1370 H     1 <1>   0.1500 
 30 H       -1.5750    -3.4320    -0.8970 H     1 <1>   0.3700 
 31 H       -2.4800    -6.1810    -0.4350 H     1 <1>   0.0800 
 32 H       -3.4390    -5.1700    -1.4780 H     1 <1>   0.0800 
 33 H       -4.4700    -6.3740     0.9940 H     1 <1>   0.4500 
 34 H       -5.0040    -7.5180    -1.6540 H     1 <1>   0.0800 
 35 H       -5.9890    -5.2250    -1.2300 H     1 <1>   0.0800 
 36 H       -5.5760    -4.3960     0.2540 H     1 <1>   0.0800 
 37 H       -5.7690    -8.4430     1.1150 H     1 <1>   0.0800 
 38 H       -6.2120    -9.2000    -0.3830 H     1 <1>   0.0800 
 39 H       -3.0170    -8.2440     0.4820 H     1 <1>   0.0800 
 40 H       -2.7860    -8.0840    -1.2290 H     1 <1>   0.0800 
 41 H       -7.8370    -5.3610     0.3510 H     1 <1>   0.0800 
 42 H       -6.7960    -6.0180     1.5740 H     1 <1>   0.0800 
 43 H       -8.0520    -7.8440     0.5500 H     1 <1>   0.0800 
 44 H       -7.5780    -7.3340    -1.0460 H     1 <1>   0.0800 
 45 H       -2.5730   -10.3510    -0.7960 H     1 <1>   0.0800 
 46 H       -4.1110   -10.1840    -1.5730 H     1 <1>   0.0800 
 47 H       -5.2850   -12.0700    -0.7400 H     1 <1>   0.1500 
 48 H       -4.0950   -10.6700     3.7220 H     1 <1>   0.1500 
 49 H       -6.2760   -13.2860     1.1730 H     1 <1>   0.1500 
 50 H       -5.6390   -12.5390     3.4580 H     1 <1>   0.1500 
@<TRIPOS>BOND
  1   1   2  1   
  2   1   3  1   
  3   2   4  2   
  4   2   5  1   
  5   3   6  2   
  6   3  25  1   
  7   4   6  1   
  8   4  26  1   
  9   5   7  1   
 10   5  27  1   
 11   5  28  1   
 12   6  29  1   
 13   7   8  am  
 14   7  30  1   
 15   8   9  2   
 16   8  10  1   
 17  10  11  1   
 18  10  31  1   
 19  10  32  1   
 20  11  12  1   
 21  11  13  1   
 22  11  33  1   
 23  12  14  1   
 24  12  15  1   
 25  12  34  1   
 26  13  16  1   
 27  13  35  1   
 28  13  36  1   
 29  14  17  1   
 30  14  37  1   
 31  14  38  1   
 32  15  18  1   
 33  15  39  1   
 34  15  40  1   
 35  16  17  1   
 36  16  41  1   
 37  16  42  1   
 38  17  43  1   
 39  17  44  1   
 40  18  19  1   
 41  18  45  1   
 42  18  46  1   
 43  19  20  ar  
 44  19  21  ar  
 45  20  22  ar  
 46  21  23  ar  
 47  21  47  1   
 48  22  24  ar  
 49  22  48  1   
 50  23  24  ar  
 51  23  49  1   
 52  24  50  1   
@<TRIPOS>SUBSTRUCTURE
  1 ****  10 GROUP 4 **** **** 0

# MOE 2024.06 (io_trps.svl 2023.06)
