@<TRIPOS>MOLECULE
NONAME
51 54 1 0 0 
SMALL
USER_CHARGES


@<TRIPOS>ATOM
  1 CL      -2.1600    -1.1210    -1.7470 Cl    1 <1>  -0.1230 
  2 C       -2.6380    -0.0450    -0.4530 C.2   1 <1>   0.1230 
  3 C       -2.8130     1.3590    -0.7000 C.ar  1 <1>   0.0000 
  4 C       -2.8880    -0.4670     0.7950 C.2   1 <1>  -0.1400 
  5 C       -3.2280     2.0270     0.4450 C.ar  1 <1>   0.0400 
  6 C       -2.6370     2.1010    -1.8650 C.ar  1 <1>  -0.1500 
  7 S       -3.3840     0.8940     1.8030 S.3   1 <1>  -0.0800 
  8 C       -2.8270    -1.8400     1.4110 C.3   1 <1>   0.5230 
  9 C       -3.4760     3.3860     0.4790 C.ar  1 <1>  -0.1500 
 10 C       -2.8820     3.4640    -1.8530 C.ar  1 <1>  -0.1500 
 11 N       -4.1110    -2.5190     1.0930 N.4   1 <1>  -0.9590 
 12 C       -3.2990     4.1050    -0.6900 C.ar  1 <1>  -0.1500 
 13 C       -4.0150    -4.0100     0.9760 C.3   1 <1>   0.3430 
 14 C       -5.2460    -2.0250     1.9310 C.3   1 <1>   0.3430 
 15 C       -5.3280    -4.6890     0.4580 C.3   1 <1>   0.4230 
 16 C       -6.5160    -2.8740     1.7340 C.3   1 <1>  -0.1600 
 17 N       -5.2180    -5.5520    -0.7950 N.4   1 <1>  -0.9590 
 18 C       -6.5660    -3.7410     0.4440 C.3   1 <1>   0.0000 
 19 C       -6.5590    -5.9930    -1.3230 C.3   1 <1>   0.3430 
 20 C       -4.4170    -4.9620    -1.9230 C.3   1 <1>   0.2630 
 21 C       -7.8180    -4.6590     0.5010 C.3   1 <1>  -0.1600 
 22 C       -6.7320    -2.8190    -0.8090 C.3   1 <1>   0.1200 
 23 C       -7.6250    -6.0160    -0.2180 C.3   1 <1>  -0.1600 
 24 O       -5.5590    -2.1730    -1.1800 O.3   1 <1>  -0.6800 
 25 H       -2.3110     1.6180    -2.7690 H     1 <1>   0.1500 
 26 H       -2.6660    -1.7770     2.4760 H     1 <1>   0.0800 
 27 H       -2.0060    -2.3790     0.9670 H     1 <1>   0.0800 
 28 H       -3.7950     3.8660     1.3870 H     1 <1>   0.1500 
 29 H       -2.7470     4.0400    -2.7530 H     1 <1>   0.1500 
 30 H       -4.3580    -2.1820     0.1380 H     1 <1>   0.4500 
 31 H       -3.4830     5.1660    -0.7020 H     1 <1>   0.1500 
 32 H       -3.2010    -4.2690     0.3210 H     1 <1>   0.0800 
 33 H       -3.7930    -4.4130     1.9500 H     1 <1>   0.0800 
 34 H       -4.9720    -2.0310     2.9740 H     1 <1>   0.0800 
 35 H       -5.4620    -1.0040     1.6570 H     1 <1>   0.0800 
 36 H       -5.5570    -5.3880     1.2450 H     1 <1>   0.0800 
 37 H       -6.5990    -3.5130     2.5970 H     1 <1>   0.0800 
 38 H       -7.3700    -2.2180     1.7720 H     1 <1>   0.0800 
 39 H       -4.7420    -6.4240    -0.5170 H     1 <1>   0.4500 
 40 H       -6.8850    -5.3180    -2.0970 H     1 <1>   0.0800 
 41 H       -6.4750    -6.9740    -1.7660 H     1 <1>   0.0800 
 42 H       -4.9020    -4.0850    -2.3170 H     1 <1>   0.0800 
 43 H       -4.3200    -5.6790    -2.7240 H     1 <1>   0.0800 
 44 H       -3.4280    -4.6910    -1.5940 H     1 <1>   0.0800 
 45 H       -8.0870    -4.8760     1.5230 H     1 <1>   0.0800 
 46 H       -8.6680    -4.1480     0.0770 H     1 <1>   0.0800 
 47 H       -7.4740    -2.0620    -0.6100 H     1 <1>   0.0800 
 48 H       -7.0690    -3.3780    -1.6640 H     1 <1>   0.0800 
 49 H       -8.5650    -6.3220    -0.6470 H     1 <1>   0.0800 
 50 H       -7.3580    -6.7740     0.4990 H     1 <1>   0.0800 
 51 H       -5.7520    -1.5120    -1.8890 H     1 <1>   0.4000 
@<TRIPOS>BOND
  1   1   2  1   
  2   2   3  1   
  3   2   4  2   
  4   3   5  ar  
  5   3   6  ar  
  6   4   7  1   
  7   4   8  1   
  8   5   7  1   
  9   5   9  ar  
 10   6  10  ar  
 11   6  25  1   
 12   8  11  1   
 13   8  26  1   
 14   8  27  1   
 15   9  12  ar  
 16   9  28  1   
 17  10  12  ar  
 18  10  29  1   
 19  11  13  1   
 20  11  14  1   
 21  11  30  1   
 22  12  31  1   
 23  13  15  1   
 24  13  32  1   
 25  13  33  1   
 26  14  16  1   
 27  14  34  1   
 28  14  35  1   
 29  15  17  1   
 30  15  18  1   
 31  15  36  1   
 32  16  18  1   
 33  16  37  1   
 34  16  38  1   
 35  17  19  1   
 36  17  20  1   
 37  17  39  1   
 38  18  21  1   
 39  18  22  1   
 40  19  23  1   
 41  19  40  1   
 42  19  41  1   
 43  20  42  1   
 44  20  43  1   
 45  20  44  1   
 46  21  23  1   
 47  21  45  1   
 48  21  46  1   
 49  22  24  1   
 50  22  47  1   
 51  22  48  1   
 52  23  49  1   
 53  23  50  1   
 54  24  51  1   
@<TRIPOS>SUBSTRUCTURE
  1 ****  11 GROUP 4 **** **** 0

# MOE 2024.06 (io_trps.svl 2023.06)
