@<TRIPOS>MOLECULE
NONAME
46 47 1 0 0 
SMALL
USER_CHARGES


@<TRIPOS>ATOM
  1 O        1.5420    -0.2800     0.3630 O.3   1 <1>  -0.3630 
  2 C        2.6700     0.4770     0.3690 C.ar  1 <1>   0.0830 
  3 C        0.4970    -0.1070    -0.5700 C.3   1 <1>   0.2000 
  4 C        3.6100     0.1770     1.3410 C.ar  1 <1>  -0.1500 
  5 C        2.9250     1.5150    -0.5240 C.ar  1 <1>  -0.1500 
  6 C       -0.7670    -0.7030     0.0660 C.3   1 <1>  -0.1600 
  7 C        0.8920    -0.8120    -1.8730 C.3   1 <1>  -0.2400 
  8 C        4.7900     0.8940     1.4270 C.ar  1 <1>  -0.1500 
  9 C        4.1070     2.2300    -0.4370 C.ar  1 <1>  -0.1500 
 10 C       -2.0380    -0.4580    -0.7610 C.3   1 <1>  -0.2400 
 11 C        5.0480     1.9250     0.5370 C.ar  1 <1>  -0.1430 
 12 C        6.3400     2.7200     0.6210 C.3   1 <1>   0.3530 
 13 N        5.9890     4.1230     0.8910 N.pl3 1 <1>  -0.8690 
 14 C        6.4290     5.0940     0.0060 C.ar  1 <1>   0.4100 
 15 N        7.7130     5.0730    -0.2970 N.ar  1 <1>  -0.6200 
 16 C        5.4980     6.0420    -0.5340 C.ar  1 <1>   0.4100 
 17 C        8.0380     6.0350    -1.1510 C.ar  1 <1>   0.1600 
 18 N        5.8480     6.9850    -1.3920 N.ar  1 <1>  -0.6200 
 19 N        4.1440     6.0090    -0.1610 N.pl3 1 <1>  -0.8380 
 20 C        7.1450     6.9510    -1.6770 C.ar  1 <1>   0.1600 
 21 C        3.1320     6.3500    -1.1980 C.3   1 <1>   0.1290 
 22 C        3.8380     6.5890     1.1730 C.3   1 <1>   0.1290 
 23 H        0.3450     0.9470    -0.7220 H     1 <1>   0.0800 
 24 H        3.4090    -0.6230     2.0300 H     1 <1>   0.1500 
 25 H        2.2250     1.7810    -1.2910 H     1 <1>   0.1500 
 26 H       -0.9020    -0.2520     1.0340 H     1 <1>   0.0800 
 27 H       -0.6320    -1.7610     0.2070 H     1 <1>   0.0800 
 28 H        0.9940    -1.8690    -1.7060 H     1 <1>   0.0800 
 29 H        1.8220    -0.4260    -2.2470 H     1 <1>   0.0800 
 30 H        0.1420    -0.6540    -2.6250 H     1 <1>   0.0800 
 31 H        5.5050     0.6450     2.1930 H     1 <1>   0.1500 
 32 H        4.2940     3.0340    -1.1290 H     1 <1>   0.1500 
 33 H       -2.1730     0.5940    -0.9420 H     1 <1>   0.0800 
 34 H       -2.8960    -0.8240    -0.2250 H     1 <1>   0.0800 
 35 H       -1.9890    -0.9730    -1.7040 H     1 <1>   0.0800 
 36 H        6.8790     2.6320    -0.3080 H     1 <1>   0.0800 
 37 H        6.9670     2.3550     1.4150 H     1 <1>   0.0800 
 38 H        4.9680     4.1990     0.9680 H     1 <1>   0.4000 
 39 H        9.0710     6.0910    -1.4440 H     1 <1>   0.1500 
 40 H        7.5070     7.6930    -2.3650 H     1 <1>   0.1500 
 41 H        3.4180     5.9190    -2.1420 H     1 <1>   0.0800 
 42 H        3.0680     7.4180    -1.3120 H     1 <1>   0.0800 
 43 H        2.1710     5.9600    -0.9150 H     1 <1>   0.0800 
 44 H        4.6500     6.4070     1.8550 H     1 <1>   0.0800 
 45 H        2.9440     6.1390     1.5700 H     1 <1>   0.0800 
 46 H        3.6940     7.6520     1.0850 H     1 <1>   0.0800 
@<TRIPOS>BOND
  1   1   2  1   
  2   1   3  1   
  3   2   4  ar  
  4   2   5  ar  
  5   3   6  1   
  6   3   7  1   
  7   3  23  1   
  8   4   8  ar  
  9   4  24  1   
 10   5   9  ar  
 11   5  25  1   
 12   6  10  1   
 13   6  26  1   
 14   6  27  1   
 15   7  28  1   
 16   7  29  1   
 17   7  30  1   
 18   8  11  ar  
 19   8  31  1   
 20   9  11  ar  
 21   9  32  1   
 22  10  33  1   
 23  10  34  1   
 24  10  35  1   
 25  11  12  1   
 26  12  13  1   
 27  12  36  1   
 28  12  37  1   
 29  13  14  1   
 30  13  38  1   
 31  14  15  ar  
 32  14  16  ar  
 33  15  17  ar  
 34  16  18  ar  
 35  16  19  1   
 36  17  20  ar  
 37  17  39  1   
 38  18  20  ar  
 39  19  21  1   
 40  19  22  1   
 41  20  40  1   
 42  21  41  1   
 43  21  42  1   
 44  21  43  1   
 45  22  44  1   
 46  22  45  1   
 47  22  46  1   
@<TRIPOS>SUBSTRUCTURE
  1 ****   9 GROUP 4 **** **** 0

# MOE 2024.06 (io_trps.svl 2023.06)
