@<TRIPOS>MOLECULE
NONAME
51 54 1 0 0 
SMALL
USER_CHARGES


@<TRIPOS>ATOM
  1 O        0.3440     1.2290    -0.0180 O.2   1 <1>  -0.5700 
  2 C        0.1200     2.3900    -0.2460 C.2   1 <1>   0.5690 
  3 N       -0.6690     3.1170     0.5720 N.am  1 <1>  -0.7300 
  4 C        0.6980     3.0580    -1.4920 C.3   1 <1>   0.1810 
  5 C       -1.0770     4.5190     0.3010 C.3   1 <1>   0.3640 
  6 O        0.7770     4.4590    -1.3520 O.3   1 <1>  -0.5600 
  7 C       -2.6040     4.5590     0.2470 C.ar  1 <1>  -0.1440 
  8 C       -0.4500     5.0980    -1.0010 C.3   1 <1>   0.2610 
  9 C       -3.3280     3.6100    -0.4660 C.ar  1 <1>  -0.1500 
 10 C       -3.2930     5.5610     0.9160 C.ar  1 <1>  -0.1500 
 11 C       -0.2210     6.6060    -0.8410 C.2   1 <1>   0.5690 
 12 C       -4.7100     3.6610    -0.5050 C.ar  1 <1>  -0.1500 
 13 C       -4.6750     5.6130     0.8780 C.ar  1 <1>  -0.1500 
 14 O       -1.1330     7.3150    -0.4850 O.2   1 <1>  -0.5700 
 15 N        1.0220     7.1020    -1.0930 N.am  1 <1>  -0.5790 
 16 C       -5.3850     4.6630     0.1680 C.ar  1 <1>  -0.1500 
 17 C        1.4470     8.5100    -1.0530 C.3   1 <1>   0.0540 
 18 C        2.4890     8.8800    -2.0620 C.3   1 <1>  -0.2000 
 19 C        1.0730     9.3310    -2.2460 C.3   1 <1>  -0.2000 
 20 C        1.4290     9.0820     0.3810 C.3   1 <1>   0.0780 
 21 C        2.0600    10.4680     0.5280 C.ar  1 <1>  -0.1430 
 22 C        3.4070    10.6540     0.8400 C.ar  1 <1>  -0.1430 
 23 C        1.2460    11.5790     0.3510 C.ar  1 <1>  -0.1500 
 24 C        3.9080    11.9410     0.9620 C.ar  1 <1>  -0.1500 
 25 C        4.3570     9.4840     1.0610 C.3   1 <1>  -0.0970 
 26 C        1.7540    12.8590     0.4740 C.ar  1 <1>  -0.1500 
 27 C        3.0880    13.0400     0.7800 C.ar  1 <1>  -0.1500 
 28 H       -1.1140     2.6500     1.3640 H     1 <1>   0.3700 
 29 H        0.0840     2.8310    -2.3440 H     1 <1>   0.0800 
 30 H        1.6910     2.6870    -1.6670 H     1 <1>   0.0800 
 31 H       -0.7450     5.1180     1.1320 H     1 <1>   0.0800 
 32 H       -1.1330     4.9550    -1.8180 H     1 <1>   0.0800 
 33 H       -2.8230     2.8190    -0.9950 H     1 <1>   0.1500 
 34 H       -2.7580     6.3170     1.4670 H     1 <1>   0.1500 
 35 H       -5.2610     2.9200    -1.0580 H     1 <1>   0.1500 
 36 H       -5.1970     6.3970     1.3980 H     1 <1>   0.1500 
 37 H        1.7320     6.4280    -1.3940 H     1 <1>   0.3700 
 38 H       -6.4600     4.7040     0.1380 H     1 <1>   0.1500 
 39 H        3.2130     9.6460    -1.8470 H     1 <1>   0.1000 
 40 H        2.8740     8.1300    -2.7300 H     1 <1>   0.1000 
 41 H        0.4630     8.8750    -3.0060 H     1 <1>   0.1000 
 42 H        0.8670    10.3800    -2.1320 H     1 <1>   0.1000 
 43 H        0.4070     9.1370     0.7090 H     1 <1>   0.0800 
 44 H        1.9270     8.3930     1.0370 H     1 <1>   0.0800 
 45 H        0.2040    11.4480     0.1130 H     1 <1>   0.1500 
 46 H        4.9440    12.0990     1.2030 H     1 <1>   0.1500 
 47 H        5.3780     9.8190     1.0930 H     1 <1>   0.0800 
 48 H        4.2680     8.7680     0.2650 H     1 <1>   0.0800 
 49 H        4.1290     9.0020     1.9940 H     1 <1>   0.0800 
 50 H        1.1110    13.7100     0.3320 H     1 <1>   0.1500 
 51 H        3.4890    14.0340     0.8770 H     1 <1>   0.1500 
@<TRIPOS>BOND
  1   1   2  2   
  2   2   3  am  
  3   2   4  1   
  4   3   5  1   
  5   3  28  1   
  6   4   6  1   
  7   4  29  1   
  8   4  30  1   
  9   5   7  1   
 10   5   8  1   
 11   5  31  1   
 12   6   8  1   
 13   7   9  ar  
 14   7  10  ar  
 15   8  11  1   
 16   8  32  1   
 17   9  12  ar  
 18   9  33  1   
 19  10  13  ar  
 20  10  34  1   
 21  11  14  2   
 22  11  15  am  
 23  12  16  ar  
 24  12  35  1   
 25  13  16  ar  
 26  13  36  1   
 27  15  17  1   
 28  15  37  1   
 29  16  38  1   
 30  17  18  1   
 31  17  19  1   
 32  17  20  1   
 33  18  19  1   
 34  18  39  1   
 35  18  40  1   
 36  19  41  1   
 37  19  42  1   
 38  20  21  1   
 39  20  43  1   
 40  20  44  1   
 41  21  22  ar  
 42  21  23  ar  
 43  22  24  ar  
 44  22  25  1   
 45  23  26  ar  
 46  23  45  1   
 47  24  27  ar  
 48  24  46  1   
 49  25  47  1   
 50  25  48  1   
 51  25  49  1   
 52  26  27  ar  
 53  26  50  1   
 54  27  51  1   
@<TRIPOS>SUBSTRUCTURE
  1 ****  11 GROUP 4 **** **** 0

# MOE 2024.06 (io_trps.svl 2023.06)
