@<TRIPOS>MOLECULE
NONAME
53 56 1 0 0 
SMALL
USER_CHARGES


@<TRIPOS>ATOM
  1 O        0.7570    -0.4110     0.8320 O.2   1 <1>  -0.5700 
  2 C        1.6640    -0.6700     0.0790 C.2   1 <1>   0.5690 
  3 N        2.6200     0.2620    -0.2560 N.am  1 <1>  -0.6600 
  4 C        1.7160    -2.0960    -0.4500 C.3   1 <1>  -0.0990 
  5 C        3.6440     0.1400    -1.3330 C.3   1 <1>   0.1400 
  6 C        2.5790     1.6280     0.3290 C.3   1 <1>   0.1400 
  7 C        2.7740    -2.9010     0.3170 C.3   1 <1>  -0.1600 
  8 C        5.0590     0.5290    -0.8620 C.3   1 <1>  -0.0800 
  9 C        3.9250     1.9100     0.9910 C.3   1 <1>  -0.1600 
 10 C        2.9410    -4.3480    -0.1720 C.3   1 <1>   0.0960 
 11 C        5.1030     1.8080     0.0070 C.3   1 <1>   0.2800 
 12 C        5.8190    -0.6080    -0.1690 C.3   1 <1>   0.1400 
 13 N        4.2260    -4.8580     0.3370 N.pl3 1 <1>   0.3140 
 14 O        5.0050     2.8750    -0.8650 O.3   1 <1>  -0.6800 
 15 C        6.4350     1.9460     0.7720 C.3   1 <1>  -0.1600 
 16 N        7.2770    -0.2510    -0.0750 N.am  1 <1>  -0.6600 
 17 N        4.4090    -5.1990     1.6160 N.2   1 <1>  -0.4180 
 18 C        5.4110    -4.7390    -0.2640 C.2   1 <1>  -0.3020 
 19 C        7.5860     1.2090     0.0830 C.3   1 <1>   0.1400 
 20 C        8.3320    -1.1270    -0.2140 C.2   1 <1>   0.5690 
 21 N        5.6740    -5.2870     1.8360 N.2   1 <1>  -0.2270 
 22 C        6.3090    -4.9870     0.7000 C.2   1 <1>   0.0460 
 23 O        9.4770    -0.7430    -0.1620 O.2   1 <1>  -0.5700 
 24 C        8.1440    -2.6180    -0.4590 C.3   1 <1>  -0.0990 
 25 C        7.8230    -4.9070     0.6370 C.3   1 <1>   0.0210 
 26 C        8.2880    -3.4530     0.8280 C.3   1 <1>  -0.1600 
 27 H        0.7510    -2.5470    -0.3040 H     1 <1>   0.0800 
 28 H        1.9130    -2.0900    -1.5040 H     1 <1>   0.0800 
 29 H        3.6630    -0.8500    -1.7470 H     1 <1>   0.0800 
 30 H        3.3610     0.8120    -2.1260 H     1 <1>   0.0800 
 31 H        2.3860     2.3460    -0.4510 H     1 <1>   0.0800 
 32 H        1.7950     1.7110     1.0620 H     1 <1>   0.0800 
 33 H        2.5120    -2.9150     1.3630 H     1 <1>   0.0800 
 34 H        3.7140    -2.3920     0.2290 H     1 <1>   0.0800 
 35 H        5.6120     0.7210    -1.7660 H     1 <1>   0.0800 
 36 H        4.0500     1.1910     1.7800 H     1 <1>   0.0800 
 37 H        3.9070     2.8830     1.4470 H     1 <1>   0.0800 
 38 H        2.9580    -4.3910    -1.2450 H     1 <1>   0.0800 
 39 H        2.1440    -4.9690     0.1970 H     1 <1>   0.0800 
 40 H        5.6810    -1.5040    -0.7400 H     1 <1>   0.0800 
 41 H        5.4250    -0.7720     0.8200 H     1 <1>   0.0800 
 42 H        5.0520     3.7140    -0.3710 H     1 <1>   0.4000 
 43 H        6.6910     2.9810     0.9070 H     1 <1>   0.0800 
 44 H        6.3410     1.5160     1.7530 H     1 <1>   0.0800 
 45 H        5.5370    -4.4630    -1.2920 H     1 <1>   0.1500 
 46 H        8.4830     1.3300     0.6670 H     1 <1>   0.0800 
 47 H        7.7630     1.6370    -0.8900 H     1 <1>   0.0800 
 48 H        7.2100    -2.8100    -0.9360 H     1 <1>   0.0800 
 49 H        8.9040    -2.9310    -1.1520 H     1 <1>   0.0800 
 50 H        8.2300    -5.5210     1.4220 H     1 <1>   0.0800 
 51 H        8.1760    -5.2950    -0.3020 H     1 <1>   0.0800 
 52 H        9.3220    -3.4430     1.1270 H     1 <1>   0.0800 
 53 H        7.7170    -3.0020     1.6230 H     1 <1>   0.0800 
@<TRIPOS>BOND
  1   1   2  2   
  2   2   3  am  
  3   2   4  1   
  4   3   5  1   
  5   3   6  1   
  6   4   7  1   
  7   4  27  1   
  8   4  28  1   
  9   5   8  1   
 10   5  29  1   
 11   5  30  1   
 12   6   9  1   
 13   6  31  1   
 14   6  32  1   
 15   7  10  1   
 16   7  33  1   
 17   7  34  1   
 18   8  11  1   
 19   8  12  1   
 20   8  35  1   
 21   9  11  1   
 22   9  36  1   
 23   9  37  1   
 24  10  13  1   
 25  10  38  1   
 26  10  39  1   
 27  11  14  1   
 28  11  15  1   
 29  12  16  1   
 30  12  40  1   
 31  12  41  1   
 32  13  17  1   
 33  13  18  1   
 34  14  42  1   
 35  15  19  1   
 36  15  43  1   
 37  15  44  1   
 38  16  19  1   
 39  16  20  am  
 40  17  21  2   
 41  18  22  2   
 42  18  45  1   
 43  19  46  1   
 44  19  47  1   
 45  20  23  2   
 46  20  24  1   
 47  21  22  1   
 48  22  25  1   
 49  24  26  1   
 50  24  48  1   
 51  24  49  1   
 52  25  26  1   
 53  25  50  1   
 54  25  51  1   
 55  26  52  1   
 56  26  53  1   
@<TRIPOS>SUBSTRUCTURE
  1 ****  12 GROUP 4 **** **** 0

# MOE 2024.06 (io_trps.svl 2023.06)
