@<TRIPOS>MOLECULE
NONAME
29 28 1 0 0 
SMALL
USER_CHARGES


@<TRIPOS>ATOM
  1 F       -0.2070    -0.6800     0.6680 F     1 <1>  -0.3400 
  2 C        0.8610    -1.3590     1.0810 C.3   1 <1>   0.6000 
  3 F        1.3790    -0.6270     2.0620 F     1 <1>  -0.3400 
  4 C        1.8340    -1.6530    -0.0930 C.3   1 <1>   0.1640 
  5 N        1.1410    -2.5440    -1.0880 N.3   1 <1>  -0.9900 
  6 C        2.2600    -0.3080    -0.7460 C.2   1 <1>   0.9060 
  7 C        3.0750    -2.4980     0.3330 C.3   1 <1>  -0.1600 
  8 O        2.3310    -0.2440    -1.9830 O.co2 1 <1>  -0.9000 
  9 O        2.7700     0.6220    -0.1100 O.co2 1 <1>  -0.9000 
 10 C        4.1400    -1.8700     1.2750 C.3   1 <1>  -0.1600 
 11 C        5.4680    -1.4860     0.6000 C.3   1 <1>   0.1680 
 12 N        5.2150    -0.4100    -0.3680 N.pl3 1 <1>  -0.8440 
 13 C        5.6090    -0.1990    -1.5840 C.cat 1 <1>   1.2000 
 14 N        4.8970     0.5280    -2.3640 N.pl3 1 <1>  -0.9670 
 15 N        6.7050    -0.7180    -2.0310 N.pl3 1 <1>  -0.9670 
 16 H        0.5060    -2.2690     1.5280 H     1 <1>   0.0800 
 17 H        1.6490    -2.3630    -1.9700 H     1 <1>   0.3600 
 18 H        0.2250    -2.1110    -1.2730 H     1 <1>   0.3600 
 19 H        3.5740    -2.8300    -0.5610 H     1 <1>   0.0800 
 20 H        2.6990    -3.3830     0.8170 H     1 <1>   0.0800 
 21 H        4.3740    -2.5960     2.0340 H     1 <1>   0.0800 
 22 H        3.7550    -1.0100     1.7930 H     1 <1>   0.0800 
 23 H        5.8950    -2.3440     0.1090 H     1 <1>   0.0800 
 24 H        6.1590    -1.1320     1.3480 H     1 <1>   0.0800 
 25 H        4.3750     0.1570    -0.1210 H     1 <1>   0.4500 
 26 H        5.0660     0.6950    -3.3420 H     1 <1>   0.4500 
 27 H        3.8890     0.6320    -2.1010 H     1 <1>   0.4500 
 28 H        7.0280    -0.5630    -2.9770 H     1 <1>   0.4500 
 29 H        7.2920    -1.2630    -1.4140 H     1 <1>   0.4500 
@<TRIPOS>BOND
  1   1   2  1   
  2   2   3  1   
  3   2   4  1   
  4   2  16  1   
  5   4   5  1   
  6   4   6  1   
  7   4   7  1   
  8   5  17  1   
  9   5  18  1   
 10   6   8  ar  
 11   6   9  ar  
 12   7  10  1   
 13   7  19  1   
 14   7  20  1   
 15  10  11  1   
 16  10  21  1   
 17  10  22  1   
 18  11  12  1   
 19  11  23  1   
 20  11  24  1   
 21  12  13  ar  
 22  12  25  1   
 23  13  14  ar  
 24  13  15  ar  
 25  14  26  1   
 26  14  27  1   
 27  15  28  1   
 28  15  29  1   
@<TRIPOS>SUBSTRUCTURE
  1 ****   6 GROUP 4 **** **** 0

# MOE 2024.06 (io_trps.svl 2023.06)
