@<TRIPOS>MOLECULE
NONAME
41 43 1 0 0 
SMALL
USER_CHARGES


@<TRIPOS>ATOM
  1 O       -0.0320     0.5630    -0.0490 O.2   1 <1>  -0.5700 
  2 C       -0.0430     1.7780     0.0160 C.2   1 <1>   0.7160 
  3 N       -1.2500     2.4340    -0.1120 N.am  1 <1>  -0.6600 
  4 C        1.2000     2.4800     0.2370 C.2   1 <1>  -0.0860 
  5 C       -1.4850     3.8030     0.4400 C.3   1 <1>   0.1400 
  6 C       -2.4470     1.6940    -0.6110 C.3   1 <1>   0.1400 
  7 C        2.2810     2.0480     0.9410 C.2   1 <1>  -0.0100 
  8 C        1.5940     3.7500    -0.2400 C.2   1 <1>  -0.1500 
  9 C       -2.8970     3.8880     1.0160 C.3   1 <1>  -0.1600 
 10 C       -3.4910     2.6770    -1.1480 C.3   1 <1>  -0.1600 
 11 O        3.2460     2.9360     0.9380 O.3   1 <1>  -0.2800 
 12 C        2.8410     3.9650     0.2250 C.2   1 <1>  -0.0100 
 13 C       -3.9690     3.6880    -0.0730 C.3   1 <1>   0.2800 
 14 O       -4.1010     4.9420    -0.6910 O.3   1 <1>  -0.5600 
 15 C       -5.3140     3.2840     0.5920 C.3   1 <1>  -0.1600 
 16 C       -5.0680     5.0930    -1.7000 C.3   1 <1>   0.1200 
 17 C       -6.4950     4.1740     0.1960 C.3   1 <1>   0.2800 
 18 C       -6.4220     4.4860    -1.2960 C.3   1 <1>  -0.1600 
 19 O       -6.3580     5.3600     0.8690 O.3   1 <1>  -0.6800 
 20 C       -7.8390     3.5820     0.6080 C.3   1 <1>  -0.2400 
 21 H       -1.3720     4.5320    -0.3450 H     1 <1>   0.0800 
 22 H       -0.7710     4.0160     1.2170 H     1 <1>   0.0800 
 23 H       -2.8620     1.1110     0.1940 H     1 <1>   0.0800 
 24 H       -2.1490     1.0180    -1.3950 H     1 <1>   0.0800 
 25 H        2.4220     1.1180     1.4640 H     1 <1>   0.1500 
 26 H        0.9950     4.3920    -0.8600 H     1 <1>   0.1500 
 27 H       -3.0440     4.8380     1.4980 H     1 <1>   0.0800 
 28 H       -2.9820     3.1290     1.7740 H     1 <1>   0.0800 
 29 H       -4.3200     2.1260    -1.5500 H     1 <1>   0.0800 
 30 H       -3.0260     3.2010    -1.9640 H     1 <1>   0.0800 
 31 H        3.5070     4.8010     0.0960 H     1 <1>   0.1500 
 32 H       -5.2350     3.2870     1.6650 H     1 <1>   0.0800 
 33 H       -5.5410     2.2680     0.3270 H     1 <1>   0.0800 
 34 H       -4.7010     4.6480    -2.6080 H     1 <1>   0.0800 
 35 H       -5.1790     6.1510    -1.8660 H     1 <1>   0.0800 
 36 H       -6.5660     3.5770    -1.8500 H     1 <1>   0.0800 
 37 H       -7.2190     5.1520    -1.5780 H     1 <1>   0.0800 
 38 H       -5.4880     5.7280     0.6060 H     1 <1>   0.4000 
 39 H       -8.0090     2.6500     0.1000 H     1 <1>   0.0800 
 40 H       -8.6360     4.2580     0.3550 H     1 <1>   0.0800 
 41 H       -7.8560     3.4020     1.6680 H     1 <1>   0.0800 
@<TRIPOS>BOND
  1   1   2  2   
  2   2   3  am  
  3   2   4  1   
  4   3   5  1   
  5   3   6  1   
  6   4   7  2   
  7   4   8  1   
  8   5   9  1   
  9   5  21  1   
 10   5  22  1   
 11   6  10  1   
 12   6  23  1   
 13   6  24  1   
 14   7  11  1   
 15   7  25  1   
 16   8  12  2   
 17   8  26  1   
 18   9  13  1   
 19   9  27  1   
 20   9  28  1   
 21  10  13  1   
 22  10  29  1   
 23  10  30  1   
 24  11  12  1   
 25  12  31  1   
 26  13  14  1   
 27  13  15  1   
 28  14  16  1   
 29  15  17  1   
 30  15  32  1   
 31  15  33  1   
 32  16  18  1   
 33  16  34  1   
 34  16  35  1   
 35  17  18  1   
 36  17  19  1   
 37  17  20  1   
 38  18  36  1   
 39  18  37  1   
 40  19  38  1   
 41  20  39  1   
 42  20  40  1   
 43  20  41  1   
@<TRIPOS>SUBSTRUCTURE
  1 ****   5 GROUP 4 **** **** 0

# MOE 2024.06 (io_trps.svl 2023.06)
