@<TRIPOS>MOLECULE
NONAME
51 53 1 0 0 
SMALL
USER_CHARGES


@<TRIPOS>ATOM
  1 O       -1.0920     0.8380    -0.9510 O.2   1 <1>  -0.5700 
  2 C       -1.4500     1.0880     0.1830 C.2   1 <1>   0.5440 
  3 N       -1.9650     0.0700     0.9320 N.am  1 <1>  -0.7300 
  4 C       -1.3290     2.4280     0.7300 C.ar  1 <1>   0.0860 
  5 C       -2.1380    -1.3250     0.4710 C.3   1 <1>   0.2200 
  6 C       -0.3550     3.3060     0.2560 C.ar  1 <1>  -0.1500 
  7 C       -2.1720     2.8940     1.7410 C.ar  1 <1>  -0.1500 
  8 C       -3.5970    -1.5500     0.1120 C.3   1 <1>  -0.0800 
  9 C       -1.9590    -2.2760     1.6480 C.3   1 <1>   0.1200 
 10 C       -0.2020     4.5860     0.7620 C.ar  1 <1>   0.0730 
 11 C       -2.0360     4.1680     2.2600 C.ar  1 <1>  -0.1500 
 12 C       -4.2220    -1.8890     1.4720 C.3   1 <1>   0.1200 
 13 C       -3.7570    -2.6930    -0.9080 C.3   1 <1>  -0.0160 
 14 O       -3.1810    -2.2800     2.3220 O.3   1 <1>  -0.5600 
 15 C        0.8130     5.4570     0.2550 C.1   1 <1>  -0.0730 
 16 C       -1.0530     5.0090     1.7720 C.ar  1 <1>  -0.1500 
 17 C       -5.2150    -2.8910    -1.2940 C.ar  1 <1>  -0.1440 
 18 C        1.6580     6.1840    -0.1640 C.1   1 <1>  -0.2000 
 19 C       -5.9610    -3.9560    -0.8320 C.ar  1 <1>  -0.1500 
 20 C       -5.8670    -2.0080    -2.1310 C.ar  1 <1>  -0.1500 
 21 C        2.7140     7.0890    -0.6930 C.3   1 <1>   0.4800 
 22 C       -7.2860    -4.0810    -1.2130 C.ar  1 <1>   0.1600 
 23 C       -7.1970    -2.2240    -2.4510 C.ar  1 <1>   0.1600 
 24 O        2.7120     8.2240     0.0730 O.3   1 <1>  -0.6800 
 25 C        4.0950     6.4570    -0.5640 C.3   1 <1>  -0.2400 
 26 C        2.4090     7.5090    -2.1260 C.3   1 <1>  -0.2400 
 27 N       -7.9230    -3.2390    -2.0110 N.ar  1 <1>  -0.6200 
 28 H       -2.2480     0.2280     1.9010 H     1 <1>   0.3700 
 29 H       -1.4590    -1.5420    -0.3370 H     1 <1>   0.0800 
 30 H        0.3020     2.9750    -0.5300 H     1 <1>   0.1500 
 31 H       -2.9490     2.2580     2.1250 H     1 <1>   0.1500 
 32 H       -4.0340    -0.6580    -0.3010 H     1 <1>   0.0800 
 33 H       -1.1750    -1.9670     2.3170 H     1 <1>   0.0800 
 34 H       -1.7710    -3.2770     1.3040 H     1 <1>   0.0800 
 35 H       -2.6940     4.5100     3.0410 H     1 <1>   0.1500 
 36 H       -4.9440    -2.6840     1.4170 H     1 <1>   0.0800 
 37 H       -4.6840    -1.0190     1.9050 H     1 <1>   0.0800 
 38 H       -3.3600    -3.6100    -0.5090 H     1 <1>   0.0800 
 39 H       -3.1970    -2.4560    -1.7970 H     1 <1>   0.0800 
 40 H       -0.9420     6.0020     2.1720 H     1 <1>   0.1500 
 41 H       -5.5260    -4.6910    -0.1780 H     1 <1>   0.1500 
 42 H       -5.3540    -1.1550    -2.5360 H     1 <1>   0.1500 
 43 H       -7.8530    -4.9180    -0.8420 H     1 <1>   0.1500 
 44 H       -7.6900    -1.5250    -3.1050 H     1 <1>   0.1500 
 45 H        3.3970     8.8290    -0.2570 H     1 <1>   0.4000 
 46 H        4.1310     5.5480    -1.1370 H     1 <1>   0.0800 
 47 H        4.2920     6.2110     0.4650 H     1 <1>   0.0800 
 48 H        4.8570     7.1200    -0.9270 H     1 <1>   0.0800 
 49 H        2.3800     6.6400    -2.7580 H     1 <1>   0.0800 
 50 H        3.1630     8.1770    -2.5000 H     1 <1>   0.0800 
 51 H        1.4480     7.9890    -2.1720 H     1 <1>   0.0800 
@<TRIPOS>BOND
  1   1   2  2   
  2   2   3  am  
  3   2   4  1   
  4   3   5  1   
  5   3  28  1   
  6   4   6  ar  
  7   4   7  ar  
  8   5   8  1   
  9   5   9  1   
 10   5  29  1   
 11   6  10  ar  
 12   6  30  1   
 13   7  11  ar  
 14   7  31  1   
 15   8  12  1   
 16   8  13  1   
 17   8  32  1   
 18   9  14  1   
 19   9  33  1   
 20   9  34  1   
 21  10  15  1   
 22  10  16  ar  
 23  11  16  ar  
 24  11  35  1   
 25  12  14  1   
 26  12  36  1   
 27  12  37  1   
 28  13  17  1   
 29  13  38  1   
 30  13  39  1   
 31  15  18  3   
 32  16  40  1   
 33  17  19  ar  
 34  17  20  ar  
 35  18  21  1   
 36  19  22  ar  
 37  19  41  1   
 38  20  23  ar  
 39  20  42  1   
 40  21  24  1   
 41  21  25  1   
 42  21  26  1   
 43  22  27  ar  
 44  22  43  1   
 45  23  27  ar  
 46  23  44  1   
 47  24  45  1   
 48  25  46  1   
 49  25  47  1   
 50  25  48  1   
 51  26  49  1   
 52  26  50  1   
 53  26  51  1   
@<TRIPOS>SUBSTRUCTURE
  1 ****   2 GROUP 4 **** **** 0

# MOE 2024.06 (io_trps.svl 2023.06)
