@<TRIPOS>MOLECULE
NONAME
46 50 1 0 0 
SMALL
USER_CHARGES


@<TRIPOS>ATOM
  1 S       -3.7910     5.3770    -0.1020 S.3   1 <1>  -0.1570 
  2 C       -4.1610     3.6760    -0.4440 C.2   1 <1>   0.2420 
  3 C       -2.4000     4.8890     0.9030 C.2   1 <1>  -0.0490 
  4 N       -5.0870     3.1070    -1.1420 N.2   1 <1>  -0.5650 
  5 N       -3.2760     2.8740     0.1780 N.pl3 1 <1>   0.3340 
  6 C       -2.2920     3.5500     0.9310 C.2   1 <1>  -0.1810 
  7 C       -4.7860     1.7990    -0.9600 C.2   1 <1>   0.0460 
  8 C       -3.6950     1.6400    -0.1670 C.2   1 <1>  -0.3020 
  9 C       -5.6150     0.7030    -1.6020 C.3   1 <1>   0.0820 
 10 C       -6.5090     0.0160    -0.5830 C.2   1 <1>   0.5690 
 11 O       -6.0660    -0.9880    -0.0730 O.2   1 <1>  -0.5700 
 12 N       -7.7660     0.4840    -0.2710 N.am  1 <1>  -0.6600 
 13 C       -8.3820     1.7430    -0.8140 C.3   1 <1>   0.1400 
 14 C       -8.6730    -0.3040     0.6140 C.3   1 <1>   0.1400 
 15 C       -8.9520     2.6420     0.3040 C.3   1 <1>   0.1430 
 16 C       -9.1880     0.5690     1.7610 C.3   1 <1>  -0.1600 
 17 C       -9.6830     3.8080    -0.3380 C.ar  1 <1>   0.1670 
 18 C       -9.8850     1.8300     1.2280 C.3   1 <1>  -0.1600 
 19 C       -7.8210     3.3480     1.1020 C.3   1 <1>  -0.1600 
 20 N      -10.8320     3.7320    -0.9700 N.ar  1 <1>  -0.6200 
 21 C       -8.9950     4.9760    -0.1940 C.ar  1 <1>  -0.1440 
 22 C       -7.6990     4.7810     0.5510 C.3   1 <1>  -0.0170 
 23 C      -11.2590     4.8880    -1.4520 C.ar  1 <1>   0.7200 
 24 C       -9.5430     6.1160    -0.7320 C.ar  1 <1>   0.1600 
 25 N      -10.6950     6.0840    -1.3650 N.ar  1 <1>  -0.6200 
 26 N      -12.4300     4.8500    -2.0900 N.pl3 1 <1>  -0.9000 
 27 H       -1.8280     5.6810     1.3560 H     1 <1>   0.1500 
 28 H       -1.5590     2.9580     1.4470 H     1 <1>   0.1500 
 29 H       -3.2090     0.7410     0.1670 H     1 <1>   0.1500 
 30 H       -4.9460    -0.0310    -2.0100 H     1 <1>   0.0800 
 31 H       -6.1910     1.0930    -2.4180 H     1 <1>   0.0800 
 32 H       -9.1830     1.4700    -1.4790 H     1 <1>   0.0800 
 33 H       -7.6700     2.3150    -1.3800 H     1 <1>   0.0800 
 34 H       -8.1630    -1.1600     1.0230 H     1 <1>   0.0800 
 35 H       -9.5020    -0.6630     0.0290 H     1 <1>   0.0800 
 36 H       -8.3620     0.8360     2.3960 H     1 <1>   0.0800 
 37 H       -9.8830    -0.0010     2.3520 H     1 <1>   0.0800 
 38 H      -10.7550     1.5320     0.6690 H     1 <1>   0.0800 
 39 H      -10.2230     2.4430     2.0450 H     1 <1>   0.0800 
 40 H       -6.8860     2.8190     1.0350 H     1 <1>   0.0800 
 41 H       -8.0940     3.4120     2.1400 H     1 <1>   0.0800 
 42 H       -6.8790     4.8600    -0.1390 H     1 <1>   0.0800 
 43 H       -7.5800     5.5000     1.3420 H     1 <1>   0.0800 
 44 H       -9.0320     7.0590    -0.6430 H     1 <1>   0.1500 
 45 H      -12.8970     5.7470    -2.1800 H     1 <1>   0.4000 
 46 H      -13.0120     4.0460    -1.8740 H     1 <1>   0.4000 
@<TRIPOS>BOND
  1   1   2  1   
  2   1   3  1   
  3   2   4  2   
  4   2   5  1   
  5   3   6  2   
  6   3  27  1   
  7   4   7  1   
  8   5   6  1   
  9   5   8  1   
 10   6  28  1   
 11   7   8  2   
 12   7   9  1   
 13   8  29  1   
 14   9  10  1   
 15   9  30  1   
 16   9  31  1   
 17  10  11  2   
 18  10  12  am  
 19  12  13  1   
 20  12  14  1   
 21  13  15  1   
 22  13  32  1   
 23  13  33  1   
 24  14  16  1   
 25  14  34  1   
 26  14  35  1   
 27  15  17  1   
 28  15  18  1   
 29  15  19  1   
 30  16  18  1   
 31  16  36  1   
 32  16  37  1   
 33  17  20  ar  
 34  17  21  ar  
 35  18  38  1   
 36  18  39  1   
 37  19  22  1   
 38  19  40  1   
 39  19  41  1   
 40  20  23  ar  
 41  21  22  1   
 42  21  24  ar  
 43  22  42  1   
 44  22  43  1   
 45  23  25  ar  
 46  23  26  1   
 47  24  25  ar  
 48  24  44  1   
 49  26  45  1   
 50  26  46  1   
@<TRIPOS>SUBSTRUCTURE
  1 ****  19 GROUP 4 **** **** 0

# MOE 2024.06 (io_trps.svl 2023.06)
