@<TRIPOS>MOLECULE
NONAME
48 50 1 0 0 
SMALL
USER_CHARGES


@<TRIPOS>ATOM
  1 O       -1.0200     0.4970     2.1230 O.2   1 <1>  -0.5700 
  2 C       -1.5410     1.0210     1.1660 C.2   1 <1>   0.5690 
  3 N       -2.3010     0.2690     0.3050 N.am  1 <1>  -0.6600 
  4 C       -1.3120     2.5310     0.9930 C.3   1 <1>  -0.0190 
  5 C       -3.0330     0.6940    -0.9170 C.3   1 <1>   0.1400 
  6 C       -2.5250    -1.1800     0.5440 C.3   1 <1>   0.1400 
  7 C       -2.5640     3.3270     1.4220 C.3   1 <1>  -0.1600 
  8 C       -0.7320     2.8990    -0.3930 C.3   1 <1>  -0.1600 
  9 C       -4.0920    -0.3870    -1.1170 C.3   1 <1>   0.2000 
 10 C       -3.4000    -1.6600    -0.6220 C.3   1 <1>  -0.0800 
 11 C       -2.4290     4.8570     1.3550 C.3   1 <1>  -0.1600 
 12 C       -0.0600     4.2810    -0.4150 C.3   1 <1>  -0.1600 
 13 O       -5.1670    -0.0900    -0.2940 O.3   1 <1>  -0.6800 
 14 C       -4.3520    -2.8140    -0.2550 C.3   1 <1>   0.0200 
 15 C       -2.4060     5.3830    -0.0870 C.3   1 <1>  -0.1600 
 16 C       -1.0090     5.4490    -0.7230 C.3   1 <1>  -0.1600 
 17 C       -3.6250    -4.1030     0.0920 C.2   1 <1>  -0.0400 
 18 O       -4.3240    -5.1160     0.5300 O.3   1 <1>  -0.0190 
 19 C       -2.3380    -4.4840     0.0520 C.2   1 <1>  -0.1500 
 20 N       -3.5770    -6.1500     0.7870 N.2   1 <1>  -0.4100 
 21 C       -2.3740    -5.7980     0.5090 C.2   1 <1>   0.1080 
 22 C       -1.1680    -6.6970     0.6620 C.3   1 <1>  -0.0590 
 23 H       -0.5470     2.7760     1.7100 H     1 <1>   0.0800 
 24 H       -3.4800     1.6660    -0.8210 H     1 <1>   0.0800 
 25 H       -2.3510     0.6900    -1.7490 H     1 <1>   0.0800 
 26 H       -1.5850    -1.7030     0.5800 H     1 <1>   0.0800 
 27 H       -3.0320    -1.3050     1.4860 H     1 <1>   0.0800 
 28 H       -3.4150     3.0270     0.8410 H     1 <1>   0.0800 
 29 H       -2.7800     3.0610     2.4430 H     1 <1>   0.0800 
 30 H        0.0210     2.1680    -0.6330 H     1 <1>   0.0800 
 31 H       -1.4800     2.8540    -1.1610 H     1 <1>   0.0800 
 32 H       -4.4440    -0.4540    -2.1330 H     1 <1>   0.0800 
 33 H       -2.7450    -1.9970    -1.4060 H     1 <1>   0.0800 
 34 H       -3.2890     5.2780     1.8460 H     1 <1>   0.0800 
 35 H       -1.5600     5.1890     1.8970 H     1 <1>   0.0800 
 36 H        0.4340     4.4590     0.5250 H     1 <1>   0.0800 
 37 H        0.7090     4.2780    -1.1680 H     1 <1>   0.0800 
 38 H       -4.8280     0.1150     0.6020 H     1 <1>   0.4000 
 39 H       -5.0110    -3.0090    -1.0830 H     1 <1>   0.0800 
 40 H       -4.9640    -2.5340     0.5860 H     1 <1>   0.0800 
 41 H       -3.0530     4.7790    -0.7000 H     1 <1>   0.0800 
 42 H       -2.8160     6.3780    -0.0960 H     1 <1>   0.0800 
 43 H       -0.5280     6.3580    -0.4040 H     1 <1>   0.0800 
 44 H       -1.1350     5.5210    -1.7900 H     1 <1>   0.0800 
 45 H       -1.4590    -3.9480    -0.2510 H     1 <1>   0.1500 
 46 H       -0.4720    -6.2600     1.3540 H     1 <1>   0.0800 
 47 H       -0.6880    -6.8300    -0.2900 H     1 <1>   0.0800 
 48 H       -1.4720    -7.6590     1.0360 H     1 <1>   0.0800 
@<TRIPOS>BOND
  1   1   2  2   
  2   2   3  am  
  3   2   4  1   
  4   3   5  1   
  5   3   6  1   
  6   4   7  1   
  7   4   8  1   
  8   4  23  1   
  9   5   9  1   
 10   5  24  1   
 11   5  25  1   
 12   6  10  1   
 13   6  26  1   
 14   6  27  1   
 15   7  11  1   
 16   7  28  1   
 17   7  29  1   
 18   8  12  1   
 19   8  30  1   
 20   8  31  1   
 21   9  10  1   
 22   9  13  1   
 23   9  32  1   
 24  10  14  1   
 25  10  33  1   
 26  11  15  1   
 27  11  34  1   
 28  11  35  1   
 29  12  16  1   
 30  12  36  1   
 31  12  37  1   
 32  13  38  1   
 33  14  17  1   
 34  14  39  1   
 35  14  40  1   
 36  15  16  1   
 37  15  41  1   
 38  15  42  1   
 39  16  43  1   
 40  16  44  1   
 41  17  18  1   
 42  17  19  2   
 43  18  20  1   
 44  19  21  1   
 45  19  45  1   
 46  20  21  2   
 47  21  22  1   
 48  22  46  1   
 49  22  47  1   
 50  22  48  1   
@<TRIPOS>SUBSTRUCTURE
  1 ****   3 GROUP 4 **** **** 0

# MOE 2024.06 (io_trps.svl 2023.06)
