@<TRIPOS>MOLECULE
NONAME
31 33 1 0 0 
SMALL
USER_CHARGES


@<TRIPOS>ATOM
  1 N       -0.6660     0.0730     1.2860 N.ar  1 <1>  -0.6200 
  2 C       -1.4850    -0.6160     0.4440 C.ar  1 <1>   0.3100 
  3 C        0.1950    -0.6070     1.9750 C.ar  1 <1>   0.4700 
  4 C       -2.4660     0.0450    -0.3570 C.ar  1 <1>   0.1000 
  5 C       -1.3690    -2.0120     0.3560 C.ar  1 <1>   0.0000 
  6 N        0.3780    -1.9390     1.9570 N.ar  1 <1>  -0.6200 
  7 N       -2.6650     1.4320    -0.3450 N.pl3 1 <1>  -0.8380 
  8 C       -3.2680    -0.7020    -1.1920 C.ar  1 <1>  -0.1500 
  9 C       -0.3890    -2.6090     1.1650 C.ar  1 <1>   0.1600 
 10 C       -2.2090    -2.7330    -0.5100 C.ar  1 <1>  -0.1500 
 11 C       -3.2320     1.9790     0.9250 C.3   1 <1>   0.2090 
 12 C       -1.5460     2.2360    -0.9260 C.3   1 <1>   0.2090 
 13 C       -3.1450    -2.0860    -1.2720 C.ar  1 <1>  -0.1500 
 14 C       -3.5980     3.4690     0.7780 C.3   1 <1>   0.3430 
 15 C       -1.9330     3.7240    -1.0510 C.3   1 <1>   0.3430 
 16 N       -2.4500     4.2850     0.2460 N.4   1 <1>  -0.9060 
 17 H        0.8470    -0.0690     2.6440 H     1 <1>   0.1500 
 18 H       -4.0080    -0.2080    -1.7960 H     1 <1>   0.1500 
 19 H       -0.2770    -3.6790     1.1190 H     1 <1>   0.1500 
 20 H       -2.1090    -3.8040    -0.5670 H     1 <1>   0.1500 
 21 H       -2.5210     1.8590     1.7250 H     1 <1>   0.0800 
 22 H       -4.1140     1.4180     1.1860 H     1 <1>   0.0800 
 23 H       -1.3030     1.8480    -1.9010 H     1 <1>   0.0800 
 24 H       -0.6690     2.1420    -0.3100 H     1 <1>   0.0800 
 25 H       -3.7900    -2.6370    -1.9360 H     1 <1>   0.1500 
 26 H       -3.9120     3.8510     1.7360 H     1 <1>   0.0800 
 27 H       -4.4350     3.5420     0.1030 H     1 <1>   0.0800 
 28 H       -2.6940     3.8080    -1.8090 H     1 <1>   0.0800 
 29 H       -1.0740     4.2850    -1.3810 H     1 <1>   0.0800 
 30 H       -1.6890     4.2660     0.9370 H     1 <1>   0.4500 
 31 H       -2.7370     5.2640     0.1210 H     1 <1>   0.4500 
@<TRIPOS>BOND
  1   1   2  ar  
  2   1   3  ar  
  3   2   4  ar  
  4   2   5  ar  
  5   3   6  ar  
  6   3  17  1   
  7   4   7  1   
  8   4   8  ar  
  9   5   9  ar  
 10   5  10  ar  
 11   6   9  ar  
 12   7  11  1   
 13   7  12  1   
 14   8  13  ar  
 15   8  18  1   
 16   9  19  1   
 17  10  13  ar  
 18  10  20  1   
 19  11  14  1   
 20  11  21  1   
 21  11  22  1   
 22  12  15  1   
 23  12  23  1   
 24  12  24  1   
 25  13  25  1   
 26  14  16  1   
 27  14  26  1   
 28  14  27  1   
 29  15  16  1   
 30  15  28  1   
 31  15  29  1   
 32  16  30  1   
 33  16  31  1   
@<TRIPOS>SUBSTRUCTURE
  1 ****   4 GROUP 4 **** **** 0

# MOE 2024.06 (io_trps.svl 2023.06)
