@<TRIPOS>MOLECULE
NONAME
58 61 1 0 0 
SMALL
USER_CHARGES


@<TRIPOS>ATOM
  1 O       -2.2130    -1.1510     1.1970 O.2   1 <1>  -0.5700 
  2 C       -2.3720    -0.0690     0.6800 C.2   1 <1>   0.5690 
  3 N       -3.0480     0.0700    -0.5020 N.am  1 <1>  -0.6600 
  4 C       -1.8100     1.1450     1.3990 C.3   1 <1>  -0.0990 
  5 C       -3.3380     1.3790    -1.1420 C.3   1 <1>   0.1400 
  6 C       -3.5780    -1.1330    -1.1990 C.3   1 <1>   0.1400 
  7 C       -2.9050     2.0800     1.9390 C.3   1 <1>  -0.1600 
  8 C       -4.2580     2.2300    -0.2600 C.3   1 <1>  -0.1600 
  9 C       -4.9620    -1.4710    -0.6530 C.3   1 <1>  -0.0990 
 10 C       -3.5250     2.9820     0.8630 C.3   1 <1>  -0.1600 
 11 C       -5.3580    -2.8520    -1.1050 C.2   1 <1>   0.5690 
 12 O       -6.0580    -2.9790    -2.0790 O.2   1 <1>  -0.5700 
 13 N       -4.9070    -3.9140    -0.3980 N.am  1 <1>  -0.7300 
 14 C       -5.2180    -5.3230    -0.7230 C.3   1 <1>   0.2200 
 15 C       -6.4550    -5.7490     0.0460 C.3   1 <1>  -0.0800 
 16 C       -4.1440    -6.2520    -0.1580 C.3   1 <1>   0.1200 
 17 C       -5.8560    -6.1690     1.3870 C.3   1 <1>   0.1200 
 18 C       -7.1830    -6.9100    -0.6590 C.3   1 <1>  -0.0170 
 19 O       -4.5710    -6.6440     1.1160 O.3   1 <1>  -0.5600 
 20 C       -8.4800    -7.2750     0.0570 C.ar  1 <1>  -0.1440 
 21 C       -9.6490    -6.4830    -0.0450 C.ar  1 <1>   0.0000 
 22 C       -8.5430    -8.3970     0.8300 C.ar  1 <1>  -0.1500 
 23 C      -10.7930    -6.9050     0.6760 C.ar  1 <1>   0.3100 
 24 C       -9.7520    -5.3030    -0.8190 C.ar  1 <1>  -0.1500 
 25 C       -9.7290    -8.7270     1.4970 C.ar  1 <1>   0.1600 
 26 N      -10.8160    -8.0260     1.4410 N.ar  1 <1>  -0.6200 
 27 C      -11.9640    -6.1350     0.6030 C.ar  1 <1>  -0.1500 
 28 C      -10.9100    -4.5760    -0.8690 C.ar  1 <1>  -0.1500 
 29 C      -12.0320    -4.9940    -0.1500 C.ar  1 <1>  -0.1500 
 30 H       -1.2260     0.7900     2.2290 H     1 <1>   0.0800 
 31 H       -1.1440     1.6750     0.7440 H     1 <1>   0.0800 
 32 H       -2.4160     1.9000    -1.3390 H     1 <1>   0.0800 
 33 H       -3.8240     1.2120    -2.0880 H     1 <1>   0.0800 
 34 H       -3.6230    -0.9690    -2.2620 H     1 <1>   0.0800 
 35 H       -2.9090    -1.9600    -1.0260 H     1 <1>   0.0800 
 36 H       -3.6730     1.4940     2.4140 H     1 <1>   0.0800 
 37 H       -2.4690     2.7110     2.6930 H     1 <1>   0.0800 
 38 H       -4.7210     2.9680    -0.8920 H     1 <1>   0.0800 
 39 H       -5.0450     1.6190     0.1460 H     1 <1>   0.0800 
 40 H       -5.6830    -0.7590    -1.0080 H     1 <1>   0.0800 
 41 H       -4.9520    -1.4500     0.4210 H     1 <1>   0.0800 
 42 H       -2.7570     3.6040     0.4340 H     1 <1>   0.0800 
 43 H       -4.2310     3.6380     1.3440 H     1 <1>   0.0800 
 44 H       -4.3390    -3.7690     0.4430 H     1 <1>   0.3700 
 45 H       -5.3260    -5.4340    -1.7900 H     1 <1>   0.0800 
 46 H       -7.1360    -4.9270     0.1740 H     1 <1>   0.0800 
 47 H       -3.1820    -5.7760    -0.0840 H     1 <1>   0.0800 
 48 H       -4.0630    -7.1420    -0.7560 H     1 <1>   0.0800 
 49 H       -6.4210    -6.9350     1.8870 H     1 <1>   0.0800 
 50 H       -5.7550    -5.3170     2.0380 H     1 <1>   0.0800 
 51 H       -6.5390    -7.7710    -0.6980 H     1 <1>   0.0800 
 52 H       -7.4070    -6.6420    -1.6770 H     1 <1>   0.0800 
 53 H       -7.6960    -9.0480     0.9500 H     1 <1>   0.1500 
 54 H       -8.9050    -4.9620    -1.3850 H     1 <1>   0.1500 
 55 H       -9.7340    -9.6210     2.0980 H     1 <1>   0.1500 
 56 H      -12.8150    -6.4770     1.1630 H     1 <1>   0.1500 
 57 H      -10.9710    -3.6790    -1.4610 H     1 <1>   0.1500 
 58 H      -12.9370    -4.4130    -0.1960 H     1 <1>   0.1500 
@<TRIPOS>BOND
  1   1   2  2   
  2   2   3  am  
  3   2   4  1   
  4   3   5  1   
  5   3   6  1   
  6   4   7  1   
  7   4  30  1   
  8   4  31  1   
  9   5   8  1   
 10   5  32  1   
 11   5  33  1   
 12   6   9  1   
 13   6  34  1   
 14   6  35  1   
 15   7  10  1   
 16   7  36  1   
 17   7  37  1   
 18   8  10  1   
 19   8  38  1   
 20   8  39  1   
 21   9  11  1   
 22   9  40  1   
 23   9  41  1   
 24  10  42  1   
 25  10  43  1   
 26  11  12  2   
 27  11  13  am  
 28  13  14  1   
 29  13  44  1   
 30  14  15  1   
 31  14  16  1   
 32  14  45  1   
 33  15  17  1   
 34  15  18  1   
 35  15  46  1   
 36  16  19  1   
 37  16  47  1   
 38  16  48  1   
 39  17  19  1   
 40  17  49  1   
 41  17  50  1   
 42  18  20  1   
 43  18  51  1   
 44  18  52  1   
 45  20  21  ar  
 46  20  22  ar  
 47  21  23  ar  
 48  21  24  ar  
 49  22  25  ar  
 50  22  53  1   
 51  23  26  ar  
 52  23  27  ar  
 53  24  28  ar  
 54  24  54  1   
 55  25  26  ar  
 56  25  55  1   
 57  27  29  ar  
 58  27  56  1   
 59  28  29  ar  
 60  28  57  1   
 61  29  58  1   
@<TRIPOS>SUBSTRUCTURE
  1 ****  13 GROUP 4 **** **** 0

# MOE 2024.06 (io_trps.svl 2023.06)
