@<TRIPOS>MOLECULE
NONAME
28 28 1 0 0 
SMALL
USER_CHARGES


@<TRIPOS>ATOM
  1 O       -0.4110     0.2780     0.3760 O.2   1 <1>  -0.5700 
  2 C       -0.1380     1.4250     0.1070 C.2   1 <1>   0.4950 
  3 C        1.2010     1.9560     0.0230 C.2   1 <1>   0.0910 
  4 C       -1.2990     2.3950    -0.1730 C.3   1 <1>  -0.0190 
  5 O        2.2810     1.1210     0.0300 O.3   1 <1>  -0.3570 
  6 C        1.4470     3.2990    -0.0560 C.2   1 <1>   0.0910 
  7 C       -1.0010     3.7820     0.4520 C.3   1 <1>  -0.0190 
  8 C       -2.6690     1.8290     0.2770 C.3   1 <1>  -0.2400 
  9 C        2.2450    -0.1800    -0.5210 C.3   1 <1>   0.0400 
 10 O        2.7450     3.6900    -0.2130 O.3   1 <1>  -0.3570 
 11 C        0.3880     4.2770     0.0110 C.2   1 <1>   0.4950 
 12 C       -2.1200     4.8120     0.1580 C.3   1 <1>  -0.2400 
 13 C        3.2450     4.9050     0.3090 C.3   1 <1>   0.0400 
 14 O        0.5140     5.4510    -0.2490 O.2   1 <1>  -0.5700 
 15 H       -1.3420     2.5140    -1.2420 H     1 <1>   0.0800 
 16 H       -0.9540     3.6630     1.5210 H     1 <1>   0.0800 
 17 H       -2.7090     1.7460     1.3490 H     1 <1>   0.0800 
 18 H       -2.8230     0.8490    -0.1410 H     1 <1>   0.0800 
 19 H       -3.4820     2.4450    -0.0600 H     1 <1>   0.0800 
 20 H        3.2560    -0.4960    -0.7000 H     1 <1>   0.0800 
 21 H        1.6960    -0.1600    -1.4450 H     1 <1>   0.0800 
 22 H        1.7780    -0.8460     0.1840 H     1 <1>   0.0800 
 23 H       -2.2580     4.9280    -0.9020 H     1 <1>   0.0800 
 24 H       -1.8600     5.7720     0.5700 H     1 <1>   0.0800 
 25 H       -3.0530     4.5210     0.6060 H     1 <1>   0.0800 
 26 H        4.3160     4.8320     0.3570 H     1 <1>   0.0800 
 27 H        2.8420     5.0620     1.2930 H     1 <1>   0.0800 
 28 H        2.9670     5.7090    -0.3490 H     1 <1>   0.0800 
@<TRIPOS>BOND
  1   1   2  2   
  2   2   3  1   
  3   2   4  1   
  4   3   5  1   
  5   3   6  2   
  6   4   7  1   
  7   4   8  1   
  8   4  15  1   
  9   5   9  1   
 10   6  10  1   
 11   6  11  1   
 12   7  11  1   
 13   7  12  1   
 14   7  16  1   
 15   8  17  1   
 16   8  18  1   
 17   8  19  1   
 18   9  20  1   
 19   9  21  1   
 20   9  22  1   
 21  10  13  1   
 22  11  14  2   
 23  12  23  1   
 24  12  24  1   
 25  12  25  1   
 26  13  26  1   
 27  13  27  1   
 28  13  28  1   
@<TRIPOS>SUBSTRUCTURE
  1 ****   3 GROUP 4 **** **** 0

# MOE 2024.06 (io_trps.svl 2023.06)
