@<TRIPOS>MOLECULE
NONAME
52 55 1 0 0 
SMALL
USER_CHARGES


@<TRIPOS>ATOM
  1 O        0.3230     2.1750     2.4970 O.2   1 <1>  -0.5700 
  2 C        0.0830     2.8450     1.5180 C.2   1 <1>   0.5690 
  3 N       -1.2110     3.0490     1.0950 N.am  1 <1>  -0.6600 
  4 C        1.2690     3.4370     0.7650 C.3   1 <1>   0.2370 
  5 C       -2.3490     2.4200     1.8420 C.3   1 <1>   0.1400 
  6 C       -1.5710     3.7760    -0.1690 C.3   1 <1>   0.1400 
  7 N        1.4520     2.6500    -0.4650 N.pl3 1 <1>   0.3140 
  8 C        2.5670     3.4770     1.5960 C.3   1 <1>  -0.0160 
  9 C       -3.4390     1.9590     0.8730 C.3   1 <1>  -0.1600 
 10 C       -3.0110     4.2780    -0.0990 C.3   1 <1>  -0.1600 
 11 N        1.3930     3.1650    -1.6750 N.2   1 <1>  -0.4180 
 12 C        1.6570     1.3530    -0.5990 C.2   1 <1>   0.0360 
 13 C        3.6590     4.2640     0.8880 C.ar  1 <1>  -0.1430 
 14 C       -4.0000     3.1070     0.0160 C.3   1 <1>   0.4180 
 15 N        1.5740     2.1910    -2.4930 N.2   1 <1>   0.0000 
 16 N        1.7410     1.0480    -1.8360 N.2   1 <1>  -0.3380 
 17 C        4.5060     3.6420    -0.0160 C.ar  1 <1>  -0.1500 
 18 C        3.8110     5.6200     1.1400 C.ar  1 <1>  -0.1500 
 19 O       -4.1900     2.5520    -1.2620 O.3   1 <1>  -0.5600 
 20 C       -5.3290     3.5880     0.5970 C.2   1 <1>  -0.2880 
 21 C        5.4900     4.3680    -0.6650 C.ar  1 <1>  -0.1500 
 22 C        4.7950     6.3450     0.4930 C.ar  1 <1>  -0.1500 
 23 C       -5.1160     3.1640    -2.1170 C.3   1 <1>   0.1200 
 24 C       -6.4850     3.5910    -0.0700 C.2   1 <1>  -0.2760 
 25 C        5.6350     5.7200    -0.4110 C.ar  1 <1>  -0.1500 
 26 C       -6.5260     3.1250    -1.5130 C.3   1 <1>  -0.0220 
 27 C       -7.8170     4.0260     0.5140 C.3   1 <1>  -0.1020 
 28 H        1.0310     4.4440     0.4860 H     1 <1>   0.0800 
 29 H       -2.7530     3.1370     2.5360 H     1 <1>   0.0800 
 30 H       -2.0030     1.5710     2.4070 H     1 <1>   0.0800 
 31 H       -1.4670     3.1060    -1.0080 H     1 <1>   0.0800 
 32 H       -0.9200     4.6170    -0.3230 H     1 <1>   0.0800 
 33 H        2.9080     2.4790     1.8120 H     1 <1>   0.0800 
 34 H        2.3600     3.9470     2.5420 H     1 <1>   0.0800 
 35 H       -4.2360     1.4980     1.4280 H     1 <1>   0.0800 
 36 H       -3.0120     1.2020     0.2390 H     1 <1>   0.0800 
 37 H       -3.2340     4.8770    -0.9600 H     1 <1>   0.0800 
 38 H       -3.1040     4.9170     0.7600 H     1 <1>   0.0800 
 39 H        1.7340     0.6670     0.2250 H     1 <1>   0.1500 
 40 H        4.4080     2.5920    -0.2310 H     1 <1>   0.1500 
 41 H        3.1670     6.1220     1.8410 H     1 <1>   0.1500 
 42 H       -5.2410     3.9170     1.6170 H     1 <1>   0.1500 
 43 H        6.1400     3.8790    -1.3700 H     1 <1>   0.1500 
 44 H        4.9090     7.3970     0.6910 H     1 <1>   0.1500 
 45 H       -5.0970     2.6360    -3.0540 H     1 <1>   0.0800 
 46 H       -4.8110     4.1810    -2.2880 H     1 <1>   0.0800 
 47 H        6.4000     6.2830    -0.9170 H     1 <1>   0.1500 
 48 H       -6.9160     2.1240    -1.5630 H     1 <1>   0.0800 
 49 H       -7.1640     3.7650    -2.0950 H     1 <1>   0.0800 
 50 H       -8.2110     4.8600    -0.0390 H     1 <1>   0.0800 
 51 H       -7.6990     4.3240     1.5410 H     1 <1>   0.0800 
 52 H       -8.5210     3.2150     0.4730 H     1 <1>   0.0800 
@<TRIPOS>BOND
  1   1   2  2   
  2   2   3  am  
  3   2   4  1   
  4   3   5  1   
  5   3   6  1   
  6   4   7  1   
  7   4   8  1   
  8   4  28  1   
  9   5   9  1   
 10   5  29  1   
 11   5  30  1   
 12   6  10  1   
 13   6  31  1   
 14   6  32  1   
 15   7  11  1   
 16   7  12  1   
 17   8  13  1   
 18   8  33  1   
 19   8  34  1   
 20   9  14  1   
 21   9  35  1   
 22   9  36  1   
 23  10  14  1   
 24  10  37  1   
 25  10  38  1   
 26  11  15  2   
 27  12  16  2   
 28  12  39  1   
 29  13  17  ar  
 30  13  18  ar  
 31  14  19  1   
 32  14  20  1   
 33  15  16  1   
 34  17  21  ar  
 35  17  40  1   
 36  18  22  ar  
 37  18  41  1   
 38  19  23  1   
 39  20  24  2   
 40  20  42  1   
 41  21  25  ar  
 42  21  43  1   
 43  22  25  ar  
 44  22  44  1   
 45  23  26  1   
 46  23  45  1   
 47  23  46  1   
 48  24  26  1   
 49  24  27  1   
 50  25  47  1   
 51  26  48  1   
 52  26  49  1   
 53  27  50  1   
 54  27  51  1   
 55  27  52  1   
@<TRIPOS>SUBSTRUCTURE
  1 ****   6 GROUP 4 **** **** 0

# MOE 2024.06 (io_trps.svl 2023.06)
