@<TRIPOS>MOLECULE
NONAME
60 63 1 0 0 
SMALL
USER_CHARGES


@<TRIPOS>ATOM
  1 O       -1.4910     0.1760     0.5320 O.2   1 <1>  -0.5700 
  2 C       -2.1480     0.9840    -0.1010 C.2   1 <1>   0.5440 
  3 N       -3.1840     0.4860    -0.8640 N.am  1 <1>  -0.6600 
  4 C       -1.8680     2.4070    -0.0090 C.ar  1 <1>   0.0860 
  5 C       -3.1840    -0.9550    -1.2230 C.3   1 <1>   0.1400 
  6 C       -4.5460     1.0750    -0.7610 C.3   1 <1>   0.1400 
  7 C       -1.3560     2.9680     1.1610 C.ar  1 <1>  -0.1500 
  8 C       -2.0910     3.2740    -1.0810 C.ar  1 <1>  -0.1500 
  9 C       -3.9160    -1.7390    -0.1100 C.3   1 <1>   0.4230 
 10 C       -5.3140     0.3160     0.3310 C.3   1 <1>  -0.1600 
 11 C       -1.1000     4.3220     1.2610 C.ar  1 <1>  -0.1500 
 12 C       -1.8360     4.6280    -0.9800 C.ar  1 <1>  -0.1500 
 13 N       -3.7990    -3.2510    -0.2380 N.4   1 <1>  -0.9590 
 14 C       -5.3730    -1.2250     0.1030 C.3   1 <1>   0.0000 
 15 C       -1.3390     5.1830     0.1950 C.ar  1 <1>   0.0000 
 16 C       -4.8140    -4.0120     0.5610 C.3   1 <1>   0.3430 
 17 C       -3.7430    -3.7810    -1.6390 C.3   1 <1>   0.2630 
 18 C       -5.9710    -1.8950     1.3760 C.3   1 <1>  -0.1600 
 19 C       -6.2440    -1.5530    -1.1430 C.3   1 <1>   0.1200 
 20 C       -1.0850     6.6030     0.3000 C.ar  1 <1>   0.0000 
 21 C       -5.2700    -3.2080     1.7770 C.3   1 <1>  -0.1600 
 22 O       -7.4830    -0.9380    -1.0810 O.3   1 <1>  -0.6800 
 23 C        0.1970     7.1200     0.5300 C.ar  1 <1>   0.0820 
 24 C       -2.1440     7.4990     0.1700 C.ar  1 <1>  -0.1500 
 25 O        1.2210     6.2360     0.6480 O.3   1 <1>  -0.3630 
 26 C        0.3880     8.4970     0.6230 C.ar  1 <1>  -0.1500 
 27 C       -1.9490     8.8630     0.2620 C.ar  1 <1>  -0.1500 
 28 C        2.5590     6.6450     0.8200 C.3   1 <1>   0.0400 
 29 C       -0.6800     9.3640     0.4890 C.ar  1 <1>  -0.1500 
 30 H       -3.6590    -1.0750    -2.1780 H     1 <1>   0.0800 
 31 H       -2.1670    -1.2990    -1.3030 H     1 <1>   0.0800 
 32 H       -4.4890     2.1180    -0.4990 H     1 <1>   0.0800 
 33 H       -5.0520     0.9980    -1.7090 H     1 <1>   0.0800 
 34 H       -1.1530     2.3270     2.0020 H     1 <1>   0.1500 
 35 H       -2.4640     2.8770    -2.0080 H     1 <1>   0.1500 
 36 H       -3.3910    -1.4760     0.7950 H     1 <1>   0.0800 
 37 H       -4.8240     0.5260     1.2670 H     1 <1>   0.0800 
 38 H       -6.3050     0.7280     0.4080 H     1 <1>   0.0800 
 39 H       -0.7020     4.7280     2.1740 H     1 <1>   0.1500 
 40 H       -2.0150     5.2720    -1.8230 H     1 <1>   0.1500 
 41 H       -2.8860    -3.4610     0.1950 H     1 <1>   0.4500 
 42 H       -5.6760    -4.2230    -0.0510 H     1 <1>   0.0800 
 43 H       -4.3960    -4.9540     0.8810 H     1 <1>   0.0800 
 44 H       -4.6540    -3.5500    -2.1670 H     1 <1>   0.0800 
 45 H       -3.6150    -4.8520    -1.6280 H     1 <1>   0.0800 
 46 H       -2.9130    -3.3490    -2.1740 H     1 <1>   0.0800 
 47 H       -5.9080    -1.2290     2.2210 H     1 <1>   0.0800 
 48 H       -7.0200    -2.0910     1.2320 H     1 <1>   0.0800 
 49 H       -6.4150    -2.6100    -1.2380 H     1 <1>   0.0800 
 50 H       -5.7820    -1.2030    -2.0490 H     1 <1>   0.0800 
 51 H       -5.9480    -3.8040     2.3630 H     1 <1>   0.0800 
 52 H       -4.4180    -2.9970     2.4000 H     1 <1>   0.0800 
 53 H       -8.0070    -1.2370    -0.3120 H     1 <1>   0.4000 
 54 H       -3.1340     7.1150    -0.0030 H     1 <1>   0.1500 
 55 H        1.3610     8.9140     0.7990 H     1 <1>   0.1500 
 56 H       -2.7820     9.5370     0.1590 H     1 <1>   0.1500 
 57 H        3.1730     5.7630     0.8620 H     1 <1>   0.0800 
 58 H        2.6410     7.1920     1.7420 H     1 <1>   0.0800 
 59 H        2.8480     7.2520    -0.0200 H     1 <1>   0.0800 
 60 H       -0.5270    10.4270     0.5620 H     1 <1>   0.1500 
@<TRIPOS>BOND
  1   1   2  2   
  2   2   3  am  
  3   2   4  1   
  4   3   5  1   
  5   3   6  1   
  6   4   7  ar  
  7   4   8  ar  
  8   5   9  1   
  9   5  30  1   
 10   5  31  1   
 11   6  10  1   
 12   6  32  1   
 13   6  33  1   
 14   7  11  ar  
 15   7  34  1   
 16   8  12  ar  
 17   8  35  1   
 18   9  13  1   
 19   9  14  1   
 20   9  36  1   
 21  10  14  1   
 22  10  37  1   
 23  10  38  1   
 24  11  15  ar  
 25  11  39  1   
 26  12  15  ar  
 27  12  40  1   
 28  13  16  1   
 29  13  17  1   
 30  13  41  1   
 31  14  18  1   
 32  14  19  1   
 33  15  20  1   
 34  16  21  1   
 35  16  42  1   
 36  16  43  1   
 37  17  44  1   
 38  17  45  1   
 39  17  46  1   
 40  18  21  1   
 41  18  47  1   
 42  18  48  1   
 43  19  22  1   
 44  19  49  1   
 45  19  50  1   
 46  20  23  ar  
 47  20  24  ar  
 48  21  51  1   
 49  21  52  1   
 50  22  53  1   
 51  23  25  1   
 52  23  26  ar  
 53  24  27  ar  
 54  24  54  1   
 55  25  28  1   
 56  26  29  ar  
 57  26  55  1   
 58  27  29  ar  
 59  27  56  1   
 60  28  57  1   
 61  28  58  1   
 62  28  59  1   
 63  29  60  1   
@<TRIPOS>SUBSTRUCTURE
  1 ****   4 GROUP 4 **** **** 0

# MOE 2024.06 (io_trps.svl 2023.06)
