@<TRIPOS>MOLECULE
NONAME
42 43 1 0 0 
SMALL
USER_CHARGES


@<TRIPOS>ATOM
  1 O       -0.8480     1.4590    -2.3880 O.2   1 <1>  -0.5700 
  2 C       -0.6410     2.3460    -1.5990 C.2   1 <1>   0.5690 
  3 N       -1.6140     2.7660    -0.7620 N.am  1 <1>  -0.7300 
  4 C        0.7270     3.0340    -1.5610 C.3   1 <1>   0.1810 
  5 C       -1.4180     3.8300     0.2530 C.3   1 <1>   0.3640 
  6 O        0.9530     3.7630    -0.3740 O.3   1 <1>  -0.5600 
  7 C       -2.6240     4.7660     0.2250 C.ar  1 <1>  -0.1440 
  8 C       -0.1110     4.6250     0.0060 C.3   1 <1>   0.2610 
  9 C       -3.1410     5.2410    -0.9720 C.ar  1 <1>  -0.1500 
 10 C       -3.2140     5.1710     1.4110 C.ar  1 <1>  -0.1500 
 11 C        0.2720     5.4730     1.2330 C.2   1 <1>   0.5690 
 12 C       -4.2230     6.1050    -1.0010 C.ar  1 <1>   0.0830 
 13 C       -4.2920     6.0390     1.4030 C.ar  1 <1>  -0.1500 
 14 O       -0.1160     5.1190     2.3270 O.2   1 <1>  -0.5700 
 15 N        1.0210     6.6230     1.0870 N.am  1 <1>  -0.6600 
 16 O       -4.6200     6.4780    -2.2510 O.3   1 <1>  -0.3620 
 17 C       -4.8070     6.5260     0.2050 C.ar  1 <1>   0.0830 
 18 C        1.6870     7.0340    -0.1790 C.3   1 <1>   0.0600 
 19 C        1.2850     7.5300     2.2390 C.3   1 <1>   0.0600 
 20 C       -5.9760     6.7390    -2.5380 C.3   1 <1>   0.0400 
 21 O       -5.8460     7.4130     0.1890 O.3   1 <1>  -0.3630 
 22 C       -6.3140     8.0380     1.3640 C.3   1 <1>   0.0400 
 23 H       -2.5300     2.3170    -0.7980 H     1 <1>   0.3700 
 24 H        0.8090     3.7080    -2.3930 H     1 <1>   0.0800 
 25 H        1.5000     2.2910    -1.6390 H     1 <1>   0.0800 
 26 H       -1.3620     3.3510     1.2160 H     1 <1>   0.0800 
 27 H       -0.2840     5.2980    -0.8130 H     1 <1>   0.0800 
 28 H       -2.7090     4.9430    -1.9110 H     1 <1>   0.1500 
 29 H       -2.8280     4.8200     2.3550 H     1 <1>   0.1500 
 30 H       -4.7100     6.3230     2.3490 H     1 <1>   0.1500 
 31 H        2.6350     7.4950     0.0390 H     1 <1>   0.0800 
 32 H        1.0670     7.7410    -0.7030 H     1 <1>   0.0800 
 33 H        1.8710     6.1830    -0.8110 H     1 <1>   0.0800 
 34 H        1.0550     8.5450     1.9650 H     1 <1>   0.0800 
 35 H        2.3210     7.4640     2.5220 H     1 <1>   0.0800 
 36 H        0.6800     7.2620     3.0880 H     1 <1>   0.0800 
 37 H       -6.1170     6.6480    -3.5990 H     1 <1>   0.0800 
 38 H       -6.2100     7.7410    -2.2250 H     1 <1>   0.0800 
 39 H       -6.5900     6.0230    -2.0210 H     1 <1>   0.0800 
 40 H       -7.0630     8.7560     1.0830 H     1 <1>   0.0800 
 41 H       -5.4920     8.5370     1.8460 H     1 <1>   0.0800 
 42 H       -6.7480     7.2930     2.0070 H     1 <1>   0.0800 
@<TRIPOS>BOND
  1   1   2  2   
  2   2   3  am  
  3   2   4  1   
  4   3   5  1   
  5   3  23  1   
  6   4   6  1   
  7   4  24  1   
  8   4  25  1   
  9   5   7  1   
 10   5   8  1   
 11   5  26  1   
 12   6   8  1   
 13   7   9  ar  
 14   7  10  ar  
 15   8  11  1   
 16   8  27  1   
 17   9  12  ar  
 18   9  28  1   
 19  10  13  ar  
 20  10  29  1   
 21  11  14  2   
 22  11  15  am  
 23  12  16  1   
 24  12  17  ar  
 25  13  17  ar  
 26  13  30  1   
 27  15  18  1   
 28  15  19  1   
 29  16  20  1   
 30  17  21  1   
 31  18  31  1   
 32  18  32  1   
 33  18  33  1   
 34  19  34  1   
 35  19  35  1   
 36  19  36  1   
 37  20  37  1   
 38  20  38  1   
 39  20  39  1   
 40  21  22  1   
 41  22  40  1   
 42  22  41  1   
 43  22  42  1   
@<TRIPOS>SUBSTRUCTURE
  1 ****   7 GROUP 4 **** **** 0

# MOE 2024.06 (io_trps.svl 2023.06)
