@<TRIPOS>MOLECULE
NONAME
41 42 1 0 0 
SMALL
USER_CHARGES


@<TRIPOS>ATOM
  1 O        0.8040    -1.1590    -0.8460 O.2   1 <1>  -0.5700 
  2 C        1.9250    -0.7900    -1.0800 C.2   1 <1>   0.5690 
  3 N        2.6130    -1.3360    -2.1010 N.am  1 <1>  -0.8000 
  4 C        2.5590     0.3000    -0.2210 C.3   1 <1>  -0.0190 
  5 C        2.8460     1.5740    -1.0360 C.3   1 <1>  -0.1600 
  6 C        3.8450    -0.1840     0.4730 C.3   1 <1>  -0.1600 
  7 C        3.4720     2.6680    -0.1700 C.3   1 <1>   0.2090 
  8 C        4.4630     0.9200     1.3330 C.3   1 <1>   0.2090 
  9 N        4.6900     2.1390     0.5060 N.pl3 1 <1>  -0.8380 
 10 C        5.9400     2.5840     0.2200 C.ar  1 <1>   0.4100 
 11 N        6.7920     1.6650    -0.1930 N.ar  1 <1>  -0.6200 
 12 C        6.3070     3.9550     0.3460 C.ar  1 <1>  -0.1440 
 13 C        7.9820     2.0650    -0.5620 C.ar  1 <1>   0.7710 
 14 C        7.5490     4.3270    -0.0820 C.ar  1 <1>   0.2180 
 15 C        5.3300     4.9520     0.9840 C.3   1 <1>  -0.0970 
 16 N        8.3660     3.3480    -0.5380 N.ar  1 <1>  -0.1790 
 17 N        8.8240     1.1220    -0.9790 N.pl3 1 <1>  -0.9000 
 18 C        8.1220     5.7480    -0.0870 C.3   1 <1>  -0.0170 
 19 C        8.6270     6.1760    -1.4740 C.3   1 <1>  -0.2400 
 20 H        2.1720    -2.0630    -2.6660 H     1 <1>   0.3700 
 21 H        3.5630    -1.0690    -2.3500 H     1 <1>   0.3700 
 22 H        1.8440     0.5500     0.5440 H     1 <1>   0.0800 
 23 H        1.9280     1.9420    -1.4610 H     1 <1>   0.0800 
 24 H        3.5170     1.3520    -1.8460 H     1 <1>   0.0800 
 25 H        4.5710    -0.4930    -0.2560 H     1 <1>   0.0800 
 26 H        3.6210    -1.0320     1.0960 H     1 <1>   0.0800 
 27 H        2.7660     2.9960     0.5760 H     1 <1>   0.0800 
 28 H        3.7250     3.5080    -0.7930 H     1 <1>   0.0800 
 29 H        5.3930     0.5770     1.7550 H     1 <1>   0.0800 
 30 H        3.8000     1.1650     2.1460 H     1 <1>   0.0800 
 31 H        4.6660     4.4540     1.6680 H     1 <1>   0.0800 
 32 H        4.7410     5.4380     0.2270 H     1 <1>   0.0800 
 33 H        5.8440     5.6990     1.5600 H     1 <1>   0.0800 
 34 H        9.3010     3.5580    -0.8670 H     1 <1>   0.4570 
 35 H        9.7890     1.2140    -1.2980 H     1 <1>   0.4000 
 36 H        8.4790     0.1570    -0.9750 H     1 <1>   0.4000 
 37 H        8.9280     5.8110     0.6230 H     1 <1>   0.0800 
 38 H        7.3790     6.4630     0.2160 H     1 <1>   0.0800 
 39 H        9.4670     5.5870    -1.7960 H     1 <1>   0.0800 
 40 H        8.9410     7.2050    -1.4410 H     1 <1>   0.0800 
 41 H        7.8390     6.0940    -2.2040 H     1 <1>   0.0800 
@<TRIPOS>BOND
  1   1   2  2   
  2   2   3  am  
  3   2   4  1   
  4   3  20  1   
  5   3  21  1   
  6   4   5  1   
  7   4   6  1   
  8   4  22  1   
  9   5   7  1   
 10   5  23  1   
 11   5  24  1   
 12   6   8  1   
 13   6  25  1   
 14   6  26  1   
 15   7   9  1   
 16   7  27  1   
 17   7  28  1   
 18   8   9  1   
 19   8  29  1   
 20   8  30  1   
 21   9  10  1   
 22  10  11  ar  
 23  10  12  ar  
 24  11  13  ar  
 25  12  14  ar  
 26  12  15  1   
 27  13  16  ar  
 28  13  17  1   
 29  14  16  ar  
 30  14  18  1   
 31  15  31  1   
 32  15  32  1   
 33  15  33  1   
 34  16  34  1   
 35  17  35  1   
 36  17  36  1   
 37  18  19  1   
 38  18  37  1   
 39  18  38  1   
 40  19  39  1   
 41  19  40  1   
 42  19  41  1   
@<TRIPOS>SUBSTRUCTURE
  1 ****  10 GROUP 4 **** **** 0

# MOE 2024.06 (io_trps.svl 2023.06)
