@<TRIPOS>MOLECULE
NONAME
49 51 1 0 0 
SMALL
USER_CHARGES


@<TRIPOS>ATOM
  1 S        0.5440    -0.4820     0.6350 S.o2  1 <1>   1.3330 
  2 O        0.1360    -1.0020     1.9170 O.2   1 <1>  -0.6500 
  3 O        1.6270    -1.0980    -0.0900 O.2   1 <1>  -0.6500 
  4 N       -0.7700    -0.6160    -0.4000 N.am  1 <1>  -0.9140 
  5 C        0.8120     1.2790     0.7470 C.3   1 <1>  -0.0550 
  6 C       -2.0730    -0.7350     0.2540 C.3   1 <1>   0.1160 
  7 C        1.1870     1.8710    -0.6060 C.3   1 <1>   0.1400 
  8 N        1.2940     3.3430    -0.4910 N.am  1 <1>  -0.7300 
  9 C        2.3620     4.0480    -0.0250 C.2   1 <1>   0.7160 
 10 O        3.3110     3.4230     0.4050 O.2   1 <1>  -0.5700 
 11 C        2.3380     5.4810    -0.0330 C.2   1 <1>  -0.0860 
 12 C        1.1960     6.2810    -0.1770 C.2   1 <1>   0.3720 
 13 C        3.3400     6.3940     0.0990 C.2   1 <1>   0.0870 
 14 N        1.4930     7.5310    -0.1340 N.2   1 <1>  -0.4100 
 15 N       -0.1180     5.8100    -0.3190 N.pl3 1 <1>  -0.8210 
 16 O        2.7850     7.5780     0.0360 O.3   1 <1>  -0.0190 
 17 C        4.7690     6.2990     0.2680 C.ar  1 <1>   0.0530 
 18 C       -0.8220     5.5940     0.9870 C.3   1 <1>   0.2090 
 19 C       -0.9750     6.5690    -1.2940 C.3   1 <1>   0.2090 
 20 C        5.5340     5.3400    -0.3960 C.ar  1 <1>  -0.1500 
 21 C        5.4440     7.1910     1.1020 C.ar  1 <1>  -0.1500 
 22 C       -1.5240     6.8680     1.4910 C.3   1 <1>   0.1200 
 23 C       -1.7060     7.7640    -0.6510 C.3   1 <1>   0.1200 
 24 C        6.9050     5.2690    -0.2310 C.ar  1 <1>  -0.1500 
 25 C        6.8140     7.1280     1.2710 C.ar  1 <1>  -0.1500 
 26 O       -2.3810     7.3720     0.5090 O.3   1 <1>  -0.5600 
 27 C        7.5490     6.1640     0.6040 C.ar  1 <1>  -0.1500 
 28 H       -0.5810    -1.4860    -0.9040 H     1 <1>   0.4200 
 29 H        1.6100     1.4690     1.4390 H     1 <1>   0.0800 
 30 H       -0.0790     1.7500     1.1100 H     1 <1>   0.0800 
 31 H       -2.2600     0.1280     0.8710 H     1 <1>   0.0800 
 32 H       -2.1050    -1.6180     0.8720 H     1 <1>   0.0800 
 33 H       -2.8490    -0.8040    -0.4890 H     1 <1>   0.0800 
 34 H        0.4430     1.6260    -1.3450 H     1 <1>   0.0800 
 35 H        2.1330     1.4650    -0.9300 H     1 <1>   0.0800 
 36 H        0.4760     3.9150    -0.7500 H     1 <1>   0.3700 
 37 H       -0.1170     5.2650     1.7310 H     1 <1>   0.0800 
 38 H       -1.5580     4.8180     0.8670 H     1 <1>   0.0800 
 39 H       -1.7080     5.8990    -1.7090 H     1 <1>   0.0800 
 40 H       -0.3670     6.9260    -2.1080 H     1 <1>   0.0800 
 41 H        5.0500     4.6380    -1.0510 H     1 <1>   0.1500 
 42 H        4.8830     7.9450     1.6260 H     1 <1>   0.1500 
 43 H       -0.8010     7.6250     1.7440 H     1 <1>   0.0800 
 44 H       -2.1150     6.6480     2.3620 H     1 <1>   0.0800 
 45 H       -2.4330     8.1640    -1.3350 H     1 <1>   0.0800 
 46 H       -1.0090     8.5440    -0.3990 H     1 <1>   0.0800 
 47 H        7.4710     4.5170    -0.7520 H     1 <1>   0.1500 
 48 H        7.3110     7.8270     1.9210 H     1 <1>   0.1500 
 49 H        8.6160     6.1100     0.7340 H     1 <1>   0.1500 
@<TRIPOS>BOND
  1   1   2  2   
  2   1   3  2   
  3   1   4  am  
  4   1   5  1   
  5   4   6  1   
  6   4  28  1   
  7   5   7  1   
  8   5  29  1   
  9   5  30  1   
 10   6  31  1   
 11   6  32  1   
 12   6  33  1   
 13   7   8  1   
 14   7  34  1   
 15   7  35  1   
 16   8   9  am  
 17   8  36  1   
 18   9  10  2   
 19   9  11  1   
 20  11  12  1   
 21  11  13  2   
 22  12  14  2   
 23  12  15  1   
 24  13  16  1   
 25  13  17  1   
 26  14  16  1   
 27  15  18  1   
 28  15  19  1   
 29  17  20  ar  
 30  17  21  ar  
 31  18  22  1   
 32  18  37  1   
 33  18  38  1   
 34  19  23  1   
 35  19  39  1   
 36  19  40  1   
 37  20  24  ar  
 38  20  41  1   
 39  21  25  ar  
 40  21  42  1   
 41  22  26  1   
 42  22  43  1   
 43  22  44  1   
 44  23  26  1   
 45  23  45  1   
 46  23  46  1   
 47  24  27  ar  
 48  24  47  1   
 49  25  27  ar  
 50  25  48  1   
 51  27  49  1   
@<TRIPOS>SUBSTRUCTURE
  1 ****   9 GROUP 4 **** **** 0

# MOE 2024.06 (io_trps.svl 2023.06)
