@<TRIPOS>MOLECULE
NONAME
57 60 1 0 0 
SMALL
USER_CHARGES


@<TRIPOS>ATOM
  1 S        0.1060     0.4950     0.2270 S.3   1 <1>  -0.0800 
  2 C        0.3350     1.7020    -1.0310 C.2   1 <1>  -0.1400 
  3 C        0.9020    -0.7400    -0.7400 C.2   1 <1>  -0.1400 
  4 C        0.9800     1.1620    -2.0830 C.2   1 <1>  -0.1500 
  5 C       -0.2000     3.0990    -0.7730 C.3   1 <1>   0.5230 
  6 C        1.3030    -0.2220    -1.9170 C.2   1 <1>  -0.1500 
  7 C        1.0100    -2.1360    -0.1530 C.3   1 <1>   0.5230 
  8 N        0.5180     3.6900     0.3870 N.4   1 <1>  -0.9590 
  9 N       -0.3580    -2.6570     0.0790 N.4   1 <1>  -0.9590 
 10 C       -0.1330     4.9520     0.8430 C.3   1 <1>   0.3430 
 11 C        1.9700     3.8820     0.0970 C.3   1 <1>   0.3430 
 12 C       -1.2110    -2.7720    -1.1300 C.3   1 <1>   0.3430 
 13 C       -0.4290    -3.9890     0.7400 C.3   1 <1>   0.3430 
 14 C        0.5460     5.4490     2.1200 C.3   1 <1>  -0.1600 
 15 C        2.6880     4.3570     1.3610 C.3   1 <1>  -0.1600 
 16 C       -2.4040    -3.5780    -0.6220 C.3   1 <1>   0.2000 
 17 C       -1.7580    -4.6270     0.2900 C.3   1 <1>  -0.0800 
 18 C        2.0560     5.6360     1.9270 C.3   1 <1>  -0.1600 
 19 O       -3.1690    -2.7290     0.1720 O.3   1 <1>  -0.6800 
 20 C       -1.5320    -5.9580    -0.4560 C.3   1 <1>  -0.0170 
 21 C       -0.8800    -7.0050     0.4340 C.ar  1 <1>   0.1670 
 22 N        0.4190    -6.8630     0.6470 N.ar  1 <1>  -0.6200 
 23 C       -1.6470    -8.0320     0.9660 C.ar  1 <1>  -0.1500 
 24 C        0.9790    -7.7900     1.4110 C.ar  1 <1>   0.1600 
 25 C       -1.0520    -8.9840     1.7650 C.ar  1 <1>  -0.1500 
 26 C        0.3010    -8.8500     1.9870 C.ar  1 <1>  -0.1500 
 27 H        1.2490     1.6730    -2.9940 H     1 <1>   0.1500 
 28 H       -1.2560     3.0390    -0.5640 H     1 <1>   0.0800 
 29 H       -0.0590     3.7120    -1.6480 H     1 <1>   0.0800 
 30 H        1.8200    -0.7540    -2.7010 H     1 <1>   0.1500 
 31 H        1.5530    -2.0950     0.7770 H     1 <1>   0.0800 
 32 H        1.5420    -2.7810    -0.8330 H     1 <1>   0.0800 
 33 H        0.4540     3.0090     1.1530 H     1 <1>   0.4500 
 34 H       -0.8660    -1.9950     0.6850 H     1 <1>   0.4500 
 35 H       -0.0480     5.7050     0.0760 H     1 <1>   0.0800 
 36 H       -1.1810     4.7820     1.0390 H     1 <1>   0.0800 
 37 H        2.4100     2.9550    -0.2350 H     1 <1>   0.0800 
 38 H        2.0950     4.6160    -0.6830 H     1 <1>   0.0800 
 39 H       -1.5180    -1.8090    -1.5050 H     1 <1>   0.0800 
 40 H       -0.6960    -3.3210    -1.9010 H     1 <1>   0.0800 
 41 H        0.4010    -4.5960     0.4180 H     1 <1>   0.0800 
 42 H       -0.3930    -3.8920     1.8130 H     1 <1>   0.0800 
 43 H        0.1070     6.3890     2.4090 H     1 <1>   0.0800 
 44 H        0.3610     4.7520     2.9190 H     1 <1>   0.0800 
 45 H        2.6620     3.5760     2.1020 H     1 <1>   0.0800 
 46 H        3.7220     4.5440     1.1290 H     1 <1>   0.0800 
 47 H       -3.0190    -3.9750    -1.4130 H     1 <1>   0.0800 
 48 H       -2.3770    -4.8260     1.1480 H     1 <1>   0.0800 
 49 H        2.5180     5.8860     2.8690 H     1 <1>   0.0800 
 50 H        2.2340     6.4550     1.2490 H     1 <1>   0.0800 
 51 H       -4.0240    -3.1440     0.4180 H     1 <1>   0.4000 
 52 H       -0.9060    -5.8090    -1.3180 H     1 <1>   0.0800 
 53 H       -2.4770    -6.3360    -0.8070 H     1 <1>   0.0800 
 54 H       -2.7000    -8.0990     0.7600 H     1 <1>   0.1500 
 55 H        2.0380    -7.7040     1.5910 H     1 <1>   0.1500 
 56 H       -1.6150    -9.7960     2.1940 H     1 <1>   0.1500 
 57 H        0.8280    -9.5620     2.5970 H     1 <1>   0.1500 
@<TRIPOS>BOND
  1   1   2  1   
  2   1   3  1   
  3   2   4  2   
  4   2   5  1   
  5   3   6  2   
  6   3   7  1   
  7   4   6  1   
  8   4  27  1   
  9   5   8  1   
 10   5  28  1   
 11   5  29  1   
 12   6  30  1   
 13   7   9  1   
 14   7  31  1   
 15   7  32  1   
 16   8  10  1   
 17   8  11  1   
 18   8  33  1   
 19   9  12  1   
 20   9  13  1   
 21   9  34  1   
 22  10  14  1   
 23  10  35  1   
 24  10  36  1   
 25  11  15  1   
 26  11  37  1   
 27  11  38  1   
 28  12  16  1   
 29  12  39  1   
 30  12  40  1   
 31  13  17  1   
 32  13  41  1   
 33  13  42  1   
 34  14  18  1   
 35  14  43  1   
 36  14  44  1   
 37  15  18  1   
 38  15  45  1   
 39  15  46  1   
 40  16  17  1   
 41  16  19  1   
 42  16  47  1   
 43  17  20  1   
 44  17  48  1   
 45  18  49  1   
 46  18  50  1   
 47  19  51  1   
 48  20  21  1   
 49  20  52  1   
 50  20  53  1   
 51  21  22  ar  
 52  21  23  ar  
 53  22  24  ar  
 54  23  25  ar  
 55  23  54  1   
 56  24  26  ar  
 57  24  55  1   
 58  25  26  ar  
 59  25  56  1   
 60  26  57  1   
@<TRIPOS>SUBSTRUCTURE
  1 ****   9 GROUP 4 **** **** 0

# MOE 2024.06 (io_trps.svl 2023.06)
