@<TRIPOS>MOLECULE
NONAME
35 36 1 0 0 
SMALL
USER_CHARGES


@<TRIPOS>ATOM
  1 S       -0.4930     0.0810     0.6230 S.3   1 <1>  -0.0800 
  2 C       -1.2660    -0.9350    -0.5500 C.2   1 <1>   0.4420 
  3 C       -0.5240     1.3460    -0.5570 C.2   1 <1>   0.1980 
  4 N       -1.4820    -0.3170    -1.6540 N.2   1 <1>  -0.3380 
  5 N       -1.5370    -2.2280    -0.1520 N.am  1 <1>  -0.4940 
  6 N       -1.0570     0.9830    -1.6510 N.2   1 <1>  -0.3380 
  7 C        0.0550     2.6980    -0.1840 C.3   1 <1>   0.0200 
  8 C       -2.1330    -3.2630    -0.8320 C.2   1 <1>   0.5440 
  9 C        1.5880     2.6570    -0.1100 C.3   1 <1>  -0.1600 
 10 O       -2.5090    -3.0840    -1.9700 O.2   1 <1>  -0.5700 
 11 C       -2.3240    -4.5680    -0.2200 C.ar  1 <1>   0.0860 
 12 C        2.1720     4.0330     0.2370 C.3   1 <1>  -0.1600 
 13 C       -1.9500    -4.9280     1.0720 C.ar  1 <1>   0.1900 
 14 C       -2.9280    -5.6110    -0.9190 C.ar  1 <1>  -0.1500 
 15 C        3.7020     3.9800     0.3080 C.3   1 <1>  -0.1600 
 16 F       -1.3690    -4.0630     1.8610 F     1 <1>  -0.1900 
 17 C       -2.1710    -6.1980     1.5740 C.ar  1 <1>   0.1600 
 18 C       -3.1130    -6.8540    -0.3410 C.ar  1 <1>   0.1600 
 19 C        4.2850     5.3530     0.6540 C.3   1 <1>  -0.2400 
 20 N       -2.7480    -7.1740     0.8910 N.ar  1 <1>  -0.6200 
 21 H       -1.2470    -2.4440     0.7990 H     1 <1>   0.3700 
 22 H       -0.3540     3.0060     0.7610 H     1 <1>   0.0800 
 23 H       -0.2480     3.4140    -0.9280 H     1 <1>   0.0800 
 24 H        1.9760     2.3320    -1.0620 H     1 <1>   0.0800 
 25 H        1.8930     1.9410     0.6340 H     1 <1>   0.0800 
 26 H        1.7830     4.3600     1.1870 H     1 <1>   0.0800 
 27 H        1.8760     4.7490    -0.5110 H     1 <1>   0.0800 
 28 H       -3.2610    -5.4500    -1.9310 H     1 <1>   0.1500 
 29 H        4.0980     3.6570    -0.6400 H     1 <1>   0.0800 
 30 H        4.0080     3.2680     1.0560 H     1 <1>   0.0800 
 31 H       -1.8600    -6.4180     2.5810 H     1 <1>   0.1500 
 32 H       -3.5850    -7.6300    -0.9230 H     1 <1>   0.1500 
 33 H        4.0130     6.0770    -0.0930 H     1 <1>   0.0800 
 34 H        5.3580     5.2960     0.6990 H     1 <1>   0.0800 
 35 H        3.9210     5.6860     1.6100 H     1 <1>   0.0800 
@<TRIPOS>BOND
  1   1   2  1   
  2   1   3  1   
  3   2   4  2   
  4   2   5  1   
  5   3   6  2   
  6   3   7  1   
  7   4   6  1   
  8   5   8  am  
  9   5  21  1   
 10   7   9  1   
 11   7  22  1   
 12   7  23  1   
 13   8  10  2   
 14   8  11  1   
 15   9  12  1   
 16   9  24  1   
 17   9  25  1   
 18  11  13  ar  
 19  11  14  ar  
 20  12  15  1   
 21  12  26  1   
 22  12  27  1   
 23  13  16  1   
 24  13  17  ar  
 25  14  18  ar  
 26  14  28  1   
 27  15  19  1   
 28  15  29  1   
 29  15  30  1   
 30  17  20  ar  
 31  17  31  1   
 32  18  20  ar  
 33  18  32  1   
 34  19  33  1   
 35  19  34  1   
 36  19  35  1   
@<TRIPOS>SUBSTRUCTURE
  1 ****   2 GROUP 4 **** **** 0

# MOE 2024.06 (io_trps.svl 2023.06)
