@<TRIPOS>MOLECULE
NONAME
56 58 1 0 0 
SMALL
USER_CHARGES


@<TRIPOS>ATOM
  1 O       -2.9290     0.8550    -1.7000 O.2   1 <1>  -0.5700 
  2 C       -2.4370     0.8350    -0.5980 C.2   1 <1>   0.5690 
  3 N       -2.1430    -0.3450     0.0110 N.am  1 <1>  -0.7300 
  4 C       -2.1360     2.1400     0.1440 C.3   1 <1>  -0.0190 
  5 C       -2.3570    -1.6550    -0.6200 C.3   1 <1>   0.2200 
  6 C       -2.9010     3.3530    -0.4270 C.3   1 <1>  -0.1600 
  7 C       -0.6140     2.4220     0.1730 C.3   1 <1>  -0.1600 
  8 C       -3.6960    -2.2240    -0.1580 C.3   1 <1>  -0.1600 
  9 C       -1.2130    -2.5990    -0.2610 C.3   1 <1>  -0.1600 
 10 C       -2.7020     4.6290     0.4210 C.3   1 <1>   0.2000 
 11 C       -0.2570     3.8970     0.4510 C.3   1 <1>  -0.1600 
 12 C       -3.9190    -3.6070    -0.7610 C.3   1 <1>   0.3430 
 13 C       -1.4610    -3.9800    -0.8640 C.3   1 <1>   0.3430 
 14 O       -2.7150     5.7440    -0.4360 O.3   1 <1>  -0.5600 
 15 C       -1.3700     4.6170     1.2170 C.3   1 <1>   0.2000 
 16 N       -2.7780    -4.5070    -0.4050 N.4   1 <1>  -0.9590 
 17 C       -3.9750     6.1360    -0.8840 C.3   1 <1>   0.0400 
 18 O       -0.9640     5.9150     1.4430 O.3   1 <1>  -0.6800 
 19 C       -3.0110    -5.8930    -0.8990 C.3   1 <1>   0.4860 
 20 C       -4.2130    -6.4630    -0.1750 C.ar  1 <1>  -0.1440 
 21 C       -4.1070    -6.8630     1.1510 C.ar  1 <1>  -0.1500 
 22 C       -5.4320    -6.5820    -0.8280 C.ar  1 <1>  -0.1500 
 23 C       -5.2110    -7.3630     1.8170 C.ar  1 <1>  -0.1500 
 24 C       -6.5350    -7.0820    -0.1590 C.ar  1 <1>  -0.1500 
 25 C       -6.4250    -7.4710     1.1640 C.ar  1 <1>  -0.1500 
 26 H       -1.7460    -0.3380     0.9510 H     1 <1>   0.3700 
 27 H       -2.4720     2.0040     1.1560 H     1 <1>   0.0800 
 28 H       -2.3810    -1.5280    -1.6920 H     1 <1>   0.0800 
 29 H       -3.9500     3.1240    -0.4800 H     1 <1>   0.0800 
 30 H       -2.5470     3.5320    -1.4290 H     1 <1>   0.0800 
 31 H       -0.1600     1.8000     0.9240 H     1 <1>   0.0800 
 32 H       -0.1810     2.1490    -0.7750 H     1 <1>   0.0800 
 33 H       -3.7350    -2.2850     0.9150 H     1 <1>   0.0800 
 34 H       -4.4870    -1.5720    -0.4870 H     1 <1>   0.0800 
 35 H       -0.2930    -2.2060    -0.6590 H     1 <1>   0.0800 
 36 H       -1.1110    -2.6850     0.8060 H     1 <1>   0.0800 
 37 H       -3.5060     4.7310     1.1300 H     1 <1>   0.0800 
 38 H       -0.1140     4.4030    -0.4890 H     1 <1>   0.0800 
 39 H        0.6640     3.9500     1.0060 H     1 <1>   0.0800 
 40 H       -4.0000    -3.5230    -1.8330 H     1 <1>   0.0800 
 41 H       -4.8450    -4.0130    -0.3830 H     1 <1>   0.0800 
 42 H       -0.6690    -4.6490    -0.5650 H     1 <1>   0.0800 
 43 H       -1.4530    -3.9070    -1.9400 H     1 <1>   0.0800 
 44 H       -1.5090     4.1450     2.1740 H     1 <1>   0.0800 
 45 H       -2.7700    -4.5760     0.6210 H     1 <1>   0.4500 
 46 H       -3.8530     7.0110    -1.4990 H     1 <1>   0.0800 
 47 H       -4.5960     6.3740    -0.0370 H     1 <1>   0.0800 
 48 H       -4.4140     5.3460    -1.4680 H     1 <1>   0.0800 
 49 H       -1.2920     6.4330     0.6730 H     1 <1>   0.4000 
 50 H       -3.1870    -5.8880    -1.9630 H     1 <1>   0.0800 
 51 H       -2.1520    -6.5110    -0.6960 H     1 <1>   0.0800 
 52 H       -3.1720    -6.7980     1.6800 H     1 <1>   0.1500 
 53 H       -5.5420    -6.2920    -1.8600 H     1 <1>   0.1500 
 54 H       -5.1300    -7.6740     2.8460 H     1 <1>   0.1500 
 55 H       -7.4810    -7.1750    -0.6650 H     1 <1>   0.1500 
 56 H       -7.2840    -7.8620     1.6830 H     1 <1>   0.1500 
@<TRIPOS>BOND
  1   1   2  2   
  2   2   3  am  
  3   2   4  1   
  4   3   5  1   
  5   3  26  1   
  6   4   6  1   
  7   4   7  1   
  8   4  27  1   
  9   5   8  1   
 10   5   9  1   
 11   5  28  1   
 12   6  10  1   
 13   6  29  1   
 14   6  30  1   
 15   7  11  1   
 16   7  31  1   
 17   7  32  1   
 18   8  12  1   
 19   8  33  1   
 20   8  34  1   
 21   9  13  1   
 22   9  35  1   
 23   9  36  1   
 24  10  14  1   
 25  10  15  1   
 26  10  37  1   
 27  11  15  1   
 28  11  38  1   
 29  11  39  1   
 30  12  16  1   
 31  12  40  1   
 32  12  41  1   
 33  13  16  1   
 34  13  42  1   
 35  13  43  1   
 36  14  17  1   
 37  15  18  1   
 38  15  44  1   
 39  16  19  1   
 40  16  45  1   
 41  17  46  1   
 42  17  47  1   
 43  17  48  1   
 44  18  49  1   
 45  19  20  1   
 46  19  50  1   
 47  19  51  1   
 48  20  21  ar  
 49  20  22  ar  
 50  21  23  ar  
 51  21  52  1   
 52  22  24  ar  
 53  22  53  1   
 54  23  25  ar  
 55  23  54  1   
 56  24  25  ar  
 57  24  55  1   
 58  25  56  1   
@<TRIPOS>SUBSTRUCTURE
  1 ****   5 GROUP 4 **** **** 0

# MOE 2024.06 (io_trps.svl 2023.06)
