@<TRIPOS>MOLECULE
NONAME
53 57 1 0 0 
SMALL
USER_CHARGES


@<TRIPOS>ATOM
  1 O        0.2130     0.8200    -0.5270 O.2   1 <1>  -0.5700 
  2 C       -0.4100     1.8690    -0.5250 C.2   1 <1>   0.7150 
  3 N       -1.7520     1.8170    -0.1940 N.am  1 <1>  -0.6600 
  4 C        0.2780     3.0930    -0.8830 C.2   1 <1>   0.0550 
  5 C       -2.7260     2.9280    -0.4280 C.3   1 <1>   0.1400 
  6 C       -2.3590     0.5340     0.2790 C.3   1 <1>   0.1400 
  7 O        0.0380     4.2370    -0.2540 O.3   1 <1>  -0.2800 
  8 C        1.2320     3.3120    -1.8150 C.2   1 <1>   0.0460 
  9 C       -3.5110     3.2680     0.8600 C.3   1 <1>   0.1440 
 10 C       -3.7920     0.7210     0.8080 C.3   1 <1>  -0.1600 
 11 C        0.8650     5.0640    -0.8580 C.2   1 <1>   0.2980 
 12 N        1.5960     4.5880    -1.7930 N.2   1 <1>  -0.5650 
 13 C        1.8820     2.3620    -2.7990 C.3   1 <1>  -0.0590 
 14 C       -4.7130     4.0970     0.4380 C.ar  1 <1>   0.1670 
 15 C       -3.9040     1.9960     1.6580 C.3   1 <1>  -0.1600 
 16 C       -2.7380     4.2690     1.7580 C.3   1 <1>  -0.1600 
 17 C        0.8850     6.5020    -0.4020 C.3   1 <1>  -0.0600 
 18 N       -5.7990     3.6300    -0.1300 N.ar  1 <1>  -0.6200 
 19 C       -4.5260     5.4190     0.7020 C.ar  1 <1>  -0.1440 
 20 C       -3.1840     5.6790     1.3380 C.3   1 <1>  -0.0170 
 21 C       -6.7400     4.5360    -0.4270 C.ar  1 <1>   0.6200 
 22 C       -5.5330     6.2850     0.3640 C.ar  1 <1>   0.1600 
 23 N       -6.6400     5.8540    -0.1970 N.ar  1 <1>  -0.6200 
 24 C       -7.9650     4.0510    -1.0500 C.ar  1 <1>   0.0000 
 25 C       -9.1810     4.7250    -0.9000 C.ar  1 <1>  -0.1500 
 26 C       -7.9840     2.8870    -1.8260 C.ar  1 <1>  -0.1500 
 27 C      -10.3460     4.2680    -1.4870 C.ar  1 <1>  -0.1500 
 28 C       -9.1460     2.4230    -2.4170 C.ar  1 <1>  -0.1500 
 29 C      -10.3310     3.1140    -2.2490 C.ar  1 <1>  -0.1500 
 30 H       -3.4220     2.5990    -1.1810 H     1 <1>   0.0800 
 31 H       -2.2490     3.8070    -0.8170 H     1 <1>   0.0800 
 32 H       -1.7410     0.1400     1.0700 H     1 <1>   0.0800 
 33 H       -2.3570    -0.1800    -0.5270 H     1 <1>   0.0800 
 34 H       -4.0660    -0.1370     1.3960 H     1 <1>   0.0800 
 35 H       -4.4780     0.7740    -0.0190 H     1 <1>   0.0800 
 36 H        1.4550     1.3790    -2.7300 H     1 <1>   0.0800 
 37 H        2.9350     2.2980    -2.5930 H     1 <1>   0.0800 
 38 H        1.7470     2.7300    -3.7990 H     1 <1>   0.0800 
 39 H       -4.9050     2.0950     2.0420 H     1 <1>   0.0800 
 40 H       -3.2450     1.8780     2.5000 H     1 <1>   0.0800 
 41 H       -1.6730     4.1390     1.6970 H     1 <1>   0.0800 
 42 H       -3.0340     4.1300     2.7830 H     1 <1>   0.0800 
 43 H        1.1440     6.5470     0.6390 H     1 <1>   0.0800 
 44 H       -0.0830     6.9430    -0.5490 H     1 <1>   0.0800 
 45 H        1.6120     7.0540    -0.9690 H     1 <1>   0.0800 
 46 H       -2.5090     6.0910     0.6080 H     1 <1>   0.0800 
 47 H       -3.2610     6.3400     2.1850 H     1 <1>   0.0800 
 48 H       -5.4330     7.3400     0.5540 H     1 <1>   0.1500 
 49 H       -9.2130     5.6250    -0.3100 H     1 <1>   0.1500 
 50 H       -7.0720     2.3360    -1.9690 H     1 <1>   0.1500 
 51 H      -11.2660     4.8100    -1.3520 H     1 <1>   0.1500 
 52 H       -9.1270     1.5250    -3.0080 H     1 <1>   0.1500 
 53 H      -11.2370     2.7550    -2.7070 H     1 <1>   0.1500 
@<TRIPOS>BOND
  1   1   2  2   
  2   2   3  am  
  3   2   4  1   
  4   3   5  1   
  5   3   6  1   
  6   4   7  1   
  7   4   8  2   
  8   5   9  1   
  9   5  30  1   
 10   5  31  1   
 11   6  10  1   
 12   6  32  1   
 13   6  33  1   
 14   7  11  1   
 15   8  12  1   
 16   8  13  1   
 17   9  14  1   
 18   9  15  1   
 19   9  16  1   
 20  10  15  1   
 21  10  34  1   
 22  10  35  1   
 23  11  12  2   
 24  11  17  1   
 25  13  36  1   
 26  13  37  1   
 27  13  38  1   
 28  14  18  ar  
 29  14  19  ar  
 30  15  39  1   
 31  15  40  1   
 32  16  20  1   
 33  16  41  1   
 34  16  42  1   
 35  17  43  1   
 36  17  44  1   
 37  17  45  1   
 38  18  21  ar  
 39  19  20  1   
 40  19  22  ar  
 41  20  46  1   
 42  20  47  1   
 43  21  23  ar  
 44  21  24  1   
 45  22  23  ar  
 46  22  48  1   
 47  24  25  ar  
 48  24  26  ar  
 49  25  27  ar  
 50  25  49  1   
 51  26  28  ar  
 52  26  50  1   
 53  27  29  ar  
 54  27  51  1   
 55  28  29  ar  
 56  28  52  1   
 57  29  53  1   
@<TRIPOS>SUBSTRUCTURE
  1 ****   5 GROUP 4 **** **** 0

# MOE 2024.06 (io_trps.svl 2023.06)
