@<TRIPOS>MOLECULE
NONAME
43 44 1 0 0 
SMALL
USER_CHARGES


@<TRIPOS>ATOM
  1 CL      -3.8840    -0.8010     3.4530 Cl    1 <1>  -0.1770 
  2 C       -3.1420    -1.4180     1.9950 C.ar  1 <1>   0.1770 
  3 C       -2.3940    -0.5910     1.1750 C.ar  1 <1>   0.1900 
  4 C       -3.3050    -2.7510     1.6610 C.ar  1 <1>  -0.1500 
  5 F       -2.2370     0.6700     1.4820 F     1 <1>  -0.1900 
  6 C       -1.8010    -1.0670     0.0210 C.ar  1 <1>  -0.1500 
  7 C       -2.7130    -3.2500     0.5020 C.ar  1 <1>  -0.1440 
  8 C       -1.9640    -2.4040    -0.3110 C.ar  1 <1>  -0.1500 
  9 C       -2.8820    -4.7130     0.1180 C.3   1 <1>   0.4870 
 10 N       -4.3120    -5.0240    -0.0500 N.4   1 <1>  -0.9590 
 11 C       -4.6040    -6.4890    -0.2610 C.3   1 <1>   0.3430 
 12 C       -5.0750    -4.1570    -0.9830 C.3   1 <1>   0.3430 
 13 C       -6.0800    -6.7500    -0.6640 C.3   1 <1>   0.2000 
 14 C       -6.5810    -4.2830    -0.6810 C.3   1 <1>  -0.1600 
 15 O       -6.1760    -6.7390    -2.0570 O.3   1 <1>  -0.6800 
 16 C       -6.9990    -5.6600    -0.0650 C.3   1 <1>  -0.1060 
 17 C       -6.6980    -5.7370     1.4450 C.2   1 <1>   0.9060 
 18 C       -8.4970    -5.9600    -0.3490 C.3   1 <1>  -0.1600 
 19 O       -6.0610    -4.8160     1.9790 O.co2 1 <1>  -0.9000 
 20 O       -6.8600    -6.8130     2.0170 O.co2 1 <1>  -0.9000 
 21 C       -9.4600    -4.9550     0.3060 C.3   1 <1>  -0.1600 
 22 C      -10.9170    -5.3190     0.0070 C.3   1 <1>  -0.2400 
 23 H       -3.8980    -3.3780     2.3100 H     1 <1>   0.1500 
 24 H       -1.2240    -0.4030    -0.5980 H     1 <1>   0.1500 
 25 H       -1.4990    -2.7750    -1.2100 H     1 <1>   0.1500 
 26 H       -2.4680    -5.3330     0.8960 H     1 <1>   0.0800 
 27 H       -2.3560    -4.9150    -0.8000 H     1 <1>   0.0800 
 28 H       -4.7660    -4.8090     0.8770 H     1 <1>   0.4500 
 29 H       -3.9610    -6.9040    -1.0180 H     1 <1>   0.0800 
 30 H       -4.4200    -7.0070     0.6670 H     1 <1>   0.0800 
 31 H       -4.7760    -3.1270    -0.8810 H     1 <1>   0.0800 
 32 H       -4.8850    -4.4750    -1.9960 H     1 <1>   0.0800 
 33 H       -6.3740    -7.7310    -0.3250 H     1 <1>   0.0800 
 34 H       -6.8690    -3.4870    -0.0160 H     1 <1>   0.0800 
 35 H       -7.1060    -4.1180    -1.6040 H     1 <1>   0.0800 
 36 H       -7.0960    -6.9490    -2.3150 H     1 <1>   0.4000 
 37 H       -8.6770    -5.9680    -1.4090 H     1 <1>   0.0800 
 38 H       -8.7270    -6.9420     0.0290 H     1 <1>   0.0800 
 39 H       -9.3130    -4.9550     1.3740 H     1 <1>   0.0800 
 40 H       -9.2680    -3.9600    -0.0550 H     1 <1>   0.0800 
 41 H      -11.1420    -6.2990     0.3900 H     1 <1>   0.0800 
 42 H      -11.1010    -5.3060    -1.0520 H     1 <1>   0.0800 
 43 H      -11.5740    -4.6110     0.4790 H     1 <1>   0.0800 
@<TRIPOS>BOND
  1   1   2  1   
  2   2   3  ar  
  3   2   4  ar  
  4   3   5  1   
  5   3   6  ar  
  6   4   7  ar  
  7   4  23  1   
  8   6   8  ar  
  9   6  24  1   
 10   7   8  ar  
 11   7   9  1   
 12   8  25  1   
 13   9  10  1   
 14   9  26  1   
 15   9  27  1   
 16  10  11  1   
 17  10  12  1   
 18  10  28  1   
 19  11  13  1   
 20  11  29  1   
 21  11  30  1   
 22  12  14  1   
 23  12  31  1   
 24  12  32  1   
 25  13  15  1   
 26  13  16  1   
 27  13  33  1   
 28  14  16  1   
 29  14  34  1   
 30  14  35  1   
 31  15  36  1   
 32  16  17  1   
 33  16  18  1   
 34  17  19  ar  
 35  17  20  ar  
 36  18  21  1   
 37  18  37  1   
 38  18  38  1   
 39  21  22  1   
 40  21  39  1   
 41  21  40  1   
 42  22  41  1   
 43  22  42  1   
 44  22  43  1   
@<TRIPOS>SUBSTRUCTURE
  1 ****  10 GROUP 4 **** **** 0

# MOE 2024.06 (io_trps.svl 2023.06)
