@<TRIPOS>MOLECULE
NONAME
50 51 1 0 0 
SMALL
USER_CHARGES


@<TRIPOS>ATOM
  1 S        1.1540    -0.0280     0.2430 S.o2  1 <1>   1.3330 
  2 O        2.0680     0.1070    -0.8680 O.2   1 <1>  -0.6500 
  3 O        1.6690    -0.1530     1.5880 O.2   1 <1>  -0.6500 
  4 N        0.1470    -1.3580    -0.0700 N.am  1 <1>  -0.8490 
  5 C        0.0080     1.3480     0.2260 C.3   1 <1>  -0.0550 
  6 C        0.6480    -2.5910     0.5440 C.3   1 <1>   0.1160 
  7 C       -0.1010    -1.5780    -1.4990 C.3   1 <1>   0.1160 
  8 C        0.6590     2.6850     0.6170 C.3   1 <1>  -0.0800 
  9 C       -0.3560     3.8240     0.6830 C.3   1 <1>   0.2000 
 10 C        1.7170     3.1870    -0.3690 C.3   1 <1>   0.1400 
 11 O       -1.0000     3.8150     1.9090 O.3   1 <1>  -0.6800 
 12 C        0.4500     5.1050     0.4710 C.3   1 <1>   0.1400 
 13 N        1.6680     4.6630    -0.2490 N.am  1 <1>  -0.6600 
 14 C        2.7150     5.4860    -0.5880 C.2   1 <1>   0.5440 
 15 O        3.7080     4.9970    -1.0910 O.2   1 <1>  -0.5700 
 16 C        2.6360     6.9130    -0.3450 C.ar  1 <1>   0.0860 
 17 C        3.2880     7.5250     0.7290 C.ar  1 <1>  -0.1430 
 18 C        1.8690     7.7150    -1.1860 C.ar  1 <1>  -0.1500 
 19 C        3.1520     8.8870     0.9390 C.ar  1 <1>  -0.1500 
 20 C        4.1550     6.7030     1.6730 C.3   1 <1>  -0.0970 
 21 C        1.7290     9.0760    -0.9790 C.ar  1 <1>  -0.1430 
 22 C        2.3760     9.6690     0.0970 C.ar  1 <1>  -0.1430 
 23 C        0.8730     9.8890    -1.9400 C.3   1 <1>  -0.0970 
 24 C        2.2590    11.1620     0.3730 C.3   1 <1>  -0.0970 
 25 H       -0.4320     1.4360    -0.7480 H     1 <1>   0.0800 
 26 H       -0.7810     1.1410     0.9240 H     1 <1>   0.0800 
 27 H       -0.0200    -3.4100     0.3390 H     1 <1>   0.0800 
 28 H        0.7130    -2.4710     1.6130 H     1 <1>   0.0800 
 29 H        1.6280    -2.8280     0.1630 H     1 <1>   0.0800 
 30 H       -0.8150    -2.3740    -1.6320 H     1 <1>   0.0800 
 31 H        0.8140    -1.8400    -2.0050 H     1 <1>   0.0800 
 32 H       -0.5000    -0.6860    -1.9490 H     1 <1>   0.0800 
 33 H        1.1410     2.5820     1.5750 H     1 <1>   0.0800 
 34 H       -1.0990     3.7340    -0.0910 H     1 <1>   0.0800 
 35 H        1.4740     2.9130    -1.3810 H     1 <1>   0.0800 
 36 H        2.6980     2.8120    -0.1260 H     1 <1>   0.0800 
 37 H       -0.3510     3.8530     2.6380 H     1 <1>   0.4000 
 38 H        0.7330     5.5470     1.4110 H     1 <1>   0.0800 
 39 H       -0.1020     5.8120    -0.1220 H     1 <1>   0.0800 
 40 H        1.3780     7.2440    -2.0190 H     1 <1>   0.1500 
 41 H        3.6580     9.3470     1.7680 H     1 <1>   0.1500 
 42 H        4.5770     7.3150     2.4480 H     1 <1>   0.0800 
 43 H        4.9610     6.2480     1.1230 H     1 <1>   0.0800 
 44 H        3.5700     5.9250     2.1300 H     1 <1>   0.0800 
 45 H        0.4580     9.2650    -2.7110 H     1 <1>   0.0800 
 46 H        1.4680    10.6510    -2.4080 H     1 <1>   0.0800 
 47 H        0.0610    10.3530    -1.4090 H     1 <1>   0.0800 
 48 H        2.8170    11.4390     1.2490 H     1 <1>   0.0800 
 49 H        1.2290    11.4280     0.5310 H     1 <1>   0.0800 
 50 H        2.6420    11.7210    -0.4610 H     1 <1>   0.0800 
@<TRIPOS>BOND
  1   1   2  2   
  2   1   3  2   
  3   1   4  am  
  4   1   5  1   
  5   4   6  1   
  6   4   7  1   
  7   5   8  1   
  8   5  25  1   
  9   5  26  1   
 10   6  27  1   
 11   6  28  1   
 12   6  29  1   
 13   7  30  1   
 14   7  31  1   
 15   7  32  1   
 16   8   9  1   
 17   8  10  1   
 18   8  33  1   
 19   9  11  1   
 20   9  12  1   
 21   9  34  1   
 22  10  13  1   
 23  10  35  1   
 24  10  36  1   
 25  11  37  1   
 26  12  13  1   
 27  12  38  1   
 28  12  39  1   
 29  13  14  am  
 30  14  15  2   
 31  14  16  1   
 32  16  17  ar  
 33  16  18  ar  
 34  17  19  ar  
 35  17  20  1   
 36  18  21  ar  
 37  18  40  1   
 38  19  22  ar  
 39  19  41  1   
 40  20  42  1   
 41  20  43  1   
 42  20  44  1   
 43  21  22  ar  
 44  21  23  1   
 45  22  24  1   
 46  23  45  1   
 47  23  46  1   
 48  23  47  1   
 49  24  48  1   
 50  24  49  1   
 51  24  50  1   
@<TRIPOS>SUBSTRUCTURE
  1 ****  13 GROUP 4 **** **** 0

# MOE 2024.06 (io_trps.svl 2023.06)
