@<TRIPOS>MOLECULE
NONAME
51 53 1 0 0 
SMALL
USER_CHARGES


@<TRIPOS>ATOM
  1 O       -3.1720     0.5080    -1.9560 O.2   1 <1>  -0.5700 
  2 C       -2.5040     0.8410    -1.0030 C.2   1 <1>   0.5690 
  3 N       -2.0620    -0.0840    -0.1170 N.am  1 <1>  -0.7300 
  4 C       -2.1490     2.3260    -0.7600 C.3   1 <1>   0.0610 
  5 C       -2.3840    -1.5240    -0.1520 C.3   1 <1>   0.2200 
  6 C       -2.4890     2.7210     0.6970 C.3   1 <1>   0.1200 
  7 C       -0.6510     2.5650    -1.0470 C.3   1 <1>  -0.2400 
  8 C       -2.9560     3.2560    -1.6950 C.3   1 <1>  -0.2400 
  9 C       -3.7240    -1.7470     0.5260 C.3   1 <1>  -0.0800 
 10 C       -1.4230    -2.3070     0.7450 C.3   1 <1>   0.1200 
 11 O       -1.6800     2.0430     1.6180 O.3   1 <1>  -0.5600 
 12 C       -3.3080    -1.8610     1.9910 C.3   1 <1>   0.1200 
 13 C       -4.4080    -3.0270     0.0080 C.3   1 <1>  -0.0170 
 14 O       -2.0430    -2.4510     1.9920 O.3   1 <1>  -0.5600 
 15 C       -1.9430     2.3650     2.9460 C.3   1 <1>   0.0400 
 16 C       -5.8050    -3.1920     0.5980 C.ar  1 <1>  -0.1440 
 17 C       -6.9090    -2.4290     0.1500 C.ar  1 <1>   0.0000 
 18 C       -6.0260    -4.1020     1.5900 C.ar  1 <1>  -0.1500 
 19 C       -8.1620    -2.6590     0.7710 C.ar  1 <1>   0.3100 
 20 C       -6.8480    -1.4550    -0.8750 C.ar  1 <1>  -0.1500 
 21 C       -7.3070    -4.2520     2.1350 C.ar  1 <1>   0.1600 
 22 N       -8.3430    -3.5710     1.7600 N.ar  1 <1>  -0.6200 
 23 C       -9.2760    -1.9160     0.3510 C.ar  1 <1>  -0.1500 
 24 C       -7.9540    -0.7470    -1.2600 C.ar  1 <1>  -0.1500 
 25 C       -9.1850    -0.9780    -0.6420 C.ar  1 <1>  -0.1500 
 26 H       -1.6380     0.2780     0.7490 H     1 <1>   0.3700 
 27 H       -2.3620    -1.8710    -1.1710 H     1 <1>   0.0800 
 28 H       -3.5190     2.4840     0.9090 H     1 <1>   0.0800 
 29 H       -2.3340     3.7770     0.8350 H     1 <1>   0.0800 
 30 H       -0.3880     3.5920    -0.8680 H     1 <1>   0.0800 
 31 H       -0.4260     2.3220    -2.0700 H     1 <1>   0.0800 
 32 H       -0.0410     1.9440    -0.4140 H     1 <1>   0.0800 
 33 H       -2.7120     4.2880    -1.5170 H     1 <1>   0.0800 
 34 H       -4.0120     3.1190    -1.5380 H     1 <1>   0.0800 
 35 H       -2.7410     3.0280    -2.7240 H     1 <1>   0.0800 
 36 H       -4.3800    -0.9080     0.3810 H     1 <1>   0.0800 
 37 H       -0.4790    -1.8070     0.8700 H     1 <1>   0.0800 
 38 H       -1.2620    -3.2950     0.3520 H     1 <1>   0.0800 
 39 H       -3.9810    -2.4570     2.5810 H     1 <1>   0.0800 
 40 H       -3.2110    -0.8830     2.4310 H     1 <1>   0.0800 
 41 H       -3.8060    -3.8840     0.2560 H     1 <1>   0.0800 
 42 H       -4.4820    -2.9960    -1.0650 H     1 <1>   0.0800 
 43 H       -1.2770     1.7930     3.5680 H     1 <1>   0.0800 
 44 H       -2.9630     2.1120     3.1790 H     1 <1>   0.0800 
 45 H       -1.7670     3.4160     3.0980 H     1 <1>   0.0800 
 46 H       -5.2350    -4.7180     1.9760 H     1 <1>   0.1500 
 47 H       -5.9130    -1.2590    -1.3680 H     1 <1>   0.1500 
 48 H       -7.4370    -4.9810     2.9170 H     1 <1>   0.1500 
 49 H      -10.2120    -2.1120     0.8400 H     1 <1>   0.1500 
 50 H       -7.8890    -0.0090    -2.0420 H     1 <1>   0.1500 
 51 H      -10.0480    -0.4160    -0.9540 H     1 <1>   0.1500 
@<TRIPOS>BOND
  1   1   2  2   
  2   2   3  am  
  3   2   4  1   
  4   3   5  1   
  5   3  26  1   
  6   4   6  1   
  7   4   7  1   
  8   4   8  1   
  9   5   9  1   
 10   5  10  1   
 11   5  27  1   
 12   6  11  1   
 13   6  28  1   
 14   6  29  1   
 15   7  30  1   
 16   7  31  1   
 17   7  32  1   
 18   8  33  1   
 19   8  34  1   
 20   8  35  1   
 21   9  12  1   
 22   9  13  1   
 23   9  36  1   
 24  10  14  1   
 25  10  37  1   
 26  10  38  1   
 27  11  15  1   
 28  12  14  1   
 29  12  39  1   
 30  12  40  1   
 31  13  16  1   
 32  13  41  1   
 33  13  42  1   
 34  15  43  1   
 35  15  44  1   
 36  15  45  1   
 37  16  17  ar  
 38  16  18  ar  
 39  17  19  ar  
 40  17  20  ar  
 41  18  21  ar  
 42  18  46  1   
 43  19  22  ar  
 44  19  23  ar  
 45  20  24  ar  
 46  20  47  1   
 47  21  22  ar  
 48  21  48  1   
 49  23  25  ar  
 50  23  49  1   
 51  24  25  ar  
 52  24  50  1   
 53  25  51  1   
@<TRIPOS>SUBSTRUCTURE
  1 ****   9 GROUP 4 **** **** 0

# MOE 2024.06 (io_trps.svl 2023.06)
