@<TRIPOS>MOLECULE
NONAME
43 45 1 0 0 
SMALL
USER_CHARGES


@<TRIPOS>ATOM
  1 S       -0.0050     0.4470    -1.3920 S.3   1 <1>  -0.0800 
  2 C       -1.2500    -0.2340    -0.3510 C.2   1 <1>  -0.1400 
  3 C       -0.3610     2.0730    -0.8560 C.2   1 <1>  -0.1100 
  4 C       -1.8600     0.7530     0.3470 C.2   1 <1>  -0.1810 
  5 C       -1.3650    -1.7490    -0.4740 C.3   1 <1>   0.3890 
  6 C       -1.3520     2.0600     0.0500 C.2   1 <1>  -0.1500 
  7 C       -2.9780     0.6500     1.3720 C.3   1 <1>  -0.0590 
  8 N       -2.6020    -2.2940     0.1510 N.pl3 1 <1>  -0.8380 
  9 C       -3.7210    -2.4720    -0.6540 C.ar  1 <1>   0.4100 
 10 C       -2.3620    -3.1780     1.3280 C.3   1 <1>   0.1290 
 11 N       -4.3270    -3.6440    -0.5670 N.ar  1 <1>  -0.6200 
 12 C       -4.1770    -1.4560    -1.5130 C.ar  1 <1>   0.1600 
 13 C       -5.3930    -3.7750    -1.3730 C.ar  1 <1>   0.3960 
 14 N       -5.2140    -1.5530    -2.3210 N.ar  1 <1>  -0.6200 
 15 C       -6.1720    -5.0130    -1.3960 C.2   1 <1>   0.5440 
 16 C       -5.7920    -2.7410    -2.2240 C.ar  1 <1>   0.1600 
 17 O       -6.6470    -5.3850    -2.4560 O.2   1 <1>  -0.5700 
 18 N       -6.4300    -5.7870    -0.2740 N.am  1 <1>  -0.6600 
 19 C       -6.9650    -7.1810    -0.3730 C.3   1 <1>   0.1400 
 20 C       -6.2020    -5.3420     1.1350 C.3   1 <1>   0.1400 
 21 C       -8.1340    -7.3910     0.6010 C.3   1 <1>   0.1200 
 22 C       -7.4110    -5.6770     2.0240 C.3   1 <1>   0.1200 
 23 O       -7.7660    -7.0240     1.9010 O.3   1 <1>  -0.5600 
 24 H        0.2150     2.8750    -1.2820 H     1 <1>   0.1500 
 25 H       -0.4960    -2.2010    -0.0270 H     1 <1>   0.0800 
 26 H       -1.3610    -2.0120    -1.5180 H     1 <1>   0.0800 
 27 H       -1.7560     2.9330     0.5330 H     1 <1>   0.1500 
 28 H       -3.1480    -0.3630     1.6780 H     1 <1>   0.0800 
 29 H       -3.8880     1.0420     0.9580 H     1 <1>   0.0800 
 30 H       -2.7220     1.2190     2.2470 H     1 <1>   0.0800 
 31 H       -1.6980    -2.6940     2.0240 H     1 <1>   0.0800 
 32 H       -1.9270    -4.1080     1.0050 H     1 <1>   0.0800 
 33 H       -3.2920    -3.3840     1.8300 H     1 <1>   0.0800 
 34 H       -3.6430    -0.5240    -1.5120 H     1 <1>   0.1500 
 35 H       -6.6450    -2.9130    -2.8580 H     1 <1>   0.1500 
 36 H       -6.1790    -7.8750    -0.1320 H     1 <1>   0.0800 
 37 H       -7.2970    -7.3960    -1.3730 H     1 <1>   0.0800 
 38 H       -6.0370    -4.2810     1.1780 H     1 <1>   0.0800 
 39 H       -5.3260    -5.8340     1.5220 H     1 <1>   0.0800 
 40 H       -8.4180    -8.4280     0.6210 H     1 <1>   0.0800 
 41 H       -8.9850    -6.8050     0.3010 H     1 <1>   0.0800 
 42 H       -8.2590    -5.0720     1.7520 H     1 <1>   0.0800 
 43 H       -7.1740    -5.4940     3.0570 H     1 <1>   0.0800 
@<TRIPOS>BOND
  1   1   2  1   
  2   1   3  1   
  3   2   4  2   
  4   2   5  1   
  5   3   6  2   
  6   3  24  1   
  7   4   6  1   
  8   4   7  1   
  9   5   8  1   
 10   5  25  1   
 11   5  26  1   
 12   6  27  1   
 13   7  28  1   
 14   7  29  1   
 15   7  30  1   
 16   8   9  1   
 17   8  10  1   
 18   9  11  ar  
 19   9  12  ar  
 20  10  31  1   
 21  10  32  1   
 22  10  33  1   
 23  11  13  ar  
 24  12  14  ar  
 25  12  34  1   
 26  13  15  1   
 27  13  16  ar  
 28  14  16  ar  
 29  15  17  2   
 30  15  18  am  
 31  16  35  1   
 32  18  19  1   
 33  18  20  1   
 34  19  21  1   
 35  19  36  1   
 36  19  37  1   
 37  20  22  1   
 38  20  38  1   
 39  20  39  1   
 40  21  23  1   
 41  21  40  1   
 42  21  41  1   
 43  22  23  1   
 44  22  42  1   
 45  22  43  1   
@<TRIPOS>SUBSTRUCTURE
  1 ****   9 GROUP 4 **** **** 0

# MOE 2024.06 (io_trps.svl 2023.06)
