@<TRIPOS>MOLECULE
NONAME
42 43 1 0 0 
SMALL
USER_CHARGES


@<TRIPOS>ATOM
  1 O        0.1970     0.9360    -0.4160 O.3   1 <1>  -0.0190 
  2 N       -0.2090    -0.2930    -0.3230 N.2   1 <1>  -0.4100 
  3 C       -0.8860     1.6480    -0.2230 C.2   1 <1>   0.2980 
  4 C       -1.4600    -0.2570    -0.0740 C.2   1 <1>   0.3350 
  5 N       -1.9470     0.9770    -0.0040 N.2   1 <1>  -0.5650 
  6 C       -0.7760     3.1700    -0.2440 C.3   1 <1>   0.2900 
  7 C       -2.3480    -1.4850     0.0990 C.3   1 <1>   0.3010 
  8 N       -0.7070     3.7630    -1.6080 N.3   1 <1>  -0.8100 
  9 O       -2.5860    -1.7540     1.4560 O.3   1 <1>  -0.5600 
 10 C       -0.8950     5.2380    -1.5560 C.3   1 <1>   0.2910 
 11 C        0.5310     3.4030    -2.3180 C.3   1 <1>   0.0300 
 12 C       -3.4170    -2.8450     1.6830 C.3   1 <1>   0.0400 
 13 C        0.1160     5.9860    -0.6800 C.2   1 <1>   0.3350 
 14 N       -0.0900     6.3280     0.5310 N.2   1 <1>  -0.4100 
 15 N        1.3170     6.3370    -1.1270 N.2   1 <1>  -0.5650 
 16 O        0.9830     6.9250     0.9500 O.3   1 <1>  -0.0190 
 17 C        1.7880     6.8930    -0.0840 C.2   1 <1>   0.2980 
 18 C        3.1710     7.5050     0.0400 C.3   1 <1>   0.0200 
 19 C        4.2280     6.4980     0.5340 C.3   1 <1>  -0.0800 
 20 C        3.9160     5.9660     1.9400 C.3   1 <1>  -0.2400 
 21 C        5.6200     7.1450     0.5280 C.3   1 <1>  -0.2400 
 22 H        0.0890     3.4590     0.3280 H     1 <1>   0.0800 
 23 H       -1.6450     3.5580     0.2590 H     1 <1>   0.0800 
 24 H       -1.8650    -2.3400    -0.3370 H     1 <1>   0.0800 
 25 H       -3.2910    -1.3120    -0.3880 H     1 <1>   0.0800 
 26 H       -1.8820     5.4440    -1.1810 H     1 <1>   0.0800 
 27 H       -0.8450     5.6360    -2.5540 H     1 <1>   0.0800 
 28 H        0.5500     2.3450    -2.5180 H     1 <1>   0.0800 
 29 H        1.3980     3.6650    -1.7340 H     1 <1>   0.0800 
 30 H        0.5800     3.9180    -3.2620 H     1 <1>   0.0800 
 31 H       -3.5290    -2.9620     2.7460 H     1 <1>   0.0800 
 32 H       -2.9660    -3.7300     1.2670 H     1 <1>   0.0800 
 33 H       -4.3790    -2.6600     1.2370 H     1 <1>   0.0800 
 34 H        3.1230     8.3500     0.7040 H     1 <1>   0.0800 
 35 H        3.4580     7.8680    -0.9300 H     1 <1>   0.0800 
 36 H        4.2430     5.6640    -0.1490 H     1 <1>   0.0800 
 37 H        3.8380     6.7740     2.6460 H     1 <1>   0.0800 
 38 H        4.6950     5.3000     2.2680 H     1 <1>   0.0800 
 39 H        2.9920     5.4150     1.9440 H     1 <1>   0.0800 
 40 H        5.6540     7.9820     1.2030 H     1 <1>   0.0800 
 41 H        5.8710     7.4890    -0.4600 H     1 <1>   0.0800 
 42 H        6.3650     6.4310     0.8320 H     1 <1>   0.0800 
@<TRIPOS>BOND
  1   1   2  1   
  2   1   3  1   
  3   2   4  2   
  4   3   5  2   
  5   3   6  1   
  6   4   5  1   
  7   4   7  1   
  8   6   8  1   
  9   6  22  1   
 10   6  23  1   
 11   7   9  1   
 12   7  24  1   
 13   7  25  1   
 14   8  10  1   
 15   8  11  1   
 16   9  12  1   
 17  10  13  1   
 18  10  26  1   
 19  10  27  1   
 20  11  28  1   
 21  11  29  1   
 22  11  30  1   
 23  12  31  1   
 24  12  32  1   
 25  12  33  1   
 26  13  14  2   
 27  13  15  1   
 28  14  16  1   
 29  15  17  2   
 30  16  17  1   
 31  17  18  1   
 32  18  19  1   
 33  18  34  1   
 34  18  35  1   
 35  19  20  1   
 36  19  21  1   
 37  19  36  1   
 38  20  37  1   
 39  20  38  1   
 40  20  39  1   
 41  21  40  1   
 42  21  41  1   
 43  21  42  1   
@<TRIPOS>SUBSTRUCTURE
  1 ****   6 GROUP 4 **** **** 0

# MOE 2024.06 (io_trps.svl 2023.06)
