@<TRIPOS>MOLECULE
NONAME
45 48 1 0 0 
SMALL
USER_CHARGES


@<TRIPOS>ATOM
  1 CL      -0.6170     0.5740    -0.9290 Cl    1 <1>  -0.1230 
  2 C       -1.9810     0.7890     0.1550 C.2   1 <1>   0.1230 
  3 C       -3.2170     0.1400     0.0760 C.2   1 <1>   0.2030 
  4 C       -2.0120     1.5990     1.2250 C.2   1 <1>  -0.3020 
  5 N       -3.9780     0.5450     1.0880 N.2   1 <1>  -0.7070 
  6 C       -3.5590    -0.8020    -0.9810 C.2   1 <1>   0.7160 
  7 N       -3.2340     1.4350     1.7680 N.pl3 1 <1>   0.3000 
  8 O       -3.3400    -0.4930    -2.1430 O.2   1 <1>  -0.5700 
  9 N       -4.1140    -2.0510    -0.7430 N.am  1 <1>  -0.6600 
 10 C       -4.2970    -2.6320     0.6190 C.3   1 <1>   0.1400 
 11 C       -4.6080    -2.8710    -1.8910 C.3   1 <1>   0.1400 
 12 C       -5.7290    -3.1480     0.7840 C.3   1 <1>  -0.1600 
 13 C       -5.1030    -4.2500    -1.4430 C.3   1 <1>  -0.1600 
 14 C       -6.1610    -4.1320    -0.3310 C.3   1 <1>   0.4240 
 15 O       -7.2520    -3.5350    -0.9930 O.3   1 <1>  -0.5600 
 16 C       -6.5290    -5.5340     0.2310 C.ar  1 <1>  -0.1430 
 17 C       -8.5130    -3.7080    -0.4360 C.3   1 <1>   0.1200 
 18 C       -5.5900    -6.3290     0.9000 C.ar  1 <1>   0.0830 
 19 C       -7.8250    -6.0270     0.0840 C.ar  1 <1>  -0.1430 
 20 C       -8.8890    -5.1750    -0.5780 C.3   1 <1>  -0.0170 
 21 O       -4.3380    -5.8360     1.0970 O.3   1 <1>  -0.3630 
 22 C       -5.9470    -7.5950     1.3630 C.ar  1 <1>  -0.1500 
 23 C       -8.1680    -7.2850     0.5480 C.ar  1 <1>  -0.1500 
 24 C       -3.3080    -6.5930     1.6940 C.3   1 <1>   0.0400 
 25 C       -7.2290    -8.0710     1.1830 C.ar  1 <1>  -0.1500 
 26 H       -1.2600     2.2580     1.6170 H     1 <1>   0.1500 
 27 H       -3.5880     1.9200     2.6040 H     1 <1>   0.2700 
 28 H       -4.0910    -1.9130     1.3880 H     1 <1>   0.0800 
 29 H       -3.5990    -3.4420     0.7430 H     1 <1>   0.0800 
 30 H       -3.8160    -2.9890    -2.6110 H     1 <1>   0.0800 
 31 H       -5.4140    -2.3390    -2.3680 H     1 <1>   0.0800 
 32 H       -6.3820    -2.2950     0.8050 H     1 <1>   0.0800 
 33 H       -5.8040    -3.6310     1.7400 H     1 <1>   0.0800 
 34 H       -4.2560    -4.8210    -1.1210 H     1 <1>   0.0800 
 35 H       -5.5310    -4.7730    -2.2790 H     1 <1>   0.0800 
 36 H       -9.2020    -3.0830    -0.9770 H     1 <1>   0.0800 
 37 H       -8.4900    -3.4060     0.5970 H     1 <1>   0.0800 
 38 H       -8.9660    -5.4290    -1.6200 H     1 <1>   0.0800 
 39 H       -9.8430    -5.3420    -0.1140 H     1 <1>   0.0800 
 40 H       -5.2440    -8.2270     1.8700 H     1 <1>   0.1500 
 41 H       -9.1700    -7.6580     0.4180 H     1 <1>   0.1500 
 42 H       -2.4140    -5.9960     1.7000 H     1 <1>   0.0800 
 43 H       -3.1470    -7.4840     1.1110 H     1 <1>   0.0800 
 44 H       -3.5920    -6.8360     2.7020 H     1 <1>   0.0800 
 45 H       -7.4990    -9.0500     1.5400 H     1 <1>   0.1500 
@<TRIPOS>BOND
  1   1   2  1   
  2   2   3  1   
  3   2   4  2   
  4   3   5  2   
  5   3   6  1   
  6   4   7  1   
  7   4  26  1   
  8   5   7  1   
  9   6   8  2   
 10   6   9  am  
 11   7  27  1   
 12   9  10  1   
 13   9  11  1   
 14  10  12  1   
 15  10  28  1   
 16  10  29  1   
 17  11  13  1   
 18  11  30  1   
 19  11  31  1   
 20  12  14  1   
 21  12  32  1   
 22  12  33  1   
 23  13  14  1   
 24  13  34  1   
 25  13  35  1   
 26  14  15  1   
 27  14  16  1   
 28  15  17  1   
 29  16  18  ar  
 30  16  19  ar  
 31  17  20  1   
 32  17  36  1   
 33  17  37  1   
 34  18  21  1   
 35  18  22  ar  
 36  19  20  1   
 37  19  23  ar  
 38  20  38  1   
 39  20  39  1   
 40  21  24  1   
 41  22  25  ar  
 42  22  40  1   
 43  23  25  ar  
 44  23  41  1   
 45  24  42  1   
 46  24  43  1   
 47  24  44  1   
 48  25  45  1   
@<TRIPOS>SUBSTRUCTURE
  1 ****  12 GROUP 4 **** **** 0

# MOE 2024.06 (io_trps.svl 2023.06)
