@<TRIPOS>MOLECULE
NONAME
50 53 1 0 0 
SMALL
USER_CHARGES


@<TRIPOS>ATOM
  1 S       -1.3580    -2.5030    -0.2800 S.3   1 <1>  -0.0800 
  2 C       -2.1730    -1.1210     0.4650 C.2   1 <1>   0.0410 
  3 C       -0.1790    -2.6040     1.0140 C.2   1 <1>  -0.1100 
  4 C       -3.3170    -0.4990    -0.1570 C.2   1 <1>   0.2880 
  5 C       -1.5200    -0.8090     1.6120 C.2   1 <1>  -0.1500 
  6 C       -0.4060    -1.6420     1.9260 C.2   1 <1>  -0.1500 
  7 N       -3.6080     0.7520     0.0730 N.2   1 <1>  -0.7070 
  8 C       -4.2690    -1.0610    -1.0230 C.2   1 <1>  -0.1810 
  9 N       -4.7060     1.0520    -0.6560 N.pl3 1 <1>   0.5930 
 10 C       -5.1160    -0.0550    -1.3210 C.2   1 <1>  -0.3020 
 11 C       -4.3620    -2.4910    -1.5130 C.3   1 <1>   0.5240 
 12 C       -5.3060     2.3440    -0.6880 C.ar  1 <1>  -0.0230 
 13 N       -5.2510    -3.2410    -0.5860 N.4   1 <1>  -0.9590 
 14 C       -6.6810     2.5010    -0.8550 C.ar  1 <1>  -0.1500 
 15 C       -4.5230     3.4880    -0.5520 C.ar  1 <1>  -0.1500 
 16 C       -5.6630    -4.5490    -1.1750 C.3   1 <1>   0.3430 
 17 C       -4.6520    -3.3810     0.7840 C.3   1 <1>   0.3430 
 18 C       -7.2510     3.7610    -0.8950 C.ar  1 <1>  -0.1500 
 19 C       -5.0910     4.7480    -0.5900 C.ar  1 <1>  -0.1500 
 20 C       -6.8090    -5.1740    -0.3640 C.3   1 <1>  -0.0800 
 21 C       -5.2380    -4.5660     1.5610 C.3   1 <1>  -0.1600 
 22 C       -6.4570     4.8860    -0.7630 C.ar  1 <1>  -0.1500 
 23 C       -6.6790    -4.8540     1.1430 C.3   1 <1>   0.2000 
 24 C       -6.9110    -6.6720    -0.6940 C.3   1 <1>   0.1200 
 25 O       -7.1600    -5.8840     1.9240 O.3   1 <1>  -0.6800 
 26 O       -6.8140    -6.8260    -2.0680 O.3   1 <1>  -0.6800 
 27 H        0.5700    -3.3740     0.9540 H     1 <1>   0.1500 
 28 H       -1.7960     0.0110     2.2540 H     1 <1>   0.1500 
 29 H        0.1760    -1.4770     2.8170 H     1 <1>   0.1500 
 30 H       -5.9800    -0.0360    -1.9600 H     1 <1>   0.1500 
 31 H       -3.3930    -2.9540    -1.5760 H     1 <1>   0.0800 
 32 H       -4.7920    -2.4870    -2.5010 H     1 <1>   0.0800 
 33 H       -6.0960    -2.6630    -0.4930 H     1 <1>   0.4500 
 34 H       -7.3210     1.6420    -0.9520 H     1 <1>   0.1500 
 35 H       -3.4580     3.3930    -0.4130 H     1 <1>   0.1500 
 36 H       -5.9870    -4.4260    -2.1970 H     1 <1>   0.0800 
 37 H       -4.8220    -5.2240    -1.1760 H     1 <1>   0.0800 
 38 H       -3.5860    -3.5190     0.7120 H     1 <1>   0.0800 
 39 H       -4.8250    -2.4710     1.3370 H     1 <1>   0.0800 
 40 H       -8.3140     3.8720    -1.0260 H     1 <1>   0.1500 
 41 H       -4.4720     5.6220    -0.4840 H     1 <1>   0.1500 
 42 H       -7.7270    -4.7240    -0.7000 H     1 <1>   0.0800 
 43 H       -5.1960    -4.3410     2.6130 H     1 <1>   0.0800 
 44 H       -4.6240    -5.4310     1.3820 H     1 <1>   0.0800 
 45 H       -6.9000     5.8670    -0.7930 H     1 <1>   0.1500 
 46 H       -7.2870    -3.9930     1.3690 H     1 <1>   0.0800 
 47 H       -7.8590    -7.0700    -0.3690 H     1 <1>   0.0800 
 48 H       -6.1110    -7.2330    -0.2390 H     1 <1>   0.0800 
 49 H       -6.5030    -6.5970     2.0450 H     1 <1>   0.4000 
 50 H       -7.0500    -7.7420    -2.3320 H     1 <1>   0.4000 
@<TRIPOS>BOND
  1   1   2  1   
  2   1   3  1   
  3   2   4  1   
  4   2   5  2   
  5   3   6  2   
  6   3  27  1   
  7   4   7  2   
  8   4   8  1   
  9   5   6  1   
 10   5  28  1   
 11   6  29  1   
 12   7   9  1   
 13   8  10  2   
 14   8  11  1   
 15   9  10  1   
 16   9  12  1   
 17  10  30  1   
 18  11  13  1   
 19  11  31  1   
 20  11  32  1   
 21  12  14  ar  
 22  12  15  ar  
 23  13  16  1   
 24  13  17  1   
 25  13  33  1   
 26  14  18  ar  
 27  14  34  1   
 28  15  19  ar  
 29  15  35  1   
 30  16  20  1   
 31  16  36  1   
 32  16  37  1   
 33  17  21  1   
 34  17  38  1   
 35  17  39  1   
 36  18  22  ar  
 37  18  40  1   
 38  19  22  ar  
 39  19  41  1   
 40  20  23  1   
 41  20  24  1   
 42  20  42  1   
 43  21  23  1   
 44  21  43  1   
 45  21  44  1   
 46  22  45  1   
 47  23  25  1   
 48  23  46  1   
 49  24  26  1   
 50  24  47  1   
 51  24  48  1   
 52  25  49  1   
 53  26  50  1   
@<TRIPOS>SUBSTRUCTURE
  1 ****   8 GROUP 4 **** **** 0

# MOE 2024.06 (io_trps.svl 2023.06)
