@<TRIPOS>MOLECULE
NONAME
51 54 1 0 0 
SMALL
USER_CHARGES


@<TRIPOS>ATOM
  1 O       -0.8120     0.1190    -0.8750 O.2   1 <1>  -0.5700 
  2 C       -1.7380     0.6660    -0.3220 C.2   1 <1>   0.5690 
  3 N       -2.8280    -0.0570     0.0880 N.am  1 <1>  -0.6600 
  4 C       -1.6800     2.1840    -0.1010 C.3   1 <1>  -0.0190 
  5 C       -4.0490     0.4610     0.7520 C.3   1 <1>   0.1400 
  6 C       -2.9310    -1.5180    -0.1290 C.3   1 <1>   0.1400 
  7 C       -2.2420     2.9340    -1.3240 C.3   1 <1>  -0.1600 
  8 C       -0.2560     2.6810     0.2220 C.3   1 <1>  -0.1600 
  9 C       -4.9760    -0.7500     0.8670 C.3   1 <1>   0.2000 
 10 C       -4.0660    -1.9770     0.7900 C.3   1 <1>  -0.0800 
 11 C       -2.2100     4.4550    -1.1180 C.3   1 <1>  -0.1600 
 12 C       -0.2230     4.2010     0.4350 C.3   1 <1>  -0.1600 
 13 O       -5.6740    -0.7440     2.0640 O.3   1 <1>  -0.6800 
 14 C       -4.8140    -3.2260     0.2890 C.3   1 <1>  -0.0170 
 15 C       -0.7940     4.9400    -0.7830 C.3   1 <1>  -0.1600 
 16 C       -4.0020    -4.5250     0.2020 C.ar  1 <1>  -0.1440 
 17 C       -4.5360    -5.6460    -0.4830 C.ar  1 <1>   0.0000 
 18 C       -2.7680    -4.6800     0.7700 C.ar  1 <1>  -0.1500 
 19 C       -3.7440    -6.8190    -0.5590 C.ar  1 <1>   0.3100 
 20 C       -5.8140    -5.6770    -1.0920 C.ar  1 <1>  -0.1500 
 21 C       -2.0710    -5.8870     0.6410 C.ar  1 <1>   0.1600 
 22 N       -2.5170    -6.9230     0.0060 N.ar  1 <1>  -0.6200 
 23 C       -4.2450    -7.9380    -1.2440 C.ar  1 <1>  -0.1500 
 24 C       -6.2740    -6.7860    -1.7490 C.ar  1 <1>  -0.1500 
 25 C       -5.4800    -7.9320    -1.8310 C.ar  1 <1>  -0.1500 
 26 H       -2.2900     2.4260     0.7490 H     1 <1>   0.0800 
 27 H       -3.7920     0.8400     1.7250 H     1 <1>   0.0800 
 28 H       -4.5050     1.2330     0.1560 H     1 <1>   0.0800 
 29 H       -3.1730    -1.6990    -1.1630 H     1 <1>   0.0800 
 30 H       -1.9980    -2.0020     0.1030 H     1 <1>   0.0800 
 31 H       -1.6550     2.6800    -2.1900 H     1 <1>   0.0800 
 32 H       -3.2530     2.6190    -1.5110 H     1 <1>   0.0800 
 33 H        0.1070     2.1840     1.1050 H     1 <1>   0.0800 
 34 H        0.4050     2.4260    -0.5900 H     1 <1>   0.0800 
 35 H       -5.6880    -0.7370     0.0600 H     1 <1>   0.0800 
 36 H       -3.6500    -2.1610     1.7650 H     1 <1>   0.0800 
 37 H       -2.5550     4.9460    -2.0120 H     1 <1>   0.0800 
 38 H       -2.8770     4.7230    -0.3170 H     1 <1>   0.0800 
 39 H       -0.7990     4.4540     1.3090 H     1 <1>   0.0800 
 40 H        0.7910     4.5180     0.6050 H     1 <1>   0.0800 
 41 H       -5.0630    -0.8350     2.8200 H     1 <1>   0.4000 
 42 H       -5.2010    -2.9990    -0.6890 H     1 <1>   0.0800 
 43 H       -5.6550    -3.4040     0.9370 H     1 <1>   0.0800 
 44 H       -0.8110     5.9980    -0.5880 H     1 <1>   0.0800 
 45 H       -0.1520     4.7720    -1.6310 H     1 <1>   0.0800 
 46 H       -2.2830    -3.9050     1.3300 H     1 <1>   0.1500 
 47 H       -6.4500    -4.8140    -1.0380 H     1 <1>   0.1500 
 48 H       -1.1000    -5.9580     1.1010 H     1 <1>   0.1500 
 49 H       -3.6170    -8.8090    -1.2900 H     1 <1>   0.1500 
 50 H       -7.2470    -6.7910    -2.2080 H     1 <1>   0.1500 
 51 H       -5.8510    -8.7970    -2.3520 H     1 <1>   0.1500 
@<TRIPOS>BOND
  1   1   2  2   
  2   2   3  am  
  3   2   4  1   
  4   3   5  1   
  5   3   6  1   
  6   4   7  1   
  7   4   8  1   
  8   4  26  1   
  9   5   9  1   
 10   5  27  1   
 11   5  28  1   
 12   6  10  1   
 13   6  29  1   
 14   6  30  1   
 15   7  11  1   
 16   7  31  1   
 17   7  32  1   
 18   8  12  1   
 19   8  33  1   
 20   8  34  1   
 21   9  10  1   
 22   9  13  1   
 23   9  35  1   
 24  10  14  1   
 25  10  36  1   
 26  11  15  1   
 27  11  37  1   
 28  11  38  1   
 29  12  15  1   
 30  12  39  1   
 31  12  40  1   
 32  13  41  1   
 33  14  16  1   
 34  14  42  1   
 35  14  43  1   
 36  15  44  1   
 37  15  45  1   
 38  16  17  ar  
 39  16  18  ar  
 40  17  19  ar  
 41  17  20  ar  
 42  18  21  ar  
 43  18  46  1   
 44  19  22  ar  
 45  19  23  ar  
 46  20  24  ar  
 47  20  47  1   
 48  21  22  ar  
 49  21  48  1   
 50  23  25  ar  
 51  23  49  1   
 52  24  25  ar  
 53  24  50  1   
 54  25  51  1   
@<TRIPOS>SUBSTRUCTURE
  1 ****   6 GROUP 4 **** **** 0

# MOE 2024.06 (io_trps.svl 2023.06)
