@<TRIPOS>MOLECULE
NONAME
43 46 1 0 0 
SMALL
USER_CHARGES


@<TRIPOS>ATOM
  1 O       -0.3140     0.1010     1.1890 O.2   1 <1>  -0.5700 
  2 C       -1.3200     0.7270     0.9140 C.2   1 <1>   0.7150 
  3 N       -2.4450     0.0380     0.5310 N.am  1 <1>  -0.6600 
  4 C       -1.3290     2.1600     0.9860 C.2   1 <1>  -0.2370 
  5 C       -3.6180     0.6480    -0.1390 C.3   1 <1>   0.1400 
  6 C       -2.4710    -1.4390     0.4010 C.3   1 <1>   0.1400 
  7 N       -0.3490     2.9340     0.4240 N.pl3 1 <1>   0.2940 
  8 C       -2.2350     2.9990     1.5850 C.2   1 <1>  -0.1500 
  9 C       -4.3260    -0.5190    -0.8270 C.3   1 <1>   0.2000 
 10 C       -3.8900    -1.7700    -0.0670 C.3   1 <1>  -0.0800 
 11 C       -0.6500     4.2320     0.6760 C.2   1 <1>  -0.3020 
 12 C        0.8210     2.4620    -0.3550 C.3   1 <1>  -0.0910 
 13 C       -1.8050     4.3070     1.3880 C.2   1 <1>  -0.1500 
 14 O       -5.7050    -0.3870    -0.7700 O.3   1 <1>  -0.6800 
 15 C       -3.9950    -3.0460    -0.9210 C.3   1 <1>  -0.0170 
 16 C        1.2500     3.1810    -1.6010 C.3   1 <1>  -0.2000 
 17 C        0.5930     1.8400    -1.7010 C.3   1 <1>  -0.2000 
 18 C       -3.6290    -4.2890    -0.1270 C.ar  1 <1>   0.1670 
 19 N       -2.3390    -4.5610    -0.0150 N.ar  1 <1>  -0.6200 
 20 C       -4.6320    -5.0740     0.4400 C.ar  1 <1>   0.1600 
 21 C       -2.1200    -5.6560     0.6950 C.ar  1 <1>   0.1600 
 22 N       -4.4160    -6.1680     1.1510 N.ar  1 <1>  -0.6200 
 23 C       -3.1250    -6.4330     1.2590 C.ar  1 <1>   0.1600 
 24 H       -4.2530     1.0990     0.6030 H     1 <1>   0.0800 
 25 H       -3.3030     1.3850    -0.8580 H     1 <1>   0.0800 
 26 H       -1.7410    -1.7410    -0.3310 H     1 <1>   0.0800 
 27 H       -2.2420    -1.9120     1.3410 H     1 <1>   0.0800 
 28 H       -3.1220     2.7160     2.1270 H     1 <1>   0.1500 
 29 H       -4.0300    -0.5650    -1.8610 H     1 <1>   0.0800 
 30 H       -4.4960    -1.8810     0.8150 H     1 <1>   0.0800 
 31 H       -0.0240     5.0360     0.3350 H     1 <1>   0.1500 
 32 H        1.5680     2.0210     0.2810 H     1 <1>   0.1000 
 33 H       -2.3050     5.1940     1.7420 H     1 <1>   0.1500 
 34 H       -6.0050    -0.3310     0.1570 H     1 <1>   0.4000 
 35 H       -3.3450    -2.9720    -1.7760 H     1 <1>   0.0800 
 36 H       -5.0010    -3.1410    -1.2900 H     1 <1>   0.0800 
 37 H        0.7000     4.0460    -1.9300 H     1 <1>   0.1000 
 38 H        2.3000     3.2480    -1.8270 H     1 <1>   0.1000 
 39 H        1.1940     0.9930    -1.9810 H     1 <1>   0.1000 
 40 H       -0.4110     1.7810    -2.0840 H     1 <1>   0.1000 
 41 H       -5.6580    -4.7840     0.3010 H     1 <1>   0.1500 
 42 H       -1.0960    -5.9530     0.8370 H     1 <1>   0.1500 
 43 H       -2.8480    -7.3070     1.8210 H     1 <1>   0.1500 
@<TRIPOS>BOND
  1   1   2  2   
  2   2   3  am  
  3   2   4  1   
  4   3   5  1   
  5   3   6  1   
  6   4   7  1   
  7   4   8  2   
  8   5   9  1   
  9   5  24  1   
 10   5  25  1   
 11   6  10  1   
 12   6  26  1   
 13   6  27  1   
 14   7  11  1   
 15   7  12  1   
 16   8  13  1   
 17   8  28  1   
 18   9  10  1   
 19   9  14  1   
 20   9  29  1   
 21  10  15  1   
 22  10  30  1   
 23  11  13  2   
 24  11  31  1   
 25  12  16  1   
 26  12  17  1   
 27  12  32  1   
 28  13  33  1   
 29  14  34  1   
 30  15  18  1   
 31  15  35  1   
 32  15  36  1   
 33  16  17  1   
 34  16  37  1   
 35  16  38  1   
 36  17  39  1   
 37  17  40  1   
 38  18  19  ar  
 39  18  20  ar  
 40  19  21  ar  
 41  20  22  ar  
 42  20  41  1   
 43  21  23  ar  
 44  21  42  1   
 45  22  23  ar  
 46  23  43  1   
@<TRIPOS>SUBSTRUCTURE
  1 ****   3 GROUP 4 **** **** 0

# MOE 2024.06 (io_trps.svl 2023.06)
