@<TRIPOS>MOLECULE
NONAME
51 53 1 0 0 
SMALL
USER_CHARGES


@<TRIPOS>ATOM
  1 O       -2.7800     2.8190    -2.2220 O.2   1 <1>  -0.5700 
  2 C       -2.0830     2.0180    -1.6400 C.2   1 <1>   0.5690 
  3 N       -2.6280     1.1710    -0.7030 N.am  1 <1>  -0.6600 
  4 C       -0.5970     2.0150    -2.0240 C.3   1 <1>   0.1810 
  5 C       -1.8140     0.1420     0.0410 C.3   1 <1>   0.3640 
  6 C       -4.0340     1.4110    -0.2590 C.3   1 <1>   0.1400 
  7 O        0.2850     2.1410    -0.9130 O.3   1 <1>  -0.3630 
  8 C       -1.2640    -0.8750    -0.9650 C.ar  1 <1>  -0.1440 
  9 C       -2.5470    -0.6350     1.1810 C.3   1 <1>   0.2000 
 10 C       -4.6190     0.2370     0.5240 C.3   1 <1>   0.1200 
 11 C        0.2120     3.1740    -0.0300 C.ar  1 <1>   0.0820 
 12 C        0.0780    -1.2250    -0.9340 C.ar  1 <1>  -0.1500 
 13 C       -2.0880    -1.4600    -1.9180 C.ar  1 <1>  -0.1500 
 14 O       -3.7680    -0.0690     1.5770 O.3   1 <1>  -0.5600 
 15 C       -1.6920    -0.7390     2.4540 C.3   1 <1>   0.1200 
 16 C        0.8130     3.0160     1.2210 C.ar  1 <1>  -0.1430 
 17 C       -0.4480     4.3600    -0.3380 C.ar  1 <1>  -0.1500 
 18 C        0.5890    -2.1430    -1.8350 C.ar  1 <1>  -0.1500 
 19 C       -1.5800    -2.3790    -2.8200 C.ar  1 <1>  -0.1500 
 20 O       -0.4750    -1.3670     2.1990 O.3   1 <1>  -0.6800 
 21 C        0.7140     4.0380     2.1630 C.ar  1 <1>  -0.1430 
 22 C        1.5690     1.7290     1.5580 C.3   1 <1>  -0.0970 
 23 C       -0.5310     5.3720     0.5970 C.ar  1 <1>  -0.1500 
 24 C       -0.2410    -2.7210    -2.7780 C.ar  1 <1>  -0.1500 
 25 C        0.0450     5.2080     1.8420 C.ar  1 <1>  -0.1500 
 26 C        1.3200     3.9140     3.5560 C.3   1 <1>  -0.0970 
 27 H       -0.3940     2.8250    -2.7000 H     1 <1>   0.0800 
 28 H       -0.3600     1.0970    -2.5260 H     1 <1>   0.0800 
 29 H       -0.9880     0.6540     0.4980 H     1 <1>   0.0800 
 30 H       -4.0540     2.2900     0.3610 H     1 <1>   0.0800 
 31 H       -4.6540     1.6020    -1.1180 H     1 <1>   0.0800 
 32 H       -2.7720    -1.6310     0.8440 H     1 <1>   0.0800 
 33 H       -4.7450    -0.6290    -0.1020 H     1 <1>   0.0800 
 34 H       -5.5730     0.5100     0.9390 H     1 <1>   0.0800 
 35 H        0.7350    -0.7800    -0.2050 H     1 <1>   0.1500 
 36 H       -3.1310    -1.1970    -1.9650 H     1 <1>   0.1500 
 37 H       -2.2100    -1.3070     3.2070 H     1 <1>   0.0800 
 38 H       -1.4790     0.2460     2.8340 H     1 <1>   0.0800 
 39 H       -0.9040     4.5170    -1.2970 H     1 <1>   0.1500 
 40 H        1.6320    -2.4050    -1.8010 H     1 <1>   0.1500 
 41 H       -2.2270    -2.8260    -3.5550 H     1 <1>   0.1500 
 42 H       -0.6130    -2.2940     1.9170 H     1 <1>   0.4000 
 43 H        2.4510     1.9420     2.1300 H     1 <1>   0.0800 
 44 H        1.8890     1.2140     0.6720 H     1 <1>   0.0800 
 45 H        0.9360     1.0720     2.1260 H     1 <1>   0.0800 
 46 H       -1.0450     6.2860     0.3560 H     1 <1>   0.1500 
 47 H        0.1560    -3.4350    -3.4790 H     1 <1>   0.1500 
 48 H       -0.0330     6.0050     2.5610 H     1 <1>   0.1500 
 49 H        0.9900     4.7150     4.1930 H     1 <1>   0.0800 
 50 H        2.3920     3.9510     3.4920 H     1 <1>   0.0800 
 51 H        1.0240     2.9850     4.0090 H     1 <1>   0.0800 
@<TRIPOS>BOND
  1   1   2  2   
  2   2   3  am  
  3   2   4  1   
  4   3   5  1   
  5   3   6  1   
  6   4   7  1   
  7   4  27  1   
  8   4  28  1   
  9   5   8  1   
 10   5   9  1   
 11   5  29  1   
 12   6  10  1   
 13   6  30  1   
 14   6  31  1   
 15   7  11  1   
 16   8  12  ar  
 17   8  13  ar  
 18   9  14  1   
 19   9  15  1   
 20   9  32  1   
 21  10  14  1   
 22  10  33  1   
 23  10  34  1   
 24  11  16  ar  
 25  11  17  ar  
 26  12  18  ar  
 27  12  35  1   
 28  13  19  ar  
 29  13  36  1   
 30  15  20  1   
 31  15  37  1   
 32  15  38  1   
 33  16  21  ar  
 34  16  22  1   
 35  17  23  ar  
 36  17  39  1   
 37  18  24  ar  
 38  18  40  1   
 39  19  24  ar  
 40  19  41  1   
 41  20  42  1   
 42  21  25  ar  
 43  21  26  1   
 44  22  43  1   
 45  22  44  1   
 46  22  45  1   
 47  23  25  ar  
 48  23  46  1   
 49  24  47  1   
 50  25  48  1   
 51  26  49  1   
 52  26  50  1   
 53  26  51  1   
@<TRIPOS>SUBSTRUCTURE
  1 ****   5 GROUP 4 **** **** 0

# MOE 2024.06 (io_trps.svl 2023.06)
