@<TRIPOS>MOLECULE
NONAME
52 53 1 0 0 
SMALL
USER_CHARGES


@<TRIPOS>ATOM
  1 O       -1.1200     0.3600     1.8450 O.2   1 <1>  -0.5700 
  2 C       -2.0860     1.0380     1.5620 C.2   1 <1>   0.5440 
  3 N       -3.3520     0.5290     1.7540 N.am  1 <1>  -0.6600 
  4 C       -1.8980     2.3490     0.9780 C.ar  1 <1>   0.0860 
  5 C       -3.5520    -0.8660     2.2610 C.3   1 <1>   0.3210 
  6 C       -4.5910     1.2190     1.3000 C.3   1 <1>   0.1400 
  7 C       -2.1670     3.5130     1.6920 C.ar  1 <1>  -0.1500 
  8 C       -1.4750     2.4790    -0.3410 C.ar  1 <1>  -0.1500 
  9 C       -3.9890    -1.8050     1.1350 C.2   1 <1>   0.0460 
 10 C       -4.7180     1.1250    -0.2310 C.3   1 <1>   0.3430 
 11 C       -2.0480     4.7620     1.1090 C.ar  1 <1>   0.0820 
 12 C       -1.3580     3.7190    -0.9430 C.ar  1 <1>   0.0820 
 13 N       -5.2710    -1.8530     0.6960 N.2   1 <1>  -0.5650 
 14 C       -3.2190    -2.6890     0.4590 C.2   1 <1>  -0.3320 
 15 N       -6.0740     1.5320    -0.7310 N.4   1 <1>  -0.9590 
 16 O       -2.3510     5.8250     1.8920 O.3   1 <1>  -0.3620 
 17 C       -1.6440     4.8700    -0.2170 C.ar  1 <1>  -0.1500 
 18 O       -0.9700     3.7260    -2.2410 O.3   1 <1>  -0.3630 
 19 C       -5.2510    -2.7840    -0.2040 C.2   1 <1>   0.0360 
 20 N       -4.0330    -3.3280    -0.3990 N.pl3 1 <1>   0.0330 
 21 C       -1.7330    -2.9970     0.5640 C.3   1 <1>  -0.0600 
 22 C       -7.0890     0.4820    -0.3930 C.3   1 <1>   0.2630 
 23 C       -6.0240     1.7490    -2.2070 C.3   1 <1>   0.2630 
 24 C       -2.0290     7.1430     1.5010 C.3   1 <1>   0.0400 
 25 C       -0.4930     4.9050    -2.8530 C.3   1 <1>   0.0400 
 26 H       -4.3020    -0.8660     3.0310 H     1 <1>   0.0800 
 27 H       -2.6460    -1.2390     2.7040 H     1 <1>   0.0800 
 28 H       -4.5640     2.2500     1.6050 H     1 <1>   0.0800 
 29 H       -5.4360     0.7500     1.7730 H     1 <1>   0.0800 
 30 H       -2.4710     3.4450     2.7210 H     1 <1>   0.1500 
 31 H       -1.2290     1.5980    -0.9060 H     1 <1>   0.1500 
 32 H       -4.5170     0.1110    -0.5360 H     1 <1>   0.0800 
 33 H       -3.9690     1.7610    -0.6730 H     1 <1>   0.0800 
 34 H       -6.3400     2.4190    -0.2770 H     1 <1>   0.4500 
 35 H       -1.5600     5.8330    -0.6790 H     1 <1>   0.1500 
 36 H       -6.1120    -3.1180    -0.7580 H     1 <1>   0.1500 
 37 H       -3.7830    -4.0810    -1.0490 H     1 <1>   0.2700 
 38 H       -1.2520    -2.3400     1.2670 H     1 <1>   0.0800 
 39 H       -1.2570    -2.8660    -0.3910 H     1 <1>   0.0800 
 40 H       -1.5850    -4.0110     0.8920 H     1 <1>   0.0800 
 41 H       -6.8150    -0.4590    -0.8440 H     1 <1>   0.0800 
 42 H       -8.0640     0.7690    -0.7530 H     1 <1>   0.0800 
 43 H       -7.1450     0.3350     0.6730 H     1 <1>   0.0800 
 44 H       -5.7420     0.8370    -2.7090 H     1 <1>   0.0800 
 45 H       -5.3030     2.5130    -2.4490 H     1 <1>   0.0800 
 46 H       -6.9900     2.0590    -2.5730 H     1 <1>   0.0800 
 47 H       -2.2670     7.8010     2.3180 H     1 <1>   0.0800 
 48 H       -2.6160     7.4080     0.6390 H     1 <1>   0.0800 
 49 H       -0.9770     7.1970     1.2840 H     1 <1>   0.0800 
 50 H       -0.1190     4.6480    -3.8280 H     1 <1>   0.0800 
 51 H        0.3030     5.3140    -2.2550 H     1 <1>   0.0800 
 52 H       -1.3030     5.6060    -2.9480 H     1 <1>   0.0800 
@<TRIPOS>BOND
  1   1   2  2   
  2   2   3  am  
  3   2   4  1   
  4   3   5  1   
  5   3   6  1   
  6   4   7  ar  
  7   4   8  ar  
  8   5   9  1   
  9   5  26  1   
 10   5  27  1   
 11   6  10  1   
 12   6  28  1   
 13   6  29  1   
 14   7  11  ar  
 15   7  30  1   
 16   8  12  ar  
 17   8  31  1   
 18   9  13  1   
 19   9  14  2   
 20  10  15  1   
 21  10  32  1   
 22  10  33  1   
 23  11  16  1   
 24  11  17  ar  
 25  12  17  ar  
 26  12  18  1   
 27  13  19  2   
 28  14  20  1   
 29  14  21  1   
 30  15  22  1   
 31  15  23  1   
 32  15  34  1   
 33  16  24  1   
 34  17  35  1   
 35  18  25  1   
 36  19  20  1   
 37  19  36  1   
 38  20  37  1   
 39  21  38  1   
 40  21  39  1   
 41  21  40  1   
 42  22  41  1   
 43  22  42  1   
 44  22  43  1   
 45  23  44  1   
 46  23  45  1   
 47  23  46  1   
 48  24  47  1   
 49  24  48  1   
 50  24  49  1   
 51  25  50  1   
 52  25  51  1   
 53  25  52  1   
@<TRIPOS>SUBSTRUCTURE
  1 ****   2 GROUP 4 **** **** 0

# MOE 2024.06 (io_trps.svl 2023.06)
