@<TRIPOS>MOLECULE
NONAME
47 50 1 0 0 
SMALL
USER_CHARGES


@<TRIPOS>ATOM
  1 O       -1.2160     0.0970    -0.7510 O.2   1 <1>  -0.5700 
  2 C       -2.0510     0.9890    -0.6850 C.2   1 <1>   0.7160 
  3 N       -3.3790     0.5800    -0.7640 N.am  1 <1>  -0.6600 
  4 C       -1.6590     2.3970    -0.4740 C.2   1 <1>   0.4300 
  5 C       -3.7340    -0.7830    -1.2310 C.3   1 <1>   0.1400 
  6 C       -4.3980     1.1680     0.1560 C.3   1 <1>   0.1400 
  7 N       -2.4470     3.4310    -0.7170 N.2   1 <1>  -0.7070 
  8 N       -0.4380     2.7320     0.0030 N.2   1 <1>  -0.5650 
  9 C       -4.3360    -1.4750     0.0070 C.3   1 <1>   0.4230 
 10 C       -5.7130     0.3210     0.2090 C.3   1 <1>  -0.1600 
 11 N       -1.6860     4.4640    -0.4040 N.pl3 1 <1>   0.6010 
 12 C       -0.4780     4.0200     0.0340 C.2   1 <1>   0.3120 
 13 N       -3.5860    -2.7170     0.4110 N.4   1 <1>  -0.9590 
 14 C       -5.9190    -1.2860    -0.0190 C.3   1 <1>   0.0000 
 15 C       -1.9520     5.8160    -0.4550 C.2   1 <1>  -0.1810 
 16 N        0.5290     4.8610     0.4480 N.2   1 <1>  -0.5760 
 17 C       -3.8930    -3.8280    -0.4700 C.3   1 <1>   0.3430 
 18 C       -2.1080    -2.4920     0.5580 C.3   1 <1>   0.2630 
 19 C       -6.2310    -2.8520    -0.3100 C.3   1 <1>  -0.1600 
 20 C       -7.5100    -1.0240     0.0240 C.3   1 <1>   0.1200 
 21 C       -0.9670     6.6610    -0.0520 C.2   1 <1>  -0.1360 
 22 C        0.2750     6.1270     0.3980 C.2   1 <1>   0.3760 
 23 C       -5.3290    -4.0920    -0.1360 C.3   1 <1>  -0.1600 
 24 O       -7.9410    -1.2080     1.3360 O.3   1 <1>  -0.6800 
 25 H       -4.4660    -0.7030    -2.0160 H     1 <1>   0.0800 
 26 H       -2.8840    -1.3030    -1.6330 H     1 <1>   0.0800 
 27 H       -3.9740     1.2350     1.1450 H     1 <1>   0.0800 
 28 H       -4.6330     2.1710    -0.1610 H     1 <1>   0.0800 
 29 H       -4.0430    -0.8610     0.8380 H     1 <1>   0.0800 
 30 H       -6.1840     0.6230     1.1330 H     1 <1>   0.0800 
 31 H       -6.2260     0.8300    -0.5910 H     1 <1>   0.0800 
 32 H       -3.9580    -2.9680     1.3380 H     1 <1>   0.4500 
 33 H       -2.9220     6.1070    -0.8120 H     1 <1>   0.1500 
 34 H       -3.7690    -3.5550    -1.5060 H     1 <1>   0.0800 
 35 H       -3.2840    -4.6890    -0.2400 H     1 <1>   0.0800 
 36 H       -1.6510    -2.3000    -0.4000 H     1 <1>   0.0800 
 37 H       -1.6360    -3.3570     0.9940 H     1 <1>   0.0800 
 38 H       -1.9190    -1.6410     1.1930 H     1 <1>   0.0800 
 39 H       -7.0910    -3.2120     0.2380 H     1 <1>   0.0800 
 40 H       -6.5080    -2.8880    -1.3530 H     1 <1>   0.0800 
 41 H       -8.1040    -1.6690    -0.6070 H     1 <1>   0.0800 
 42 H       -7.8830    -0.0560    -0.2650 H     1 <1>   0.0800 
 43 H       -1.0850     7.7300    -0.0580 H     1 <1>   0.1500 
 44 H        1.0330     6.8240     0.7100 H     1 <1>   0.0600 
 45 H       -5.6910    -4.8900    -0.7620 H     1 <1>   0.0800 
 46 H       -5.3920    -4.4470     0.8800 H     1 <1>   0.0800 
 47 H       -8.9070    -1.0630     1.4160 H     1 <1>   0.4000 
@<TRIPOS>BOND
  1   1   2  2   
  2   2   3  am  
  3   2   4  1   
  4   3   5  1   
  5   3   6  1   
  6   4   7  2   
  7   4   8  1   
  8   5   9  1   
  9   5  25  1   
 10   5  26  1   
 11   6  10  1   
 12   6  27  1   
 13   6  28  1   
 14   7  11  1   
 15   8  12  2   
 16   9  13  1   
 17   9  14  1   
 18   9  29  1   
 19  10  14  1   
 20  10  30  1   
 21  10  31  1   
 22  11  12  1   
 23  11  15  1   
 24  12  16  1   
 25  13  17  1   
 26  13  18  1   
 27  13  32  1   
 28  14  19  1   
 29  14  20  1   
 30  15  21  2   
 31  15  33  1   
 32  16  22  2   
 33  17  23  1   
 34  17  34  1   
 35  17  35  1   
 36  18  36  1   
 37  18  37  1   
 38  18  38  1   
 39  19  23  1   
 40  19  39  1   
 41  19  40  1   
 42  20  24  1   
 43  20  41  1   
 44  20  42  1   
 45  21  22  1   
 46  21  43  1   
 47  22  44  1   
 48  23  45  1   
 49  23  46  1   
 50  24  47  1   
@<TRIPOS>SUBSTRUCTURE
  1 ****   3 GROUP 4 **** **** 0

# MOE 2024.06 (io_trps.svl 2023.06)
