@<TRIPOS>MOLECULE
NONAME
39 41 1 0 0 
SMALL
USER_CHARGES


@<TRIPOS>ATOM
  1 O        0.2350    -2.7930     2.0350 O.co2 1 <1>  -0.9000 
  2 C       -0.0590    -2.2040     0.9820 C.2   1 <1>   1.0330 
  3 O       -0.9280    -1.3150     1.0140 O.co2 1 <1>  -0.9000 
  4 C        0.5650    -2.5540    -0.2490 C.2   1 <1>  -0.2330 
  5 C        0.1670    -3.5930    -1.0880 C.2   1 <1>   0.3720 
  6 C        1.6360    -2.0160    -0.8840 C.2   1 <1>   0.0870 
  7 N        0.9310    -3.6760    -2.1190 N.2   1 <1>  -0.4100 
  8 N       -0.9110    -4.4600    -0.8960 N.pl3 1 <1>  -0.8210 
  9 O        1.8110    -2.7190    -1.9800 O.3   1 <1>  -0.0190 
 10 C        2.5180    -0.9130    -0.5790 C.ar  1 <1>   0.0530 
 11 C       -0.7660    -5.3330     0.3150 C.3   1 <1>   0.2090 
 12 C       -2.2320    -3.7760    -0.8850 C.3   1 <1>   0.2090 
 13 C        2.1460     0.1170     0.2850 C.ar  1 <1>  -0.1500 
 14 C        3.7910    -0.8350    -1.1500 C.ar  1 <1>  -0.1500 
 15 C       -1.7950    -6.4780     0.2410 C.3   1 <1>   0.2800 
 16 C       -3.3480    -4.8290    -0.9520 C.3   1 <1>  -0.1600 
 17 C        2.9990     1.1680     0.5690 C.ar  1 <1>  -0.1500 
 18 C        4.6490     0.2130    -0.8720 C.ar  1 <1>  -0.1500 
 19 O       -1.5630    -7.1390    -0.9420 O.3   1 <1>  -0.6800 
 20 C       -3.2150    -5.8890     0.1650 C.3   1 <1>  -0.1600 
 21 C       -1.6480    -7.4930     1.3720 C.3   1 <1>  -0.2400 
 22 C        4.2540     1.2190    -0.0090 C.ar  1 <1>  -0.1500 
 23 H       -0.9410    -4.7620     1.2100 H     1 <1>   0.0800 
 24 H        0.2320    -5.7320     0.3640 H     1 <1>   0.0800 
 25 H       -2.2990    -3.1080    -1.7270 H     1 <1>   0.0800 
 26 H       -2.3400    -3.1940     0.0150 H     1 <1>   0.0800 
 27 H        1.1710     0.1020     0.7420 H     1 <1>   0.1500 
 28 H        4.1110    -1.6130    -1.8190 H     1 <1>   0.1500 
 29 H       -3.3080    -5.3070    -1.9150 H     1 <1>   0.0800 
 30 H       -4.3000    -4.3370    -0.8720 H     1 <1>   0.0800 
 31 H        2.6790     1.9430     1.2430 H     1 <1>   0.1500 
 32 H        5.6230     0.2460    -1.3260 H     1 <1>   0.1500 
 33 H       -1.2800    -6.4280    -1.5640 H     1 <1>   0.4000 
 34 H       -3.4380    -5.4200     1.1070 H     1 <1>   0.0800 
 35 H       -3.9300    -6.6780     0.0140 H     1 <1>   0.0800 
 36 H       -0.6570    -7.9090     1.3680 H     1 <1>   0.0800 
 37 H       -2.3660    -8.2850     1.2570 H     1 <1>   0.0800 
 38 H       -1.8130    -7.0130     2.3200 H     1 <1>   0.0800 
 39 H        4.9170     2.0360     0.2130 H     1 <1>   0.1500 
@<TRIPOS>BOND
  1   1   2  ar  
  2   2   3  ar  
  3   2   4  1   
  4   4   5  1   
  5   4   6  2   
  6   5   7  2   
  7   5   8  1   
  8   6   9  1   
  9   6  10  1   
 10   7   9  1   
 11   8  11  1   
 12   8  12  1   
 13  10  13  ar  
 14  10  14  ar  
 15  11  15  1   
 16  11  23  1   
 17  11  24  1   
 18  12  16  1   
 19  12  25  1   
 20  12  26  1   
 21  13  17  ar  
 22  13  27  1   
 23  14  18  ar  
 24  14  28  1   
 25  15  19  1   
 26  15  20  1   
 27  15  21  1   
 28  16  20  1   
 29  16  29  1   
 30  16  30  1   
 31  17  22  ar  
 32  17  31  1   
 33  18  22  ar  
 34  18  32  1   
 35  19  33  1   
 36  20  34  1   
 37  20  35  1   
 38  21  36  1   
 39  21  37  1   
 40  21  38  1   
 41  22  39  1   
@<TRIPOS>SUBSTRUCTURE
  1 ****   4 GROUP 4 **** **** 0

# MOE 2024.06 (io_trps.svl 2023.06)
