@<TRIPOS>MOLECULE
NONAME
47 50 1 0 0 
SMALL
USER_CHARGES


@<TRIPOS>ATOM
  1 CL       0.7050    -0.7710    -1.6700 Cl    1 <1>  -0.1400 
  2 C       -0.2770    -2.0060    -0.9190 C.2   1 <1>   0.1400 
  3 C       -0.0340    -3.3200    -1.1420 C.2   1 <1>  -0.1810 
  4 C       -1.3330    -1.5810    -0.0710 C.2   1 <1>  -0.1500 
  5 N       -0.8410    -4.2660    -0.5230 N.pl3 1 <1>   0.3340 
  6 C       -2.1190    -2.5170     0.5310 C.2   1 <1>  -0.1050 
  7 C       -0.9070    -5.5980    -0.5080 C.2   1 <1>  -0.0150 
  8 C       -1.8800    -3.9010     0.3080 C.2   1 <1>   0.1410 
  9 F       -0.0700    -6.3200    -1.2090 F     1 <1>  -0.1370 
 10 C       -1.9230    -6.0290     0.2910 C.2   1 <1>   0.1410 
 11 N       -2.5390    -4.9240     0.8030 N.2   1 <1>  -0.5650 
 12 C       -2.2930    -7.4090     0.5760 C.2   1 <1>   0.7160 
 13 O       -1.4590    -8.2970     0.4850 O.2   1 <1>  -0.5700 
 14 N       -3.5740    -7.7950     0.9250 N.am  1 <1>  -0.6600 
 15 C       -3.8390    -9.1560     1.4730 C.3   1 <1>   0.1400 
 16 C       -4.7930    -7.1540     0.3550 C.3   1 <1>   0.1400 
 17 C       -4.2950   -10.0670     0.3100 C.3   1 <1>   0.4230 
 18 C       -5.3220    -8.0440    -0.7810 C.3   1 <1>  -0.1600 
 19 N       -4.4730   -11.5120     0.6820 N.4   1 <1>  -0.9590 
 20 C       -5.5920    -9.5060    -0.3160 C.3   1 <1>  -0.1060 
 21 C       -4.7880   -12.3530    -0.5000 C.3   1 <1>   0.3430 
 22 C       -3.3860   -12.0890     1.5160 C.3   1 <1>   0.2630 
 23 C       -6.7090    -9.5420     0.7450 C.2   1 <1>   0.9060 
 24 C       -5.9810   -10.3580    -1.5470 C.3   1 <1>  -0.1600 
 25 C       -6.0570   -11.8520    -1.1940 C.3   1 <1>  -0.1600 
 26 O       -6.6890   -10.4340     1.6100 O.co2 1 <1>  -0.9000 
 27 O       -7.5950    -8.6900     0.7210 O.co2 1 <1>  -0.9000 
 28 H        0.7550    -3.6840    -1.7750 H     1 <1>   0.1500 
 29 H       -1.4810    -0.5240     0.0720 H     1 <1>   0.1500 
 30 H       -2.9320    -2.2550     1.1840 H     1 <1>   0.1500 
 31 H       -2.9420    -9.5340     1.9260 H     1 <1>   0.0800 
 32 H       -4.5980    -9.0900     2.2340 H     1 <1>   0.0800 
 33 H       -5.5390    -7.0480     1.1260 H     1 <1>   0.0800 
 34 H       -4.5770    -6.1730    -0.0300 H     1 <1>   0.0800 
 35 H       -3.5190   -10.0160    -0.4350 H     1 <1>   0.0800 
 36 H       -6.2350    -7.6120    -1.1560 H     1 <1>   0.0800 
 37 H       -4.6090    -8.0310    -1.5860 H     1 <1>   0.0800 
 38 H       -5.3610   -11.4580     1.2520 H     1 <1>   0.4500 
 39 H       -3.9630   -12.3220    -1.1940 H     1 <1>   0.0800 
 40 H       -4.9360   -13.3750    -0.1910 H     1 <1>   0.0800 
 41 H       -2.4450   -12.0350     0.9930 H     1 <1>   0.0800 
 42 H       -3.6020   -13.1190     1.7460 H     1 <1>   0.0800 
 43 H       -3.3020   -11.5470     2.4430 H     1 <1>   0.0800 
 44 H       -6.9380   -10.0290    -1.9200 H     1 <1>   0.0800 
 45 H       -5.2560   -10.2200    -2.3310 H     1 <1>   0.0800 
 46 H       -6.2190   -12.4230    -2.0910 H     1 <1>   0.0800 
 47 H       -6.9010   -12.0300    -0.5490 H     1 <1>   0.0800 
@<TRIPOS>BOND
  1   1   2  1   
  2   2   3  2   
  3   2   4  1   
  4   3   5  1   
  5   3  28  1   
  6   4   6  2   
  7   4  29  1   
  8   5   7  1   
  9   5   8  1   
 10   6   8  1   
 11   6  30  1   
 12   7   9  1   
 13   7  10  2   
 14   8  11  2   
 15  10  11  1   
 16  10  12  1   
 17  12  13  2   
 18  12  14  am  
 19  14  15  1   
 20  14  16  1   
 21  15  17  1   
 22  15  31  1   
 23  15  32  1   
 24  16  18  1   
 25  16  33  1   
 26  16  34  1   
 27  17  19  1   
 28  17  20  1   
 29  17  35  1   
 30  18  20  1   
 31  18  36  1   
 32  18  37  1   
 33  19  21  1   
 34  19  22  1   
 35  19  38  1   
 36  20  23  1   
 37  20  24  1   
 38  21  25  1   
 39  21  39  1   
 40  21  40  1   
 41  22  41  1   
 42  22  42  1   
 43  22  43  1   
 44  23  26  ar  
 45  23  27  ar  
 46  24  25  1   
 47  24  44  1   
 48  24  45  1   
 49  25  46  1   
 50  25  47  1   
@<TRIPOS>SUBSTRUCTURE
  1 ****  14 GROUP 4 **** **** 0

# MOE 2024.06 (io_trps.svl 2023.06)
