@<TRIPOS>MOLECULE
NONAME
56 59 1 0 0 
SMALL
USER_CHARGES


@<TRIPOS>ATOM
  1 F       -0.6510     0.8340    -0.9930 F     1 <1>  -0.1900 
  2 C       -1.9210     1.0580    -0.7720 C.ar  1 <1>   0.1900 
  3 C       -2.4010     2.3230    -0.4140 C.ar  1 <1>   0.0830 
  4 C       -2.7700    -0.0220    -0.9140 C.ar  1 <1>  -0.1500 
  5 O       -1.6680     3.4610    -0.2430 O.3   1 <1>  -0.3630 
  6 C       -3.7640     2.4570    -0.2040 C.ar  1 <1>  -0.1500 
  7 C       -4.1260     0.1480    -0.6990 C.ar  1 <1>  -0.1500 
  8 C       -0.2640     3.4980    -0.3660 C.3   1 <1>   0.0400 
  9 C       -4.6560     1.3890    -0.3370 C.ar  1 <1>   0.0530 
 10 C       -6.0700     1.5820    -0.1110 C.2   1 <1>   0.0870 
 11 O       -6.5960     2.7750    -0.2350 O.3   1 <1>  -0.0190 
 12 C       -7.0870     0.7420     0.2190 C.2   1 <1>  -0.0860 
 13 N       -7.8810     2.7950    -0.0070 N.2   1 <1>  -0.4100 
 14 C       -8.2040     1.5830     0.2820 C.2   1 <1>   0.3720 
 15 C       -7.0790    -0.6650     0.4710 C.2   1 <1>   0.7160 
 16 N       -9.5090     1.1860     0.6160 N.pl3 1 <1>  -0.8210 
 17 O       -6.3440    -1.1090     1.3360 O.2   1 <1>  -0.5700 
 18 N       -7.8480    -1.5530    -0.2510 N.am  1 <1>  -0.6600 
 19 C      -10.5990     2.1170     0.2090 C.3   1 <1>   0.1290 
 20 C       -9.6820     0.6970     2.0130 C.3   1 <1>   0.1290 
 21 C       -8.0210    -2.9610     0.2290 C.3   1 <1>   0.1400 
 22 C       -8.6270    -1.1350    -1.4560 C.3   1 <1>   0.1400 
 23 C       -9.3330    -3.5760    -0.2780 C.3   1 <1>   0.1000 
 24 C       -8.7430    -2.3060    -2.4370 C.3   1 <1>  -0.1600 
 25 C       -9.5200    -4.9850     0.2630 C.2   1 <1>   0.0070 
 26 C       -9.4350    -3.5360    -1.8180 C.3   1 <1>  -0.1600 
 27 N       -8.7110    -6.0130     0.0040 N.pl3 1 <1>   0.0330 
 28 N      -10.4830    -5.3380     1.0420 N.2   1 <1>  -0.3380 
 29 C       -9.2580    -7.0170     0.6870 C.2   1 <1>   0.0060 
 30 N      -10.3150    -6.6350     1.3120 N.2   1 <1>  -0.3380 
 31 C       -8.6990    -8.4250     0.7160 C.3   1 <1>  -0.0600 
 32 H       -2.3710    -0.9820    -1.1890 H     1 <1>   0.1500 
 33 H       -4.1380     3.4260     0.0740 H     1 <1>   0.1500 
 34 H       -4.7740    -0.7010    -0.8160 H     1 <1>   0.1500 
 35 H        0.0630     4.5000    -0.1570 H     1 <1>   0.0800 
 36 H        0.0070     3.2290    -1.3710 H     1 <1>   0.0800 
 37 H        0.1690     2.8170     0.3460 H     1 <1>   0.0800 
 38 H      -10.4690     2.4040    -0.8200 H     1 <1>   0.0800 
 39 H      -10.5750     3.0030     0.8210 H     1 <1>   0.0800 
 40 H      -11.5550     1.6350     0.3160 H     1 <1>   0.0800 
 41 H       -8.8100     0.1580     2.3420 H     1 <1>   0.0800 
 42 H      -10.5300     0.0370     2.0640 H     1 <1>   0.0800 
 43 H       -9.8390     1.5290     2.6770 H     1 <1>   0.0800 
 44 H       -8.0220    -2.9770     1.3060 H     1 <1>   0.0800 
 45 H       -7.1850    -3.5440    -0.1130 H     1 <1>   0.0800 
 46 H       -8.1410    -0.3060    -1.9430 H     1 <1>   0.0800 
 47 H       -9.6090    -0.8160    -1.1490 H     1 <1>   0.0800 
 48 H      -10.1310    -2.9750     0.1250 H     1 <1>   0.0800 
 49 H       -7.7500    -2.5720    -2.7570 H     1 <1>   0.0800 
 50 H       -9.2870    -1.9890    -3.3100 H     1 <1>   0.0800 
 51 H      -10.4790    -3.5330    -2.0810 H     1 <1>   0.0800 
 52 H       -9.0020    -4.4210    -2.2490 H     1 <1>   0.0800 
 53 H       -7.8730    -6.0320    -0.5780 H     1 <1>   0.2700 
 54 H       -7.7030    -8.4200     1.1180 H     1 <1>   0.0800 
 55 H       -8.6850    -8.8380    -0.2750 H     1 <1>   0.0800 
 56 H       -9.3180    -9.0470     1.3390 H     1 <1>   0.0800 
@<TRIPOS>BOND
  1   1   2  1   
  2   2   3  ar  
  3   2   4  ar  
  4   3   5  1   
  5   3   6  ar  
  6   4   7  ar  
  7   4  32  1   
  8   5   8  1   
  9   6   9  ar  
 10   6  33  1   
 11   7   9  ar  
 12   7  34  1   
 13   8  35  1   
 14   8  36  1   
 15   8  37  1   
 16   9  10  1   
 17  10  11  1   
 18  10  12  2   
 19  11  13  1   
 20  12  14  1   
 21  12  15  1   
 22  13  14  2   
 23  14  16  1   
 24  15  17  2   
 25  15  18  am  
 26  16  19  1   
 27  16  20  1   
 28  18  21  1   
 29  18  22  1   
 30  19  38  1   
 31  19  39  1   
 32  19  40  1   
 33  20  41  1   
 34  20  42  1   
 35  20  43  1   
 36  21  23  1   
 37  21  44  1   
 38  21  45  1   
 39  22  24  1   
 40  22  46  1   
 41  22  47  1   
 42  23  25  1   
 43  23  26  1   
 44  23  48  1   
 45  24  26  1   
 46  24  49  1   
 47  24  50  1   
 48  25  27  1   
 49  25  28  2   
 50  26  51  1   
 51  26  52  1   
 52  27  29  1   
 53  27  53  1   
 54  28  30  1   
 55  29  30  2   
 56  29  31  1   
 57  31  54  1   
 58  31  55  1   
 59  31  56  1   
@<TRIPOS>SUBSTRUCTURE
  1 ****  15 GROUP 4 **** **** 0

# MOE 2024.06 (io_trps.svl 2023.06)
