@<TRIPOS>MOLECULE
NONAME
48 50 1 0 0 
SMALL
USER_CHARGES


@<TRIPOS>ATOM
  1 S       -0.5470    -0.6980    -1.8500 S.o2  1 <1>   1.4470 
  2 O       -1.5380    -1.7530    -1.9200 O.2   1 <1>  -0.6500 
  3 O        0.0580    -0.2500    -3.0870 O.2   1 <1>  -0.6500 
  4 N       -1.3340     0.6380    -1.1590 N.am  1 <1>  -0.8490 
  5 C        0.7450    -1.1620    -0.6610 C.ar  1 <1>  -0.0090 
  6 C       -2.2060     1.2980    -2.1310 C.3   1 <1>   0.1960 
  7 C       -2.0430     0.2860     0.0740 C.3   1 <1>   0.1960 
  8 C        1.4780    -0.2080     0.0340 C.ar  1 <1>  -0.1500 
  9 C        1.0380    -2.5010    -0.4300 C.ar  1 <1>  -0.1500 
 10 C       -2.7970     2.5730    -1.5240 C.3   1 <1>  -0.1600 
 11 C       -2.6800     1.5270     0.7040 C.3   1 <1>  -0.1600 
 12 C        2.4720    -0.5420     0.9570 C.ar  1 <1>  -0.1790 
 13 C        2.0190    -2.8700     0.4710 C.ar  1 <1>  -0.1500 
 14 C       -3.6280     2.2550    -0.2660 C.3   1 <1>   0.2800 
 15 C        3.2150     0.4790     1.6870 C.2   1 <1>   0.9790 
 16 C        2.7230    -1.9000     1.1550 C.ar  1 <1>  -0.1500 
 17 O       -3.9180     3.4860     0.3540 O.3   1 <1>  -0.5600 
 18 C       -4.9410     1.4240    -0.5490 C.3   1 <1>   0.2000 
 19 O        4.0480     0.1580     2.5530 O.co2 1 <1>  -0.9000 
 20 O        3.0240     1.6860     1.4590 O.co2 1 <1>  -0.9000 
 21 C       -5.1110     4.1200     0.0300 C.3   1 <1>   0.1200 
 22 O       -5.4100     1.6380    -1.8580 O.3   1 <1>  -0.6800 
 23 C       -6.0770     1.7660     0.4560 C.3   1 <1>   0.2800 
 24 C       -6.3090     3.2900     0.5210 C.3   1 <1>  -0.1600 
 25 O       -5.7020     1.3400     1.7150 O.3   1 <1>  -0.6800 
 26 C       -7.3840     1.0160     0.1710 C.3   1 <1>  -0.2400 
 27 H       -1.6330     1.5690    -3.0020 H     1 <1>   0.0800 
 28 H       -2.9890     0.6250    -2.4430 H     1 <1>   0.0800 
 29 H       -2.7950    -0.4590    -0.1310 H     1 <1>   0.0800 
 30 H       -1.3470    -0.1350     0.7810 H     1 <1>   0.0800 
 31 H        1.2780     0.8390    -0.1360 H     1 <1>   0.1500 
 32 H        0.4900    -3.2610    -0.9600 H     1 <1>   0.1500 
 33 H       -3.3870     3.0760    -2.2650 H     1 <1>   0.0800 
 34 H       -1.9820     3.2250    -1.2600 H     1 <1>   0.0800 
 35 H       -1.8870     2.1930     0.9950 H     1 <1>   0.0800 
 36 H       -3.2000     1.2380     1.5960 H     1 <1>   0.0800 
 37 H        2.2370    -3.9090     0.6420 H     1 <1>   0.1500 
 38 H        3.4880    -2.1830     1.8610 H     1 <1>   0.1500 
 39 H       -4.7340     0.3720    -0.4890 H     1 <1>   0.0800 
 40 H       -5.1060     5.0870     0.5030 H     1 <1>   0.0800 
 41 H       -5.1370     4.2640    -1.0360 H     1 <1>   0.0800 
 42 H       -5.6240     2.5800    -1.9810 H     1 <1>   0.4000 
 43 H       -7.1450     3.5550    -0.1000 H     1 <1>   0.0800 
 44 H       -6.5620     3.5900     1.5220 H     1 <1>   0.0800 
 45 H       -6.3770     1.6050     2.3660 H     1 <1>   0.4000 
 46 H       -7.7750     1.2910    -0.7920 H     1 <1>   0.0800 
 47 H       -8.1290     1.2460     0.9110 H     1 <1>   0.0800 
 48 H       -7.2060    -0.0450     0.1620 H     1 <1>   0.0800 
@<TRIPOS>BOND
  1   1   2  2   
  2   1   3  2   
  3   1   4  am  
  4   1   5  1   
  5   4   6  1   
  6   4   7  1   
  7   5   8  ar  
  8   5   9  ar  
  9   6  10  1   
 10   6  27  1   
 11   6  28  1   
 12   7  11  1   
 13   7  29  1   
 14   7  30  1   
 15   8  12  ar  
 16   8  31  1   
 17   9  13  ar  
 18   9  32  1   
 19  10  14  1   
 20  10  33  1   
 21  10  34  1   
 22  11  14  1   
 23  11  35  1   
 24  11  36  1   
 25  12  15  1   
 26  12  16  ar  
 27  13  16  ar  
 28  13  37  1   
 29  14  17  1   
 30  14  18  1   
 31  15  19  ar  
 32  15  20  ar  
 33  16  38  1   
 34  17  21  1   
 35  18  22  1   
 36  18  23  1   
 37  18  39  1   
 38  21  24  1   
 39  21  40  1   
 40  21  41  1   
 41  22  42  1   
 42  23  24  1   
 43  23  25  1   
 44  23  26  1   
 45  24  43  1   
 46  24  44  1   
 47  25  45  1   
 48  26  46  1   
 49  26  47  1   
 50  26  48  1   
@<TRIPOS>SUBSTRUCTURE
  1 ****   7 GROUP 4 **** **** 0

# MOE 2024.06 (io_trps.svl 2023.06)
