@<TRIPOS>MOLECULE
NONAME
53 56 1 0 0 
SMALL
USER_CHARGES


@<TRIPOS>ATOM
  1 O       -0.6520     0.0220    -1.0430 O.2   1 <1>  -0.5700 
  2 C       -1.6270     0.7450    -0.9620 C.2   1 <1>   0.5440 
  3 N       -2.8820     0.1920    -1.1130 N.am  1 <1>  -0.6600 
  4 C       -1.4450     2.1590    -0.6990 C.ar  1 <1>   0.0860 
  5 C       -4.1240     0.7840    -0.5260 C.3   1 <1>   0.1400 
  6 C       -3.0790    -1.2020    -1.6160 C.3   1 <1>   0.1400 
  7 C       -0.6380     2.5950     0.3510 C.ar  1 <1>  -0.1500 
  8 C       -2.0630     3.1340    -1.4810 C.ar  1 <1>  -0.1500 
  9 C       -4.7370    -0.1590     0.5280 C.3   1 <1>   0.1900 
 10 C       -3.7260    -2.0900    -0.5420 C.3   1 <1>   0.1100 
 11 C       -0.4630     3.9400     0.6300 C.ar  1 <1>  -0.1440 
 12 C       -1.8990     4.4810    -1.2190 C.ar  1 <1>  -0.1500 
 13 N       -4.9930    -1.5040    -0.0460 N.3   1 <1>  -0.8100 
 14 C       -6.0370     0.4430     1.0970 C.3   1 <1>   0.1200 
 15 C       -1.0980     4.8960    -0.1570 C.ar  1 <1>   0.0820 
 16 C        0.4260     4.3610     1.7910 C.3   1 <1>  -0.0970 
 17 C       -5.6410    -2.3710     0.9670 C.3   1 <1>   0.3330 
 18 O       -6.5970    -0.4100     2.0540 O.3   1 <1>  -0.5600 
 19 O       -0.9020     6.2020     0.1490 O.3   1 <1>  -0.3630 
 20 C       -6.0370    -3.7190     0.3650 C.ar  1 <1>  -0.1430 
 21 C       -6.8950    -1.6850     1.5500 C.3   1 <1>   0.1200 
 22 C       -1.4400     7.2470    -0.6290 C.3   1 <1>   0.0400 
 23 C       -6.7040    -3.7880    -0.8500 C.ar  1 <1>  -0.1500 
 24 C       -5.7360    -4.8950     1.0370 C.ar  1 <1>  -0.1500 
 25 C       -7.0660    -5.0120    -1.3860 C.ar  1 <1>  -0.1500 
 26 C       -6.0970    -6.1200     0.5030 C.ar  1 <1>  -0.1500 
 27 C       -6.7620    -6.1800    -0.7090 C.ar  1 <1>  -0.1500 
 28 H       -3.9090     1.7290    -0.0610 H     1 <1>   0.0800 
 29 H       -4.8380     0.9500    -1.3130 H     1 <1>   0.0800 
 30 H       -3.7180    -1.1770    -2.4810 H     1 <1>   0.0800 
 31 H       -2.1400    -1.6350    -1.9160 H     1 <1>   0.0800 
 32 H       -0.1420     1.8500     0.9490 H     1 <1>   0.1500 
 33 H       -2.6760     2.8220    -2.3080 H     1 <1>   0.1500 
 34 H       -4.0340    -0.2450     1.3400 H     1 <1>   0.0800 
 35 H       -3.0320    -2.2170     0.2720 H     1 <1>   0.0800 
 36 H       -3.9150    -3.0580    -0.9730 H     1 <1>   0.0800 
 37 H       -2.3960     5.1920    -1.8490 H     1 <1>   0.1500 
 38 H       -6.7580     0.6000     0.3130 H     1 <1>   0.0800 
 39 H       -5.8350     1.3830     1.5790 H     1 <1>   0.0800 
 40 H        0.8520     3.5080     2.2870 H     1 <1>   0.0800 
 41 H       -0.1500     4.9230     2.5050 H     1 <1>   0.0800 
 42 H        1.2260     4.9830     1.4290 H     1 <1>   0.0800 
 43 H       -4.9510    -2.5380     1.7760 H     1 <1>   0.0800 
 44 H       -7.2920    -2.2730     2.3570 H     1 <1>   0.0800 
 45 H       -7.6520    -1.5860     0.7930 H     1 <1>   0.0800 
 46 H       -1.1240     8.1800    -0.1980 H     1 <1>   0.0800 
 47 H       -2.5130     7.1810    -0.6090 H     1 <1>   0.0800 
 48 H       -1.0650     7.1630    -1.6330 H     1 <1>   0.0800 
 49 H       -6.9360    -2.8820    -1.3830 H     1 <1>   0.1500 
 50 H       -5.2190    -4.8660     1.9800 H     1 <1>   0.1500 
 51 H       -7.5820    -5.0540    -2.3290 H     1 <1>   0.1500 
 52 H       -5.8600    -7.0280     1.0290 H     1 <1>   0.1500 
 53 H       -7.0430    -7.1310    -1.1240 H     1 <1>   0.1500 
@<TRIPOS>BOND
  1   1   2  2   
  2   2   3  am  
  3   2   4  1   
  4   3   5  1   
  5   3   6  1   
  6   4   7  ar  
  7   4   8  ar  
  8   5   9  1   
  9   5  28  1   
 10   5  29  1   
 11   6  10  1   
 12   6  30  1   
 13   6  31  1   
 14   7  11  ar  
 15   7  32  1   
 16   8  12  ar  
 17   8  33  1   
 18   9  13  1   
 19   9  14  1   
 20   9  34  1   
 21  10  13  1   
 22  10  35  1   
 23  10  36  1   
 24  11  15  ar  
 25  11  16  1   
 26  12  15  ar  
 27  12  37  1   
 28  13  17  1   
 29  14  18  1   
 30  14  38  1   
 31  14  39  1   
 32  15  19  1   
 33  16  40  1   
 34  16  41  1   
 35  16  42  1   
 36  17  20  1   
 37  17  21  1   
 38  17  43  1   
 39  18  21  1   
 40  19  22  1   
 41  20  23  ar  
 42  20  24  ar  
 43  21  44  1   
 44  21  45  1   
 45  22  46  1   
 46  22  47  1   
 47  22  48  1   
 48  23  25  ar  
 49  23  49  1   
 50  24  26  ar  
 51  24  50  1   
 52  25  27  ar  
 53  25  51  1   
 54  26  27  ar  
 55  26  52  1   
 56  27  53  1   
@<TRIPOS>SUBSTRUCTURE
  1 ****   5 GROUP 4 **** **** 0

# MOE 2024.06 (io_trps.svl 2023.06)
