@<TRIPOS>MOLECULE
NONAME
50 51 1 0 0 
SMALL
USER_CHARGES


@<TRIPOS>ATOM
  1 O        1.2550     0.2200    -1.3690 O.2   1 <1>  -0.5700 
  2 C        1.8350    -0.2200    -0.3930 C.2   1 <1>   0.5440 
  3 N        2.1020     0.6330     0.6640 N.am  1 <1>  -0.6600 
  4 C        2.1990    -1.6230    -0.3830 C.ar  1 <1>   0.0860 
  5 C        2.6400     0.1690     1.9870 C.3   1 <1>   0.1400 
  6 C        1.8520     2.0970     0.5350 C.3   1 <1>   0.1400 
  7 C        1.2230    -2.6110    -0.5140 C.ar  1 <1>  -0.1500 
  8 C        3.5240    -2.0420    -0.2620 C.ar  1 <1>  -0.1500 
  9 C        3.7270     1.0830     2.5800 C.3   1 <1>   0.1400 
 10 C        3.0980     2.7990    -0.0190 C.3   1 <1>  -0.1600 
 11 C        1.5470    -3.9560    -0.5060 C.ar  1 <1>  -0.1500 
 12 C        3.8570    -3.3830    -0.2510 C.ar  1 <1>  -0.1500 
 13 N        4.6600     1.6070     1.5380 N.am  1 <1>  -0.6600 
 14 C        4.2650     2.9270     0.9710 C.3   1 <1>   0.1400 
 15 C        2.8740    -4.3530    -0.3710 C.ar  1 <1>   0.0830 
 16 C        5.7290     0.8480     1.1140 C.2   1 <1>   0.5690 
 17 O        3.2770    -5.6430    -0.3500 O.3   1 <1>  -0.3630 
 18 O        5.9210    -0.2440     1.6070 O.2   1 <1>  -0.5700 
 19 C        6.7170     1.3620     0.0290 C.3   1 <1>   0.2610 
 20 C        2.3620    -6.7090    -0.4710 C.3   1 <1>   0.0400 
 21 O        6.0690     1.6730    -1.1740 O.3   1 <1>  -0.6800 
 22 C        7.9060     0.4140    -0.2940 C.3   1 <1>  -0.0800 
 23 C        9.0060     1.1490    -1.0800 C.3   1 <1>  -0.2400 
 24 C        7.5030    -0.8600    -1.0650 C.3   1 <1>  -0.2400 
 25 H        3.0580    -0.8160     1.9000 H     1 <1>   0.0800 
 26 H        1.8260     0.1000     2.6860 H     1 <1>   0.0800 
 27 H        1.5720     2.5120     1.4870 H     1 <1>   0.0800 
 28 H        1.0290     2.2610    -0.1400 H     1 <1>   0.0800 
 29 H        0.1970    -2.3060    -0.6270 H     1 <1>   0.1500 
 30 H        4.2970    -1.3010    -0.1710 H     1 <1>   0.1500 
 31 H        4.2820     0.5300     3.3170 H     1 <1>   0.0800 
 32 H        3.2590     1.9050     3.0920 H     1 <1>   0.0800 
 33 H        2.8160     3.7910    -0.3190 H     1 <1>   0.0800 
 34 H        3.4260     2.2890    -0.9060 H     1 <1>   0.0800 
 35 H        0.7590    -4.6780    -0.6090 H     1 <1>   0.1500 
 36 H        4.8830    -3.6880    -0.1480 H     1 <1>   0.1500 
 37 H        3.9800     3.5820     1.7760 H     1 <1>   0.0800 
 38 H        5.1000     3.3880     0.4730 H     1 <1>   0.0800 
 39 H        7.1250     2.2830     0.4020 H     1 <1>   0.0800 
 40 H        2.9150    -7.6300    -0.4270 H     1 <1>   0.0800 
 41 H        1.8570    -6.6300    -1.4170 H     1 <1>   0.0800 
 42 H        1.6630    -6.6640     0.3450 H     1 <1>   0.0800 
 43 H        5.6650     0.8610    -1.5350 H     1 <1>   0.4000 
 44 H        8.3370     0.1080     0.6450 H     1 <1>   0.0800 
 45 H        8.6380     1.4710    -2.0380 H     1 <1>   0.0800 
 46 H        9.8500     0.5010    -1.2380 H     1 <1>   0.0800 
 47 H        9.3430     2.0130    -0.5350 H     1 <1>   0.0800 
 48 H        7.1240    -0.6190    -2.0430 H     1 <1>   0.0800 
 49 H        6.7540    -1.4130    -0.5290 H     1 <1>   0.0800 
 50 H        8.3590    -1.5000    -1.1860 H     1 <1>   0.0800 
@<TRIPOS>BOND
  1   1   2  2   
  2   2   3  am  
  3   2   4  1   
  4   3   5  1   
  5   3   6  1   
  6   4   7  ar  
  7   4   8  ar  
  8   5   9  1   
  9   5  25  1   
 10   5  26  1   
 11   6  10  1   
 12   6  27  1   
 13   6  28  1   
 14   7  11  ar  
 15   7  29  1   
 16   8  12  ar  
 17   8  30  1   
 18   9  13  1   
 19   9  31  1   
 20   9  32  1   
 21  10  14  1   
 22  10  33  1   
 23  10  34  1   
 24  11  15  ar  
 25  11  35  1   
 26  12  15  ar  
 27  12  36  1   
 28  13  14  1   
 29  13  16  am  
 30  14  37  1   
 31  14  38  1   
 32  15  17  1   
 33  16  18  2   
 34  16  19  1   
 35  17  20  1   
 36  19  21  1   
 37  19  22  1   
 38  19  39  1   
 39  20  40  1   
 40  20  41  1   
 41  20  42  1   
 42  21  43  1   
 43  22  23  1   
 44  22  24  1   
 45  22  44  1   
 46  23  45  1   
 47  23  46  1   
 48  23  47  1   
 49  24  48  1   
 50  24  49  1   
 51  24  50  1   
@<TRIPOS>SUBSTRUCTURE
  1 ****   8 GROUP 4 **** **** 0

# MOE 2024.06 (io_trps.svl 2023.06)
