@<TRIPOS>MOLECULE
NONAME
56 58 1 0 0 
SMALL
USER_CHARGES


@<TRIPOS>ATOM
  1 O       -1.0520    -1.4400     2.5040 O.3   1 <1>  -0.6800 
  2 C       -2.2690    -1.9880     2.1310 C.3   1 <1>   0.1200 
  3 C       -2.1050    -2.6140     0.7420 C.3   1 <1>   0.1100 
  4 N       -3.3650    -3.2230     0.2520 N.3   1 <1>  -0.8100 
  5 C       -4.3360    -2.1960    -0.2030 C.3   1 <1>   0.1100 
  6 C       -3.0780    -4.1590    -0.8600 C.3   1 <1>   0.1100 
  7 C       -5.6290    -2.8340    -0.7690 C.3   1 <1>   0.3430 
  8 C       -4.3670    -4.8220    -1.4060 C.3   1 <1>   0.3430 
  9 N       -5.5820    -4.3390    -0.6500 N.4   1 <1>  -0.9590 
 10 C       -6.8610    -5.0650    -0.9300 C.3   1 <1>   0.4230 
 11 C       -7.9860    -4.5240    -0.0340 C.3   1 <1>  -0.1600 
 12 C       -6.6820    -6.5710    -0.6850 C.3   1 <1>  -0.1600 
 13 C       -9.2770    -5.3280    -0.1860 C.3   1 <1>   0.3430 
 14 C       -7.9980    -7.3390    -0.8220 C.3   1 <1>   0.3430 
 15 N       -9.0210    -6.7660     0.0970 N.4   1 <1>  -0.9590 
 16 C      -10.3240    -7.5120    -0.0080 C.3   1 <1>   0.3430 
 17 C      -10.2800    -8.9230     0.5970 C.3   1 <1>   0.0200 
 18 C      -11.6420    -9.5670     0.4260 C.2   1 <1>   0.0060 
 19 N      -12.5960    -9.0000    -0.2390 N.2   1 <1>  -0.5650 
 20 N      -11.9800   -10.7760     0.9410 N.pl3 1 <1>   0.0480 
 21 C      -13.6140    -9.8760    -0.1560 C.2   1 <1>   0.0770 
 22 C      -13.2550   -10.9630     0.5590 C.2   1 <1>  -0.3020 
 23 C      -11.1770   -11.7150     1.7480 C.3   1 <1>   0.0160 
 24 H       -1.0950    -1.0740     3.4100 H     1 <1>   0.4000 
 25 H       -2.9970    -1.1980     2.1240 H     1 <1>   0.0800 
 26 H       -2.5370    -2.7390     2.8540 H     1 <1>   0.0800 
 27 H       -1.3490    -3.3770     0.8230 H     1 <1>   0.0800 
 28 H       -1.7580    -1.8660     0.0480 H     1 <1>   0.0800 
 29 H       -3.8880    -1.5730    -0.9590 H     1 <1>   0.0800 
 30 H       -4.6020    -1.5580     0.6220 H     1 <1>   0.0800 
 31 H       -2.4110    -4.9310    -0.5140 H     1 <1>   0.0800 
 32 H       -2.5780    -3.6390    -1.6610 H     1 <1>   0.0800 
 33 H       -5.7450    -2.5460    -1.8010 H     1 <1>   0.0800 
 34 H       -6.4640    -2.4350    -0.2200 H     1 <1>   0.0800 
 35 H       -4.2580    -5.8880    -1.3060 H     1 <1>   0.0800 
 36 H       -4.4650    -4.5970    -2.4550 H     1 <1>   0.0800 
 37 H       -5.2930    -4.4730     0.3340 H     1 <1>   0.4500 
 38 H       -7.1340    -4.9100    -1.9630 H     1 <1>   0.0800 
 39 H       -8.2170    -3.5100    -0.3030 H     1 <1>   0.0800 
 40 H       -7.6850    -4.5400     0.9990 H     1 <1>   0.0800 
 41 H       -6.2780    -6.7460     0.2970 H     1 <1>   0.0800 
 42 H       -6.0030    -6.9850    -1.4070 H     1 <1>   0.0800 
 43 H       -9.6620    -5.2180    -1.1880 H     1 <1>   0.0800 
 44 H      -10.0220    -4.9470     0.4980 H     1 <1>   0.0800 
 45 H       -7.8300    -8.3780    -0.5880 H     1 <1>   0.0800 
 46 H       -8.3510    -7.2800    -1.8400 H     1 <1>   0.0800 
 47 H       -8.7030    -6.8570     1.0740 H     1 <1>   0.4500 
 48 H      -10.6250    -7.5890    -1.0410 H     1 <1>   0.0800 
 49 H      -11.1000    -6.9650     0.5050 H     1 <1>   0.0800 
 50 H      -10.0490    -8.8670     1.6450 H     1 <1>   0.0800 
 51 H       -9.5520    -9.5320     0.0940 H     1 <1>   0.0800 
 52 H      -14.5660    -9.6800    -0.6220 H     1 <1>   0.1500 
 53 H      -13.8300   -11.8360     0.8070 H     1 <1>   0.1500 
 54 H      -10.2380   -11.8990     1.2600 H     1 <1>   0.0800 
 55 H      -11.7090   -12.6430     1.8510 H     1 <1>   0.0800 
 56 H      -11.0080   -11.2940     2.7230 H     1 <1>   0.0800 
@<TRIPOS>BOND
  1   1   2  1   
  2   1  24  1   
  3   2   3  1   
  4   2  25  1   
  5   2  26  1   
  6   3   4  1   
  7   3  27  1   
  8   3  28  1   
  9   4   5  1   
 10   4   6  1   
 11   5   7  1   
 12   5  29  1   
 13   5  30  1   
 14   6   8  1   
 15   6  31  1   
 16   6  32  1   
 17   7   9  1   
 18   7  33  1   
 19   7  34  1   
 20   8   9  1   
 21   8  35  1   
 22   8  36  1   
 23   9  10  1   
 24   9  37  1   
 25  10  11  1   
 26  10  12  1   
 27  10  38  1   
 28  11  13  1   
 29  11  39  1   
 30  11  40  1   
 31  12  14  1   
 32  12  41  1   
 33  12  42  1   
 34  13  15  1   
 35  13  43  1   
 36  13  44  1   
 37  14  15  1   
 38  14  45  1   
 39  14  46  1   
 40  15  16  1   
 41  15  47  1   
 42  16  17  1   
 43  16  48  1   
 44  16  49  1   
 45  17  18  1   
 46  17  50  1   
 47  17  51  1   
 48  18  19  2   
 49  18  20  1   
 50  19  21  1   
 51  20  22  1   
 52  20  23  1   
 53  21  22  2   
 54  21  52  1   
 55  22  53  1   
 56  23  54  1   
 57  23  55  1   
 58  23  56  1   
@<TRIPOS>SUBSTRUCTURE
  1 ****  12 GROUP 4 **** **** 0

# MOE 2024.06 (io_trps.svl 2023.06)
