@<TRIPOS>MOLECULE
NONAME
43 45 1 0 0 
SMALL
USER_CHARGES


@<TRIPOS>ATOM
  1 F       -2.2280    -0.3260    -1.5370 F     1 <1>  -0.3400 
  2 C       -2.1810     0.1680    -0.3090 C.3   1 <1>   1.1640 
  3 F       -1.2160    -0.4780     0.3290 F     1 <1>  -0.3400 
  4 F       -3.3200    -0.1760     0.2810 F     1 <1>  -0.3400 
  5 C       -1.9540     1.6930    -0.3060 C.ar  1 <1>  -0.1440 
  6 C       -2.8580     2.5850     0.2360 C.ar  1 <1>  -0.1500 
  7 C       -0.7860     2.2090    -0.8820 C.ar  1 <1>  -0.1500 
  8 C       -2.6260     3.9690     0.2260 C.ar  1 <1>   0.3610 
  9 C       -0.5400     3.5580    -0.8930 C.ar  1 <1>  -0.1500 
 10 N       -3.5610     4.8450     0.7340 N.ar  1 <1>  -0.1790 
 11 C       -1.4330     4.4800    -0.3200 C.ar  1 <1>   0.0000 
 12 C       -3.3720     6.1760     0.7430 C.ar  1 <1>   0.2180 
 13 C       -1.2060     5.8920    -0.2980 C.ar  1 <1>   0.1000 
 14 C       -2.2090     6.6990     0.2410 C.ar  1 <1>  -0.1500 
 15 C       -4.4590     7.0650     1.3240 C.3   1 <1>  -0.0970 
 16 N       -0.0500     6.4410    -0.7400 N.pl3 1 <1>  -0.8380 
 17 C        0.0880     7.7190    -1.5430 C.3   1 <1>   0.3500 
 18 C        1.2320     6.1860    -0.0150 C.3   1 <1>   0.2090 
 19 C        0.4560     8.9270    -0.6450 C.2   1 <1>   0.5690 
 20 C       -1.1150     7.9320    -2.4750 C.3   1 <1>  -0.2400 
 21 C        1.5400     7.3270     0.9840 C.3   1 <1>   0.1400 
 22 O        0.0780    10.0350    -0.9540 O.2   1 <1>  -0.5700 
 23 N        1.2160     8.7070     0.4850 N.am  1 <1>  -0.6600 
 24 C        1.6620     9.8210     1.3660 C.3   1 <1>   0.0600 
 25 H       -3.7700     2.2180     0.6770 H     1 <1>   0.1500 
 26 H       -0.0700     1.5330    -1.3270 H     1 <1>   0.1500 
 27 H        0.3570     3.9270    -1.3610 H     1 <1>   0.1500 
 28 H       -4.4270     4.4530     1.1100 H     1 <1>   0.4570 
 29 H       -2.0430     7.7610     0.2760 H     1 <1>   0.1500 
 30 H       -4.6300     6.8260     2.3590 H     1 <1>   0.0800 
 31 H       -5.3780     6.9420     0.7770 H     1 <1>   0.0800 
 32 H       -4.1730     8.1010     1.2640 H     1 <1>   0.0800 
 33 H        0.9330     7.5840    -2.1940 H     1 <1>   0.0800 
 34 H        2.0360     6.1070    -0.7260 H     1 <1>   0.0800 
 35 H        1.1810     5.2560     0.5230 H     1 <1>   0.0800 
 36 H       -1.9820     8.2580    -1.9340 H     1 <1>   0.0800 
 37 H       -1.3330     7.0300    -3.0150 H     1 <1>   0.0800 
 38 H       -0.8740     8.7030    -3.1850 H     1 <1>   0.0800 
 39 H        2.5820     7.2820     1.2500 H     1 <1>   0.0800 
 40 H        0.9690     7.1530     1.8800 H     1 <1>   0.0800 
 41 H        1.4140    10.7750     0.9330 H     1 <1>   0.0800 
 42 H        2.7290     9.7770     1.5000 H     1 <1>   0.0800 
 43 H        1.1800     9.7450     2.3250 H     1 <1>   0.0800 
@<TRIPOS>BOND
  1   1   2  1   
  2   2   3  1   
  3   2   4  1   
  4   2   5  1   
  5   5   6  ar  
  6   5   7  ar  
  7   6   8  ar  
  8   6  25  1   
  9   7   9  ar  
 10   7  26  1   
 11   8  10  ar  
 12   8  11  ar  
 13   9  11  ar  
 14   9  27  1   
 15  10  12  ar  
 16  10  28  1   
 17  11  13  ar  
 18  12  14  ar  
 19  12  15  1   
 20  13  14  ar  
 21  13  16  1   
 22  14  29  1   
 23  15  30  1   
 24  15  31  1   
 25  15  32  1   
 26  16  17  1   
 27  16  18  1   
 28  17  19  1   
 29  17  20  1   
 30  17  33  1   
 31  18  21  1   
 32  18  34  1   
 33  18  35  1   
 34  19  22  2   
 35  19  23  am  
 36  20  36  1   
 37  20  37  1   
 38  20  38  1   
 39  21  23  1   
 40  21  39  1   
 41  21  40  1   
 42  23  24  1   
 43  24  41  1   
 44  24  42  1   
 45  24  43  1   
@<TRIPOS>SUBSTRUCTURE
  1 ****  11 GROUP 4 **** **** 0

# MOE 2024.06 (io_trps.svl 2023.06)
