@<TRIPOS>MOLECULE
NONAME
39 41 1 0 0 
SMALL
USER_CHARGES


@<TRIPOS>ATOM
  1 F        0.1640    -0.1510     1.1190 F     1 <1>  -0.3400 
  2 C        0.9490    -1.1690     0.7790 C.3   1 <1>   1.2010 
  3 F        1.4380    -0.8640    -0.4210 F     1 <1>  -0.3400 
  4 F        1.9870    -1.1350     1.6100 F     1 <1>  -0.3400 
  5 C        0.2070    -2.5370     0.7890 C.2   1 <1>   0.1080 
  6 N       -0.3600    -3.1060     1.8320 N.2   1 <1>  -0.7070 
  7 C        0.0570    -3.3320    -0.3420 C.2   1 <1>  -0.1500 
  8 N       -0.8700    -4.2560     1.3680 N.pl3 1 <1>   0.3000 
  9 C       -0.6310    -4.4390     0.0510 C.2   1 <1>  -0.2370 
 10 C       -1.0610    -5.5790    -0.6970 C.2   1 <1>   0.7150 
 11 O       -1.1790    -5.5180    -1.9030 O.2   1 <1>  -0.5700 
 12 N       -1.3330    -6.7520    -0.0630 N.am  1 <1>  -0.7300 
 13 C       -1.7170    -8.0110    -0.7390 C.3   1 <1>   0.2200 
 14 C       -3.0440    -8.4920    -0.1690 C.3   1 <1>  -0.0800 
 15 C       -0.7740    -9.1140    -0.2830 C.3   1 <1>   0.1200 
 16 C       -2.6140    -9.3110     1.0600 C.3   1 <1>   0.1200 
 17 C       -3.8220    -9.3400    -1.1920 C.3   1 <1>  -0.0160 
 18 O       -1.2240    -9.4540     0.9900 O.3   1 <1>  -0.5600 
 19 C       -5.1540    -9.8100    -0.6260 C.ar  1 <1>  -0.1430 
 20 C       -6.2270    -8.9520    -0.4950 C.ar  1 <1>  -0.1500 
 21 C       -5.3620   -11.1120    -0.2170 C.ar  1 <1>  -0.1500 
 22 C       -7.4200    -9.4210     0.0310 C.ar  1 <1>   0.1600 
 23 C       -6.5940   -11.4790     0.2970 C.ar  1 <1>   0.1600 
 24 N       -7.6270   -10.6640     0.4340 N.ar  1 <1>  -0.6200 
 25 H        0.4130    -3.1170    -1.3360 H     1 <1>   0.1500 
 26 H       -1.4030    -4.8970     1.9690 H     1 <1>   0.2700 
 27 H       -0.9800    -6.9150     0.8800 H     1 <1>   0.3700 
 28 H       -1.7260    -7.8940    -1.8110 H     1 <1>   0.0800 
 29 H       -3.6610    -7.6610     0.1250 H     1 <1>   0.0800 
 30 H        0.2530    -8.7950    -0.2350 H     1 <1>   0.0800 
 31 H       -0.8590    -9.9840    -0.9110 H     1 <1>   0.0800 
 32 H       -3.0540   -10.2920     1.0800 H     1 <1>   0.0800 
 33 H       -2.8490    -8.7970     1.9760 H     1 <1>   0.0800 
 34 H       -3.2370   -10.1920    -1.4940 H     1 <1>   0.0800 
 35 H       -4.0130    -8.7510    -2.0730 H     1 <1>   0.0800 
 36 H       -6.1500    -7.9230    -0.7980 H     1 <1>   0.1500 
 37 H       -4.5810   -11.8460    -0.2910 H     1 <1>   0.1500 
 38 H       -8.2470    -8.7380     0.1250 H     1 <1>   0.1500 
 39 H       -6.7380   -12.4980     0.6130 H     1 <1>   0.1500 
@<TRIPOS>BOND
  1   1   2  1   
  2   2   3  1   
  3   2   4  1   
  4   2   5  1   
  5   5   6  2   
  6   5   7  1   
  7   6   8  1   
  8   7   9  2   
  9   7  25  1   
 10   8   9  1   
 11   8  26  1   
 12   9  10  1   
 13  10  11  2   
 14  10  12  am  
 15  12  13  1   
 16  12  27  1   
 17  13  14  1   
 18  13  15  1   
 19  13  28  1   
 20  14  16  1   
 21  14  17  1   
 22  14  29  1   
 23  15  18  1   
 24  15  30  1   
 25  15  31  1   
 26  16  18  1   
 27  16  32  1   
 28  16  33  1   
 29  17  19  1   
 30  17  34  1   
 31  17  35  1   
 32  19  20  ar  
 33  19  21  ar  
 34  20  22  ar  
 35  20  36  1   
 36  21  23  ar  
 37  21  37  1   
 38  22  24  ar  
 39  22  38  1   
 40  23  24  ar  
 41  23  39  1   
@<TRIPOS>SUBSTRUCTURE
  1 ****  12 GROUP 4 **** **** 0

# MOE 2024.06 (io_trps.svl 2023.06)
