@<TRIPOS>MOLECULE
NONAME
49 52 1 0 0 
SMALL
USER_CHARGES


@<TRIPOS>ATOM
  1 S       -1.6820    -2.8830     1.4830 S.3   1 <1>  -0.2420 
  2 C       -2.4890    -3.0850    -0.0720 C.2   1 <1>   0.6510 
  3 C       -0.8370    -1.4300     0.9190 C.2   1 <1>  -0.0370 
  4 N       -3.3210    -4.0470    -0.3170 N.2   1 <1>  -0.6210 
  5 N       -2.1030    -2.0810    -0.9180 N.am  1 <1>  -0.2290 
  6 C       -1.1830    -1.1720    -0.3490 C.2   1 <1>  -0.0410 
  7 C        0.0890    -0.7550     1.9100 C.3   1 <1>  -0.1020 
  8 C       -3.8640    -4.0600    -1.5760 C.2   1 <1>   0.0330 
  9 C       -2.6470    -2.0660    -2.1770 C.2   1 <1>   0.6160 
 10 C       -3.5550    -3.1070    -2.4950 C.2   1 <1>  -0.1360 
 11 C       -4.8330    -5.2040    -1.8660 C.3   1 <1>   0.4810 
 12 O       -2.3640    -1.1900    -2.9770 O.2   1 <1>  -0.5700 
 13 N       -5.7020    -5.3880    -0.6760 N.4   1 <1>  -0.9590 
 14 C       -6.2600    -6.7760    -0.6010 C.3   1 <1>   0.3430 
 15 C       -6.7470    -4.3350    -0.5480 C.3   1 <1>   0.3430 
 16 C       -7.0490    -7.0030     0.7020 C.3   1 <1>   0.2000 
 17 C       -7.5130    -4.5210     0.7650 C.3   1 <1>  -0.1600 
 18 O       -7.6960    -8.2350     0.6270 O.3   1 <1>  -0.5600 
 19 C       -8.1250    -5.9280     0.8860 C.3   1 <1>  -0.1600 
 20 C       -7.0520    -9.3000     1.2830 C.3   1 <1>   0.2630 
 21 C       -5.7280    -9.6640     0.6100 C.ar  1 <1>   0.1660 
 22 N       -4.6460    -8.9910     0.9910 N.ar  1 <1>  -0.6200 
 23 C       -5.7140   -10.6620    -0.3540 C.ar  1 <1>  -0.1500 
 24 C       -3.5090    -9.3520     0.4150 C.ar  1 <1>   0.1600 
 25 C       -4.5260   -11.0120    -0.9590 C.ar  1 <1>  -0.1500 
 26 C       -3.3970   -10.3360    -0.5520 C.ar  1 <1>  -0.1500 
 27 H       -0.8320    -0.3540    -0.9590 H     1 <1>   0.1500 
 28 H        0.8610    -1.4390     2.2140 H     1 <1>   0.0800 
 29 H       -0.4650    -0.4470     2.7780 H     1 <1>   0.0800 
 30 H        0.5460     0.1100     1.4640 H     1 <1>   0.0800 
 31 H       -3.9630    -3.0860    -3.4890 H     1 <1>   0.1500 
 32 H       -4.2580    -6.1000    -2.0320 H     1 <1>   0.0800 
 33 H       -5.4210    -5.0010    -2.7450 H     1 <1>   0.0800 
 34 H       -5.0420    -5.2610     0.1130 H     1 <1>   0.4500 
 35 H       -5.4570    -7.4910    -0.6570 H     1 <1>   0.0800 
 36 H       -6.9250    -6.9420    -1.4310 H     1 <1>   0.0800 
 37 H       -7.4350    -4.4010    -1.3760 H     1 <1>   0.0800 
 38 H       -6.2890    -3.3580    -0.5600 H     1 <1>   0.0800 
 39 H       -6.3810    -6.9950     1.5480 H     1 <1>   0.0800 
 40 H       -8.3000    -3.7880     0.8180 H     1 <1>   0.0800 
 41 H       -6.8490    -4.3380     1.5930 H     1 <1>   0.0800 
 42 H       -8.5830    -6.0420     1.8540 H     1 <1>   0.0800 
 43 H       -8.8860    -6.0520     0.1350 H     1 <1>   0.0800 
 44 H       -7.7200   -10.1420     1.2560 H     1 <1>   0.0800 
 45 H       -6.8920    -9.0320     2.3140 H     1 <1>   0.0800 
 46 H       -6.6240   -11.1650    -0.6290 H     1 <1>   0.1500 
 47 H       -2.6160    -8.8380     0.7300 H     1 <1>   0.1500 
 48 H       -4.4810   -11.7840    -1.7090 H     1 <1>   0.1500 
 49 H       -2.4370   -10.5730    -0.9750 H     1 <1>   0.1500 
@<TRIPOS>BOND
  1   1   2  1   
  2   1   3  1   
  3   2   4  2   
  4   2   5  1   
  5   3   6  2   
  6   3   7  1   
  7   4   8  1   
  8   5   6  1   
  9   5   9  am  
 10   6  27  1   
 11   7  28  1   
 12   7  29  1   
 13   7  30  1   
 14   8  10  2   
 15   8  11  1   
 16   9  10  1   
 17   9  12  2   
 18  10  31  1   
 19  11  13  1   
 20  11  32  1   
 21  11  33  1   
 22  13  14  1   
 23  13  15  1   
 24  13  34  1   
 25  14  16  1   
 26  14  35  1   
 27  14  36  1   
 28  15  17  1   
 29  15  37  1   
 30  15  38  1   
 31  16  18  1   
 32  16  19  1   
 33  16  39  1   
 34  17  19  1   
 35  17  40  1   
 36  17  41  1   
 37  18  20  1   
 38  19  42  1   
 39  19  43  1   
 40  20  21  1   
 41  20  44  1   
 42  20  45  1   
 43  21  22  ar  
 44  21  23  ar  
 45  22  24  ar  
 46  23  25  ar  
 47  23  46  1   
 48  24  26  ar  
 49  24  47  1   
 50  25  26  ar  
 51  25  48  1   
 52  26  49  1   
@<TRIPOS>SUBSTRUCTURE
  1 ****  13 GROUP 4 **** **** 0

# MOE 2024.06 (io_trps.svl 2023.06)
