@<TRIPOS>MOLECULE
NONAME
48 51 1 0 0 
SMALL
USER_CHARGES


@<TRIPOS>ATOM
  1 O       -0.4700     0.3630     1.2950 O.2   1 <1>  -0.5700 
  2 C       -1.4520     1.0280     1.0250 C.2   1 <1>   0.5440 
  3 N       -2.6410     0.3850     0.7700 N.am  1 <1>  -0.6600 
  4 C       -1.3370     2.4740     0.9570 C.ar  1 <1>   0.0860 
  5 C       -3.7140     0.9140    -0.1150 C.3   1 <1>   0.1400 
  6 C       -2.8340    -1.0720     0.9660 C.3   1 <1>   0.1400 
  7 C       -0.2510     3.0700     0.3190 C.ar  1 <1>  -0.1500 
  8 C       -2.2860     3.3160     1.5360 C.ar  1 <1>  -0.1500 
  9 C       -4.6280    -0.2790    -0.4310 C.3   1 <1>   0.2000 
 10 C       -3.7400    -1.5030    -0.1870 C.3   1 <1>  -0.0800 
 11 C       -0.1090     4.4500     0.2400 C.ar  1 <1>  -0.0230 
 12 C       -2.1660     4.6910     1.4630 C.ar  1 <1>  -0.1500 
 13 O       -5.6950    -0.3060     0.4750 O.3   1 <1>  -0.5600 
 14 C       -4.5080    -2.8090     0.0880 C.3   1 <1>   0.0200 
 15 N        1.0150     5.0250    -0.4110 N.pl3 1 <1>   0.3260 
 16 C       -1.0830     5.2570     0.8170 C.ar  1 <1>  -0.1500 
 17 C       -6.8080     0.4450     0.1060 C.3   1 <1>   0.0400 
 18 C       -3.6070    -4.0310     0.1530 C.2   1 <1>  -0.0400 
 19 C        1.0630     6.0500    -1.2730 C.2   1 <1>   0.0370 
 20 C        2.3100     4.6930    -0.3210 C.2   1 <1>   0.0370 
 21 O       -4.1370    -5.1850     0.4620 O.3   1 <1>  -0.0190 
 22 C       -2.2940    -4.2280    -0.0520 C.2   1 <1>  -0.1500 
 23 N        2.2610     6.3110    -1.6650 N.2   1 <1>  -0.3380 
 24 N        3.0630     5.4380    -1.0520 N.2   1 <1>  -0.3380 
 25 N       -3.2520    -6.1400     0.4790 N.2   1 <1>  -0.4100 
 26 C       -2.1310    -5.5910     0.1740 C.2   1 <1>   0.1080 
 27 C       -0.8180    -6.3340     0.0760 C.3   1 <1>  -0.0590 
 28 H       -4.2600     1.7040     0.3680 H     1 <1>   0.0800 
 29 H       -3.2660     1.2820    -1.0210 H     1 <1>   0.0800 
 30 H       -1.8970    -1.6010     0.9600 H     1 <1>   0.0800 
 31 H       -3.3260    -1.2290     1.9110 H     1 <1>   0.0800 
 32 H        0.4930     2.4250    -0.1190 H     1 <1>   0.1500 
 33 H       -3.1220     2.8800     2.0570 H     1 <1>   0.1500 
 34 H       -5.0130    -0.2560    -1.4360 H     1 <1>   0.0800 
 35 H       -3.1230    -1.6390    -1.0570 H     1 <1>   0.0800 
 36 H       -2.9130     5.3210     1.9170 H     1 <1>   0.1500 
 37 H       -5.2340    -2.9650    -0.6900 H     1 <1>   0.0800 
 38 H       -5.0420    -2.7280     1.0190 H     1 <1>   0.0800 
 39 H       -0.9960     6.3300     0.7740 H     1 <1>   0.1500 
 40 H       -7.5430     0.3560     0.8870 H     1 <1>   0.0800 
 41 H       -7.2110     0.0570    -0.8130 H     1 <1>   0.0800 
 42 H       -6.5280     1.4770    -0.0080 H     1 <1>   0.0800 
 43 H        0.1840     6.5780    -1.5910 H     1 <1>   0.1500 
 44 H        2.6570     3.8910     0.3030 H     1 <1>   0.1500 
 45 H       -1.5190    -3.5370    -0.3240 H     1 <1>   0.1500 
 46 H       -0.1020    -5.8990     0.7490 H     1 <1>   0.0800 
 47 H       -0.4420    -6.2790    -0.9290 H     1 <1>   0.0800 
 48 H       -0.9610    -7.3670     0.3390 H     1 <1>   0.0800 
@<TRIPOS>BOND
  1   1   2  2   
  2   2   3  am  
  3   2   4  1   
  4   3   5  1   
  5   3   6  1   
  6   4   7  ar  
  7   4   8  ar  
  8   5   9  1   
  9   5  28  1   
 10   5  29  1   
 11   6  10  1   
 12   6  30  1   
 13   6  31  1   
 14   7  11  ar  
 15   7  32  1   
 16   8  12  ar  
 17   8  33  1   
 18   9  10  1   
 19   9  13  1   
 20   9  34  1   
 21  10  14  1   
 22  10  35  1   
 23  11  15  1   
 24  11  16  ar  
 25  12  16  ar  
 26  12  36  1   
 27  13  17  1   
 28  14  18  1   
 29  14  37  1   
 30  14  38  1   
 31  15  19  1   
 32  15  20  1   
 33  16  39  1   
 34  17  40  1   
 35  17  41  1   
 36  17  42  1   
 37  18  21  1   
 38  18  22  2   
 39  19  23  2   
 40  19  43  1   
 41  20  24  2   
 42  20  44  1   
 43  21  25  1   
 44  22  26  1   
 45  22  45  1   
 46  23  24  1   
 47  25  26  2   
 48  26  27  1   
 49  27  46  1   
 50  27  47  1   
 51  27  48  1   
@<TRIPOS>SUBSTRUCTURE
  1 ****   3 GROUP 4 **** **** 0

# MOE 2024.06 (io_trps.svl 2023.06)
