@<TRIPOS>MOLECULE
NONAME
58 61 1 0 0 
SMALL
USER_CHARGES


@<TRIPOS>ATOM
  1 F        0.6930    -2.2130     2.1300 F     1 <1>  -0.1900 
  2 C       -0.2100    -2.9000     1.4760 C.ar  1 <1>   0.1900 
  3 C        0.0740    -3.5280     0.2580 C.ar  1 <1>   0.0830 
  4 C       -1.4640    -2.9710     2.0500 C.ar  1 <1>  -0.1500 
  5 O        1.2670    -3.5330    -0.4040 O.3   1 <1>  -0.3630 
  6 C       -0.9510    -4.2250    -0.3590 C.ar  1 <1>  -0.1500 
  7 C       -2.4630    -3.6760     1.4050 C.ar  1 <1>  -0.1500 
  8 C        2.4390    -2.9450     0.1170 C.3   1 <1>   0.0400 
  9 C       -2.2330    -4.3220     0.1890 C.ar  1 <1>   0.0530 
 10 C       -3.2740    -5.0570    -0.4920 C.2   1 <1>   0.0870 
 11 O       -3.1910    -5.2480    -1.7910 O.3   1 <1>  -0.0190 
 12 C       -4.4160    -5.6710    -0.0840 C.2   1 <1>  -0.2330 
 13 N       -4.1960    -5.9320    -2.2750 N.2   1 <1>  -0.4100 
 14 C       -4.9530    -6.1670    -1.2680 C.2   1 <1>   0.3720 
 15 C       -4.9770    -5.9440     1.2040 C.2   1 <1>   1.0330 
 16 N       -6.1510    -6.8580    -1.3340 N.pl3 1 <1>  -0.8520 
 17 O       -4.2530    -6.0470     2.2000 O.co2 1 <1>  -0.9000 
 18 O       -6.1630    -6.3180     1.3150 O.co2 1 <1>  -0.9000 
 19 C       -6.1620    -8.2160    -1.9490 C.3   1 <1>   0.2090 
 20 C       -6.7390    -9.3670    -1.0470 C.3   1 <1>   0.5030 
 21 N       -5.6950    -9.9600    -0.1090 N.4   1 <1>  -0.9590 
 22 C       -7.2810   -10.4980    -1.9480 C.3   1 <1>  -0.1600 
 23 C       -7.9970    -8.9050    -0.2860 C.3   1 <1>  -0.1600 
 24 C       -6.1720   -11.0820     0.7550 C.3   1 <1>   0.3430 
 25 C       -5.0340    -8.9340     0.7560 C.3   1 <1>   0.3430 
 26 C       -8.5800   -11.0420    -1.3310 C.3   1 <1>  -0.1600 
 27 C       -8.9710   -10.0850    -0.2020 C.3   1 <1>  -0.1600 
 28 C       -4.9920   -11.7530     1.4590 C.3   1 <1>  -0.1600 
 29 C       -3.8270    -9.5290     1.4800 C.3   1 <1>  -0.1600 
 30 C       -4.2120   -10.7520     2.3170 C.3   1 <1>  -0.1600 
 31 H       -1.6580    -2.4850     2.9890 H     1 <1>   0.1500 
 32 H       -0.7410    -4.7100    -1.2950 H     1 <1>   0.1500 
 33 H       -3.4380    -3.7290     1.8590 H     1 <1>   0.1500 
 34 H        3.2410    -3.1290    -0.5750 H     1 <1>   0.0800 
 35 H        2.6650    -3.3970     1.0660 H     1 <1>   0.0800 
 36 H        2.2830    -1.8860     0.2200 H     1 <1>   0.0800 
 37 H       -6.5820    -6.8100    -0.3830 H     1 <1>   0.4000 
 38 H       -5.1730    -8.4790    -2.2820 H     1 <1>   0.0800 
 39 H       -6.7710    -8.1260    -2.8300 H     1 <1>   0.0800 
 40 H       -4.9490   -10.3320    -0.6990 H     1 <1>   0.4500 
 41 H       -6.5570   -11.2770    -2.1120 H     1 <1>   0.0800 
 42 H       -7.5440   -10.1040    -2.9140 H     1 <1>   0.0800 
 43 H       -8.4850    -8.1360    -0.8610 H     1 <1>   0.0800 
 44 H       -7.7750    -8.4850     0.6800 H     1 <1>   0.0800 
 45 H       -6.6850   -11.8180     0.1620 H     1 <1>   0.0800 
 46 H       -6.8580   -10.6990     1.4940 H     1 <1>   0.0800 
 47 H       -5.7330    -8.5440     1.4790 H     1 <1>   0.0800 
 48 H       -4.6850    -8.1190     0.1510 H     1 <1>   0.0800 
 49 H       -8.4470   -12.0400    -0.9500 H     1 <1>   0.0800 
 50 H       -9.3580   -11.0720    -2.0760 H     1 <1>   0.0800 
 51 H       -9.9880    -9.7480    -0.3140 H     1 <1>   0.0800 
 52 H       -8.8890   -10.5760     0.7520 H     1 <1>   0.0800 
 53 H       -4.3420   -12.1990     0.7270 H     1 <1>   0.0800 
 54 H       -5.3630   -12.5440     2.0880 H     1 <1>   0.0800 
 55 H       -3.4150    -8.7700     2.1250 H     1 <1>   0.0800 
 56 H       -3.0690    -9.7860     0.7620 H     1 <1>   0.0800 
 57 H       -3.3280   -11.2150     2.7220 H     1 <1>   0.0800 
 58 H       -4.8250   -10.4320     3.1440 H     1 <1>   0.0800 
@<TRIPOS>BOND
  1   1   2  1   
  2   2   3  ar  
  3   2   4  ar  
  4   3   5  1   
  5   3   6  ar  
  6   4   7  ar  
  7   4  31  1   
  8   5   8  1   
  9   6   9  ar  
 10   6  32  1   
 11   7   9  ar  
 12   7  33  1   
 13   8  34  1   
 14   8  35  1   
 15   8  36  1   
 16   9  10  1   
 17  10  11  1   
 18  10  12  2   
 19  11  13  1   
 20  12  14  1   
 21  12  15  1   
 22  13  14  2   
 23  14  16  1   
 24  15  17  ar  
 25  15  18  ar  
 26  16  19  1   
 27  16  37  1   
 28  19  20  1   
 29  19  38  1   
 30  19  39  1   
 31  20  21  1   
 32  20  22  1   
 33  20  23  1   
 34  21  24  1   
 35  21  25  1   
 36  21  40  1   
 37  22  26  1   
 38  22  41  1   
 39  22  42  1   
 40  23  27  1   
 41  23  43  1   
 42  23  44  1   
 43  24  28  1   
 44  24  45  1   
 45  24  46  1   
 46  25  29  1   
 47  25  47  1   
 48  25  48  1   
 49  26  27  1   
 50  26  49  1   
 51  26  50  1   
 52  27  51  1   
 53  27  52  1   
 54  28  30  1   
 55  28  53  1   
 56  28  54  1   
 57  29  30  1   
 58  29  55  1   
 59  29  56  1   
 60  30  57  1   
 61  30  58  1   
@<TRIPOS>SUBSTRUCTURE
  1 ****  12 GROUP 4 **** **** 0

# MOE 2024.06 (io_trps.svl 2023.06)
