@<TRIPOS>MOLECULE
NONAME
48 52 1 0 0 
SMALL
USER_CHARGES


@<TRIPOS>ATOM
  1 S        0.1210     0.5260     2.0500 S.3   1 <1>  -0.0800 
  2 C       -0.9870     1.1290     0.8270 C.2   1 <1>  -0.1400 
  3 C       -1.0690    -0.6480     2.5950 C.2   1 <1>  -0.1100 
  4 C       -2.1520     0.4700     0.8780 C.2   1 <1>  -0.1810 
  5 C       -0.6220     2.2530    -0.1370 C.3   1 <1>   0.4600 
  6 C       -2.2060    -0.5500     1.8800 C.2   1 <1>  -0.1500 
  7 C       -3.2610     0.8410    -0.0800 C.3   1 <1>   0.0210 
  8 O       -1.6600     2.3780    -1.0920 O.3   1 <1>  -0.5600 
  9 C       -0.4480     3.5890     0.5960 C.3   1 <1>  -0.1600 
 10 C        0.6470     1.9120    -0.9230 C.3   1 <1>  -0.1600 
 11 C       -2.9900     2.2500    -0.6450 C.3   1 <1>   0.1200 
 12 C       -0.0400     4.7150    -0.3570 C.3   1 <1>   0.1400 
 13 C        1.0390     3.0450    -1.8720 C.3   1 <1>   0.1400 
 14 N        1.1830     4.3130    -1.1040 N.am  1 <1>  -0.6600 
 15 C        2.3540     5.0600    -1.1270 C.2   1 <1>   0.7160 
 16 O        3.3690     4.4990    -1.5170 O.2   1 <1>  -0.5700 
 17 C        2.4280     6.4590    -0.6980 C.2   1 <1>   0.2030 
 18 N        1.4860     7.3850    -0.8330 N.2   1 <1>  -0.7070 
 19 C        3.5530     7.0320    -0.0790 C.2   1 <1>  -0.1810 
 20 N        2.0040     8.5120    -0.3220 N.pl3 1 <1>   0.3000 
 21 C        3.2520     8.3210     0.1380 C.2   1 <1>  -0.3320 
 22 C        4.8840     6.4060     0.2990 C.3   1 <1>   0.0210 
 23 C        4.1630     9.3470     0.7870 C.3   1 <1>   0.0200 
 24 C        5.6450     7.3200     1.2790 C.3   1 <1>  -0.1600 
 25 C        5.6010     8.7990     0.8420 C.3   1 <1>  -0.1600 
 26 H       -0.7870    -1.2980     3.4040 H     1 <1>   0.1500 
 27 H       -3.0860    -1.1550     2.0140 H     1 <1>   0.1500 
 28 H       -4.2080     0.8380     0.4290 H     1 <1>   0.0800 
 29 H       -3.3020     0.1270    -0.8830 H     1 <1>   0.0800 
 30 H        0.3190     3.4830     1.3400 H     1 <1>   0.0800 
 31 H       -1.3520     3.8510     1.1110 H     1 <1>   0.0800 
 32 H        0.4880     1.0060    -1.4780 H     1 <1>   0.0800 
 33 H        1.4620     1.7410    -0.2450 H     1 <1>   0.0800 
 34 H       -3.1710     2.9960     0.1070 H     1 <1>   0.0800 
 35 H       -3.6360     2.4440    -1.4830 H     1 <1>   0.0800 
 36 H        0.1320     5.6040     0.2210 H     1 <1>   0.0800 
 37 H       -0.8310     4.9150    -1.0600 H     1 <1>   0.0800 
 38 H        0.2760     3.1760    -2.6210 H     1 <1>   0.0800 
 39 H        1.9560     2.7920    -2.3770 H     1 <1>   0.0800 
 40 H        1.4870     9.3990    -0.3050 H     1 <1>   0.2700 
 41 H        5.4630     6.2680    -0.5970 H     1 <1>   0.0800 
 42 H        4.7250     5.4410     0.7470 H     1 <1>   0.0800 
 43 H        3.8130     9.5450     1.7850 H     1 <1>   0.0800 
 44 H        4.1490    10.2670     0.2300 H     1 <1>   0.0800 
 45 H        6.6660     6.9890     1.3530 H     1 <1>   0.0800 
 46 H        5.1970     7.2320     2.2540 H     1 <1>   0.0800 
 47 H        6.1870     9.3980     1.5160 H     1 <1>   0.0800 
 48 H        6.0400     8.8800    -0.1380 H     1 <1>   0.0800 
@<TRIPOS>BOND
  1   1   2  1   
  2   1   3  1   
  3   2   4  2   
  4   2   5  1   
  5   3   6  2   
  6   3  26  1   
  7   4   6  1   
  8   4   7  1   
  9   5   8  1   
 10   5   9  1   
 11   5  10  1   
 12   6  27  1   
 13   7  11  1   
 14   7  28  1   
 15   7  29  1   
 16   8  11  1   
 17   9  12  1   
 18   9  30  1   
 19   9  31  1   
 20  10  13  1   
 21  10  32  1   
 22  10  33  1   
 23  11  34  1   
 24  11  35  1   
 25  12  14  1   
 26  12  36  1   
 27  12  37  1   
 28  13  14  1   
 29  13  38  1   
 30  13  39  1   
 31  14  15  am  
 32  15  16  2   
 33  15  17  1   
 34  17  18  2   
 35  17  19  1   
 36  18  20  1   
 37  19  21  2   
 38  19  22  1   
 39  20  21  1   
 40  20  40  1   
 41  21  23  1   
 42  22  24  1   
 43  22  41  1   
 44  22  42  1   
 45  23  25  1   
 46  23  43  1   
 47  23  44  1   
 48  24  25  1   
 49  24  45  1   
 50  24  46  1   
 51  25  47  1   
 52  25  48  1   
@<TRIPOS>SUBSTRUCTURE
  1 ****  14 GROUP 4 **** **** 0

# MOE 2024.06 (io_trps.svl 2023.06)
