@<TRIPOS>MOLECULE
NONAME
56 59 1 0 0 
SMALL
USER_CHARGES


@<TRIPOS>ATOM
  1 O       -0.0980    -0.6100     1.4760 O.2   1 <1>  -0.5700 
  2 C        0.7570    -1.1600     0.8120 C.2   1 <1>   0.5440 
  3 N        1.9790    -0.5580     0.6780 N.am  1 <1>  -0.7300 
  4 C        0.4830    -2.4280     0.1640 C.ar  1 <1>   0.0860 
  5 C        2.3770     0.7290     1.3060 C.3   1 <1>   0.0600 
  6 C       -0.7870    -2.7770    -0.2530 C.ar  1 <1>  -0.1500 
  7 C        1.4610    -3.3850    -0.0820 C.ar  1 <1>  -0.1500 
  8 C       -1.0400    -3.9970    -0.8680 C.ar  1 <1>   0.4100 
  9 C        1.1280    -4.5670    -0.7090 C.ar  1 <1>   0.1600 
 10 N       -0.0870    -4.8900    -1.1090 N.ar  1 <1>  -0.6200 
 11 N       -2.3320    -4.3210    -1.2470 N.pl3 1 <1>  -0.8380 
 12 C       -3.4250    -4.2830    -0.2420 C.3   1 <1>   0.2090 
 13 C       -2.5830    -5.2710    -2.3680 C.3   1 <1>   0.2090 
 14 C       -3.6200    -5.6810     0.3410 C.3   1 <1>  -0.1600 
 15 C       -2.7990    -6.6820    -1.8160 C.3   1 <1>  -0.1600 
 16 C       -3.9060    -6.7190    -0.7550 C.3   1 <1>   0.4240 
 17 O       -5.0840    -6.3370    -1.4300 O.3   1 <1>  -0.5600 
 18 C       -4.0290    -8.1370    -0.1550 C.ar  1 <1>  -0.1430 
 19 C       -6.3010    -6.7060    -0.8620 C.3   1 <1>   0.1200 
 20 C       -5.2180    -8.8520    -0.2240 C.ar  1 <1>  -0.1440 
 21 C       -2.9440    -8.7280     0.4800 C.ar  1 <1>  -0.1500 
 22 C       -6.4210    -8.2260    -0.9020 C.3   1 <1>  -0.0170 
 23 C       -5.3120   -10.1220     0.3220 C.ar  1 <1>  -0.1500 
 24 C       -3.0190    -9.9980     1.0260 C.ar  1 <1>   0.0830 
 25 C       -4.2250   -10.7120     0.9600 C.ar  1 <1>   0.0830 
 26 O       -1.8700   -10.4480     1.6040 O.3   1 <1>  -0.3620 
 27 O       -4.3170   -11.9490     1.5320 O.3   1 <1>  -0.3620 
 28 C       -1.4920   -11.8010     1.4870 C.3   1 <1>   0.0400 
 29 C       -5.5460   -12.6310     1.6510 C.3   1 <1>   0.0400 
 30 H        2.6500    -0.9480     0.0140 H     1 <1>   0.3700 
 31 H        1.6270     1.0540     2.0070 H     1 <1>   0.0800 
 32 H        2.4910     1.4840     0.5470 H     1 <1>   0.0800 
 33 H        3.3080     0.6070     1.8300 H     1 <1>   0.0800 
 34 H       -1.5980    -2.0910    -0.1060 H     1 <1>   0.1500 
 35 H        2.4760    -3.2120     0.2210 H     1 <1>   0.1500 
 36 H        1.9010    -5.2930    -0.8930 H     1 <1>   0.1500 
 37 H       -4.3310    -3.9470    -0.7180 H     1 <1>   0.0800 
 38 H       -3.1860    -3.5950     0.5500 H     1 <1>   0.0800 
 39 H       -1.7490    -5.2670    -3.0490 H     1 <1>   0.0800 
 40 H       -3.4560    -4.9510    -2.9100 H     1 <1>   0.0800 
 41 H       -4.4140    -5.6730     1.0630 H     1 <1>   0.0800 
 42 H       -2.7200    -5.9490     0.8630 H     1 <1>   0.0800 
 43 H       -1.8710    -7.0160    -1.3960 H     1 <1>   0.0800 
 44 H       -3.0510    -7.3520    -2.6160 H     1 <1>   0.0800 
 45 H       -7.0860    -6.2510    -1.4400 H     1 <1>   0.0800 
 46 H       -6.3480    -6.3390     0.1480 H     1 <1>   0.0800 
 47 H       -2.0080    -8.2050     0.5610 H     1 <1>   0.1500 
 48 H       -6.4730    -8.5540    -1.9240 H     1 <1>   0.0800 
 49 H       -7.3260    -8.5220    -0.4030 H     1 <1>   0.0800 
 50 H       -6.2480   -10.6380     0.2400 H     1 <1>   0.1500 
 51 H       -0.4300   -11.8660     1.6320 H     1 <1>   0.0800 
 52 H       -1.7540   -12.1570     0.5060 H     1 <1>   0.0800 
 53 H       -1.9980   -12.3690     2.2470 H     1 <1>   0.0800 
 54 H       -5.3710   -13.5400     2.1980 H     1 <1>   0.0800 
 55 H       -5.9140   -12.8630     0.6680 H     1 <1>   0.0800 
 56 H       -6.2390   -12.0090     2.1890 H     1 <1>   0.0800 
@<TRIPOS>BOND
  1   1   2  2   
  2   2   3  am  
  3   2   4  1   
  4   3   5  1   
  5   3  30  1   
  6   4   6  ar  
  7   4   7  ar  
  8   5  31  1   
  9   5  32  1   
 10   5  33  1   
 11   6   8  ar  
 12   6  34  1   
 13   7   9  ar  
 14   7  35  1   
 15   8  10  ar  
 16   8  11  1   
 17   9  10  ar  
 18   9  36  1   
 19  11  12  1   
 20  11  13  1   
 21  12  14  1   
 22  12  37  1   
 23  12  38  1   
 24  13  15  1   
 25  13  39  1   
 26  13  40  1   
 27  14  16  1   
 28  14  41  1   
 29  14  42  1   
 30  15  16  1   
 31  15  43  1   
 32  15  44  1   
 33  16  17  1   
 34  16  18  1   
 35  17  19  1   
 36  18  20  ar  
 37  18  21  ar  
 38  19  22  1   
 39  19  45  1   
 40  19  46  1   
 41  20  22  1   
 42  20  23  ar  
 43  21  24  ar  
 44  21  47  1   
 45  22  48  1   
 46  22  49  1   
 47  23  25  ar  
 48  23  50  1   
 49  24  25  ar  
 50  24  26  1   
 51  25  27  1   
 52  26  28  1   
 53  27  29  1   
 54  28  51  1   
 55  28  52  1   
 56  28  53  1   
 57  29  54  1   
 58  29  55  1   
 59  29  56  1   
@<TRIPOS>SUBSTRUCTURE
  1 ****  14 GROUP 4 **** **** 0

# MOE 2024.06 (io_trps.svl 2023.06)
