@<TRIPOS>MOLECULE
NONAME
55 58 1 0 0 
SMALL
USER_CHARGES


@<TRIPOS>ATOM
  1 F       -1.7350     0.6030     1.0310 F     1 <1>  -0.1900 
  2 C       -1.1160     1.7570     0.9600 C.ar  1 <1>   0.1900 
  3 C        0.2360     1.7850     0.6390 C.ar  1 <1>   0.0830 
  4 C       -1.8550     2.9030     1.1980 C.ar  1 <1>  -0.1440 
  5 O        0.8740     0.6060     0.4070 O.3   1 <1>  -0.3630 
  6 C        0.8620     3.0260     0.5660 C.ar  1 <1>  -0.1500 
  7 C       -1.2090     4.1300     1.1240 C.ar  1 <1>  -0.1500 
  8 C       -3.3290     2.8020     1.5330 C.3   1 <1>   0.4870 
  9 C        2.2610     0.5550     0.1510 C.3   1 <1>   0.0400 
 10 C        0.1400     4.1850     0.8100 C.ar  1 <1>  -0.1500 
 11 N       -4.1250     3.0460     0.2990 N.4   1 <1>  -0.9590 
 12 C       -5.5690     3.2790     0.6400 C.3   1 <1>   0.3430 
 13 C       -3.9750     1.9190    -0.6730 C.3   1 <1>   0.3430 
 14 C       -6.4160     3.6080    -0.6020 C.3   1 <1>   0.1430 
 15 C       -4.7530     2.2240    -1.9560 C.3   1 <1>  -0.1600 
 16 C       -7.8600     3.6900    -0.1740 C.ar  1 <1>   0.1670 
 17 C       -6.2380     2.5170    -1.6770 C.3   1 <1>  -0.1600 
 18 C       -6.1540     5.0320    -1.1660 C.3   1 <1>  -0.1600 
 19 N       -8.4500     2.8110     0.5930 N.ar  1 <1>  -0.6200 
 20 C       -8.4730     4.8030    -0.6590 C.ar  1 <1>  -0.1430 
 21 C       -7.5350     5.6350    -1.4970 C.3   1 <1>  -0.0170 
 22 C       -9.7310     3.0780     0.8680 C.ar  1 <1>   0.7200 
 23 C       -9.7890     4.9950    -0.3230 C.ar  1 <1>   0.1600 
 24 N      -10.4230     4.1390     0.4420 N.ar  1 <1>  -0.6200 
 25 N      -10.3930     2.1770     1.6740 N.pl3 1 <1>  -0.8380 
 26 C      -10.0040     0.7430     1.7570 C.3   1 <1>   0.1290 
 27 C      -11.6890     2.5200     2.3250 C.3   1 <1>   0.1290 
 28 H        1.9060     3.1110     0.3240 H     1 <1>   0.1500 
 29 H       -1.7370     5.0500     1.3140 H     1 <1>   0.1500 
 30 H       -3.5690     3.5410     2.2810 H     1 <1>   0.0800 
 31 H       -3.5540     1.8280     1.9370 H     1 <1>   0.0800 
 32 H        2.5410    -0.4770     0.0320 H     1 <1>   0.0800 
 33 H        2.7880     0.9800     0.9870 H     1 <1>   0.0800 
 34 H        2.4720     1.0950    -0.7540 H     1 <1>   0.0800 
 35 H        0.6400     5.1390     0.7550 H     1 <1>   0.1500 
 36 H       -3.7440     3.8890    -0.1470 H     1 <1>   0.4500 
 37 H       -5.6630     4.0860     1.3490 H     1 <1>   0.0800 
 38 H       -5.9780     2.3920     1.0980 H     1 <1>   0.0800 
 39 H       -4.3500     1.0070    -0.2340 H     1 <1>   0.0800 
 40 H       -2.9340     1.7710    -0.9150 H     1 <1>   0.0800 
 41 H       -4.6810     1.3730    -2.6120 H     1 <1>   0.0800 
 42 H       -4.2920     3.0530    -2.4640 H     1 <1>   0.0800 
 43 H       -6.7370     2.8050    -2.5870 H     1 <1>   0.0800 
 44 H       -6.7090     1.6110    -1.3320 H     1 <1>   0.0800 
 45 H       -5.5170     5.0330    -2.0330 H     1 <1>   0.0800 
 46 H       -5.7000     5.6450    -0.4070 H     1 <1>   0.0800 
 47 H       -7.7720     5.5050    -2.5390 H     1 <1>   0.0800 
 48 H       -7.5880     6.6790    -1.2390 H     1 <1>   0.0800 
 49 H      -10.3270     5.8570    -0.6810 H     1 <1>   0.1500 
 50 H       -9.3310     0.4810     0.9590 H     1 <1>   0.0800 
 51 H      -10.8780     0.1200     1.6780 H     1 <1>   0.0800 
 52 H       -9.5200     0.5550     2.7000 H     1 <1>   0.0800 
 53 H      -11.7240     3.5700     2.5630 H     1 <1>   0.0800 
 54 H      -11.8060     1.9620     3.2360 H     1 <1>   0.0800 
 55 H      -12.5000     2.2880     1.6570 H     1 <1>   0.0800 
@<TRIPOS>BOND
  1   1   2  1   
  2   2   3  ar  
  3   2   4  ar  
  4   3   5  1   
  5   3   6  ar  
  6   4   7  ar  
  7   4   8  1   
  8   5   9  1   
  9   6  10  ar  
 10   6  28  1   
 11   7  10  ar  
 12   7  29  1   
 13   8  11  1   
 14   8  30  1   
 15   8  31  1   
 16   9  32  1   
 17   9  33  1   
 18   9  34  1   
 19  10  35  1   
 20  11  12  1   
 21  11  13  1   
 22  11  36  1   
 23  12  14  1   
 24  12  37  1   
 25  12  38  1   
 26  13  15  1   
 27  13  39  1   
 28  13  40  1   
 29  14  16  1   
 30  14  17  1   
 31  14  18  1   
 32  15  17  1   
 33  15  41  1   
 34  15  42  1   
 35  16  19  ar  
 36  16  20  ar  
 37  17  43  1   
 38  17  44  1   
 39  18  21  1   
 40  18  45  1   
 41  18  46  1   
 42  19  22  ar  
 43  20  21  1   
 44  20  23  ar  
 45  21  47  1   
 46  21  48  1   
 47  22  24  ar  
 48  22  25  1   
 49  23  24  ar  
 50  23  49  1   
 51  25  26  1   
 52  25  27  1   
 53  26  50  1   
 54  26  51  1   
 55  26  52  1   
 56  27  53  1   
 57  27  54  1   
 58  27  55  1   
@<TRIPOS>SUBSTRUCTURE
  1 ****  12 GROUP 4 **** **** 0

# MOE 2024.06 (io_trps.svl 2023.06)
