@<TRIPOS>MOLECULE
NONAME
44 47 1 0 0 
SMALL
USER_CHARGES


@<TRIPOS>ATOM
  1 F       -0.5810     0.4580     0.7760 F     1 <1>  -0.3400 
  2 C       -0.6630     1.7550     0.4900 C.3   1 <1>   1.1640 
  3 F       -1.2780     1.8090    -0.6870 F     1 <1>  -0.3400 
  4 F       -1.5030     2.2530     1.3920 F     1 <1>  -0.3400 
  5 C        0.7130     2.4310     0.4950 C.ar  1 <1>  -0.1440 
  6 C        0.7920     3.8110     0.2020 C.ar  1 <1>   0.3100 
  7 C        1.8570     1.7160     0.7790 C.ar  1 <1>  -0.1500 
  8 N       -0.3480     4.5010    -0.0620 N.ar  1 <1>  -0.6200 
  9 C        2.0620     4.4400     0.1960 C.ar  1 <1>   0.0000 
 10 C        3.1050     2.3380     0.7830 C.ar  1 <1>  -0.1500 
 11 C       -0.2450     5.7690    -0.3300 C.ar  1 <1>   0.1600 
 12 C        2.1370     5.8230    -0.1090 C.ar  1 <1>   0.1000 
 13 C        3.2000     3.6700     0.4990 C.ar  1 <1>  -0.1500 
 14 C        0.9570     6.4660    -0.3670 C.ar  1 <1>  -0.1500 
 15 N        3.3390     6.5120    -0.1650 N.pl3 1 <1>  -0.8380 
 16 C        3.5510     7.6180     0.8270 C.3   1 <1>   0.2090 
 17 C        4.0440     6.5240    -1.4830 C.3   1 <1>   0.2090 
 18 C        5.0040     8.0720     1.1080 C.3   1 <1>   0.2200 
 19 C        5.5490     6.8330    -1.4660 C.3   1 <1>  -0.0190 
 20 N        5.5620     8.8680    -0.0230 N.am  1 <1>  -0.6600 
 21 C        5.9800     6.9580     1.5540 C.3   1 <1>   0.1200 
 22 C        5.7970     8.3060    -1.2430 C.2   1 <1>   0.5690 
 23 C        6.4480     5.9610    -0.5710 C.3   1 <1>   0.1200 
 24 C        5.8110    10.3130     0.2450 C.3   1 <1>   0.0600 
 25 O        5.9900     5.8230     0.7380 O.3   1 <1>  -0.5600 
 26 O        6.2120     8.9530    -2.1770 O.2   1 <1>  -0.5700 
 27 H        1.8270     0.6630     1.0070 H     1 <1>   0.1500 
 28 H        3.9860     1.7630     1.0130 H     1 <1>   0.1500 
 29 H       -1.1510     6.3110    -0.5400 H     1 <1>   0.1500 
 30 H        4.1590     4.1560     0.5080 H     1 <1>   0.1500 
 31 H        0.9510     7.5110    -0.6070 H     1 <1>   0.1500 
 32 H        2.9870     8.4770     0.5090 H     1 <1>   0.0800 
 33 H        3.1290     7.2920     1.7610 H     1 <1>   0.0800 
 34 H        3.9100     5.5560    -1.9340 H     1 <1>   0.0800 
 35 H        3.5540     7.2400    -2.1210 H     1 <1>   0.0800 
 36 H        4.9380     8.7410     1.9470 H     1 <1>   0.0800 
 37 H        5.8870     6.6430    -2.4680 H     1 <1>   0.0800 
 38 H        5.6860     6.6170     2.5300 H     1 <1>   0.0800 
 39 H        6.9820     7.3410     1.6210 H     1 <1>   0.0800 
 40 H        7.4500     6.3540    -0.5420 H     1 <1>   0.0800 
 41 H        6.4900     4.9680    -0.9820 H     1 <1>   0.0800 
 42 H        6.5140    10.4190     1.0520 H     1 <1>   0.0800 
 43 H        4.8880    10.8000     0.5070 H     1 <1>   0.0800 
 44 H        6.2180    10.8000    -0.6260 H     1 <1>   0.0800 
@<TRIPOS>BOND
  1   1   2  1   
  2   2   3  1   
  3   2   4  1   
  4   2   5  1   
  5   5   6  ar  
  6   5   7  ar  
  7   6   8  ar  
  8   6   9  ar  
  9   7  10  ar  
 10   7  27  1   
 11   8  11  ar  
 12   9  12  ar  
 13   9  13  ar  
 14  10  13  ar  
 15  10  28  1   
 16  11  14  ar  
 17  11  29  1   
 18  12  14  ar  
 19  12  15  1   
 20  13  30  1   
 21  14  31  1   
 22  15  16  1   
 23  15  17  1   
 24  16  18  1   
 25  16  32  1   
 26  16  33  1   
 27  17  19  1   
 28  17  34  1   
 29  17  35  1   
 30  18  20  1   
 31  18  21  1   
 32  18  36  1   
 33  19  22  1   
 34  19  23  1   
 35  19  37  1   
 36  20  22  am  
 37  20  24  1   
 38  21  25  1   
 39  21  38  1   
 40  21  39  1   
 41  22  26  2   
 42  23  25  1   
 43  23  40  1   
 44  23  41  1   
 45  24  42  1   
 46  24  43  1   
 47  24  44  1   
@<TRIPOS>SUBSTRUCTURE
  1 ****  12 GROUP 4 **** **** 0

# MOE 2024.06 (io_trps.svl 2023.06)
