@<TRIPOS>MOLECULE
NONAME
49 51 1 0 0 
SMALL
USER_CHARGES


@<TRIPOS>ATOM
  1 O       -0.0010    -0.2410     1.6620 O.3   1 <1>  -0.6800 
  2 C        0.7490    -0.3790     0.5020 C.3   1 <1>   0.2000 
  3 C        1.5770    -1.6570     0.6320 C.3   1 <1>  -0.0800 
  4 C        1.8070     0.7410     0.4790 C.3   1 <1>   0.3430 
  5 C        2.6810    -1.1860     1.5830 C.3   1 <1>   0.3430 
  6 C        2.0950    -2.1150    -0.7580 C.3   1 <1>  -0.0160 
  7 N        3.0570     0.1440     1.0550 N.4   1 <1>  -0.9590 
  8 C        3.4870    -2.7320    -0.7330 C.ar  1 <1>   0.1670 
  9 C        3.7420     1.0260     2.0230 C.3   1 <1>   0.5240 
 10 N        4.5050    -1.8800    -0.6920 N.ar  1 <1>  -0.6200 
 11 C        3.6370    -4.1170    -0.7590 C.ar  1 <1>   0.1600 
 12 C        4.1530     2.2680     1.2700 C.2   1 <1>  -0.1810 
 13 C        5.6720    -2.5100    -0.7040 C.ar  1 <1>   0.1600 
 14 N        4.8020    -4.7380    -0.7440 N.ar  1 <1>  -0.6200 
 15 C        5.0960     2.4420     0.3140 C.2   1 <1>  -0.3320 
 16 C        3.5710     3.5180     1.4310 C.2   1 <1>   0.1390 
 17 C        5.8150    -3.8920    -0.7260 C.ar  1 <1>   0.1600 
 18 N        5.0380     3.7460    -0.0520 N.pl3 1 <1>   0.3140 
 19 C        6.0690     1.4350    -0.2830 C.3   1 <1>  -0.0600 
 20 N        4.0850     4.3980     0.6370 N.2   1 <1>  -0.7070 
 21 C        5.8660     4.4530    -1.0550 C.3   1 <1>   0.0960 
 22 C        7.1310     5.0380    -0.4090 C.3   1 <1>  -0.1600 
 23 C        8.0020     5.7600    -1.4440 C.3   1 <1>  -0.2400 
 24 H       -0.8240    -0.7740     1.6250 H     1 <1>   0.4000 
 25 H        0.0870    -0.3480    -0.3480 H     1 <1>   0.0800 
 26 H        1.0180    -2.4580     1.0820 H     1 <1>   0.0800 
 27 H        1.4620     1.5810     1.0590 H     1 <1>   0.0800 
 28 H        1.9950     1.0620    -0.5320 H     1 <1>   0.0800 
 29 H        3.5210    -1.8620     1.6090 H     1 <1>   0.0800 
 30 H        2.2710    -1.0830     2.5750 H     1 <1>   0.0800 
 31 H        2.1340    -1.2860    -1.4430 H     1 <1>   0.0800 
 32 H        1.3960    -2.8180    -1.1770 H     1 <1>   0.0800 
 33 H        3.7200    -0.0270     0.2770 H     1 <1>   0.4500 
 34 H        3.0820     1.2800     2.8350 H     1 <1>   0.0800 
 35 H        4.6180     0.5380     2.4180 H     1 <1>   0.0800 
 36 H        2.7620    -4.7430    -0.7930 H     1 <1>   0.1500 
 37 H        6.5650    -1.9100    -0.6960 H     1 <1>   0.1500 
 38 H        2.7790     3.7550     2.1240 H     1 <1>   0.1500 
 39 H        6.8060    -4.3140    -0.7310 H     1 <1>   0.1500 
 40 H        6.0030     0.4910     0.2260 H     1 <1>   0.0800 
 41 H        7.0790     1.7940    -0.1890 H     1 <1>   0.0800 
 42 H        5.8520     1.2790    -1.3250 H     1 <1>   0.0800 
 43 H        6.1270     3.7660    -1.8370 H     1 <1>   0.0800 
 44 H        5.2730     5.2430    -1.4780 H     1 <1>   0.0800 
 45 H        6.8410     5.7370     0.3580 H     1 <1>   0.0800 
 46 H        7.7040     4.2510     0.0480 H     1 <1>   0.0800 
 47 H        7.4560     6.5690    -1.8980 H     1 <1>   0.0800 
 48 H        8.3210     5.0800    -2.2140 H     1 <1>   0.0800 
 49 H        8.8760     6.1680    -0.9660 H     1 <1>   0.0800 
@<TRIPOS>BOND
  1   1   2  1   
  2   1  24  1   
  3   2   3  1   
  4   2   4  1   
  5   2  25  1   
  6   3   5  1   
  7   3   6  1   
  8   3  26  1   
  9   4   7  1   
 10   4  27  1   
 11   4  28  1   
 12   5   7  1   
 13   5  29  1   
 14   5  30  1   
 15   6   8  1   
 16   6  31  1   
 17   6  32  1   
 18   7   9  1   
 19   7  33  1   
 20   8  10  ar  
 21   8  11  ar  
 22   9  12  1   
 23   9  34  1   
 24   9  35  1   
 25  10  13  ar  
 26  11  14  ar  
 27  11  36  1   
 28  12  15  2   
 29  12  16  1   
 30  13  17  ar  
 31  13  37  1   
 32  14  17  ar  
 33  15  18  1   
 34  15  19  1   
 35  16  20  2   
 36  16  38  1   
 37  17  39  1   
 38  18  20  1   
 39  18  21  1   
 40  19  40  1   
 41  19  41  1   
 42  19  42  1   
 43  21  22  1   
 44  21  43  1   
 45  21  44  1   
 46  22  23  1   
 47  22  45  1   
 48  22  46  1   
 49  23  47  1   
 50  23  48  1   
 51  23  49  1   
@<TRIPOS>SUBSTRUCTURE
  1 ****   7 GROUP 4 **** **** 0

# MOE 2024.06 (io_trps.svl 2023.06)
