@<TRIPOS>MOLECULE
NONAME
64 67 1 0 0 
SMALL
USER_CHARGES


@<TRIPOS>ATOM
  1 O       -0.6120     0.4010     1.1280 O.2   1 <1>  -0.5700 
  2 C       -1.4300     0.9540     0.4320 C.2   1 <1>   0.5690 
  3 N       -2.4020     0.2530    -0.2210 N.am  1 <1>  -0.6600 
  4 C       -1.3650     2.4710     0.2900 C.3   1 <1>  -0.0990 
  5 C       -3.5790     0.8100    -0.9370 C.3   1 <1>   0.1400 
  6 C       -2.5800    -1.2040    -0.0190 C.3   1 <1>   0.1400 
  7 C        0.0030     3.0840     0.6610 C.3   1 <1>  -0.0800 
  8 C       -4.6410    -0.2960    -0.9080 C.3   1 <1>   0.2000 
  9 C       -3.8170    -1.5840    -0.8360 C.3   1 <1>  -0.0800 
 10 C       -0.0570     4.6190     0.6690 C.3   1 <1>  -0.1600 
 11 C        1.1190     2.6230    -0.2950 C.3   1 <1>  -0.1600 
 12 O       -5.4100    -0.1810     0.2560 O.3   1 <1>  -0.5600 
 13 C       -4.5660    -2.8010    -0.2670 C.3   1 <1>   0.0200 
 14 C        1.3030     5.2270     1.0210 C.3   1 <1>   0.3430 
 15 C        2.4610     3.2460     0.0810 C.3   1 <1>   0.3430 
 16 C       -6.5200     0.6550     0.1570 C.3   1 <1>   0.0400 
 17 C       -3.6870    -4.0360    -0.2900 C.2   1 <1>  -0.0400 
 18 N        2.3420     4.7310     0.0690 N.4   1 <1>  -0.9590 
 19 O       -3.3040    -4.5490    -1.4290 O.3   1 <1>  -0.0190 
 20 C       -3.1650    -4.7820     0.6950 C.2   1 <1>  -0.1500 
 21 C        3.6580     5.3810     0.3110 C.3   1 <1>   0.4860 
 22 N       -2.5510    -5.5960    -1.2590 N.2   1 <1>  -0.4100 
 23 C       -2.4490    -5.7610     0.0110 C.2   1 <1>   0.1080 
 24 C        3.5200     6.8650     0.0360 C.ar  1 <1>  -0.1440 
 25 C       -1.6560    -6.8700     0.6650 C.3   1 <1>  -0.0590 
 26 C        3.4910     7.7710     1.0880 C.ar  1 <1>  -0.1500 
 27 C        3.4140     7.3290    -1.2680 C.ar  1 <1>  -0.1500 
 28 C        3.3440     9.1240     0.8380 C.ar  1 <1>  -0.1500 
 29 C        3.2660     8.6820    -1.5150 C.ar  1 <1>  -0.1500 
 30 C        3.2290     9.5790    -0.4630 C.ar  1 <1>  -0.1500 
 31 H       -1.6100     2.7390    -0.7210 H     1 <1>   0.0800 
 32 H       -2.1220     2.8790     0.9350 H     1 <1>   0.0800 
 33 H       -3.9380     1.7100    -0.4710 H     1 <1>   0.0800 
 34 H       -3.2980     1.0130    -1.9550 H     1 <1>   0.0800 
 35 H       -1.7080    -1.7470    -0.3430 H     1 <1>   0.0800 
 36 H       -2.7450    -1.3890     1.0300 H     1 <1>   0.0800 
 37 H        0.2510     2.7570     1.6590 H     1 <1>   0.0800 
 38 H       -5.2880    -0.2800    -1.7690 H     1 <1>   0.0800 
 39 H       -3.4840    -1.8190    -1.8310 H     1 <1>   0.0800 
 40 H       -0.7760     4.9460     1.4000 H     1 <1>   0.0800 
 41 H       -0.3770     4.9900    -0.2890 H     1 <1>   0.0800 
 42 H        0.8740     2.8750    -1.3120 H     1 <1>   0.0800 
 43 H        1.2250     1.5530    -0.2470 H     1 <1>   0.0800 
 44 H       -5.4510    -2.9890    -0.8480 H     1 <1>   0.0800 
 45 H       -4.8690    -2.6080     0.7470 H     1 <1>   0.0800 
 46 H        1.5690     4.9500     2.0280 H     1 <1>   0.0800 
 47 H        1.2350     6.3020     0.9700 H     1 <1>   0.0800 
 48 H        3.2130     2.9260    -0.6220 H     1 <1>   0.0800 
 49 H        2.7460     2.9080     1.0650 H     1 <1>   0.0800 
 50 H       -7.0100     0.6720     1.1140 H     1 <1>   0.0800 
 51 H       -7.1940     0.2630    -0.5850 H     1 <1>   0.0800 
 52 H       -6.2040     1.6490    -0.1040 H     1 <1>   0.0800 
 53 H        2.0420     5.0250    -0.8680 H     1 <1>   0.4500 
 54 H       -3.2520    -4.6770     1.7600 H     1 <1>   0.1500 
 55 H        3.9740     5.2200     1.3290 H     1 <1>   0.0800 
 56 H        4.4040     4.9680    -0.3480 H     1 <1>   0.0800 
 57 H       -0.8860    -6.4490     1.2850 H     1 <1>   0.0800 
 58 H       -1.1990    -7.4870    -0.0880 H     1 <1>   0.0800 
 59 H       -2.3060    -7.4770     1.2660 H     1 <1>   0.0800 
 60 H        3.5840     7.4410     2.1090 H     1 <1>   0.1500 
 61 H        3.4490     6.6530    -2.1050 H     1 <1>   0.1500 
 62 H        3.3210     9.8270     1.6530 H     1 <1>   0.1500 
 63 H        3.1840     9.0440    -2.5270 H     1 <1>   0.1500 
 64 H        3.1150    10.6330    -0.6570 H     1 <1>   0.1500 
@<TRIPOS>BOND
  1   1   2  2   
  2   2   3  am  
  3   2   4  1   
  4   3   5  1   
  5   3   6  1   
  6   4   7  1   
  7   4  31  1   
  8   4  32  1   
  9   5   8  1   
 10   5  33  1   
 11   5  34  1   
 12   6   9  1   
 13   6  35  1   
 14   6  36  1   
 15   7  10  1   
 16   7  11  1   
 17   7  37  1   
 18   8   9  1   
 19   8  12  1   
 20   8  38  1   
 21   9  13  1   
 22   9  39  1   
 23  10  14  1   
 24  10  40  1   
 25  10  41  1   
 26  11  15  1   
 27  11  42  1   
 28  11  43  1   
 29  12  16  1   
 30  13  17  1   
 31  13  44  1   
 32  13  45  1   
 33  14  18  1   
 34  14  46  1   
 35  14  47  1   
 36  15  18  1   
 37  15  48  1   
 38  15  49  1   
 39  16  50  1   
 40  16  51  1   
 41  16  52  1   
 42  17  19  1   
 43  17  20  2   
 44  18  21  1   
 45  18  53  1   
 46  19  22  1   
 47  20  23  1   
 48  20  54  1   
 49  21  24  1   
 50  21  55  1   
 51  21  56  1   
 52  22  23  2   
 53  23  25  1   
 54  24  26  ar  
 55  24  27  ar  
 56  25  57  1   
 57  25  58  1   
 58  25  59  1   
 59  26  28  ar  
 60  26  60  1   
 61  27  29  ar  
 62  27  61  1   
 63  28  30  ar  
 64  28  62  1   
 65  29  30  ar  
 66  29  63  1   
 67  30  64  1   
@<TRIPOS>SUBSTRUCTURE
  1 ****   2 GROUP 4 **** **** 0

# MOE 2024.06 (io_trps.svl 2023.06)
