@<TRIPOS>MOLECULE
NONAME
51 54 1 0 0 
SMALL
USER_CHARGES


@<TRIPOS>ATOM
  1 S        0.7290     0.2210    -0.3360 S.3   1 <1>  -0.0800 
  2 C       -0.1800    -1.1390     0.3350 C.2   1 <1>   0.0410 
  3 C       -0.3670     1.3960     0.3670 C.2   1 <1>  -0.1100 
  4 C        0.2680    -2.4850     0.0790 C.2   1 <1>   0.2880 
  5 C       -1.2350    -0.6490     1.0350 C.2   1 <1>  -0.1500 
  6 C       -1.3410     0.7740     1.0540 C.2   1 <1>  -0.1500 
  7 N        1.3210    -2.8100    -0.6320 N.2   1 <1>  -0.7070 
  8 C       -0.3620    -3.6290     0.5530 C.2   1 <1>  -0.1500 
  9 N        1.3710    -4.1460    -0.6130 N.pl3 1 <1>   0.3140 
 10 C        0.3490    -4.6930     0.0940 C.2   1 <1>  -0.2370 
 11 C        2.4540    -4.8490    -1.3200 C.3   1 <1>   0.0160 
 12 C        0.1300    -6.1000     0.2890 C.2   1 <1>   0.7150 
 13 O        1.0460    -6.8980     0.2010 O.2   1 <1>  -0.5700 
 14 N       -1.1200    -6.5900     0.5780 N.am  1 <1>  -0.6600 
 15 C       -1.2890    -7.9100     1.2530 C.3   1 <1>   0.1400 
 16 C       -2.3480    -6.1020    -0.1110 C.3   1 <1>   0.1400 
 17 C       -1.6990    -8.9740     0.2080 C.3   1 <1>   0.4230 
 18 C       -2.8020    -7.1580    -1.1300 C.3   1 <1>  -0.1600 
 19 N       -1.8180   -10.3680     0.7580 N.4   1 <1>  -0.9590 
 20 C       -3.0170    -8.5540    -0.4780 C.3   1 <1>  -0.1060 
 21 C       -2.0960   -11.3660    -0.3060 C.3   1 <1>   0.3430 
 22 C       -0.7180   -10.7940     1.6630 C.3   1 <1>   0.2630 
 23 C       -4.1290    -8.4930     0.5880 C.2   1 <1>   0.9060 
 24 C       -3.3730    -9.5720    -1.5880 C.3   1 <1>  -0.1600 
 25 C       -3.3850   -11.0110    -1.0500 C.3   1 <1>  -0.1600 
 26 O       -4.0870    -9.2840     1.5440 O.co2 1 <1>  -0.9000 
 27 O       -5.0220    -7.6530     0.4860 O.co2 1 <1>  -0.9000 
 28 H       -0.1600     2.4360     0.1870 H     1 <1>   0.1500 
 29 H       -1.9580    -1.2550     1.5510 H     1 <1>   0.1500 
 30 H       -2.1400     1.2650     1.5820 H     1 <1>   0.1500 
 31 H       -1.2430    -3.6440     1.1680 H     1 <1>   0.1500 
 32 H        2.0290    -5.5510    -2.0120 H     1 <1>   0.0800 
 33 H        3.0650    -5.3660    -0.6040 H     1 <1>   0.0800 
 34 H        3.0530    -4.1340    -1.8530 H     1 <1>   0.0800 
 35 H       -0.3620    -8.1830     1.7220 H     1 <1>   0.0800 
 36 H       -2.0390    -7.8180     2.0200 H     1 <1>   0.0800 
 37 H       -3.1240    -5.9260     0.6170 H     1 <1>   0.0800 
 38 H       -2.1600    -5.1770    -0.6270 H     1 <1>   0.0800 
 39 H       -0.9230    -8.9810    -0.5390 H     1 <1>   0.0800 
 40 H       -3.7240    -6.8250    -1.5770 H     1 <1>   0.0800 
 41 H       -2.0690    -7.2160    -1.9140 H     1 <1>   0.0800 
 42 H       -2.7120   -10.2800     1.3150 H     1 <1>   0.4500 
 43 H       -1.2730   -11.3890    -1.0020 H     1 <1>   0.0800 
 44 H       -2.2010   -12.3450     0.1320 H     1 <1>   0.0800 
 45 H        0.2240   -10.7780     1.1400 H     1 <1>   0.0800 
 46 H       -0.9030   -11.7930     2.0240 H     1 <1>   0.0800 
 47 H       -0.6590   -10.1340     2.5130 H     1 <1>   0.0800 
 48 H       -4.3440    -9.3330    -1.9920 H     1 <1>   0.0800 
 49 H       -2.6570    -9.5040    -2.3890 H     1 <1>   0.0800 
 50 H       -3.5220   -11.6970    -1.8670 H     1 <1>   0.0800 
 51 H       -4.2210   -11.1420    -0.3830 H     1 <1>   0.0800 
@<TRIPOS>BOND
  1   1   2  1   
  2   1   3  1   
  3   2   4  1   
  4   2   5  2   
  5   3   6  2   
  6   3  28  1   
  7   4   7  2   
  8   4   8  1   
  9   5   6  1   
 10   5  29  1   
 11   6  30  1   
 12   7   9  1   
 13   8  10  2   
 14   8  31  1   
 15   9  10  1   
 16   9  11  1   
 17  10  12  1   
 18  11  32  1   
 19  11  33  1   
 20  11  34  1   
 21  12  13  2   
 22  12  14  am  
 23  14  15  1   
 24  14  16  1   
 25  15  17  1   
 26  15  35  1   
 27  15  36  1   
 28  16  18  1   
 29  16  37  1   
 30  16  38  1   
 31  17  19  1   
 32  17  20  1   
 33  17  39  1   
 34  18  20  1   
 35  18  40  1   
 36  18  41  1   
 37  19  21  1   
 38  19  22  1   
 39  19  42  1   
 40  20  23  1   
 41  20  24  1   
 42  21  25  1   
 43  21  43  1   
 44  21  44  1   
 45  22  45  1   
 46  22  46  1   
 47  22  47  1   
 48  23  26  ar  
 49  23  27  ar  
 50  24  25  1   
 51  24  48  1   
 52  24  49  1   
 53  25  50  1   
 54  25  51  1   
@<TRIPOS>SUBSTRUCTURE
  1 ****  14 GROUP 4 **** **** 0

# MOE 2024.06 (io_trps.svl 2023.06)
