@<TRIPOS>MOLECULE
NONAME
53 55 1 0 0 
SMALL
USER_CHARGES


@<TRIPOS>ATOM
  1 CL       1.2910    -6.9510     1.5380 Cl    1 <1>  -0.1770 
  2 C        0.3660    -6.2700     0.2180 C.ar  1 <1>   0.1770 
  3 C       -0.7190    -5.4320     0.4510 C.ar  1 <1>  -0.1440 
  4 C        0.7680    -6.6040    -1.0620 C.ar  1 <1>  -0.1500 
  5 C       -1.4070    -4.9120    -0.6490 C.ar  1 <1>   0.1170 
  6 C       -1.1670    -5.0770     1.8720 C.3   1 <1>  -0.0970 
  7 C        0.0820    -6.0920    -2.1460 C.ar  1 <1>  -0.1500 
  8 N       -2.4900    -4.0460    -0.4390 N.am  1 <1>  -0.5470 
  9 C       -0.9950    -5.2510    -1.9350 C.ar  1 <1>  -0.1500 
 10 C       -3.6270    -3.8280    -1.1650 C.2   1 <1>   0.5690 
 11 O       -3.8630    -4.3440    -2.2290 O.2   1 <1>  -0.5700 
 12 C       -4.6600    -2.9090    -0.5750 C.3   1 <1>  -0.0380 
 13 C       -4.9700    -3.4080     0.8130 C.2   1 <1>   0.5690 
 14 O       -4.2870    -2.9520     1.7010 O.2   1 <1>  -0.5700 
 15 N       -5.9340    -4.3560     1.0560 N.am  1 <1>  -0.6600 
 16 C       -6.5800    -5.1640    -0.0280 C.3   1 <1>   0.2200 
 17 C       -6.2830    -4.6890     2.4730 C.3   1 <1>   0.0600 
 18 C       -6.5550    -6.6710     0.2090 C.3   1 <1>  -0.1600 
 19 C       -8.0560    -4.8310    -0.2120 C.3   1 <1>  -0.1600 
 20 C       -7.6400    -7.2140    -0.7280 C.3   1 <1>  -0.0800 
 21 C       -8.6400    -6.0520    -0.9350 C.3   1 <1>  -0.0800 
 22 C       -8.2570    -8.5350    -0.2250 C.3   1 <1>   0.1400 
 23 C      -10.0740    -6.3890    -0.4910 C.3   1 <1>  -0.0990 
 24 N       -9.5710    -8.7740    -0.8750 N.am  1 <1>  -0.6600 
 25 C      -10.4770    -7.7570    -1.0020 C.2   1 <1>   0.5690 
 26 C       -9.8590   -10.1650    -1.3140 C.3   1 <1>   0.0600 
 27 O      -11.5710    -7.8990    -1.4930 O.2   1 <1>  -0.5700 
 28 H        1.6100    -7.2580    -1.2030 H     1 <1>   0.1500 
 29 H       -2.2300    -5.2110     1.9740 H     1 <1>   0.0800 
 30 H       -0.9240    -4.0520     2.0880 H     1 <1>   0.0800 
 31 H       -0.6980    -5.6950     2.6150 H     1 <1>   0.0800 
 32 H        0.3830    -6.3430    -3.1490 H     1 <1>   0.1500 
 33 H       -2.5080    -3.6180     0.4930 H     1 <1>   0.3700 
 34 H       -1.5180    -4.8510    -2.7850 H     1 <1>   0.1500 
 35 H       -5.5420    -2.8760    -1.1840 H     1 <1>   0.0800 
 36 H       -4.2560    -1.9160    -0.5200 H     1 <1>   0.0800 
 37 H       -6.0880    -4.9970    -0.9700 H     1 <1>   0.0800 
 38 H       -7.3220    -4.9460     2.5630 H     1 <1>   0.0800 
 39 H       -6.0900    -3.8450     3.1140 H     1 <1>   0.0800 
 40 H       -5.6810    -5.5160     2.8080 H     1 <1>   0.0800 
 41 H       -5.5890    -7.0860    -0.0200 H     1 <1>   0.0800 
 42 H       -6.8170    -6.9040     1.2240 H     1 <1>   0.0800 
 43 H       -8.5320    -4.7050     0.7430 H     1 <1>   0.0800 
 44 H       -8.1850    -3.9340    -0.7920 H     1 <1>   0.0800 
 45 H       -7.1800    -7.4160    -1.6810 H     1 <1>   0.0800 
 46 H       -8.6680    -5.8420    -1.9930 H     1 <1>   0.0800 
 47 H       -8.4160    -8.4910     0.8380 H     1 <1>   0.0800 
 48 H       -7.5850    -9.3500    -0.4330 H     1 <1>   0.0800 
 49 H      -10.7600    -5.6500    -0.8630 H     1 <1>   0.0800 
 50 H      -10.1450    -6.4080     0.5810 H     1 <1>   0.0800 
 51 H       -9.1430   -10.4680    -2.0570 H     1 <1>   0.0800 
 52 H      -10.8460   -10.2290    -1.7410 H     1 <1>   0.0800 
 53 H       -9.8050   -10.8320    -0.4720 H     1 <1>   0.0800 
@<TRIPOS>BOND
  1   1   2  1   
  2   2   3  ar  
  3   2   4  ar  
  4   3   5  ar  
  5   3   6  1   
  6   4   7  ar  
  7   4  28  1   
  8   5   8  1   
  9   5   9  ar  
 10   6  29  1   
 11   6  30  1   
 12   6  31  1   
 13   7   9  ar  
 14   7  32  1   
 15   8  10  am  
 16   8  33  1   
 17   9  34  1   
 18  10  11  2   
 19  10  12  1   
 20  12  13  1   
 21  12  35  1   
 22  12  36  1   
 23  13  14  2   
 24  13  15  am  
 25  15  16  1   
 26  15  17  1   
 27  16  18  1   
 28  16  19  1   
 29  16  37  1   
 30  17  38  1   
 31  17  39  1   
 32  17  40  1   
 33  18  20  1   
 34  18  41  1   
 35  18  42  1   
 36  19  21  1   
 37  19  43  1   
 38  19  44  1   
 39  20  21  1   
 40  20  22  1   
 41  20  45  1   
 42  21  23  1   
 43  21  46  1   
 44  22  24  1   
 45  22  47  1   
 46  22  48  1   
 47  23  25  1   
 48  23  49  1   
 49  23  50  1   
 50  24  25  am  
 51  24  26  1   
 52  25  27  2   
 53  26  51  1   
 54  26  52  1   
 55  26  53  1   
@<TRIPOS>SUBSTRUCTURE
  1 ****  16 GROUP 4 **** **** 0

# MOE 2024.06 (io_trps.svl 2023.06)
