@<TRIPOS>MOLECULE
NONAME
31 31 1 0 0 
SMALL
USER_CHARGES


@<TRIPOS>ATOM
  1 F       -0.2950     2.0960    -0.4250 F     1 <1>  -0.3400 
  2 C        0.6490     2.2640     0.5000 C.3   1 <1>   1.2010 
  3 F        0.0270     2.7500     1.5730 F     1 <1>  -0.3400 
  4 F        1.0420     1.0360     0.8380 F     1 <1>  -0.3400 
  5 C        1.8140     3.1760     0.0090 C.2   1 <1>   0.3350 
  6 N        3.0450     2.8250    -0.0760 N.2   1 <1>  -0.4100 
  7 N        1.6270     4.4470    -0.3800 N.2   1 <1>  -0.5650 
  8 O        3.7200     3.8450    -0.5090 O.3   1 <1>  -0.0190 
  9 C        2.8230     4.7840    -0.6650 C.2   1 <1>   0.2980 
 10 C        3.2650     6.1540    -1.1750 C.3   1 <1>   0.2900 
 11 N        4.1100     6.8820    -0.1960 N.3   1 <1>  -0.8100 
 12 C        3.8200     8.3480    -0.1090 C.3   1 <1>   0.2510 
 13 C        5.5180     6.4560    -0.1950 C.3   1 <1>   0.1100 
 14 C        4.9750     9.2800     0.3580 C.2   1 <1>   0.5690 
 15 C        2.5840     8.5090     0.7880 C.3   1 <1>  -0.2400 
 16 C        5.9390     6.1680     1.2410 C.3   1 <1>  -0.2400 
 17 O        5.1290     9.5670     1.5190 O.2   1 <1>  -0.5700 
 18 N        5.8190     9.8120    -0.5540 N.am  1 <1>  -0.8000 
 19 H        2.3740     6.7180    -1.3790 H     1 <1>   0.0800 
 20 H        3.7960     6.0380    -2.1030 H     1 <1>   0.0800 
 21 H        3.5530     8.6920    -1.0920 H     1 <1>   0.0800 
 22 H        6.1550     7.1990    -0.6400 H     1 <1>   0.0800 
 23 H        5.6370     5.5490    -0.7640 H     1 <1>   0.0800 
 24 H        2.8050     8.1450     1.7750 H     1 <1>   0.0800 
 25 H        1.7400     7.9740     0.3970 H     1 <1>   0.0800 
 26 H        2.3220     9.5490     0.8650 H     1 <1>   0.0800 
 27 H        5.8600     7.0500     1.8500 H     1 <1>   0.0800 
 28 H        6.9590     5.8320     1.2620 H     1 <1>   0.0800 
 29 H        5.3160     5.3980     1.6590 H     1 <1>   0.0800 
 30 H        6.5670    10.4250    -0.2270 H     1 <1>   0.3700 
 31 H        5.7840     9.6230    -1.5540 H     1 <1>   0.3700 
@<TRIPOS>BOND
  1   1   2  1   
  2   2   3  1   
  3   2   4  1   
  4   2   5  1   
  5   5   6  2   
  6   5   7  1   
  7   6   8  1   
  8   7   9  2   
  9   8   9  1   
 10   9  10  1   
 11  10  11  1   
 12  10  19  1   
 13  10  20  1   
 14  11  12  1   
 15  11  13  1   
 16  12  14  1   
 17  12  15  1   
 18  12  21  1   
 19  13  16  1   
 20  13  22  1   
 21  13  23  1   
 22  14  17  2   
 23  14  18  am  
 24  15  24  1   
 25  15  25  1   
 26  15  26  1   
 27  16  27  1   
 28  16  28  1   
 29  16  29  1   
 30  18  30  1   
 31  18  31  1   
@<TRIPOS>SUBSTRUCTURE
  1 ****   9 GROUP 4 **** **** 0

# MOE 2024.06 (io_trps.svl 2023.06)
