@<TRIPOS>MOLECULE
NONAME
47 50 1 0 0 
SMALL
USER_CHARGES


@<TRIPOS>ATOM
  1 S        1.1270     0.4770     0.6690 S.3   1 <1>  -0.3320 
  2 C        2.3140    -0.8440     0.3900 C.ar  1 <1>   0.4120 
  3 C       -0.4760    -0.1670     0.0040 C.3   1 <1>   0.0700 
  4 N        1.8040    -1.8880    -0.2460 N.ar  1 <1>  -0.6200 
  5 C        3.6350    -0.7100     0.8390 C.ar  1 <1>   0.0860 
  6 C       -1.5520     0.8910     0.2340 C.3   1 <1>  -0.0160 
  7 C        2.6390    -2.8910    -0.4500 C.ar  1 <1>   0.1600 
  8 C        4.1640     0.4570     1.5140 C.2   1 <1>   0.5440 
  9 C        4.4720    -1.7960     0.6070 C.ar  1 <1>  -0.1500 
 10 C       -2.8940     0.3950    -0.2800 C.ar  1 <1>  -0.1440 
 11 C        3.9620    -2.8960    -0.0470 C.ar  1 <1>  -0.1500 
 12 O        4.9300     0.3210     2.4470 O.2   1 <1>  -0.5700 
 13 N        3.8790     1.7270     1.1100 N.am  1 <1>  -0.7300 
 14 C       -3.2830     0.6520    -1.5850 C.ar  1 <1>  -0.1500 
 15 C       -3.7370    -0.3240     0.5530 C.ar  1 <1>  -0.1500 
 16 C        4.4410     2.9610     1.7210 C.3   1 <1>   0.3200 
 17 C       -4.5030     0.1950    -2.0540 C.ar  1 <1>  -0.1500 
 18 C       -4.9570    -0.7820     0.0860 C.ar  1 <1>  -0.1500 
 19 C        4.7780     4.0000     0.6630 C.2   1 <1>   0.2980 
 20 C       -5.3410    -0.5220    -1.2180 C.ar  1 <1>  -0.1500 
 21 O        5.7780     3.7640    -0.1490 O.3   1 <1>  -0.0190 
 22 N        4.1700     5.1050     0.4780 N.2   1 <1>  -0.5650 
 23 N        5.8110     4.8100    -0.9160 N.2   1 <1>  -0.4100 
 24 C        4.8720     5.5830    -0.5390 C.2   1 <1>   0.4300 
 25 C        4.5350     6.9320    -1.1560 C.3   1 <1>  -0.0140 
 26 C        5.5870     7.7930    -1.7920 C.3   1 <1>  -0.2000 
 27 C        4.9740     8.2010    -0.4870 C.3   1 <1>  -0.2000 
 28 H       -0.7010    -1.0790     0.5280 H     1 <1>   0.0800 
 29 H       -0.3370    -0.3690    -1.0440 H     1 <1>   0.0800 
 30 H       -1.2800     1.7990    -0.2750 H     1 <1>   0.0800 
 31 H       -1.6250     1.1080     1.2850 H     1 <1>   0.0800 
 32 H        2.2500    -3.7560    -0.9630 H     1 <1>   0.1500 
 33 H        5.4970    -1.7700     0.9370 H     1 <1>   0.1500 
 34 H        4.5840    -3.7520    -0.2430 H     1 <1>   0.1500 
 35 H        3.1200     1.8800     0.4390 H     1 <1>   0.3700 
 36 H       -2.6390     1.2070    -2.2440 H     1 <1>   0.1500 
 37 H       -3.4480    -0.5330     1.5680 H     1 <1>   0.1500 
 38 H        5.3330     2.7290     2.2780 H     1 <1>   0.0800 
 39 H        3.7180     3.3730     2.4020 H     1 <1>   0.0800 
 40 H       -4.8000     0.3980    -3.0680 H     1 <1>   0.1500 
 41 H       -5.6070    -1.3400     0.7370 H     1 <1>   0.1500 
 42 H       -6.2890    -0.8780    -1.5820 H     1 <1>   0.1500 
 43 H        3.5610     6.9260    -1.6090 H     1 <1>   0.1000 
 44 H        5.3330     8.3400    -2.6830 H     1 <1>   0.1000 
 45 H        6.6050     7.4410    -1.8000 H     1 <1>   0.1000 
 46 H        5.5650     8.1280     0.4090 H     1 <1>   0.1000 
 47 H        4.2900     9.0320    -0.4660 H     1 <1>   0.1000 
@<TRIPOS>BOND
  1   1   2  1   
  2   1   3  1   
  3   2   4  ar  
  4   2   5  ar  
  5   3   6  1   
  6   3  28  1   
  7   3  29  1   
  8   4   7  ar  
  9   5   8  1   
 10   5   9  ar  
 11   6  10  1   
 12   6  30  1   
 13   6  31  1   
 14   7  11  ar  
 15   7  32  1   
 16   8  12  2   
 17   8  13  am  
 18   9  11  ar  
 19   9  33  1   
 20  10  14  ar  
 21  10  15  ar  
 22  11  34  1   
 23  13  16  1   
 24  13  35  1   
 25  14  17  ar  
 26  14  36  1   
 27  15  18  ar  
 28  15  37  1   
 29  16  19  1   
 30  16  38  1   
 31  16  39  1   
 32  17  20  ar  
 33  17  40  1   
 34  18  20  ar  
 35  18  41  1   
 36  19  21  1   
 37  19  22  2   
 38  20  42  1   
 39  21  23  1   
 40  22  24  1   
 41  23  24  2   
 42  24  25  1   
 43  25  26  1   
 44  25  27  1   
 45  25  43  1   
 46  26  27  1   
 47  26  44  1   
 48  26  45  1   
 49  27  46  1   
 50  27  47  1   
@<TRIPOS>SUBSTRUCTURE
  1 ****   1 GROUP 4 **** **** 0

# MOE 2024.06 (io_trps.svl 2023.06)
