@<TRIPOS>MOLECULE
NONAME
46 49 1 0 0 
SMALL
USER_CHARGES


@<TRIPOS>ATOM
  1 O       -1.3260    -1.2110    -1.2130 O.2   1 <1>  -0.5700 
  2 C       -1.7040    -1.9700    -0.3540 C.2   1 <1>   0.5690 
  3 N       -1.1480    -3.1950    -0.1990 N.am  1 <1>  -0.7300 
  4 C       -2.8370    -1.5610     0.5970 C.3   1 <1>  -0.0190 
  5 C       -0.0880    -3.7570    -1.0480 C.3   1 <1>   0.3200 
  6 C       -3.1540    -0.0540     0.5550 C.3   1 <1>  -0.1600 
  7 C       -4.1630    -2.2360     0.1980 C.3   1 <1>  -0.1600 
  8 C        1.0940    -4.0600    -0.1570 C.2   1 <1>  -0.3320 
  9 C       -4.1120     0.0970    -0.6400 C.3   1 <1>   0.0000 
 10 C       -4.9330    -1.2150    -0.6510 C.3   1 <1>   0.0000 
 11 N        1.9130    -3.1090     0.3460 N.pl3 1 <1>   0.3140 
 12 C        1.5500    -5.2490     0.2960 C.2   1 <1>  -0.0860 
 13 C       -5.4640     0.8550    -0.5190 C.3   1 <1>   0.4720 
 14 C       -6.0760    -0.4400     0.0720 C.3   1 <1>   0.0000 
 15 N        2.8740    -3.6470     1.1150 N.2   1 <1>  -0.7070 
 16 C        1.8380    -1.6560     0.1340 C.3   1 <1>   0.0160 
 17 C        2.6510    -4.9250     1.0800 C.2   1 <1>   0.1390 
 18 C        1.0230    -6.6490     0.0500 C.3   1 <1>  -0.0140 
 19 N       -5.4440     1.9940     0.4160 N.4   1 <1>  -0.8220 
 20 C        1.9400    -7.6880    -0.5160 C.3   1 <1>  -0.2000 
 21 C        0.8240    -7.1440    -1.3500 C.3   1 <1>  -0.2000 
 22 H       -1.3950    -3.7900     0.5920 H     1 <1>   0.3700 
 23 H       -2.5500    -1.8510     1.5920 H     1 <1>   0.0800 
 24 H       -0.4500    -4.6590    -1.5090 H     1 <1>   0.0800 
 25 H        0.1910    -3.0680    -1.8280 H     1 <1>   0.0800 
 26 H       -3.6260     0.2170     1.4820 H     1 <1>   0.0800 
 27 H       -2.2630     0.5400     0.4320 H     1 <1>   0.0800 
 28 H       -3.9870    -3.1360    -0.3670 H     1 <1>   0.0800 
 29 H       -4.7290    -2.4970     1.0750 H     1 <1>   0.0800 
 30 H       -3.6140     0.2490    -1.5810 H     1 <1>   0.0000 
 31 H       -5.1900    -1.5390    -1.6450 H     1 <1>   0.0000 
 32 H       -5.8800     1.1120    -1.4770 H     1 <1>   0.0000 
 33 H       -6.0140    -0.4890     1.1460 H     1 <1>   0.0000 
 34 H       -7.0510    -0.6700    -0.3170 H     1 <1>   0.0000 
 35 H        1.6990    -1.4510    -0.9100 H     1 <1>   0.0800 
 36 H        2.7520    -1.2040     0.4720 H     1 <1>   0.0800 
 37 H        1.0120    -1.2620     0.6950 H     1 <1>   0.0800 
 38 H        3.2560    -5.6460     1.6010 H     1 <1>   0.1500 
 39 H        0.3250    -6.9690     0.8040 H     1 <1>   0.1000 
 40 H       -5.0720     1.7060     1.3240 H     1 <1>   0.4500 
 41 H       -6.3920     2.3590     0.5460 H     1 <1>   0.4500 
 42 H       -4.8530     2.7420     0.0370 H     1 <1>   0.4500 
 43 H        2.9500    -7.4070    -0.7630 H     1 <1>   0.1000 
 44 H        1.8700    -8.6950    -0.1450 H     1 <1>   0.1000 
 45 H       -0.0220    -7.7760    -1.5600 H     1 <1>   0.1000 
 46 H        1.0780    -6.5030    -2.1760 H     1 <1>   0.1000 
@<TRIPOS>BOND
  1   1   2  2   
  2   2   3  am  
  3   2   4  1   
  4   3   5  1   
  5   3  22  1   
  6   4   6  1   
  7   4   7  1   
  8   4  23  1   
  9   5   8  1   
 10   5  24  1   
 11   5  25  1   
 12   6   9  1   
 13   6  26  1   
 14   6  27  1   
 15   7  10  1   
 16   7  28  1   
 17   7  29  1   
 18   8  11  1   
 19   8  12  2   
 20   9  10  1   
 21   9  13  1   
 22   9  30  1   
 23  10  14  1   
 24  10  31  1   
 25  11  15  1   
 26  11  16  1   
 27  12  17  1   
 28  12  18  1   
 29  13  14  1   
 30  13  19  1   
 31  13  32  1   
 32  14  33  1   
 33  14  34  1   
 34  15  17  2   
 35  16  35  1   
 36  16  36  1   
 37  16  37  1   
 38  17  38  1   
 39  18  20  1   
 40  18  21  1   
 41  18  39  1   
 42  19  40  1   
 43  19  41  1   
 44  19  42  1   
 45  20  21  1   
 46  20  43  1   
 47  20  44  1   
 48  21  45  1   
 49  21  46  1   
@<TRIPOS>SUBSTRUCTURE
  1 ****   3 GROUP 4 **** **** 0

# MOE 2024.06 (io_trps.svl 2023.06)
