@<TRIPOS>MOLECULE
NONAME
48 51 1 0 0 
SMALL
USER_CHARGES


@<TRIPOS>ATOM
  1 F       -0.0120     0.3040    -0.7840 F     1 <1>  -0.3400 
  2 C        1.2270    -0.1740    -0.6750 C.3   1 <1>   1.1640 
  3 F        1.7790     0.5050     0.3290 F     1 <1>  -0.3400 
  4 F        1.8630     0.2240    -1.7750 F     1 <1>  -0.3400 
  5 C        1.3030    -1.7160    -0.4710 C.ar  1 <1>   0.1660 
  6 N        0.1840    -2.4160    -0.5850 N.ar  1 <1>  -0.6200 
  7 C        2.5040    -2.3570    -0.1780 C.ar  1 <1>  -0.1440 
  8 C        0.2570    -3.7250    -0.4070 C.ar  1 <1>   0.7200 
  9 C        2.4580    -3.7290     0.0030 C.ar  1 <1>   0.1660 
 10 C        3.8330    -1.6010    -0.0370 C.3   1 <1>  -0.0170 
 11 N        1.3480    -4.4100    -0.1090 N.ar  1 <1>  -0.6200 
 12 N       -0.9080    -4.4340    -0.5410 N.pl3 1 <1>  -0.8380 
 13 C        3.6920    -4.5600     0.3290 C.3   1 <1>  -0.0170 
 14 C        5.0630    -2.5110    -0.1140 C.3   1 <1>  -0.1600 
 15 C       -2.2600    -3.8230    -0.6110 C.3   1 <1>   0.2090 
 16 C       -1.0130    -5.8950    -0.3020 C.3   1 <1>   0.2090 
 17 C        4.8850    -3.7230     0.7990 C.3   1 <1>  -0.1600 
 18 C       -3.1650    -4.8500     0.0690 C.3   1 <1>   0.2000 
 19 C       -2.5170    -6.1920    -0.2900 C.3   1 <1>  -0.0800 
 20 O       -3.0830    -4.6530     1.4410 O.3   1 <1>  -0.6800 
 21 C       -2.9120    -7.3770     0.6090 C.3   1 <1>  -0.0170 
 22 C       -2.2610    -8.6660     0.1320 C.ar  1 <1>  -0.1430 
 23 C       -1.1080    -9.1600     0.7070 C.ar  1 <1>  -0.1500 
 24 C       -2.7890    -9.4060    -0.9060 C.ar  1 <1>  -0.1500 
 25 C       -0.5530   -10.3350     0.2280 C.ar  1 <1>   0.1600 
 26 C       -2.1550   -10.5700    -1.3090 C.ar  1 <1>   0.1600 
 27 N       -1.0480   -11.0520    -0.7670 N.ar  1 <1>  -0.6200 
 28 H        3.9330    -0.8550    -0.8050 H     1 <1>   0.0800 
 29 H        3.8400    -1.0980     0.9150 H     1 <1>   0.0800 
 30 H        3.4440    -5.2800     1.0890 H     1 <1>   0.0800 
 31 H        3.9650    -5.1040    -0.5580 H     1 <1>   0.0800 
 32 H        5.2030    -2.8430    -1.1290 H     1 <1>   0.0800 
 33 H        5.9400    -1.9580     0.1780 H     1 <1>   0.0800 
 34 H       -2.3070    -2.8660    -0.1190 H     1 <1>   0.0800 
 35 H       -2.5360    -3.7080    -1.6450 H     1 <1>   0.0800 
 36 H       -0.5070    -6.4460    -1.0780 H     1 <1>   0.0800 
 37 H       -0.5680    -6.1310     0.6500 H     1 <1>   0.0800 
 38 H        4.7140    -3.3910     1.8100 H     1 <1>   0.0800 
 39 H        5.7750    -4.3270     0.7920 H     1 <1>   0.0800 
 40 H       -4.1960    -4.7740    -0.2300 H     1 <1>   0.0800 
 41 H       -2.7990    -6.4270    -1.3010 H     1 <1>   0.0800 
 42 H       -2.1430    -4.4820     1.6600 H     1 <1>   0.4000 
 43 H       -3.9820    -7.4920     0.5980 H     1 <1>   0.0800 
 44 H       -2.6220    -7.1870     1.6280 H     1 <1>   0.0800 
 45 H       -0.6350    -8.6450     1.5230 H     1 <1>   0.1500 
 46 H       -3.6860    -9.0900    -1.4060 H     1 <1>   0.1500 
 47 H        0.3480   -10.7040     0.6890 H     1 <1>   0.1500 
 48 H       -2.5820   -11.1350    -2.1200 H     1 <1>   0.1500 
@<TRIPOS>BOND
  1   1   2  1   
  2   2   3  1   
  3   2   4  1   
  4   2   5  1   
  5   5   6  ar  
  6   5   7  ar  
  7   6   8  ar  
  8   7   9  ar  
  9   7  10  1   
 10   8  11  ar  
 11   8  12  1   
 12   9  11  ar  
 13   9  13  1   
 14  10  14  1   
 15  10  28  1   
 16  10  29  1   
 17  12  15  1   
 18  12  16  1   
 19  13  17  1   
 20  13  30  1   
 21  13  31  1   
 22  14  17  1   
 23  14  32  1   
 24  14  33  1   
 25  15  18  1   
 26  15  34  1   
 27  15  35  1   
 28  16  19  1   
 29  16  36  1   
 30  16  37  1   
 31  17  38  1   
 32  17  39  1   
 33  18  19  1   
 34  18  20  1   
 35  18  40  1   
 36  19  21  1   
 37  19  41  1   
 38  20  42  1   
 39  21  22  1   
 40  21  43  1   
 41  21  44  1   
 42  22  23  ar  
 43  22  24  ar  
 44  23  25  ar  
 45  23  45  1   
 46  24  26  ar  
 47  24  46  1   
 48  25  27  ar  
 49  25  47  1   
 50  26  27  ar  
 51  26  48  1   
@<TRIPOS>SUBSTRUCTURE
  1 ****   8 GROUP 4 **** **** 0

# MOE 2024.06 (io_trps.svl 2023.06)
