@<TRIPOS>MOLECULE
NONAME
49 51 1 0 0 
SMALL
USER_CHARGES


@<TRIPOS>ATOM
  1 CL      -4.9740    -5.5640     4.1720 Cl    1 <1>  -0.1240 
  2 C       -4.4960    -4.4060     2.9580 C.2   1 <1>   0.2640 
  3 O       -4.9400    -4.5740     1.7320 O.3   1 <1>  -0.2800 
  4 C       -3.7170    -3.3120     3.0710 C.2   1 <1>  -0.1500 
  5 C       -4.4530    -3.5750     1.0120 C.2   1 <1>  -0.0400 
  6 C       -3.6900    -2.7600     1.7810 C.2   1 <1>  -0.1500 
  7 C       -4.8210    -3.5080    -0.4620 C.3   1 <1>   0.5230 
  8 N       -6.2910    -3.6620    -0.5850 N.4   1 <1>  -0.9590 
  9 C       -6.7610    -4.0130    -1.9600 C.3   1 <1>   0.3430 
 10 C       -7.1010    -2.6120     0.0940 C.3   1 <1>   0.3430 
 11 C       -8.1730    -4.6380    -1.9230 C.3   1 <1>   0.1400 
 12 C       -8.1390    -3.2590     1.0220 C.3   1 <1>  -0.1600 
 13 N       -8.5330    -5.1250    -0.5510 N.am  1 <1>  -0.6600 
 14 C       -9.1970    -4.1270     0.3230 C.3   1 <1>   0.1400 
 15 C       -7.9650    -6.2730    -0.0380 C.2   1 <1>   0.5440 
 16 O       -6.8910    -6.5960    -0.5140 O.2   1 <1>  -0.5700 
 17 C       -8.5040    -6.9880     1.1020 C.ar  1 <1>   0.0860 
 18 C       -9.8500    -7.3700     1.1940 C.ar  1 <1>   0.0830 
 19 C       -7.6580    -7.3150     2.1640 C.ar  1 <1>  -0.1500 
 20 O      -10.6660    -7.0730     0.1530 O.3   1 <1>  -0.3620 
 21 C      -10.3140    -8.0360     2.3280 C.ar  1 <1>  -0.1500 
 22 C       -8.1220    -7.9750     3.2840 C.ar  1 <1>  -0.1500 
 23 C      -11.9910    -7.5430     0.0610 C.3   1 <1>   0.1200 
 24 C       -9.4550    -8.3340     3.3670 C.ar  1 <1>  -0.1500 
 25 C      -12.5600    -7.0780    -1.2750 C.3   1 <1>  -0.2400 
 26 H       -3.2190    -2.9300     3.9450 H     1 <1>   0.1500 
 27 H       -3.1520    -1.8670     1.5110 H     1 <1>   0.1500 
 28 H       -4.3290    -4.3170    -0.9770 H     1 <1>   0.0800 
 29 H       -4.4980    -2.5730    -0.8880 H     1 <1>   0.0800 
 30 H       -6.4910    -4.5400    -0.0630 H     1 <1>   0.4500 
 31 H       -6.0950    -4.7490    -2.3800 H     1 <1>   0.0800 
 32 H       -6.7530    -3.1500    -2.6050 H     1 <1>   0.0800 
 33 H       -7.5940    -1.9910    -0.6370 H     1 <1>   0.0800 
 34 H       -6.4570    -1.9840     0.6880 H     1 <1>   0.0800 
 35 H       -8.2080    -5.4660    -2.6110 H     1 <1>   0.0800 
 36 H       -8.8990    -3.9180    -2.2560 H     1 <1>   0.0800 
 37 H       -8.6530    -2.4740     1.5470 H     1 <1>   0.0800 
 38 H       -7.6350    -3.8460     1.7690 H     1 <1>   0.0800 
 39 H       -9.8580    -3.5140    -0.2660 H     1 <1>   0.0800 
 40 H       -9.8000    -4.6280     1.0620 H     1 <1>   0.0800 
 41 H       -6.6170    -7.0490     2.1040 H     1 <1>   0.1500 
 42 H      -11.3420    -8.3320     2.4210 H     1 <1>   0.1500 
 43 H       -7.4480    -8.2130     4.0900 H     1 <1>   0.1500 
 44 H      -12.5580    -7.1340     0.8790 H     1 <1>   0.0800 
 45 H      -11.9760    -8.6190     0.1150 H     1 <1>   0.0800 
 46 H       -9.8180    -8.8490     4.2410 H     1 <1>   0.1500 
 47 H      -12.5550    -6.0040    -1.3270 H     1 <1>   0.0800 
 48 H      -13.5720    -7.4230    -1.3790 H     1 <1>   0.0800 
 49 H      -11.9760    -7.4800    -2.0850 H     1 <1>   0.0800 
@<TRIPOS>BOND
  1   1   2  1   
  2   2   3  1   
  3   2   4  2   
  4   3   5  1   
  5   4   6  1   
  6   4  26  1   
  7   5   6  2   
  8   5   7  1   
  9   6  27  1   
 10   7   8  1   
 11   7  28  1   
 12   7  29  1   
 13   8   9  1   
 14   8  10  1   
 15   8  30  1   
 16   9  11  1   
 17   9  31  1   
 18   9  32  1   
 19  10  12  1   
 20  10  33  1   
 21  10  34  1   
 22  11  13  1   
 23  11  35  1   
 24  11  36  1   
 25  12  14  1   
 26  12  37  1   
 27  12  38  1   
 28  13  14  1   
 29  13  15  am  
 30  14  39  1   
 31  14  40  1   
 32  15  16  2   
 33  15  17  1   
 34  17  18  ar  
 35  17  19  ar  
 36  18  20  1   
 37  18  21  ar  
 38  19  22  ar  
 39  19  41  1   
 40  20  23  1   
 41  21  24  ar  
 42  21  42  1   
 43  22  24  ar  
 44  22  43  1   
 45  23  25  1   
 46  23  44  1   
 47  23  45  1   
 48  24  46  1   
 49  25  47  1   
 50  25  48  1   
 51  25  49  1   
@<TRIPOS>SUBSTRUCTURE
  1 ****  15 GROUP 4 **** **** 0

# MOE 2024.06 (io_trps.svl 2023.06)
