@<TRIPOS>MOLECULE
NONAME
49 51 1 0 0 
SMALL
USER_CHARGES


@<TRIPOS>ATOM
  1 S       -0.7480     0.9100     1.2690 S.o2  1 <1>   1.4470 
  2 O       -1.3630     2.1580     1.6630 O.2   1 <1>  -0.6500 
  3 O       -0.7610    -0.2080     2.1900 O.2   1 <1>  -0.6500 
  4 N       -1.4850     0.4100    -0.1770 N.am  1 <1>  -0.8490 
  5 C        0.9620     1.2420     0.7490 C.ar  1 <1>  -0.0090 
  6 C       -2.9460     0.4530    -0.1220 C.3   1 <1>   0.1960 
  7 C       -1.1600    -0.9660    -0.5520 C.3   1 <1>   0.1960 
  8 C        2.0450     0.7130     1.4390 C.ar  1 <1>  -0.1500 
  9 C        1.2320     2.0440    -0.3510 C.ar  1 <1>  -0.1500 
 10 C       -3.3770    -0.8920     0.4670 C.3   1 <1>  -0.0800 
 11 C       -2.3160    -1.8620    -0.0810 C.3   1 <1>  -0.0800 
 12 C        3.3460     0.9720     1.0410 C.ar  1 <1>  -0.1500 
 13 C        2.5330     2.3040    -0.7500 C.ar  1 <1>  -0.1500 
 14 C       -4.8570    -1.3130     0.2430 C.3   1 <1>   0.2800 
 15 C       -2.8500    -2.7410    -1.2240 C.3   1 <1>  -0.1600 
 16 C        3.6160     1.7710    -0.0630 C.ar  1 <1>  -0.0090 
 17 O       -5.2900    -0.8800    -0.9960 O.3   1 <1>  -0.6800 
 18 C       -4.9590    -2.8500     0.2520 C.3   1 <1>  -0.1600 
 19 C       -5.8280    -0.7310     1.2960 C.3   1 <1>  -0.1600 
 20 C       -4.0850    -3.5550    -0.8060 C.3   1 <1>  -0.1600 
 21 S        5.3220     2.1300    -0.5680 S.o2  1 <1>   1.4470 
 22 C       -5.9020     0.8020     1.3860 C.3   1 <1>  -0.2400 
 23 O        5.3880     2.6660    -1.9050 O.2   1 <1>  -0.6500 
 24 O        6.2380     1.1040    -0.1380 O.2   1 <1>  -0.6500 
 25 N        5.7580     3.4270     0.3610 N.am  1 <1>  -0.9780 
 26 H       -3.3050     1.2920     0.4450 H     1 <1>   0.0800 
 27 H       -3.3140     0.5490    -1.1300 H     1 <1>   0.0800 
 28 H       -1.0770    -1.0090    -1.6250 H     1 <1>   0.0800 
 29 H       -0.2210    -1.2850    -0.1310 H     1 <1>   0.0800 
 30 H        1.8690     0.0890     2.3010 H     1 <1>   0.1500 
 31 H        0.4090     2.4710    -0.9010 H     1 <1>   0.1500 
 32 H       -3.2260    -0.8380     1.5300 H     1 <1>   0.0800 
 33 H       -1.9700    -2.4990     0.7150 H     1 <1>   0.0800 
 34 H        4.1650     0.5480     1.5990 H     1 <1>   0.1500 
 35 H        2.7060     2.9330    -1.6080 H     1 <1>   0.1500 
 36 H       -3.1270    -2.1040    -2.0480 H     1 <1>   0.0800 
 37 H       -2.0810    -3.4080    -1.5750 H     1 <1>   0.0800 
 38 H       -6.1990    -1.1960    -1.1460 H     1 <1>   0.4000 
 39 H       -4.6360    -3.1890     1.2220 H     1 <1>   0.0800 
 40 H       -5.9820    -3.1630     0.1410 H     1 <1>   0.0800 
 41 H       -6.8170    -1.1050     1.0950 H     1 <1>   0.0800 
 42 H       -5.5500    -1.1070     2.2650 H     1 <1>   0.0800 
 43 H       -3.7730    -4.5080    -0.4150 H     1 <1>   0.0800 
 44 H       -4.6760    -3.7470    -1.6860 H     1 <1>   0.0800 
 45 H       -6.0580     1.2390     0.4150 H     1 <1>   0.0800 
 46 H       -5.0000     1.2030     1.8120 H     1 <1>   0.0800 
 47 H       -6.7190     1.0900     2.0220 H     1 <1>   0.0800 
 48 H        5.9530     4.1500    -0.3270 H     1 <1>   0.4200 
 49 H        6.6580     3.1460     0.7430 H     1 <1>   0.4200 
@<TRIPOS>BOND
  1   1   2  2   
  2   1   3  2   
  3   1   4  am  
  4   1   5  1   
  5   4   6  1   
  6   4   7  1   
  7   5   8  ar  
  8   5   9  ar  
  9   6  10  1   
 10   6  26  1   
 11   6  27  1   
 12   7  11  1   
 13   7  28  1   
 14   7  29  1   
 15   8  12  ar  
 16   8  30  1   
 17   9  13  ar  
 18   9  31  1   
 19  10  11  1   
 20  10  14  1   
 21  10  32  1   
 22  11  15  1   
 23  11  33  1   
 24  12  16  ar  
 25  12  34  1   
 26  13  16  ar  
 27  13  35  1   
 28  14  17  1   
 29  14  18  1   
 30  14  19  1   
 31  15  20  1   
 32  15  36  1   
 33  15  37  1   
 34  16  21  1   
 35  17  38  1   
 36  18  20  1   
 37  18  39  1   
 38  18  40  1   
 39  19  22  1   
 40  19  41  1   
 41  19  42  1   
 42  20  43  1   
 43  20  44  1   
 44  21  23  2   
 45  21  24  2   
 46  21  25  am  
 47  22  45  1   
 48  22  46  1   
 49  22  47  1   
 50  25  48  1   
 51  25  49  1   
@<TRIPOS>SUBSTRUCTURE
  1 ****   4 GROUP 4 **** **** 0

# MOE 2024.06 (io_trps.svl 2023.06)
