@<TRIPOS>MOLECULE
NONAME
43 46 1 0 0 
SMALL
USER_CHARGES


@<TRIPOS>ATOM
  1 CL       0.9080     0.6910    -2.0330 Cl    1 <1>  -0.1770 
  2 C        2.1460     1.4940    -1.1000 C.ar  1 <1>   0.1770 
  3 C        2.0950     2.8670    -0.9510 C.ar  1 <1>  -0.1500 
  4 C        3.1560     0.7400    -0.5290 C.ar  1 <1>  -0.1500 
  5 C        3.0750     3.5180    -0.2110 C.ar  1 <1>   0.0280 
  6 C        4.1360     1.3790     0.2100 C.ar  1 <1>  -0.1500 
  7 C        4.0930     2.7560     0.3710 C.ar  1 <1>   0.0830 
  8 C        3.1020     4.9420    -0.0270 C.2   1 <1>  -0.1780 
  9 O        5.0770     3.3480     1.0940 O.3   1 <1>  -0.3630 
 10 C        3.9620     5.5050     0.8360 C.2   1 <1>  -0.2760 
 11 C        4.8950     4.6290     1.6760 C.3   1 <1>   0.2580 
 12 C        4.0710     6.9960     1.0690 C.3   1 <1>   0.4810 
 13 N        5.3630     7.4660     0.5110 N.4   1 <1>  -0.9590 
 14 C        5.6960     8.8780     0.9260 C.3   1 <1>   0.3430 
 15 C        5.5120     7.1550    -0.9550 C.3   1 <1>   0.3430 
 16 C        7.1580     9.3220     0.6290 C.3   1 <1>   0.2200 
 17 C        6.9580     7.2390    -1.4650 C.3   1 <1>  -0.0190 
 18 N        7.3330     9.5900    -0.8160 N.am  1 <1>  -0.7300 
 19 C        8.2270     8.3140     1.1230 C.3   1 <1>   0.1200 
 20 C        7.2640     8.6750    -1.7980 C.2   1 <1>   0.5690 
 21 C        8.0510     6.6190    -0.5650 C.3   1 <1>   0.1200 
 22 O        7.9290     6.9810     0.7860 O.3   1 <1>  -0.5600 
 23 O        7.4110     9.0010    -2.9430 O.2   1 <1>  -0.5700 
 24 H        1.2960     3.4180    -1.4120 H     1 <1>   0.1500 
 25 H        3.1700    -0.3260    -0.6630 H     1 <1>   0.1500 
 26 H        4.9320     0.8160     0.6640 H     1 <1>   0.1500 
 27 H        2.4020     5.5060    -0.6220 H     1 <1>   0.1500 
 28 H        4.4860     4.4810     2.6610 H     1 <1>   0.0800 
 29 H        5.8740     5.0630     1.7680 H     1 <1>   0.0800 
 30 H        4.0140     7.2050     2.1250 H     1 <1>   0.0800 
 31 H        3.2560     7.5020     0.5760 H     1 <1>   0.0800 
 32 H        6.1180     6.8980     0.9400 H     1 <1>   0.4500 
 33 H        5.0220     9.5690     0.4470 H     1 <1>   0.0800 
 34 H        5.5440     8.9630     1.9890 H     1 <1>   0.0800 
 35 H        5.1720     6.1480    -1.1330 H     1 <1>   0.0800 
 36 H        4.8890     7.8140    -1.5370 H     1 <1>   0.0800 
 37 H        7.3280    10.2540     1.1410 H     1 <1>   0.0800 
 38 H        6.9890     6.7100    -2.4000 H     1 <1>   0.0800 
 39 H        7.5990    10.5380    -1.1060 H     1 <1>   0.3700 
 40 H        8.2800     8.3540     2.1980 H     1 <1>   0.0800 
 41 H        9.2020     8.5660     0.7380 H     1 <1>   0.0800 
 42 H        9.0350     6.8930    -0.9110 H     1 <1>   0.0800 
 43 H        7.9770     5.5450    -0.6050 H     1 <1>   0.0800 
@<TRIPOS>BOND
  1   1   2  1   
  2   2   3  ar  
  3   2   4  ar  
  4   3   5  ar  
  5   3  24  1   
  6   4   6  ar  
  7   4  25  1   
  8   5   7  ar  
  9   5   8  1   
 10   6   7  ar  
 11   6  26  1   
 12   7   9  1   
 13   8  10  2   
 14   8  27  1   
 15   9  11  1   
 16  10  11  1   
 17  10  12  1   
 18  11  28  1   
 19  11  29  1   
 20  12  13  1   
 21  12  30  1   
 22  12  31  1   
 23  13  14  1   
 24  13  15  1   
 25  13  32  1   
 26  14  16  1   
 27  14  33  1   
 28  14  34  1   
 29  15  17  1   
 30  15  35  1   
 31  15  36  1   
 32  16  18  1   
 33  16  19  1   
 34  16  37  1   
 35  17  20  1   
 36  17  21  1   
 37  17  38  1   
 38  18  20  am  
 39  18  39  1   
 40  19  22  1   
 41  19  40  1   
 42  19  41  1   
 43  20  23  2   
 44  21  22  1   
 45  21  42  1   
 46  21  43  1   
@<TRIPOS>SUBSTRUCTURE
  1 ****  10 GROUP 4 **** **** 0

# MOE 2024.06 (io_trps.svl 2023.06)
