@<TRIPOS>MOLECULE
NONAME
48 49 1 0 0 
SMALL
USER_CHARGES


@<TRIPOS>ATOM
  1 S       -1.7980     1.9280     0.8390 S.3   1 <1>  -0.0800 
  2 C       -0.2780     1.9780     0.0220 C.2   1 <1>   0.1980 
  3 C       -0.9170     2.1650     2.3090 C.2   1 <1>   0.1980 
  4 N        0.7060     2.1450     0.8120 N.2   1 <1>  -0.3380 
  5 C       -0.2540     1.8360    -1.4930 C.3   1 <1>   0.5230 
  6 N        0.3380     2.2660     2.1200 N.2   1 <1>  -0.3380 
  7 C       -1.6930     2.2260     3.6060 C.3   1 <1>  -0.0600 
  8 N        1.1000     2.2000    -2.0580 N.4   1 <1>  -0.9590 
  9 C        1.2510     3.6550    -2.3990 C.3   1 <1>   0.3430 
 10 C        1.4180     1.3430    -3.2440 C.3   1 <1>   0.2630 
 11 C        1.5590     4.5390    -1.1690 C.3   1 <1>  -0.0800 
 12 C        1.5950     6.0320    -1.5400 C.3   1 <1>  -0.1600 
 13 C        2.8960     4.1810    -0.4860 C.3   1 <1>  -0.1600 
 14 C        1.8750     6.9110    -0.3130 C.3   1 <1>   0.3430 
 15 C        3.1310     5.0550     0.7490 C.3   1 <1>   0.3430 
 16 N        3.1490     6.4930     0.3470 N.4   1 <1>  -0.9590 
 17 C        3.4520     7.3380     1.5540 C.3   1 <1>   0.3430 
 18 C        3.7870     8.7930     1.2040 C.3   1 <1>   0.1200 
 19 O        4.0900     9.4370     2.3930 O.3   1 <1>  -0.5600 
 20 C        4.4400    10.7790     2.2520 C.3   1 <1>   0.0400 
 21 H       -1.0190     2.4560    -1.9280 H     1 <1>   0.0800 
 22 H       -0.4830     0.8090    -1.7280 H     1 <1>   0.0800 
 23 H       -2.3980     3.0370     3.5780 H     1 <1>   0.0800 
 24 H       -1.0190     2.3790     4.4300 H     1 <1>   0.0800 
 25 H       -2.2230     1.3040     3.7600 H     1 <1>   0.0800 
 26 H        1.7700     1.9740    -1.3040 H     1 <1>   0.4500 
 27 H        0.3540     4.0070    -2.8830 H     1 <1>   0.0800 
 28 H        2.0620     3.7700    -3.1010 H     1 <1>   0.0800 
 29 H        0.7210     1.5310    -4.0460 H     1 <1>   0.0800 
 30 H        1.3650     0.2990    -2.9790 H     1 <1>   0.0800 
 31 H        2.4150     1.5500    -3.6000 H     1 <1>   0.0800 
 32 H        0.7570     4.4270    -0.4610 H     1 <1>   0.0800 
 33 H        0.6470     6.3270    -1.9560 H     1 <1>   0.0800 
 34 H        2.3470     6.2200    -2.2880 H     1 <1>   0.0800 
 35 H        3.7180     4.3050    -1.1700 H     1 <1>   0.0800 
 36 H        2.9060     3.1560    -0.1650 H     1 <1>   0.0800 
 37 H        1.0600     6.8170     0.3880 H     1 <1>   0.0800 
 38 H        1.9350     7.9430    -0.6190 H     1 <1>   0.0800 
 39 H        4.0690     4.7870     1.2090 H     1 <1>   0.0800 
 40 H        2.3440     4.8820     1.4670 H     1 <1>   0.0800 
 41 H        3.9220     6.6180    -0.3210 H     1 <1>   0.4500 
 42 H        4.2990     6.9240     2.0760 H     1 <1>   0.0800 
 43 H        2.6090     7.3290     2.2250 H     1 <1>   0.0800 
 44 H        2.9460     9.2940     0.7570 H     1 <1>   0.0800 
 45 H        4.6500     8.8450     0.5620 H     1 <1>   0.0800 
 46 H        4.6530    11.1740     3.2310 H     1 <1>   0.0800 
 47 H        3.6190    11.3220     1.8180 H     1 <1>   0.0800 
 48 H        5.3190    10.8600     1.6350 H     1 <1>   0.0800 
@<TRIPOS>BOND
  1   1   2  1   
  2   1   3  1   
  3   2   4  2   
  4   2   5  1   
  5   3   6  2   
  6   3   7  1   
  7   4   6  1   
  8   5   8  1   
  9   5  21  1   
 10   5  22  1   
 11   7  23  1   
 12   7  24  1   
 13   7  25  1   
 14   8   9  1   
 15   8  10  1   
 16   8  26  1   
 17   9  11  1   
 18   9  27  1   
 19   9  28  1   
 20  10  29  1   
 21  10  30  1   
 22  10  31  1   
 23  11  12  1   
 24  11  13  1   
 25  11  32  1   
 26  12  14  1   
 27  12  33  1   
 28  12  34  1   
 29  13  15  1   
 30  13  35  1   
 31  13  36  1   
 32  14  16  1   
 33  14  37  1   
 34  14  38  1   
 35  15  16  1   
 36  15  39  1   
 37  15  40  1   
 38  16  17  1   
 39  16  41  1   
 40  17  18  1   
 41  17  42  1   
 42  17  43  1   
 43  18  19  1   
 44  18  44  1   
 45  18  45  1   
 46  19  20  1   
 47  20  46  1   
 48  20  47  1   
 49  20  48  1   
@<TRIPOS>SUBSTRUCTURE
  1 ****  11 GROUP 4 **** **** 0

# MOE 2024.06 (io_trps.svl 2023.06)
