@<TRIPOS>MOLECULE
NONAME
52 54 1 0 0 
SMALL
USER_CHARGES


@<TRIPOS>ATOM
  1 S       -0.0890     2.9040    -2.2990 S.3   1 <1>  -0.0800 
  2 C        0.6570     4.3280    -1.5900 C.2   1 <1>  -0.1400 
  3 C       -1.6900     3.6020    -2.1400 C.2   1 <1>  -0.1100 
  4 C       -0.2860     5.2370    -1.2690 C.2   1 <1>  -0.1500 
  5 C        2.1670     4.2890    -1.4630 C.3   1 <1>   0.3200 
  6 C       -1.6200     4.8240    -1.5840 C.2   1 <1>  -0.1500 
  7 N        2.6630     5.6260    -1.0660 N.am  1 <1>  -0.7300 
  8 C        3.6380     5.8330    -0.1430 C.2   1 <1>   0.5690 
  9 O        4.2430     4.9180     0.3610 O.2   1 <1>  -0.5700 
 10 C        4.0250     7.2610     0.2780 C.3   1 <1>   0.4040 
 11 N        5.4820     7.4450     0.6380 N.4   1 <1>  -0.9590 
 12 C        5.8110     8.8110     1.1670 C.3   1 <1>   0.4230 
 13 C        6.3080     7.0660    -0.5530 C.3   1 <1>   0.3430 
 14 C        7.3190     8.8870     1.4710 C.3   1 <1>  -0.1600 
 15 C        5.0500     9.1900     2.4620 C.3   1 <1>  -0.1600 
 16 C        7.7960     7.1110    -0.2210 C.3   1 <1>  -0.1600 
 17 C        8.1990     8.4960     0.2800 C.3   1 <1>  -0.1600 
 18 C        3.5570     9.5790     2.3860 C.3   1 <1>  -0.0170 
 19 C        3.1160    10.1410     1.0400 C.ar  1 <1>  -0.1430 
 20 C        2.0000     9.6100     0.4060 C.ar  1 <1>  -0.1500 
 21 C        3.8060    11.1870     0.4400 C.ar  1 <1>  -0.1500 
 22 C        1.6140    10.0760    -0.8380 C.ar  1 <1>  -0.1500 
 23 C        3.4220    11.6580    -0.8040 C.ar  1 <1>  -0.1500 
 24 C        2.3330    11.0900    -1.4430 C.ar  1 <1>   0.0830 
 25 O        1.9540    11.5200    -2.6540 O.3   1 <1>  -0.5330 
 26 H       -2.5230     3.0140    -2.4830 H     1 <1>   0.1500 
 27 H       -0.1160     6.1960    -0.8150 H     1 <1>   0.1500 
 28 H        2.5990     4.0170    -2.4110 H     1 <1>   0.0800 
 29 H        2.4490     3.5470    -0.7350 H     1 <1>   0.0800 
 30 H       -2.4610     5.4630    -1.3770 H     1 <1>   0.1500 
 31 H        2.1570     6.3870    -1.5240 H     1 <1>   0.3700 
 32 H        3.4190     7.4950     1.1300 H     1 <1>   0.0800 
 33 H        3.7630     7.9390    -0.5150 H     1 <1>   0.0800 
 34 H        5.6940     6.7480     1.3660 H     1 <1>   0.4500 
 35 H        5.5930     9.5390     0.4030 H     1 <1>   0.0800 
 36 H        6.1060     7.7450    -1.3660 H     1 <1>   0.0800 
 37 H        6.0560     6.0680    -0.8760 H     1 <1>   0.0800 
 38 H        7.5510     8.2490     2.3070 H     1 <1>   0.0800 
 39 H        7.5740     9.8920     1.7590 H     1 <1>   0.0800 
 40 H        5.5420    10.0600     2.8610 H     1 <1>   0.0800 
 41 H        5.1810     8.4170     3.1990 H     1 <1>   0.0800 
 42 H        8.3610     6.8710    -1.1050 H     1 <1>   0.0800 
 43 H        8.0220     6.3630     0.5200 H     1 <1>   0.0800 
 44 H        9.2350     8.4920     0.5750 H     1 <1>   0.0800 
 45 H        8.0840     9.2190    -0.5110 H     1 <1>   0.0800 
 46 H        3.3490    10.3170     3.1440 H     1 <1>   0.0800 
 47 H        2.9550     8.7230     2.6390 H     1 <1>   0.0800 
 48 H        1.4140     8.8380     0.8750 H     1 <1>   0.1500 
 49 H        4.6430    11.6460     0.9360 H     1 <1>   0.1500 
 50 H        0.7520     9.6730    -1.3410 H     1 <1>   0.1500 
 51 H        3.9630    12.4650    -1.2650 H     1 <1>   0.1500 
 52 H        2.4390    12.3070    -2.9610 H     1 <1>   0.4500 
@<TRIPOS>BOND
  1   1   2  1   
  2   1   3  1   
  3   2   4  2   
  4   2   5  1   
  5   3   6  2   
  6   3  26  1   
  7   4   6  1   
  8   4  27  1   
  9   5   7  1   
 10   5  28  1   
 11   5  29  1   
 12   6  30  1   
 13   7   8  am  
 14   7  31  1   
 15   8   9  2   
 16   8  10  1   
 17  10  11  1   
 18  10  32  1   
 19  10  33  1   
 20  11  12  1   
 21  11  13  1   
 22  11  34  1   
 23  12  14  1   
 24  12  15  1   
 25  12  35  1   
 26  13  16  1   
 27  13  36  1   
 28  13  37  1   
 29  14  17  1   
 30  14  38  1   
 31  14  39  1   
 32  15  18  1   
 33  15  40  1   
 34  15  41  1   
 35  16  17  1   
 36  16  42  1   
 37  16  43  1   
 38  17  44  1   
 39  17  45  1   
 40  18  19  1   
 41  18  46  1   
 42  18  47  1   
 43  19  20  ar  
 44  19  21  ar  
 45  20  22  ar  
 46  20  48  1   
 47  21  23  ar  
 48  21  49  1   
 49  22  24  ar  
 50  22  50  1   
 51  23  24  ar  
 52  23  51  1   
 53  24  25  1   
 54  25  52  1   
@<TRIPOS>SUBSTRUCTURE
  1 ****  10 GROUP 4 **** **** 0

# MOE 2024.06 (io_trps.svl 2023.06)
