@<TRIPOS>MOLECULE
NONAME
64 68 1 0 0 
SMALL
USER_CHARGES


@<TRIPOS>ATOM
  1 O       -4.3380     2.3240    -1.4870 O.2   1 <1>  -0.5700 
  2 C       -3.7290     1.4000    -0.9850 C.2   1 <1>   0.5690 
  3 N       -4.1470     0.1160    -1.2730 N.am  1 <1>  -0.6600 
  4 C       -2.5250     1.7150    -0.0140 C.3   1 <1>   0.3310 
  5 C       -5.3320    -0.1510    -2.1250 C.3   1 <1>   0.1400 
  6 C       -3.5050    -1.1590    -0.8750 C.3   1 <1>   0.1400 
  7 N       -1.3650     0.7860    -0.3200 N.3   1 <1>  -0.8100 
  8 C       -2.0950     3.2070    -0.1660 C.3   1 <1>  -0.1600 
  9 C       -3.0650     1.5340     1.4370 C.3   1 <1>  -0.1600 
 10 C       -5.4590    -1.6750    -2.1890 C.3   1 <1>   0.2000 
 11 C       -4.5900    -2.2190    -1.0560 C.3   1 <1>  -0.0800 
 12 C       -0.6690     1.0340    -1.6020 C.3   1 <1>   0.1100 
 13 C       -0.4290     0.3050     0.7160 C.3   1 <1>   0.1100 
 14 C       -1.1600     3.7350     0.9300 C.3   1 <1>  -0.1600 
 15 C       -2.2500     2.1690     2.5890 C.3   1 <1>  -0.1600 
 16 O       -6.7710    -2.0860    -2.0080 O.3   1 <1>  -0.6800 
 17 C       -4.0390    -3.6220    -1.3550 C.3   1 <1>  -0.0160 
 18 C        0.1960    -0.1680    -2.0170 C.3   1 <1>   0.1200 
 19 C        0.4290    -0.8580     0.1920 C.3   1 <1>   0.1200 
 20 C       -1.8430     3.6160     2.2950 C.3   1 <1>  -0.1600 
 21 C       -3.0610    -4.0820    -0.2870 C.ar  1 <1>   0.1670 
 22 O        1.0830    -0.5090    -0.9930 O.3   1 <1>  -0.5600 
 23 N       -1.7940    -3.9750    -0.5490 N.ar  1 <1>  -0.6200 
 24 C       -3.5650    -4.5900     0.9210 C.ar  1 <1>  -0.1500 
 25 C       -0.9140    -4.3910     0.3980 C.ar  1 <1>   0.3100 
 26 C       -2.7050    -4.9990     1.8950 C.ar  1 <1>  -0.1500 
 27 C       -1.3260    -4.9010     1.6490 C.ar  1 <1>   0.0000 
 28 C        0.4620    -4.3060     0.1320 C.ar  1 <1>  -0.1500 
 29 C       -0.3480    -5.2890     2.5850 C.ar  1 <1>  -0.1500 
 30 C        1.3970    -4.6890     1.0550 C.ar  1 <1>  -0.1500 
 31 C        0.9860    -5.1840     2.2970 C.ar  1 <1>  -0.1500 
 32 H       -6.2000     0.3000    -1.6770 H     1 <1>   0.0800 
 33 H       -5.1750     0.2610    -3.1060 H     1 <1>   0.0800 
 34 H       -2.6730    -1.3520    -1.5310 H     1 <1>   0.0800 
 35 H       -3.1520    -1.1340     0.1400 H     1 <1>   0.0800 
 36 H       -1.6760     3.3890    -1.1360 H     1 <1>   0.0800 
 37 H       -2.9800     3.8170    -0.1160 H     1 <1>   0.0800 
 38 H       -4.0340     2.0000     1.4650 H     1 <1>   0.0800 
 39 H       -3.2290     0.4930     1.6390 H     1 <1>   0.0800 
 40 H       -5.1220    -2.0270    -3.1490 H     1 <1>   0.0800 
 41 H       -5.1590    -2.2430    -0.1440 H     1 <1>   0.0800 
 42 H       -1.3900     1.2270    -2.3780 H     1 <1>   0.0800 
 43 H       -0.0310     1.8950    -1.5090 H     1 <1>   0.0800 
 44 H        0.2160     1.0990     1.0430 H     1 <1>   0.0800 
 45 H       -0.9770    -0.0720     1.5580 H     1 <1>   0.0800 
 46 H       -0.2310     3.1960     0.9220 H     1 <1>   0.0800 
 47 H       -0.9360     4.7700     0.7360 H     1 <1>   0.0800 
 48 H       -2.8440     2.1500     3.4870 H     1 <1>   0.0800 
 49 H       -1.3640     1.6030     2.7970 H     1 <1>   0.0800 
 50 H       -7.1280    -1.7110    -1.1810 H     1 <1>   0.4000 
 51 H       -3.5370    -3.6210    -2.3070 H     1 <1>   0.0800 
 52 H       -4.8520    -4.3220    -1.4210 H     1 <1>   0.0800 
 53 H        0.7780     0.0750    -2.8880 H     1 <1>   0.0800 
 54 H       -0.4200    -1.0220    -2.2390 H     1 <1>   0.0800 
 55 H       -0.1970    -1.7090    -0.0020 H     1 <1>   0.0800 
 56 H        1.1760    -1.1310     0.9160 H     1 <1>   0.0800 
 57 H       -2.7200     4.2400     2.3080 H     1 <1>   0.0800 
 58 H       -1.1780     3.9680     3.0650 H     1 <1>   0.0800 
 59 H       -4.6290    -4.6490     1.0620 H     1 <1>   0.1500 
 60 H       -3.0540    -5.3910     2.8340 H     1 <1>   0.1500 
 61 H        0.7590    -3.9230    -0.8280 H     1 <1>   0.1500 
 62 H       -0.6690    -5.6740     3.5370 H     1 <1>   0.1500 
 63 H        2.4490    -4.6130     0.8380 H     1 <1>   0.1500 
 64 H        1.7320    -5.4820     3.0140 H     1 <1>   0.1500 
@<TRIPOS>BOND
  1   1   2  2   
  2   2   3  am  
  3   2   4  1   
  4   3   5  1   
  5   3   6  1   
  6   4   7  1   
  7   4   8  1   
  8   4   9  1   
  9   5  10  1   
 10   5  32  1   
 11   5  33  1   
 12   6  11  1   
 13   6  34  1   
 14   6  35  1   
 15   7  12  1   
 16   7  13  1   
 17   8  14  1   
 18   8  36  1   
 19   8  37  1   
 20   9  15  1   
 21   9  38  1   
 22   9  39  1   
 23  10  11  1   
 24  10  16  1   
 25  10  40  1   
 26  11  17  1   
 27  11  41  1   
 28  12  18  1   
 29  12  42  1   
 30  12  43  1   
 31  13  19  1   
 32  13  44  1   
 33  13  45  1   
 34  14  20  1   
 35  14  46  1   
 36  14  47  1   
 37  15  20  1   
 38  15  48  1   
 39  15  49  1   
 40  16  50  1   
 41  17  21  1   
 42  17  51  1   
 43  17  52  1   
 44  18  22  1   
 45  18  53  1   
 46  18  54  1   
 47  19  22  1   
 48  19  55  1   
 49  19  56  1   
 50  20  57  1   
 51  20  58  1   
 52  21  23  ar  
 53  21  24  ar  
 54  23  25  ar  
 55  24  26  ar  
 56  24  59  1   
 57  25  27  ar  
 58  25  28  ar  
 59  26  27  ar  
 60  26  60  1   
 61  27  29  ar  
 62  28  30  ar  
 63  28  61  1   
 64  29  31  ar  
 65  29  62  1   
 66  30  31  ar  
 67  30  63  1   
 68  31  64  1   
@<TRIPOS>SUBSTRUCTURE
  1 ****   6 GROUP 4 **** **** 0

# MOE 2024.06 (io_trps.svl 2023.06)
