@<TRIPOS>MOLECULE
NONAME
60 64 1 0 0 
SMALL
USER_CHARGES


@<TRIPOS>ATOM
  1 O       -2.4490     0.4580     0.9030 O.2   1 <1>  -0.5700 
  2 C       -1.8670     1.4470     0.5070 C.2   1 <1>   0.5440 
  3 N       -2.5620     2.2290    -0.3580 N.am  1 <1>  -0.7300 
  4 C       -0.5370     1.7570     0.9910 C.ar  1 <1>   0.0860 
  5 C       -2.1000     3.4260    -1.1090 C.3   1 <1>   0.2810 
  6 C        0.4780     2.3260     0.1980 C.ar  1 <1>   0.1170 
  7 C       -0.2300     1.4580     2.3210 C.ar  1 <1>  -0.1500 
  8 C       -0.7500     3.2110    -1.8040 C.2   1 <1>   0.5690 
  9 C       -2.0640     4.6720    -0.2110 C.3   1 <1>  -0.0990 
 10 N        0.3180     2.6830    -1.1450 N.am  1 <1>  -0.5470 
 11 C        1.7340     2.5540     0.7520 C.ar  1 <1>  -0.1500 
 12 C        1.0170     1.6980     2.8600 C.ar  1 <1>  -0.1500 
 13 O       -0.6160     3.5600    -2.9500 O.2   1 <1>  -0.5700 
 14 C       -3.4370     4.9650     0.3420 C.2   1 <1>   0.5690 
 15 C        2.0080     2.2480     2.0690 C.ar  1 <1>  -0.1500 
 16 O       -3.6440     4.7610     1.5140 O.2   1 <1>  -0.5700 
 17 N       -4.4230     5.4090    -0.4820 N.am  1 <1>  -0.6600 
 18 C       -5.7990     4.9120    -0.3080 C.3   1 <1>   0.4000 
 19 C       -4.2850     6.0600    -1.7970 C.3   1 <1>   0.1400 
 20 C       -5.7970     3.4000    -0.6000 C.2   1 <1>   0.0070 
 21 C       -6.6350     5.7200    -1.3140 C.3   1 <1>  -0.1600 
 22 C       -5.6640     6.6550    -2.0410 C.3   1 <1>  -0.1600 
 23 N       -5.6390     2.9240    -1.7930 N.2   1 <1>  -0.5650 
 24 N       -5.9200     2.4340     0.3660 N.pl3 1 <1>   0.0480 
 25 C       -5.6820     1.5790    -1.6410 C.ar  1 <1>   0.2270 
 26 C       -5.8590     1.2450    -0.3120 C.ar  1 <1>  -0.1520 
 27 C       -6.0670     2.6180     1.8450 C.3   1 <1>   0.1760 
 28 C       -5.5660     0.5930    -2.6180 C.ar  1 <1>  -0.1500 
 29 C       -5.9320    -0.1020     0.0630 C.ar  1 <1>  -0.1500 
 30 C       -4.9450     1.9260     2.6300 C.3   1 <1>  -0.2400 
 31 C       -7.4500     2.1460     2.3090 C.3   1 <1>  -0.2400 
 32 C       -5.6320    -0.7310    -2.2470 C.ar  1 <1>  -0.1500 
 33 C       -5.8160    -1.0760    -0.9040 C.ar  1 <1>  -0.1500 
 34 H       -3.5180     1.9180    -0.5730 H     1 <1>   0.3700 
 35 H       -2.8170     3.5940    -1.8930 H     1 <1>   0.0800 
 36 H       -0.9960     1.0230     2.9420 H     1 <1>   0.1500 
 37 H       -1.7230     5.5180    -0.7770 H     1 <1>   0.0800 
 38 H       -1.3770     4.5240     0.6020 H     1 <1>   0.0800 
 39 H        1.1490     2.6390    -1.7360 H     1 <1>   0.3700 
 40 H        2.5120     2.9820     0.1450 H     1 <1>   0.1500 
 41 H        1.2190     1.4560     3.8900 H     1 <1>   0.1500 
 42 H        2.9850     2.4350     2.4820 H     1 <1>   0.1500 
 43 H       -6.1340     5.1330     0.6880 H     1 <1>   0.0800 
 44 H       -4.0680     5.3170    -2.5460 H     1 <1>   0.0800 
 45 H       -3.5200     6.8160    -1.7860 H     1 <1>   0.0800 
 46 H       -7.3970     6.2790    -0.8030 H     1 <1>   0.0800 
 47 H       -7.1190     5.0630    -2.0160 H     1 <1>   0.0800 
 48 H       -5.8810     6.7290    -3.0920 H     1 <1>   0.0800 
 49 H       -5.7030     7.6370    -1.6040 H     1 <1>   0.0800 
 50 H       -5.9890     3.6640     2.0680 H     1 <1>   0.0800 
 51 H       -5.4250     0.8920    -3.6390 H     1 <1>   0.1500 
 52 H       -6.0720    -0.3810     1.0900 H     1 <1>   0.1500 
 53 H       -4.9650     0.8600     2.5130 H     1 <1>   0.0800 
 54 H       -5.0410     2.1510     3.6770 H     1 <1>   0.0800 
 55 H       -3.9900     2.2910     2.3020 H     1 <1>   0.0800 
 56 H       -7.5680     1.0890     2.1560 H     1 <1>   0.0800 
 57 H       -8.2200     2.6680     1.7690 H     1 <1>   0.0800 
 58 H       -7.5740     2.3520     3.3570 H     1 <1>   0.0800 
 59 H       -5.5420    -1.5090    -2.9840 H     1 <1>   0.1500 
 60 H       -5.8620    -2.1150    -0.6320 H     1 <1>   0.1500 
@<TRIPOS>BOND
  1   1   2  2   
  2   2   3  am  
  3   2   4  1   
  4   3   5  1   
  5   3  34  1   
  6   4   6  ar  
  7   4   7  ar  
  8   5   8  1   
  9   5   9  1   
 10   5  35  1   
 11   6  10  1   
 12   6  11  ar  
 13   7  12  ar  
 14   7  36  1   
 15   8  10  am  
 16   8  13  2   
 17   9  14  1   
 18   9  37  1   
 19   9  38  1   
 20  10  39  1   
 21  11  15  ar  
 22  11  40  1   
 23  12  15  ar  
 24  12  41  1   
 25  14  16  2   
 26  14  17  am  
 27  15  42  1   
 28  17  18  1   
 29  17  19  1   
 30  18  20  1   
 31  18  21  1   
 32  18  43  1   
 33  19  22  1   
 34  19  44  1   
 35  19  45  1   
 36  20  23  2   
 37  20  24  1   
 38  21  22  1   
 39  21  46  1   
 40  21  47  1   
 41  22  48  1   
 42  22  49  1   
 43  23  25  1   
 44  24  26  1   
 45  24  27  1   
 46  25  26  ar  
 47  25  28  ar  
 48  26  29  ar  
 49  27  30  1   
 50  27  31  1   
 51  27  50  1   
 52  28  32  ar  
 53  28  51  1   
 54  29  33  ar  
 55  29  52  1   
 56  30  53  1   
 57  30  54  1   
 58  30  55  1   
 59  31  56  1   
 60  31  57  1   
 61  31  58  1   
 62  32  33  ar  
 63  32  59  1   
 64  33  60  1   
@<TRIPOS>SUBSTRUCTURE
  1 ****   3 GROUP 4 **** **** 0

# MOE 2024.06 (io_trps.svl 2023.06)
