@<TRIPOS>MOLECULE
NONAME
41 42 1 0 0 
SMALL
USER_CHARGES


@<TRIPOS>ATOM
  1 O        1.2050     1.8850    -0.4160 O.2   1 <1>  -0.5700 
  2 C        1.3110     0.6720    -0.4690 C.2   1 <1>   0.5440 
  3 N        0.1910    -0.0560    -0.7630 N.am  1 <1>  -0.7300 
  4 C        2.6010     0.0450    -0.2590 C.ar  1 <1>   0.0860 
  5 C       -1.1710     0.4580    -1.0340 C.3   1 <1>   0.0600 
  6 C        2.7640    -1.2690     0.2350 C.ar  1 <1>   0.4100 
  7 C        3.7580     0.7510    -0.5690 C.ar  1 <1>  -0.1500 
  8 N        3.9460    -1.8740     0.3680 N.ar  1 <1>  -0.6200 
  9 N        1.7000    -2.0440     0.6500 N.pl3 1 <1>  -0.8380 
 10 C        4.9760     0.1330    -0.4100 C.ar  1 <1>  -0.1500 
 11 C        5.0110    -1.1680     0.0510 C.ar  1 <1>   0.1600 
 12 C        1.6190    -3.4710     0.2290 C.3   1 <1>   0.3890 
 13 C        0.9620    -1.6760     1.8910 C.3   1 <1>   0.1290 
 14 C        0.2210    -3.8700    -0.2480 C.2   1 <1>   0.0070 
 15 N       -0.7400    -3.0550    -0.5410 N.2   1 <1>  -0.3380 
 16 N       -0.1570    -5.1440    -0.4210 N.pl3 1 <1>   0.0480 
 17 N       -1.7880    -3.7890    -0.9080 N.2   1 <1>  -0.3380 
 18 C       -1.4230    -5.0190    -0.8300 C.2   1 <1>   0.0360 
 19 C        0.6100    -6.4010    -0.2130 C.3   1 <1>   0.1760 
 20 C        0.5280    -7.2990    -1.4540 C.3   1 <1>  -0.2400 
 21 C        0.0920    -7.1320     1.0300 C.3   1 <1>  -0.2400 
 22 H        0.2530    -1.0810    -0.6280 H     1 <1>   0.3700 
 23 H       -1.1560     1.5290    -1.1310 H     1 <1>   0.0800 
 24 H       -1.8250     0.1840    -0.2250 H     1 <1>   0.0800 
 25 H       -1.5410     0.0250    -1.9460 H     1 <1>   0.0800 
 26 H        3.6930     1.7620    -0.9340 H     1 <1>   0.1500 
 27 H        5.8890     0.6510    -0.6430 H     1 <1>   0.1500 
 28 H        5.9680    -1.6490     0.1670 H     1 <1>   0.1500 
 29 H        1.9110    -4.0880     1.0600 H     1 <1>   0.0800 
 30 H        2.3120    -3.6460    -0.5760 H     1 <1>   0.0800 
 31 H        1.2230    -0.6780     2.1980 H     1 <1>   0.0800 
 32 H        1.2110    -2.3590     2.6840 H     1 <1>   0.0800 
 33 H       -0.0990    -1.7120     1.7120 H     1 <1>   0.0800 
 34 H       -2.0530    -5.8580    -1.0630 H     1 <1>   0.1500 
 35 H        1.6430    -6.1460    -0.0550 H     1 <1>   0.0800 
 36 H       -0.4800    -7.6310    -1.6270 H     1 <1>   0.0800 
 37 H        1.1480    -8.1670    -1.3180 H     1 <1>   0.0800 
 38 H        0.8800    -6.7680    -2.3210 H     1 <1>   0.0800 
 39 H       -0.9350    -7.4250     0.9010 H     1 <1>   0.0800 
 40 H        0.1710    -6.4970     1.8950 H     1 <1>   0.0800 
 41 H        0.6770    -8.0170     1.2070 H     1 <1>   0.0800 
@<TRIPOS>BOND
  1   1   2  2   
  2   2   3  am  
  3   2   4  1   
  4   3   5  1   
  5   3  22  1   
  6   4   6  ar  
  7   4   7  ar  
  8   5  23  1   
  9   5  24  1   
 10   5  25  1   
 11   6   8  ar  
 12   6   9  1   
 13   7  10  ar  
 14   7  26  1   
 15   8  11  ar  
 16   9  12  1   
 17   9  13  1   
 18  10  11  ar  
 19  10  27  1   
 20  11  28  1   
 21  12  14  1   
 22  12  29  1   
 23  12  30  1   
 24  13  31  1   
 25  13  32  1   
 26  13  33  1   
 27  14  15  2   
 28  14  16  1   
 29  15  17  1   
 30  16  18  1   
 31  16  19  1   
 32  17  18  2   
 33  18  34  1   
 34  19  20  1   
 35  19  21  1   
 36  19  35  1   
 37  20  36  1   
 38  20  37  1   
 39  20  38  1   
 40  21  39  1   
 41  21  40  1   
 42  21  41  1   
@<TRIPOS>SUBSTRUCTURE
  1 ****   9 GROUP 4 **** **** 0

# MOE 2024.06 (io_trps.svl 2023.06)
