@<TRIPOS>MOLECULE
NONAME
51 54 1 0 0 
SMALL
USER_CHARGES


@<TRIPOS>ATOM
  1 S        0.2780     0.1630     0.3180 S.3   1 <1>  -0.0800 
  2 C       -0.6090     1.6390     0.6860 C.2   1 <1>   0.3250 
  3 C       -1.1090    -0.7930     0.7350 C.2   1 <1>  -0.1400 
  4 N       -1.8120     1.3920     1.0760 N.2   1 <1>  -0.5650 
  5 C        0.0760     2.9030     0.5150 C.ar  1 <1>   0.0530 
  6 C       -2.0890     0.0440     1.1110 C.2   1 <1>   0.0770 
  7 C       -0.9610    -2.2930     0.6070 C.3   1 <1>   0.5230 
  8 C       -0.5160     4.0190    -0.0960 C.ar  1 <1>  -0.1440 
  9 C        1.3890     3.0400     0.9720 C.ar  1 <1>  -0.1500 
 10 N       -2.2960    -2.9420     0.5690 N.4   1 <1>  -0.9590 
 11 C        0.1920     5.2020    -0.2340 C.ar  1 <1>  -0.1500 
 12 C       -1.9430     3.9700    -0.6290 C.3   1 <1>  -0.0970 
 13 C        2.0920     4.2210     0.8290 C.ar  1 <1>  -0.1500 
 14 C       -3.1520    -2.5750    -0.5930 C.3   1 <1>   0.3430 
 15 C       -2.2570    -4.4330     0.5850 C.3   1 <1>   0.3430 
 16 C        1.4920     5.3070     0.2240 C.ar  1 <1>  -0.1500 
 17 C       -4.2470    -3.6390    -0.5660 C.3   1 <1>   0.2000 
 18 C       -3.4550    -4.9120    -0.2510 C.3   1 <1>  -0.0800 
 19 O       -5.0940    -3.3340     0.4960 O.3   1 <1>  -0.6800 
 20 C       -4.2350    -6.0510     0.4330 C.3   1 <1>   0.0210 
 21 C       -3.3770    -7.2950     0.5810 C.2   1 <1>   0.1080 
 22 N       -2.1860    -7.2840     1.0980 N.2   1 <1>  -0.7070 
 23 C       -3.7680    -8.5700     0.1900 C.2   1 <1>  -0.1500 
 24 N       -1.7870    -8.5740     1.0580 N.pl3 1 <1>   0.3000 
 25 C       -2.7280    -9.3670     0.5070 C.2   1 <1>  -0.3320 
 26 C       -2.5740   -10.8660     0.3200 C.3   1 <1>  -0.0600 
 27 H       -3.0760    -0.2360     1.4400 H     1 <1>   0.1500 
 28 H       -0.3900    -2.6650     1.4430 H     1 <1>   0.0800 
 29 H       -0.4230    -2.5210    -0.2980 H     1 <1>   0.0800 
 30 H        1.8730     2.2110     1.4560 H     1 <1>   0.1500 
 31 H       -2.8350    -2.6630     1.4020 H     1 <1>   0.4500 
 32 H       -0.2640     6.0580    -0.7010 H     1 <1>   0.1500 
 33 H       -2.1740     4.8460    -1.2070 H     1 <1>   0.0800 
 34 H       -2.6360     3.9130     0.1910 H     1 <1>   0.0800 
 35 H       -2.0770     3.1090    -1.2580 H     1 <1>   0.0800 
 36 H        3.1030     4.2970     1.1900 H     1 <1>   0.1500 
 37 H       -3.5660    -1.5840    -0.5010 H     1 <1>   0.0800 
 38 H       -2.5900    -2.6510    -1.5090 H     1 <1>   0.0800 
 39 H       -1.3440    -4.8100     0.1520 H     1 <1>   0.0800 
 40 H       -2.3330    -4.8010     1.5960 H     1 <1>   0.0800 
 41 H        2.0330     6.2310     0.1100 H     1 <1>   0.1500 
 42 H       -4.8170    -3.6840    -1.4790 H     1 <1>   0.0800 
 43 H       -3.0600    -5.2960    -1.1750 H     1 <1>   0.0800 
 44 H       -5.9300    -3.8460     0.4470 H     1 <1>   0.4000 
 45 H       -5.1040    -6.2970    -0.1510 H     1 <1>   0.0800 
 46 H       -4.5640    -5.7530     1.4130 H     1 <1>   0.0800 
 47 H       -4.7050    -8.8430    -0.2630 H     1 <1>   0.1500 
 48 H       -0.8750    -8.8860     1.4160 H     1 <1>   0.2700 
 49 H       -3.4580   -11.2740    -0.1370 H     1 <1>   0.0800 
 50 H       -2.4280   -11.3470     1.2700 H     1 <1>   0.0800 
 51 H       -1.7320   -11.0790    -0.3150 H     1 <1>   0.0800 
@<TRIPOS>BOND
  1   1   2  1   
  2   1   3  1   
  3   2   4  2   
  4   2   5  1   
  5   3   6  2   
  6   3   7  1   
  7   4   6  1   
  8   5   8  ar  
  9   5   9  ar  
 10   6  27  1   
 11   7  10  1   
 12   7  28  1   
 13   7  29  1   
 14   8  11  ar  
 15   8  12  1   
 16   9  13  ar  
 17   9  30  1   
 18  10  14  1   
 19  10  15  1   
 20  10  31  1   
 21  11  16  ar  
 22  11  32  1   
 23  12  33  1   
 24  12  34  1   
 25  12  35  1   
 26  13  16  ar  
 27  13  36  1   
 28  14  17  1   
 29  14  37  1   
 30  14  38  1   
 31  15  18  1   
 32  15  39  1   
 33  15  40  1   
 34  16  41  1   
 35  17  18  1   
 36  17  19  1   
 37  17  42  1   
 38  18  20  1   
 39  18  43  1   
 40  19  44  1   
 41  20  21  1   
 42  20  45  1   
 43  20  46  1   
 44  21  22  2   
 45  21  23  1   
 46  22  24  1   
 47  23  25  2   
 48  23  47  1   
 49  24  25  1   
 50  24  48  1   
 51  25  26  1   
 52  26  49  1   
 53  26  50  1   
 54  26  51  1   
@<TRIPOS>SUBSTRUCTURE
  1 ****   7 GROUP 4 **** **** 0

# MOE 2024.06 (io_trps.svl 2023.06)
