@<TRIPOS>MOLECULE
NONAME
58 60 1 0 0 
SMALL
USER_CHARGES


@<TRIPOS>ATOM
  1 O        3.6660     1.9910     1.4060 O.co2 1 <1>  -0.9000 
  2 C        2.9030     1.0760     1.0620 C.2   1 <1>   0.9060 
  3 O        2.8390     0.0280     1.7030 O.co2 1 <1>  -0.9000 
  4 C        2.2650     1.1040    -0.3350 C.3   1 <1>  -0.1060 
  5 C        3.0560     0.0250    -1.1090 C.3   1 <1>   0.2000 
  6 C        2.4720     2.4780    -1.0560 C.3   1 <1>  -0.1600 
  7 C        0.7580     0.7510    -0.2290 C.3   1 <1>  -0.0160 
  8 O        2.6350    -0.0160    -2.4410 O.3   1 <1>  -0.6800 
  9 C        4.5740     0.3460    -1.0830 C.3   1 <1>   0.3430 
 10 C        3.8540     2.6480    -1.7130 C.3   1 <1>   0.3430 
 11 C       -0.0790     1.8600     0.3990 C.ar  1 <1>  -0.1440 
 12 N        4.8540     1.8220    -0.9910 N.4   1 <1>  -0.9590 
 13 C       -0.8760     2.6770    -0.3900 C.ar  1 <1>  -0.1500 
 14 C       -0.0560     2.0600     1.7710 C.ar  1 <1>  -0.1500 
 15 C        6.2660     2.1890    -1.2060 C.3   1 <1>   0.4860 
 16 C       -1.6340     3.6830     0.1830 C.ar  1 <1>  -0.1500 
 17 C       -0.8120     3.0670     2.3460 C.ar  1 <1>  -0.1500 
 18 C        6.4670     3.6540    -0.8610 C.ar  1 <1>  -0.1430 
 19 C       -1.6020     3.8800     1.5520 C.ar  1 <1>  -0.1500 
 20 C        6.1730     4.1150     0.4140 C.ar  1 <1>  -0.1500 
 21 C        6.9360     4.5450    -1.8150 C.ar  1 <1>  -0.1500 
 22 C        6.3370     5.4510     0.7420 C.ar  1 <1>  -0.1430 
 23 C        7.1070     5.8800    -1.4960 C.ar  1 <1>  -0.1500 
 24 C        6.8100     6.3430    -0.2160 C.ar  1 <1>   0.0830 
 25 C        5.9860     5.9120     2.1500 C.3   1 <1>   0.2630 
 26 O        6.9670     7.6420     0.1520 O.3   1 <1>  -0.3630 
 27 O        7.1290     6.4220     2.7320 O.3   1 <1>  -0.6800 
 28 C        7.4710     8.6160    -0.7330 C.3   1 <1>   0.1200 
 29 C        7.5390     9.9420     0.0190 C.3   1 <1>  -0.2400 
 30 H        2.8920    -0.9530    -0.6850 H     1 <1>   0.0800 
 31 H        2.3150     3.2780    -0.3520 H     1 <1>   0.0800 
 32 H        1.7360     2.6020    -1.8280 H     1 <1>   0.0800 
 33 H        0.3610     0.5410    -1.2040 H     1 <1>   0.0800 
 34 H        0.6370    -0.1450     0.3570 H     1 <1>   0.0800 
 35 H        1.7080    -0.3270    -2.4850 H     1 <1>   0.4000 
 36 H        5.0310    -0.0760    -1.9620 H     1 <1>   0.0800 
 37 H        4.9980    -0.1320    -0.2140 H     1 <1>   0.0800 
 38 H        4.1320     3.6900    -1.6890 H     1 <1>   0.0800 
 39 H        3.8040     2.3250    -2.7400 H     1 <1>   0.0800 
 40 H        4.6470     2.0570     0.0160 H     1 <1>   0.4500 
 41 H       -0.9110     2.5340    -1.4550 H     1 <1>   0.1500 
 42 H        0.5550     1.4330     2.4010 H     1 <1>   0.1500 
 43 H        6.8970     1.5890    -0.5700 H     1 <1>   0.0800 
 44 H        6.5400     2.0100    -2.2320 H     1 <1>   0.0800 
 45 H       -2.2490     4.3130    -0.4350 H     1 <1>   0.1500 
 46 H       -0.7800     3.2140     3.4110 H     1 <1>   0.1500 
 47 H       -2.1890     4.6620     2.0000 H     1 <1>   0.1500 
 48 H        5.8060     3.4340     1.1670 H     1 <1>   0.1500 
 49 H        7.1720     4.2100    -2.8100 H     1 <1>   0.1500 
 50 H        7.4730     6.5440    -2.2560 H     1 <1>   0.1500 
 51 H        5.6270     5.1030     2.7630 H     1 <1>   0.0800 
 52 H        5.2460     6.6930     2.1180 H     1 <1>   0.0800 
 53 H        7.5350     7.0260     2.0750 H     1 <1>   0.4000 
 54 H        8.4510     8.3110    -1.0550 H     1 <1>   0.0800 
 55 H        6.8040     8.6900    -1.5750 H     1 <1>   0.0800 
 56 H        8.1980     9.8560     0.8640 H     1 <1>   0.0800 
 57 H        6.5580    10.2270     0.3550 H     1 <1>   0.0800 
 58 H        7.9150    10.7110    -0.6320 H     1 <1>   0.0800 
@<TRIPOS>BOND
  1   1   2  ar  
  2   2   3  ar  
  3   2   4  1   
  4   4   5  1   
  5   4   6  1   
  6   4   7  1   
  7   5   8  1   
  8   5   9  1   
  9   5  30  1   
 10   6  10  1   
 11   6  31  1   
 12   6  32  1   
 13   7  11  1   
 14   7  33  1   
 15   7  34  1   
 16   8  35  1   
 17   9  12  1   
 18   9  36  1   
 19   9  37  1   
 20  10  12  1   
 21  10  38  1   
 22  10  39  1   
 23  11  13  ar  
 24  11  14  ar  
 25  12  15  1   
 26  12  40  1   
 27  13  16  ar  
 28  13  41  1   
 29  14  17  ar  
 30  14  42  1   
 31  15  18  1   
 32  15  43  1   
 33  15  44  1   
 34  16  19  ar  
 35  16  45  1   
 36  17  19  ar  
 37  17  46  1   
 38  18  20  ar  
 39  18  21  ar  
 40  19  47  1   
 41  20  22  ar  
 42  20  48  1   
 43  21  23  ar  
 44  21  49  1   
 45  22  24  ar  
 46  22  25  1   
 47  23  24  ar  
 48  23  50  1   
 49  24  26  1   
 50  25  27  1   
 51  25  51  1   
 52  25  52  1   
 53  26  28  1   
 54  27  53  1   
 55  28  29  1   
 56  28  54  1   
 57  28  55  1   
 58  29  56  1   
 59  29  57  1   
 60  29  58  1   
@<TRIPOS>SUBSTRUCTURE
  1 ****  10 GROUP 4 **** **** 0

# MOE 2024.06 (io_trps.svl 2023.06)
