@<TRIPOS>MOLECULE
NONAME
39 40 1 0 0 
SMALL
USER_CHARGES


@<TRIPOS>ATOM
  1 S       -0.1110     0.3760    -0.7810 S.o2  1 <1>   1.3330 
  2 O        0.3420     1.2960    -1.8000 O.2   1 <1>  -0.6500 
  3 O       -0.8380    -0.8130    -1.1640 O.2   1 <1>  -0.6500 
  4 N        1.2390    -0.1300     0.1190 N.am  1 <1>  -0.8490 
  5 C       -1.0830     1.2740     0.4380 C.3   1 <1>  -0.0550 
  6 C        2.4750    -0.1520    -0.6730 C.3   1 <1>   0.1160 
  7 C        1.0510    -1.4190     0.7920 C.3   1 <1>   0.1160 
  8 C       -0.6460     2.7180     0.7770 C.3   1 <1>  -0.0800 
  9 C       -0.9760     3.7370    -0.3150 C.3   1 <1>   0.2000 
 10 C        0.8380     2.9440     1.0670 C.3   1 <1>   0.1400 
 11 O       -2.2970     4.1390    -0.1810 O.3   1 <1>  -0.6800 
 12 C       -0.0140     4.9060    -0.0930 C.3   1 <1>   0.1400 
 13 N        1.0700     4.3760     0.7740 N.am  1 <1>  -0.6600 
 14 C        2.3330     4.9240     0.8470 C.2   1 <1>   0.7160 
 15 O        3.2420     4.2190     1.2510 O.2   1 <1>  -0.5700 
 16 C        2.6040     6.2890     0.4430 C.2   1 <1>  -0.0860 
 17 C        1.8130     7.4140     0.4670 C.2   1 <1>  -0.3020 
 18 C        3.8370     6.7300    -0.0790 C.2   1 <1>  -0.1500 
 19 N        2.4910     8.4810    -0.0160 N.pl3 1 <1>   0.0330 
 20 C        3.7350     8.0550    -0.3510 C.2   1 <1>  -0.3020 
 21 H       -2.0970     1.3190     0.0890 H     1 <1>   0.0800 
 22 H       -1.0940     0.7020     1.3450 H     1 <1>   0.0800 
 23 H        3.3060    -0.4570    -0.0600 H     1 <1>   0.0800 
 24 H        2.6870     0.8320    -1.0560 H     1 <1>   0.0800 
 25 H        2.3760    -0.8330    -1.5020 H     1 <1>   0.0800 
 26 H        1.8930    -1.6320     1.4280 H     1 <1>   0.0800 
 27 H        0.9490    -2.2110     0.0670 H     1 <1>   0.0800 
 28 H        0.1630    -1.3950     1.4010 H     1 <1>   0.0800 
 29 H       -1.1680     3.0110     1.6710 H     1 <1>   0.0800 
 30 H       -0.8450     3.3420    -1.3060 H     1 <1>   0.0800 
 31 H        1.4720     2.3720     0.4150 H     1 <1>   0.0800 
 32 H        1.0880     2.7190     2.0910 H     1 <1>   0.0800 
 33 H       -2.4450     4.5430     0.6950 H     1 <1>   0.4000 
 34 H       -0.5100     5.7160     0.4110 H     1 <1>   0.0800 
 35 H        0.3900     5.2440    -1.0310 H     1 <1>   0.0800 
 36 H        0.8010     7.4960     0.8180 H     1 <1>   0.1500 
 37 H        4.6920     6.0890    -0.2210 H     1 <1>   0.1500 
 38 H        2.1390     9.4410    -0.1060 H     1 <1>   0.2700 
 39 H        4.4810     8.7140    -0.7590 H     1 <1>   0.1500 
@<TRIPOS>BOND
  1   1   2  2   
  2   1   3  2   
  3   1   4  am  
  4   1   5  1   
  5   4   6  1   
  6   4   7  1   
  7   5   8  1   
  8   5  21  1   
  9   5  22  1   
 10   6  23  1   
 11   6  24  1   
 12   6  25  1   
 13   7  26  1   
 14   7  27  1   
 15   7  28  1   
 16   8   9  1   
 17   8  10  1   
 18   8  29  1   
 19   9  11  1   
 20   9  12  1   
 21   9  30  1   
 22  10  13  1   
 23  10  31  1   
 24  10  32  1   
 25  11  33  1   
 26  12  13  1   
 27  12  34  1   
 28  12  35  1   
 29  13  14  am  
 30  14  15  2   
 31  14  16  1   
 32  16  17  2   
 33  16  18  1   
 34  17  19  1   
 35  17  36  1   
 36  18  20  2   
 37  18  37  1   
 38  19  20  1   
 39  19  38  1   
 40  20  39  1   
@<TRIPOS>SUBSTRUCTURE
  1 ****  10 GROUP 4 **** **** 0

# MOE 2024.06 (io_trps.svl 2023.06)
