@<TRIPOS>MOLECULE
NONAME
47 49 1 0 0 
SMALL
USER_CHARGES


@<TRIPOS>ATOM
  1 O       -1.4380     0.8730    -2.0110 O.co2 1 <1>  -0.9000 
  2 C       -1.7370     1.2660    -0.8760 C.2   1 <1>   0.9060 
  3 O       -2.7010     0.7770    -0.2660 O.co2 1 <1>  -0.9000 
  4 C       -0.8430     2.3040    -0.1790 C.3   1 <1>  -0.1060 
  5 C       -1.7220     3.1230     0.7930 C.3   1 <1>   0.2000 
  6 C       -0.2840     3.2710    -1.2580 C.3   1 <1>   0.1100 
  7 C        0.2830     1.4500     0.4880 C.3   1 <1>  -0.0650 
  8 O       -2.2020     2.3200     1.8090 O.3   1 <1>  -0.6800 
  9 C       -1.0500     4.3500     1.4130 C.3   1 <1>  -0.1600 
 10 N       -0.3020     4.7220    -0.9150 N.3   1 <1>  -0.8100 
 11 C        1.4640     2.1520     1.1780 C.3   1 <1>  -0.1950 
 12 C       -0.0100     5.0000     0.4950 C.3   1 <1>   0.1100 
 13 C        0.5350     5.4650    -1.9010 C.3   1 <1>   0.1710 
 14 C        2.6970     2.5630     0.4330 C.3   1 <1>  -0.2000 
 15 C        2.7410     1.3990     1.3790 C.3   1 <1>  -0.2000 
 16 C        0.6160     6.9920    -1.7600 C.2   1 <1>   0.5690 
 17 O       -0.0070     7.6870    -2.5270 O.2   1 <1>  -0.5700 
 18 N        1.4600     7.4970    -0.8030 N.am  1 <1>  -0.5470 
 19 C        1.7630     8.8120    -0.4210 C.ar  1 <1>   0.1170 
 20 C        0.9540     9.9020    -0.7310 C.ar  1 <1>  -0.1500 
 21 C        2.9180     9.0400     0.3200 C.ar  1 <1>  -0.1500 
 22 C        1.2920    11.1780    -0.3190 C.ar  1 <1>  -0.1500 
 23 C        3.2590    10.3140     0.7360 C.ar  1 <1>  -0.1500 
 24 C        2.4460    11.3870     0.4160 C.ar  1 <1>  -0.1500 
 25 H       -2.5790     3.4650     0.2360 H     1 <1>   0.0800 
 26 H       -0.8700     3.1690    -2.1570 H     1 <1>   0.0800 
 27 H        0.7130     2.9600    -1.5120 H     1 <1>   0.0800 
 28 H       -0.1750     0.7980     1.2120 H     1 <1>   0.0800 
 29 H        0.6880     0.8040    -0.2720 H     1 <1>   0.0800 
 30 H       -2.5970     1.5350     1.3320 H     1 <1>   0.4000 
 31 H       -1.8180     5.0720     1.6210 H     1 <1>   0.0800 
 32 H       -0.5870     4.0960     2.3470 H     1 <1>   0.0800 
 33 H        1.1520     2.7230     2.0330 H     1 <1>   0.1000 
 34 H        0.9760     4.6480     0.7330 H     1 <1>   0.0800 
 35 H       -0.0430     6.0580     0.6780 H     1 <1>   0.0800 
 36 H        1.5360     5.0770    -1.8700 H     1 <1>   0.0800 
 37 H        0.1460     5.2610    -2.8830 H     1 <1>   0.0800 
 38 H        2.7670     2.3600    -0.6210 H     1 <1>   0.1000 
 39 H        3.1920     3.4750     0.7140 H     1 <1>   0.1000 
 40 H        3.2570     1.5070     2.3170 H     1 <1>   0.1000 
 41 H        2.8260     0.4050     0.9740 H     1 <1>   0.1000 
 42 H        1.9370     6.7810    -0.2610 H     1 <1>   0.3700 
 43 H        0.0510     9.7590    -1.2950 H     1 <1>   0.1500 
 44 H        3.5600     8.2170     0.5730 H     1 <1>   0.1500 
 45 H        0.6550    12.0080    -0.5700 H     1 <1>   0.1500 
 46 H        4.1570    10.4750     1.3070 H     1 <1>   0.1500 
 47 H        2.7080    12.3800     0.7370 H     1 <1>   0.1500 
@<TRIPOS>BOND
  1   1   2  ar  
  2   2   3  ar  
  3   2   4  1   
  4   4   5  1   
  5   4   6  1   
  6   4   7  1   
  7   5   8  1   
  8   5   9  1   
  9   5  25  1   
 10   6  10  1   
 11   6  26  1   
 12   6  27  1   
 13   7  11  1   
 14   7  28  1   
 15   7  29  1   
 16   8  30  1   
 17   9  12  1   
 18   9  31  1   
 19   9  32  1   
 20  10  12  1   
 21  10  13  1   
 22  11  14  1   
 23  11  15  1   
 24  11  33  1   
 25  12  34  1   
 26  12  35  1   
 27  13  16  1   
 28  13  36  1   
 29  13  37  1   
 30  14  15  1   
 31  14  38  1   
 32  14  39  1   
 33  15  40  1   
 34  15  41  1   
 35  16  17  2   
 36  16  18  am  
 37  18  19  1   
 38  18  42  1   
 39  19  20  ar  
 40  19  21  ar  
 41  20  22  ar  
 42  20  43  1   
 43  21  23  ar  
 44  21  44  1   
 45  22  24  ar  
 46  22  45  1   
 47  23  24  ar  
 48  23  46  1   
 49  24  47  1   
@<TRIPOS>SUBSTRUCTURE
  1 ****  12 GROUP 4 **** **** 0

# MOE 2024.06 (io_trps.svl 2023.06)
