@<TRIPOS>MOLECULE
NONAME
46 49 1 0 0 
SMALL
USER_CHARGES


@<TRIPOS>ATOM
  1 CL      -2.5220     0.1080     1.1910 Cl    1 <1>  -0.1770 
  2 C       -1.2540    -1.1080     1.1520 C.ar  1 <1>   0.1770 
  3 C        0.0750    -0.7260     1.1940 C.ar  1 <1>   0.1770 
  4 C       -1.6140    -2.4520     1.0750 C.ar  1 <1>   0.1170 
  5 CL       0.5140     0.9640     1.2840 Cl    1 <1>  -0.1770 
  6 C        1.0820    -1.6730     1.1660 C.ar  1 <1>  -0.1500 
  7 N       -2.9770    -2.7960     1.0360 N.am  1 <1>  -0.5470 
  8 C       -0.5890    -3.3970     1.0540 C.ar  1 <1>  -0.1500 
  9 C        0.7430    -3.0140     1.0970 C.ar  1 <1>  -0.1500 
 10 C       -3.6410    -3.8720     0.5220 C.2   1 <1>   0.6900 
 11 O       -3.0270    -4.8280     0.0890 O.2   1 <1>  -0.5700 
 12 N       -5.0140    -3.8450     0.4750 N.am  1 <1>  -0.6600 
 13 C       -5.8660    -2.6510     0.7850 C.3   1 <1>   0.1400 
 14 C       -5.7930    -4.9880    -0.0810 C.3   1 <1>   0.1400 
 15 C       -6.5810    -2.1470    -0.4830 C.3   1 <1>   0.1440 
 16 C       -6.5310    -4.5450    -1.3510 C.3   1 <1>  -0.1600 
 17 C       -7.4420    -0.9590    -0.0990 C.ar  1 <1>   0.1670 
 18 C       -7.4010    -3.2990    -1.1040 C.3   1 <1>  -0.1600 
 19 C       -5.5870    -1.5250    -1.5040 C.3   1 <1>  -0.1600 
 20 N       -8.5500    -1.0180     0.6060 N.ar  1 <1>  -0.6200 
 21 C       -6.9160     0.2130    -0.5540 C.ar  1 <1>  -0.1440 
 22 C       -5.6300     0.0010    -1.3110 C.3   1 <1>  -0.0170 
 23 C       -9.1240     0.1570     0.8240 C.ar  1 <1>   0.4770 
 24 C       -7.5930     1.3730    -0.2670 C.ar  1 <1>   0.1600 
 25 N       -8.7110     1.3540     0.4280 N.ar  1 <1>  -0.6200 
 26 C      -10.4070     0.1370     1.6180 C.3   1 <1>  -0.0970 
 27 H        2.1120    -1.3640     1.1990 H     1 <1>   0.1500 
 28 H       -3.6040    -2.0560     1.3340 H     1 <1>   0.3700 
 29 H       -0.8280    -4.4450     1.0070 H     1 <1>   0.1500 
 30 H        1.5150    -3.7650     1.0750 H     1 <1>   0.1500 
 31 H       -5.2930    -1.8490     1.2120 H     1 <1>   0.0800 
 32 H       -6.6070    -2.9370     1.5130 H     1 <1>   0.0800 
 33 H       -6.5030    -5.3180     0.6580 H     1 <1>   0.0800 
 34 H       -5.1480    -5.8200    -0.3090 H     1 <1>   0.0800 
 35 H       -7.1510    -5.3530    -1.6970 H     1 <1>   0.0800 
 36 H       -5.8040    -4.3440    -2.1190 H     1 <1>   0.0800 
 37 H       -7.8590    -2.9760    -2.0230 H     1 <1>   0.0800 
 38 H       -8.1960    -3.5630    -0.4270 H     1 <1>   0.0800 
 39 H       -5.9210    -1.7400    -2.5040 H     1 <1>   0.0800 
 40 H       -4.5870    -1.9080    -1.4000 H     1 <1>   0.0800 
 41 H       -5.6340     0.5180    -2.2540 H     1 <1>   0.0800 
 42 H       -4.7980     0.3350    -0.7150 H     1 <1>   0.0800 
 43 H       -7.2170     2.3230    -0.6060 H     1 <1>   0.1500 
 44 H      -10.5470    -0.8210     2.0840 H     1 <1>   0.0800 
 45 H      -11.2330     0.3340     0.9620 H     1 <1>   0.0800 
 46 H      -10.3730     0.8940     2.3790 H     1 <1>   0.0800 
@<TRIPOS>BOND
  1   1   2  1   
  2   2   3  ar  
  3   2   4  ar  
  4   3   5  1   
  5   3   6  ar  
  6   4   7  1   
  7   4   8  ar  
  8   6   9  ar  
  9   6  27  1   
 10   7  10  am  
 11   7  28  1   
 12   8   9  ar  
 13   8  29  1   
 14   9  30  1   
 15  10  11  2   
 16  10  12  am  
 17  12  13  1   
 18  12  14  1   
 19  13  15  1   
 20  13  31  1   
 21  13  32  1   
 22  14  16  1   
 23  14  33  1   
 24  14  34  1   
 25  15  17  1   
 26  15  18  1   
 27  15  19  1   
 28  16  18  1   
 29  16  35  1   
 30  16  36  1   
 31  17  20  ar  
 32  17  21  ar  
 33  18  37  1   
 34  18  38  1   
 35  19  22  1   
 36  19  39  1   
 37  19  40  1   
 38  20  23  ar  
 39  21  22  1   
 40  21  24  ar  
 41  22  41  1   
 42  22  42  1   
 43  23  25  ar  
 44  23  26  1   
 45  24  25  ar  
 46  24  43  1   
 47  26  44  1   
 48  26  45  1   
 49  26  46  1   
@<TRIPOS>SUBSTRUCTURE
  1 ****  13 GROUP 4 **** **** 0

# MOE 2024.06 (io_trps.svl 2023.06)
