@<TRIPOS>MOLECULE
NONAME
47 50 1 0 0 
SMALL
USER_CHARGES


@<TRIPOS>ATOM
  1 O        2.3490    -0.3410     2.1000 O.2   1 <1>  -0.5700 
  2 C        2.2300    -1.0010     1.0930 C.2   1 <1>   0.5690 
  3 N        2.3120    -0.4290    -0.1470 N.am  1 <1>  -0.6600 
  4 C        2.0350    -2.5060     1.2580 C.3   1 <1>   0.1810 
  5 C        2.4090     1.0330    -0.3220 C.3   1 <1>   0.4010 
  6 C        2.6040    -1.1460    -1.4060 C.3   1 <1>   0.1400 
  7 O        0.9780    -2.9870     0.4380 O.3   1 <1>  -0.3630 
  8 C        1.0990     1.7240     0.0380 C.2   1 <1>  -0.1810 
  9 C        2.7930     1.2320    -1.7910 C.3   1 <1>  -0.1600 
 10 C        3.3310    -0.1180    -2.2630 C.3   1 <1>  -0.1600 
 11 C        0.5630    -4.2730     0.5140 C.ar  1 <1>   0.0830 
 12 C       -0.1490     1.5890    -0.4470 C.2   1 <1>  -0.0400 
 13 C        0.9460     2.6990     1.0250 C.2   1 <1>   0.1080 
 14 C       -0.6130    -4.5790    -0.1480 C.ar  1 <1>  -0.1500 
 15 C        1.2440    -5.2680     1.2070 C.ar  1 <1>  -0.1500 
 16 O       -0.9220     2.4250     0.1910 O.3   1 <1>  -0.0190 
 17 C       -0.7650     0.7050    -1.5100 C.3   1 <1>  -0.0600 
 18 N       -0.2700     3.1060     1.0850 N.2   1 <1>  -0.4100 
 19 C        2.0370     3.2200     1.9360 C.3   1 <1>  -0.0590 
 20 C       -1.1340    -5.8690    -0.1270 C.ar  1 <1>  -0.0230 
 21 C        0.7410    -6.5570     1.2280 C.ar  1 <1>  -0.1500 
 22 N       -2.3560    -6.1730    -0.7950 N.pl3 1 <1>   0.5930 
 23 C       -0.4370    -6.8550     0.5660 C.ar  1 <1>  -0.1500 
 24 N       -2.6340    -7.3180    -1.3990 N.2   1 <1>  -0.4180 
 25 C       -3.4300    -5.4100    -0.9430 C.2   1 <1>   0.0360 
 26 N       -3.8200    -7.2130    -1.8800 N.2   1 <1>   0.0000 
 27 N       -4.3350    -6.0210    -1.6030 N.2   1 <1>  -0.3380 
 28 H        1.7870    -2.7180     2.2820 H     1 <1>   0.0800 
 29 H        2.9390    -3.0160     0.9860 H     1 <1>   0.0800 
 30 H        3.2060     1.3920     0.3050 H     1 <1>   0.0800 
 31 H        1.6780    -1.4440    -1.8690 H     1 <1>   0.0800 
 32 H        3.2150    -2.0150    -1.2350 H     1 <1>   0.0800 
 33 H        3.5200     2.0180    -1.8970 H     1 <1>   0.0800 
 34 H        1.9240     1.4990    -2.3650 H     1 <1>   0.0800 
 35 H        3.1650    -0.2820    -3.3140 H     1 <1>   0.0800 
 36 H        4.3870    -0.1810    -2.0620 H     1 <1>   0.0800 
 37 H       -1.1130    -3.7900    -0.6820 H     1 <1>   0.1500 
 38 H        2.1590    -5.0660     1.7300 H     1 <1>   0.1500 
 39 H       -0.0250     0.0650    -1.9490 H     1 <1>   0.0800 
 40 H       -1.2030     1.3150    -2.2790 H     1 <1>   0.0800 
 41 H       -1.5320     0.0950    -1.0680 H     1 <1>   0.0800 
 42 H        2.4530     2.4070     2.5040 H     1 <1>   0.0800 
 43 H        1.6300     3.9430     2.6190 H     1 <1>   0.0800 
 44 H        2.8110     3.6860     1.3560 H     1 <1>   0.0800 
 45 H        1.2670    -7.3310     1.7600 H     1 <1>   0.1500 
 46 H       -0.8160    -7.8650     0.5900 H     1 <1>   0.1500 
 47 H       -3.5040    -4.4170    -0.5470 H     1 <1>   0.1500 
@<TRIPOS>BOND
  1   1   2  2   
  2   2   3  am  
  3   2   4  1   
  4   3   5  1   
  5   3   6  1   
  6   4   7  1   
  7   4  28  1   
  8   4  29  1   
  9   5   8  1   
 10   5   9  1   
 11   5  30  1   
 12   6  10  1   
 13   6  31  1   
 14   6  32  1   
 15   7  11  1   
 16   8  12  2   
 17   8  13  1   
 18   9  10  1   
 19   9  33  1   
 20   9  34  1   
 21  10  35  1   
 22  10  36  1   
 23  11  14  ar  
 24  11  15  ar  
 25  12  16  1   
 26  12  17  1   
 27  13  18  2   
 28  13  19  1   
 29  14  20  ar  
 30  14  37  1   
 31  15  21  ar  
 32  15  38  1   
 33  16  18  1   
 34  17  39  1   
 35  17  40  1   
 36  17  41  1   
 37  19  42  1   
 38  19  43  1   
 39  19  44  1   
 40  20  22  1   
 41  20  23  ar  
 42  21  23  ar  
 43  21  45  1   
 44  22  24  1   
 45  22  25  1   
 46  23  46  1   
 47  24  26  2   
 48  25  27  2   
 49  25  47  1   
 50  26  27  1   
@<TRIPOS>SUBSTRUCTURE
  1 ****   7 GROUP 4 **** **** 0

# MOE 2024.06 (io_trps.svl 2023.06)
