@<TRIPOS>MOLECULE
NONAME
50 53 1 0 0 
SMALL
USER_CHARGES


@<TRIPOS>ATOM
  1 O       -0.3930     2.1160     2.2120 O.2   1 <1>  -0.5700 
  2 C       -0.8310     1.9910     1.0870 C.2   1 <1>   0.6900 
  3 N       -2.0110     1.3750     0.7860 N.am  1 <1>  -0.4200 
  4 N       -0.2230     2.4680    -0.0350 N.am  1 <1>  -0.6600 
  5 C       -2.2240     1.4200    -0.5580 C.2   1 <1>   0.5690 
  6 C       -2.8160     0.6040     1.7710 C.3   1 <1>   0.2010 
  7 C       -1.0540     2.1310    -1.2190 C.3   1 <1>   0.2010 
  8 C        1.1000     3.1280    -0.1320 C.3   1 <1>   0.0600 
  9 O       -3.1830     0.9880    -1.1480 O.2   1 <1>  -0.5700 
 10 C       -2.9630    -0.8650     1.3770 C.2   1 <1>   0.5690 
 11 O       -1.9820    -1.5680     1.4510 O.2   1 <1>  -0.5700 
 12 N       -4.1640    -1.3780     0.9560 N.am  1 <1>  -0.6600 
 13 C       -5.3950    -0.6090     0.6380 C.3   1 <1>   0.1400 
 14 C       -4.2550    -2.7530     0.4120 C.3   1 <1>   0.1400 
 15 C       -6.1400    -1.4650    -0.3830 C.3   1 <1>   0.2000 
 16 C       -5.6790    -2.8980    -0.1300 C.3   1 <1>  -0.0800 
 17 O       -7.5150    -1.3760    -0.2170 O.3   1 <1>  -0.6800 
 18 C       -5.7630    -3.7770    -1.3890 C.3   1 <1>  -0.0170 
 19 C       -5.3230    -5.2070    -1.0900 C.ar  1 <1>  -0.1440 
 20 C       -6.1690    -6.1400    -0.4450 C.ar  1 <1>   0.0000 
 21 C       -4.0720    -5.6250    -1.4370 C.ar  1 <1>  -0.1500 
 22 C       -5.6500    -7.4340    -0.1960 C.ar  1 <1>   0.3100 
 23 C       -7.4960    -5.8680    -0.0360 C.ar  1 <1>  -0.1500 
 24 C       -3.6590    -6.9310    -1.1490 C.ar  1 <1>   0.1600 
 25 N       -4.3980    -7.8140    -0.5540 N.ar  1 <1>  -0.6200 
 26 C       -6.4630    -8.3780     0.4520 C.ar  1 <1>  -0.1500 
 27 C       -8.2620    -6.8120     0.5920 C.ar  1 <1>  -0.1500 
 28 C       -7.7410    -8.0840     0.8420 C.ar  1 <1>  -0.1500 
 29 H       -2.3320     0.6390     2.7300 H     1 <1>   0.0800 
 30 H       -3.7780     1.0670     1.8740 H     1 <1>   0.0800 
 31 H       -1.3820     3.0190    -1.7280 H     1 <1>   0.0800 
 32 H       -0.5300     1.4680    -1.8840 H     1 <1>   0.0800 
 33 H        0.9920     4.1010    -0.5790 H     1 <1>   0.0800 
 34 H        1.7640     2.5300    -0.7320 H     1 <1>   0.0800 
 35 H        1.5250     3.2410     0.8510 H     1 <1>   0.0800 
 36 H       -5.9770    -0.4910     1.5350 H     1 <1>   0.0800 
 37 H       -5.1620     0.3520     0.2160 H     1 <1>   0.0800 
 38 H       -3.5290    -2.8610    -0.3760 H     1 <1>   0.0800 
 39 H       -4.0510    -3.4810     1.1800 H     1 <1>   0.0800 
 40 H       -5.8920    -1.1390    -1.3790 H     1 <1>   0.0800 
 41 H       -6.2710    -3.3300     0.6570 H     1 <1>   0.0800 
 42 H       -7.7700    -1.6770     0.6760 H     1 <1>   0.4000 
 43 H       -5.1340    -3.3590    -2.1560 H     1 <1>   0.0800 
 44 H       -6.7660    -3.7750    -1.7770 H     1 <1>   0.0800 
 45 H       -3.3740    -4.9730    -1.9310 H     1 <1>   0.1500 
 46 H       -7.9180    -4.8990    -0.2220 H     1 <1>   0.1500 
 47 H       -2.6630    -7.2190    -1.4390 H     1 <1>   0.1500 
 48 H       -6.0410    -9.3500     0.6320 H     1 <1>   0.1500 
 49 H       -9.2700    -6.5920     0.8980 H     1 <1>   0.1500 
 50 H       -8.3520    -8.8180     1.3380 H     1 <1>   0.1500 
@<TRIPOS>BOND
  1   1   2  2   
  2   2   3  am  
  3   2   4  am  
  4   3   5  am  
  5   3   6  1   
  6   4   7  1   
  7   4   8  1   
  8   5   7  1   
  9   5   9  2   
 10   6  10  1   
 11   6  29  1   
 12   6  30  1   
 13   7  31  1   
 14   7  32  1   
 15   8  33  1   
 16   8  34  1   
 17   8  35  1   
 18  10  11  2   
 19  10  12  am  
 20  12  13  1   
 21  12  14  1   
 22  13  15  1   
 23  13  36  1   
 24  13  37  1   
 25  14  16  1   
 26  14  38  1   
 27  14  39  1   
 28  15  16  1   
 29  15  17  1   
 30  15  40  1   
 31  16  18  1   
 32  16  41  1   
 33  17  42  1   
 34  18  19  1   
 35  18  43  1   
 36  18  44  1   
 37  19  20  ar  
 38  19  21  ar  
 39  20  22  ar  
 40  20  23  ar  
 41  21  24  ar  
 42  21  45  1   
 43  22  25  ar  
 44  22  26  ar  
 45  23  27  ar  
 46  23  46  1   
 47  24  25  ar  
 48  24  47  1   
 49  26  28  ar  
 50  26  48  1   
 51  27  28  ar  
 52  27  49  1   
 53  28  50  1   
@<TRIPOS>SUBSTRUCTURE
  1 ****  14 GROUP 4 **** **** 0

# MOE 2024.06 (io_trps.svl 2023.06)
