@<TRIPOS>MOLECULE
NONAME
48 50 1 0 0 
SMALL
USER_CHARGES


@<TRIPOS>ATOM
  1 O       -4.6530    -0.5430    -1.6750 O.2   1 <1>  -0.5700 
  2 C       -3.8420     0.2400    -1.2210 C.2   1 <1>   0.6900 
  3 N       -2.9010    -0.1350    -0.2690 N.am  1 <1>  -0.4690 
  4 N       -3.8560     1.5300    -1.6460 N.am  1 <1>  -0.4900 
  5 C       -2.0100     0.8000     0.2460 C.2   1 <1>  -0.0410 
  6 C       -2.8490    -1.5450     0.1970 C.3   1 <1>   0.1400 
  7 C       -3.0020     2.4770    -1.1730 C.2   1 <1>   0.6160 
  8 C       -2.0520     2.0790    -0.1900 C.2   1 <1>  -0.1360 
  9 C       -3.8830    -1.7730     1.2990 C.3   1 <1>  -0.0990 
 10 O       -3.0860     3.6080    -1.6000 O.2   1 <1>  -0.5700 
 11 C       -4.1170    -3.2560     1.4770 C.2   1 <1>   0.5690 
 12 O       -3.4820    -3.8270     2.3300 O.2   1 <1>  -0.5700 
 13 N       -5.0030    -3.9130     0.6720 N.am  1 <1>  -0.6600 
 14 C       -5.7570    -3.3500    -0.4810 C.3   1 <1>   0.1400 
 15 C       -5.3490    -5.3390     0.8530 C.3   1 <1>   0.1400 
 16 C       -6.6980    -4.4670    -0.9480 C.3   1 <1>   0.2000 
 17 C       -6.0150    -5.7510    -0.4620 C.3   1 <1>  -0.0800 
 18 O       -7.9380    -4.3440    -0.3090 O.3   1 <1>  -0.5600 
 19 C       -6.9570    -6.9610    -0.3240 C.3   1 <1>   0.0200 
 20 C       -8.8400    -3.4800    -0.9270 C.3   1 <1>   0.0400 
 21 C       -6.2280    -8.2590    -0.0160 C.2   1 <1>  -0.0400 
 22 O       -6.9340    -9.3380     0.1960 O.3   1 <1>  -0.0190 
 23 C       -4.9320    -8.5930     0.0960 C.2   1 <1>  -0.1500 
 24 N       -6.1830   -10.3720     0.4450 N.2   1 <1>  -0.4100 
 25 C       -4.9710    -9.9520     0.3920 C.2   1 <1>   0.1080 
 26 C       -3.7580   -10.8240     0.6240 C.3   1 <1>  -0.0590 
 27 H       -4.5380     1.8020    -2.3440 H     1 <1>   0.3700 
 28 H       -1.3030     0.4640     0.9890 H     1 <1>   0.1500 
 29 H       -3.0460    -2.1950    -0.6380 H     1 <1>   0.0800 
 30 H       -1.8650    -1.7790     0.5660 H     1 <1>   0.0800 
 31 H       -1.3890     2.8430     0.1700 H     1 <1>   0.1500 
 32 H       -4.8130    -1.2950     1.0590 H     1 <1>   0.0800 
 33 H       -3.5230    -1.3620     2.2230 H     1 <1>   0.0800 
 34 H       -6.3010    -2.4650    -0.2020 H     1 <1>   0.0800 
 35 H       -5.0660    -3.1130    -1.2690 H     1 <1>   0.0800 
 36 H       -4.4710    -5.9240     1.0670 H     1 <1>   0.0800 
 37 H       -6.0440    -5.4230     1.6720 H     1 <1>   0.0800 
 38 H       -6.8460    -4.4670    -2.0150 H     1 <1>   0.0800 
 39 H       -5.2370    -5.9930    -1.1650 H     1 <1>   0.0800 
 40 H       -7.5040    -7.0910    -1.2410 H     1 <1>   0.0800 
 41 H       -7.6730    -6.7770     0.4580 H     1 <1>   0.0800 
 42 H       -9.7380    -3.4580    -0.3350 H     1 <1>   0.0800 
 43 H       -9.0670    -3.8490    -1.9120 H     1 <1>   0.0800 
 44 H       -8.4180    -2.4920    -0.9800 H     1 <1>   0.0800 
 45 H       -4.0450    -7.9970    -0.0100 H     1 <1>   0.1500 
 46 H       -3.1970   -10.4520     1.4610 H     1 <1>   0.0800 
 47 H       -3.1350   -10.8230    -0.2510 H     1 <1>   0.0800 
 48 H       -4.0660   -11.8330     0.8310 H     1 <1>   0.0800 
@<TRIPOS>BOND
  1   1   2  2   
  2   2   3  am  
  3   2   4  am  
  4   3   5  1   
  5   3   6  1   
  6   4   7  am  
  7   4  27  1   
  8   5   8  2   
  9   5  28  1   
 10   6   9  1   
 11   6  29  1   
 12   6  30  1   
 13   7   8  1   
 14   7  10  2   
 15   8  31  1   
 16   9  11  1   
 17   9  32  1   
 18   9  33  1   
 19  11  12  2   
 20  11  13  am  
 21  13  14  1   
 22  13  15  1   
 23  14  16  1   
 24  14  34  1   
 25  14  35  1   
 26  15  17  1   
 27  15  36  1   
 28  15  37  1   
 29  16  17  1   
 30  16  18  1   
 31  16  38  1   
 32  17  19  1   
 33  17  39  1   
 34  18  20  1   
 35  19  21  1   
 36  19  40  1   
 37  19  41  1   
 38  20  42  1   
 39  20  43  1   
 40  20  44  1   
 41  21  22  1   
 42  21  23  2   
 43  22  24  1   
 44  23  25  1   
 45  23  45  1   
 46  24  25  2   
 47  25  26  1   
 48  26  46  1   
 49  26  47  1   
 50  26  48  1   
@<TRIPOS>SUBSTRUCTURE
  1 ****  13 GROUP 4 **** **** 0

# MOE 2024.06 (io_trps.svl 2023.06)
