@<TRIPOS>MOLECULE
NONAME
42 44 1 0 0 
SMALL
USER_CHARGES


@<TRIPOS>ATOM
  1 CL       3.1910     5.4580     2.5210 Cl    1 <1>  -0.1770 
  2 C        1.7500     5.3140     1.5410 C.ar  1 <1>   0.1770 
  3 C        1.7240     4.4740     0.4350 C.ar  1 <1>  -0.1440 
  4 C        0.6450     6.0600     1.9050 C.ar  1 <1>  -0.1500 
  5 C        0.5510     4.3930    -0.3040 C.ar  1 <1>  -0.1500 
  6 C        2.9350     3.6460     0.0350 C.3   1 <1>   0.2140 
  7 C       -0.5130     5.9790     1.1540 C.ar  1 <1>  -0.1500 
  8 C       -0.5570     5.1450     0.0500 C.ar  1 <1>  -0.1500 
  9 S        4.0560     4.6510    -0.9880 S.3   1 <1>  -0.4600 
 10 C        3.1360     4.9210    -2.5510 C.3   1 <1>   0.1310 
 11 C        2.1800     6.1020    -2.4570 C.2   1 <1>   0.5690 
 12 O        1.1720     6.0950    -3.1220 O.2   1 <1>  -0.5700 
 13 N        2.4810     7.1300    -1.6320 N.am  1 <1>  -0.7300 
 14 C        1.5670     8.2380    -1.2660 C.3   1 <1>   0.3210 
 15 C        1.8260     8.7010     0.1670 C.2   1 <1>   0.3350 
 16 N        0.9560     9.2160     0.9420 N.2   1 <1>  -0.4100 
 17 N        3.0230     8.5770     0.7320 N.2   1 <1>  -0.5650 
 18 O        1.5430     9.4490     2.0780 O.3   1 <1>  -0.0190 
 19 C        2.7750     9.0390     1.8960 C.2   1 <1>   0.2980 
 20 C        3.7430     9.1430     3.0830 C.3   1 <1>   0.3800 
 21 O        3.9690    10.4850     3.3980 O.3   1 <1>  -0.5600 
 22 C        5.1460     8.6020     2.8170 C.3   1 <1>  -0.1600 
 23 C        4.9990    10.9930     2.6090 C.3   1 <1>   0.1200 
 24 C        5.8950     9.8050     2.2630 C.3   1 <1>  -0.1600 
 25 H        0.6930     6.7050     2.7640 H     1 <1>   0.1500 
 26 H        0.4910     3.7530    -1.1670 H     1 <1>   0.1500 
 27 H        2.6540     2.7870    -0.5470 H     1 <1>   0.0800 
 28 H        3.4960     3.3240     0.8940 H     1 <1>   0.0800 
 29 H       -1.3740     6.5660     1.4250 H     1 <1>   0.1500 
 30 H       -1.4560     5.0830    -0.5400 H     1 <1>   0.1500 
 31 H        2.6010     4.0180    -2.7760 H     1 <1>   0.0800 
 32 H        3.8660     5.1080    -3.3160 H     1 <1>   0.0800 
 33 H        3.2730     7.0300    -0.9840 H     1 <1>   0.3700 
 34 H        0.5450     7.9140    -1.3580 H     1 <1>   0.0800 
 35 H        1.7290     9.0630    -1.9350 H     1 <1>   0.0800 
 36 H        3.3030     8.6650     3.9400 H     1 <1>   0.0800 
 37 H        5.1460     7.7630     2.1440 H     1 <1>   0.0800 
 38 H        5.5800     8.2950     3.7520 H     1 <1>   0.0800 
 39 H        5.5200    11.7510     3.1680 H     1 <1>   0.0800 
 40 H        4.5620    11.4220     1.7230 H     1 <1>   0.0800 
 41 H        6.0050     9.7350     1.1950 H     1 <1>   0.0800 
 42 H        6.8670     9.9080     2.7110 H     1 <1>   0.0800 
@<TRIPOS>BOND
  1   1   2  1   
  2   2   3  ar  
  3   2   4  ar  
  4   3   5  ar  
  5   3   6  1   
  6   4   7  ar  
  7   4  25  1   
  8   5   8  ar  
  9   5  26  1   
 10   6   9  1   
 11   6  27  1   
 12   6  28  1   
 13   7   8  ar  
 14   7  29  1   
 15   8  30  1   
 16   9  10  1   
 17  10  11  1   
 18  10  31  1   
 19  10  32  1   
 20  11  12  2   
 21  11  13  am  
 22  13  14  1   
 23  13  33  1   
 24  14  15  1   
 25  14  34  1   
 26  14  35  1   
 27  15  16  2   
 28  15  17  1   
 29  16  18  1   
 30  17  19  2   
 31  18  19  1   
 32  19  20  1   
 33  20  21  1   
 34  20  22  1   
 35  20  36  1   
 36  21  23  1   
 37  22  24  1   
 38  22  37  1   
 39  22  38  1   
 40  23  24  1   
 41  23  39  1   
 42  23  40  1   
 43  24  41  1   
 44  24  42  1   
@<TRIPOS>SUBSTRUCTURE
  1 ****  17 GROUP 4 **** **** 0

# MOE 2024.06 (io_trps.svl 2023.06)
