@<TRIPOS>MOLECULE
NONAME
43 45 1 0 0 
SMALL
USER_CHARGES


@<TRIPOS>ATOM
  1 CL       1.4280    -5.0360     1.8560 Cl    1 <1>  -0.1770 
  2 C        0.0570    -4.2030     1.1700 C.ar  1 <1>   0.1770 
  3 C       -0.5500    -4.7140     0.0380 C.ar  1 <1>  -0.1500 
  4 C       -0.4020    -3.0460     1.7720 C.ar  1 <1>  -0.1500 
  5 C       -1.6450    -4.0600    -0.5070 C.ar  1 <1>  -0.1440 
  6 C       -1.4910    -2.3890     1.2260 C.ar  1 <1>  -0.1500 
  7 C       -2.1070    -2.8950     0.0920 C.ar  1 <1>  -0.1500 
  8 C       -2.3350    -4.6180    -1.7500 C.3   1 <1>   0.0450 
  9 C       -2.6250    -6.1120    -1.6690 C.2   1 <1>   0.5690 
 10 O       -2.1070    -6.8310    -2.4910 O.2   1 <1>  -0.5700 
 11 N       -3.4570    -6.6180    -0.7060 N.am  1 <1>  -0.6600 
 12 C       -4.1100    -5.8580     0.3900 C.3   1 <1>   0.1400 
 13 C       -3.7340    -8.0690    -0.5750 C.3   1 <1>   0.1400 
 14 C       -5.0050    -6.8780     1.0910 C.3   1 <1>   0.2000 
 15 C       -4.3670    -8.2350     0.8070 C.3   1 <1>  -0.0800 
 16 O       -5.0680    -6.6490     2.4550 O.3   1 <1>  -0.6800 
 17 C       -5.3630    -9.4010     0.8930 C.3   1 <1>   0.0210 
 18 C       -4.7070   -10.7070     0.4860 C.2   1 <1>   0.1080 
 19 N       -3.7190   -11.2310     1.1420 N.2   1 <1>  -0.7070 
 20 C       -5.0690   -11.4700    -0.6190 C.2   1 <1>  -0.1500 
 21 N       -3.4220   -12.3570     0.4650 N.pl3 1 <1>   0.3000 
 22 C       -4.2250   -12.5220    -0.6060 C.2   1 <1>  -0.3320 
 23 C       -4.1340   -13.6930    -1.5670 C.3   1 <1>  -0.0600 
 24 H       -0.1640    -5.6170    -0.4040 H     1 <1>   0.1500 
 25 H        0.0890    -2.6690     2.6510 H     1 <1>   0.1500 
 26 H       -1.8580    -1.4850     1.6820 H     1 <1>   0.1500 
 27 H       -2.9520    -2.3700    -0.3210 H     1 <1>   0.1500 
 28 H       -1.7030    -4.4390    -2.6010 H     1 <1>   0.0800 
 29 H       -3.2620    -4.1080    -1.9260 H     1 <1>   0.0800 
 30 H       -3.3560    -5.4920     1.0650 H     1 <1>   0.0800 
 31 H       -4.6910    -5.0430    -0.0040 H     1 <1>   0.0800 
 32 H       -4.4160    -8.3650    -1.3540 H     1 <1>   0.0800 
 33 H       -2.8270    -8.6450    -0.6620 H     1 <1>   0.0800 
 34 H       -6.0030    -6.8190     0.6900 H     1 <1>   0.0800 
 35 H       -3.5630    -8.4090     1.5010 H     1 <1>   0.0800 
 36 H       -4.2020    -6.8380     2.8680 H     1 <1>   0.4000 
 37 H       -6.2080    -9.2150     0.2560 H     1 <1>   0.0800 
 38 H       -5.7180    -9.4950     1.9030 H     1 <1>   0.0800 
 39 H       -5.8560   -11.2450    -1.3170 H     1 <1>   0.1500 
 40 H       -2.6660   -12.9870     0.7590 H     1 <1>   0.2700 
 41 H       -4.8800   -13.5980    -2.3370 H     1 <1>   0.0800 
 42 H       -4.2980   -14.6180    -1.0440 H     1 <1>   0.0800 
 43 H       -3.1640   -13.7190    -2.0320 H     1 <1>   0.0800 
@<TRIPOS>BOND
  1   1   2  1   
  2   2   3  ar  
  3   2   4  ar  
  4   3   5  ar  
  5   3  24  1   
  6   4   6  ar  
  7   4  25  1   
  8   5   7  ar  
  9   5   8  1   
 10   6   7  ar  
 11   6  26  1   
 12   7  27  1   
 13   8   9  1   
 14   8  28  1   
 15   8  29  1   
 16   9  10  2   
 17   9  11  am  
 18  11  12  1   
 19  11  13  1   
 20  12  14  1   
 21  12  30  1   
 22  12  31  1   
 23  13  15  1   
 24  13  32  1   
 25  13  33  1   
 26  14  15  1   
 27  14  16  1   
 28  14  34  1   
 29  15  17  1   
 30  15  35  1   
 31  16  36  1   
 32  17  18  1   
 33  17  37  1   
 34  17  38  1   
 35  18  19  2   
 36  18  20  1   
 37  19  21  1   
 38  20  22  2   
 39  20  39  1   
 40  21  22  1   
 41  21  40  1   
 42  22  23  1   
 43  23  41  1   
 44  23  42  1   
 45  23  43  1   
@<TRIPOS>SUBSTRUCTURE
  1 ****  11 GROUP 4 **** **** 0

# MOE 2024.06 (io_trps.svl 2023.06)
