@<TRIPOS>MOLECULE
NONAME
47 49 1 0 0 
SMALL
USER_CHARGES


@<TRIPOS>ATOM
  1 CL       0.1280    -0.1060     1.0990 Cl    1 <1>  -0.1770 
  2 C       -0.1150    -1.6790     0.3880 C.ar  1 <1>   0.1770 
  3 C        0.7660    -2.7000     0.6810 C.ar  1 <1>  -0.1500 
  4 C       -1.1850    -1.8810    -0.4590 C.ar  1 <1>  -0.1500 
  5 C        0.5820    -3.9580     0.1250 C.ar  1 <1>  -0.1440 
  6 C       -1.3750    -3.1340    -1.0150 C.ar  1 <1>  -0.1500 
  7 C       -0.5040    -4.1780    -0.7220 C.ar  1 <1>  -0.1430 
  8 C        1.5910    -5.0470     0.4670 C.3   1 <1>  -0.0960 
  9 C       -0.7870    -5.5380    -1.3490 C.3   1 <1>   0.4870 
 10 N       -1.3930    -6.4540    -0.3460 N.4   1 <1>  -0.9590 
 11 C       -1.7810    -7.7390    -1.0080 C.3   1 <1>   0.3430 
 12 C       -2.5470    -5.8480     0.3830 C.3   1 <1>   0.3430 
 13 C       -2.2530    -8.7740     0.0090 C.3   1 <1>  -0.1060 
 14 C       -3.0560    -6.8110     1.4480 C.3   1 <1>  -0.1600 
 15 C       -2.8470    -9.9120    -0.8000 C.2   1 <1>   0.9060 
 16 C       -3.4070    -8.1590     0.8220 C.3   1 <1>   0.2000 
 17 C       -1.0760    -9.2860     0.8880 C.3   1 <1>  -0.0650 
 18 O       -2.7310    -9.8840    -2.0290 O.co2 1 <1>  -0.9000 
 19 O       -3.4770   -10.7880    -0.2020 O.co2 1 <1>  -0.9000 
 20 O       -3.7680    -9.0130     1.8350 O.3   1 <1>  -0.6800 
 21 C        0.1190    -9.7930     0.0680 C.3   1 <1>  -0.1950 
 22 C        1.4490    -9.9710     0.7240 C.3   1 <1>  -0.2000 
 23 C        1.2640    -8.9130    -0.3250 C.3   1 <1>  -0.2000 
 24 H        1.5900    -2.4950     1.3420 H     1 <1>   0.1500 
 25 H       -1.8520    -1.0660    -0.6770 H     1 <1>   0.1500 
 26 H       -2.2120    -3.2810    -1.6780 H     1 <1>   0.1500 
 27 H        2.4670    -4.6220     0.9250 H     1 <1>   0.0800 
 28 H        1.9110    -5.5630    -0.4200 H     1 <1>   0.0800 
 29 H        1.1630    -5.7470     1.1610 H     1 <1>   0.0800 
 30 H        0.1290    -5.9620    -1.7280 H     1 <1>   0.0800 
 31 H       -1.4630    -5.4120    -2.1780 H     1 <1>   0.0800 
 32 H       -0.6750    -6.6800     0.3500 H     1 <1>   0.4500 
 33 H       -2.5800    -7.5610    -1.7120 H     1 <1>   0.0800 
 34 H       -0.9540    -8.1510    -1.5620 H     1 <1>   0.0800 
 35 H       -2.2470    -4.9260     0.8550 H     1 <1>   0.0800 
 36 H       -3.3410    -5.6320    -0.3130 H     1 <1>   0.0800 
 37 H       -3.9380    -6.3970     1.9020 H     1 <1>   0.0800 
 38 H       -2.3130    -6.9310     2.2160 H     1 <1>   0.0800 
 39 H       -4.2710    -8.0460     0.1850 H     1 <1>   0.0800 
 40 H       -0.7460    -8.5230     1.5670 H     1 <1>   0.0800 
 41 H       -1.4280   -10.1090     1.4890 H     1 <1>   0.0800 
 42 H       -3.8800    -9.9120     1.4130 H     1 <1>   0.4000 
 43 H       -0.1670   -10.5750    -0.6210 H     1 <1>   0.1000 
 44 H        1.5640    -9.6770     1.7540 H     1 <1>   0.1000 
 45 H        2.0190   -10.8530     0.4850 H     1 <1>   0.1000 
 46 H        1.7220    -9.0660    -1.2870 H     1 <1>   0.1000 
 47 H        1.3120    -7.8940     0.0000 H     1 <1>   0.1000 
@<TRIPOS>BOND
  1   1   2  1   
  2   2   3  ar  
  3   2   4  ar  
  4   3   5  ar  
  5   3  24  1   
  6   4   6  ar  
  7   4  25  1   
  8   5   7  ar  
  9   5   8  1   
 10   6   7  ar  
 11   6  26  1   
 12   7   9  1   
 13   8  27  1   
 14   8  28  1   
 15   8  29  1   
 16   9  10  1   
 17   9  30  1   
 18   9  31  1   
 19  10  11  1   
 20  10  12  1   
 21  10  32  1   
 22  11  13  1   
 23  11  33  1   
 24  11  34  1   
 25  12  14  1   
 26  12  35  1   
 27  12  36  1   
 28  13  15  1   
 29  13  16  1   
 30  13  17  1   
 31  14  16  1   
 32  14  37  1   
 33  14  38  1   
 34  15  18  ar  
 35  15  19  ar  
 36  16  20  1   
 37  16  39  1   
 38  17  21  1   
 39  17  40  1   
 40  17  41  1   
 41  20  42  1   
 42  21  22  1   
 43  21  23  1   
 44  21  43  1   
 45  22  23  1   
 46  22  44  1   
 47  22  45  1   
 48  23  46  1   
 49  23  47  1   
@<TRIPOS>SUBSTRUCTURE
  1 ****  10 GROUP 4 **** **** 0

# MOE 2024.06 (io_trps.svl 2023.06)
