@<TRIPOS>MOLECULE
NONAME
44 46 1 0 0 
SMALL
USER_CHARGES


@<TRIPOS>ATOM
  1 O        0.4220     0.2140    -0.1130 O.3   1 <1>  -0.3630 
  2 C        1.7330    -0.1190    -0.2800 C.ar  1 <1>   0.0830 
  3 C       -0.5980    -0.7450    -0.2850 C.3   1 <1>   0.0400 
  4 C        2.6570     0.8810    -0.0770 C.ar  1 <1>  -0.1500 
  5 C        2.1610    -1.4110    -0.6410 C.ar  1 <1>  -0.1500 
  6 C        4.0210     0.6140    -0.2310 C.ar  1 <1>   0.0000 
  7 C        3.5000    -1.6870    -0.7950 C.ar  1 <1>  -0.1500 
  8 C        4.4300    -0.6660    -0.5870 C.ar  1 <1>  -0.1520 
  9 C        5.1940     1.3920    -0.1030 C.2   1 <1>  -0.1810 
 10 N        5.8000    -0.6700    -0.6730 N.pl3 1 <1>   0.0330 
 11 C        6.2490     0.5860    -0.3760 C.2   1 <1>  -0.3020 
 12 C        5.1700     2.8650     0.2790 C.3   1 <1>   0.0210 
 13 C        6.5610     3.4980     0.2580 C.3   1 <1>   0.2090 
 14 N        6.4720     4.9360     0.6080 N.pl3 1 <1>  -0.8690 
 15 C        7.5920     5.7460     0.4810 C.ar  1 <1>   0.4100 
 16 N        8.7620     5.1860     0.7300 N.ar  1 <1>  -0.6200 
 17 C        7.4350     7.1160     0.0840 C.ar  1 <1>   0.4100 
 18 C        9.7660     6.0400     0.5760 C.ar  1 <1>   0.1600 
 19 N        8.4550     7.9430    -0.0680 N.ar  1 <1>  -0.6200 
 20 N        6.1590     7.6530    -0.1530 N.pl3 1 <1>  -0.8380 
 21 C        9.6190     7.3600     0.1920 C.ar  1 <1>   0.1600 
 22 C        5.4130     8.0460     1.0700 C.3   1 <1>   0.1290 
 23 C        6.0260     8.6360    -1.2630 C.3   1 <1>   0.1290 
 24 H       -1.5410    -0.2650    -0.0990 H     1 <1>   0.0800 
 25 H       -0.4490    -1.5430     0.4210 H     1 <1>   0.0800 
 26 H       -0.5670    -1.1100    -1.2960 H     1 <1>   0.0800 
 27 H        2.3360     1.8670     0.1990 H     1 <1>   0.1500 
 28 H        1.4500    -2.1980    -0.8020 H     1 <1>   0.1500 
 29 H        3.8360    -2.6710    -1.0700 H     1 <1>   0.1500 
 30 H        6.3730    -1.4830    -0.9150 H     1 <1>   0.2700 
 31 H        7.2990     0.8210    -0.3790 H     1 <1>   0.1500 
 32 H        4.7570     2.9590     1.2670 H     1 <1>   0.0800 
 33 H        4.5360     3.3870    -0.4140 H     1 <1>   0.0800 
 34 H        6.9960     3.3950    -0.7220 H     1 <1>   0.0800 
 35 H        7.1960     2.9990     0.9700 H     1 <1>   0.0800 
 36 H        5.6760     5.4190     0.1750 H     1 <1>   0.4000 
 37 H       10.7540     5.6610     0.7650 H     1 <1>   0.1500 
 38 H       10.4980     7.9720     0.0930 H     1 <1>   0.1500 
 39 H        5.5810     7.3270     1.8550 H     1 <1>   0.0800 
 40 H        4.3590     8.0890     0.8590 H     1 <1>   0.0800 
 41 H        5.7500     9.0110     1.4090 H     1 <1>   0.0800 
 42 H        6.6150     8.3160    -2.1060 H     1 <1>   0.0800 
 43 H        6.3780     9.6020    -0.9430 H     1 <1>   0.0800 
 44 H        4.9970     8.7120    -1.5670 H     1 <1>   0.0800 
@<TRIPOS>BOND
  1   1   2  1   
  2   1   3  1   
  3   2   4  ar  
  4   2   5  ar  
  5   3  24  1   
  6   3  25  1   
  7   3  26  1   
  8   4   6  ar  
  9   4  27  1   
 10   5   7  ar  
 11   5  28  1   
 12   6   8  ar  
 13   6   9  1   
 14   7   8  ar  
 15   7  29  1   
 16   8  10  1   
 17   9  11  2   
 18   9  12  1   
 19  10  11  1   
 20  10  30  1   
 21  11  31  1   
 22  12  13  1   
 23  12  32  1   
 24  12  33  1   
 25  13  14  1   
 26  13  34  1   
 27  13  35  1   
 28  14  15  1   
 29  14  36  1   
 30  15  16  ar  
 31  15  17  ar  
 32  16  18  ar  
 33  17  19  ar  
 34  17  20  1   
 35  18  21  ar  
 36  18  37  1   
 37  19  21  ar  
 38  20  22  1   
 39  20  23  1   
 40  21  38  1   
 41  22  39  1   
 42  22  40  1   
 43  22  41  1   
 44  23  42  1   
 45  23  43  1   
 46  23  44  1   
@<TRIPOS>SUBSTRUCTURE
  1 ****  12 GROUP 4 **** **** 0

# MOE 2024.06 (io_trps.svl 2023.06)
