@<TRIPOS>MOLECULE
NONAME
47 48 1 0 0 
SMALL
USER_CHARGES


@<TRIPOS>ATOM
  1 CL      -0.6060    -1.3280     2.2570 Cl    1 <1>  -0.1770 
  2 C       -0.5050    -2.8820     1.4680 C.ar  1 <1>   0.1770 
  3 C       -1.6090    -3.3850     0.8130 C.ar  1 <1>  -0.1500 
  4 C        0.6840    -3.5820     1.5110 C.ar  1 <1>  -0.1500 
  5 C       -1.5390    -4.6210     0.1790 C.ar  1 <1>   0.1170 
  6 C        0.7640    -4.8120     0.8820 C.ar  1 <1>  -0.1500 
  7 N       -2.6350    -5.1610    -0.5080 N.am  1 <1>  -0.5470 
  8 C       -0.3370    -5.3350     0.2190 C.ar  1 <1>  -0.1430 
  9 C       -3.9810    -4.9900    -0.3430 C.2   1 <1>   0.5690 
 10 C       -0.2090    -6.6970    -0.4560 C.3   1 <1>  -0.0960 
 11 O       -4.4800    -4.2550     0.4720 O.2   1 <1>  -0.5700 
 12 C       -4.8950    -5.7920    -1.2250 C.3   1 <1>  -0.0380 
 13 C       -4.5610    -7.2450    -1.0190 C.2   1 <1>   0.5690 
 14 O       -3.7830    -7.7390    -1.8030 O.2   1 <1>  -0.5700 
 15 N       -5.0980    -7.9810     0.0030 N.am  1 <1>  -0.6600 
 16 C       -4.7670    -9.4320     0.1660 C.3   1 <1>   0.1400 
 17 C       -6.1030    -7.4860     1.0000 C.3   1 <1>   0.1400 
 18 C       -5.6030   -10.3200    -0.7750 C.3   1 <1>   0.2000 
 19 C       -7.5280    -7.9570     0.6600 C.3   1 <1>   0.1400 
 20 O       -5.0870   -10.2070    -2.0580 O.3   1 <1>  -0.6800 
 21 C       -7.1020    -9.9570    -0.8230 C.3   1 <1>   0.1400 
 22 N       -7.6140    -9.4440     0.4890 N.am  1 <1>  -0.6600 
 23 C       -8.0670   -10.2370     1.5090 C.2   1 <1>   0.5690 
 24 O       -8.3370    -9.7850     2.5940 O.2   1 <1>  -0.5700 
 25 C       -8.2260   -11.7270     1.3120 C.3   1 <1>  -0.1790 
 26 H       -2.5150    -2.8080     0.7970 H     1 <1>   0.1500 
 27 H        1.5310    -3.1680     2.0290 H     1 <1>   0.1500 
 28 H        1.6910    -5.3580     0.9160 H     1 <1>   0.1500 
 29 H       -2.3850    -5.9090    -1.1600 H     1 <1>   0.3700 
 30 H       -0.9700    -7.3650    -0.0930 H     1 <1>   0.0800 
 31 H        0.7480    -7.1410    -0.2520 H     1 <1>   0.0800 
 32 H       -0.3120    -6.5940    -1.5220 H     1 <1>   0.0800 
 33 H       -4.7220    -5.5200    -2.2490 H     1 <1>   0.0800 
 34 H       -5.9220    -5.5900    -0.9960 H     1 <1>   0.0800 
 35 H       -4.9610    -9.7280     1.1830 H     1 <1>   0.0800 
 36 H       -3.7190    -9.5970    -0.0170 H     1 <1>   0.0800 
 37 H       -6.0880    -6.4120     1.0600 H     1 <1>   0.0800 
 38 H       -5.8440    -7.8500     1.9800 H     1 <1>   0.0800 
 39 H       -5.4930   -11.3500    -0.4860 H     1 <1>   0.0800 
 40 H       -7.8610    -7.4730    -0.2400 H     1 <1>   0.0800 
 41 H       -8.1910    -7.6440     1.4490 H     1 <1>   0.0800 
 42 H       -4.6140    -9.3410    -2.1400 H     1 <1>   0.4000 
 43 H       -7.6640   -10.8200    -1.1300 H     1 <1>   0.0800 
 44 H       -7.2510    -9.1950    -1.5680 H     1 <1>   0.0800 
 45 H       -7.2800   -12.1720     1.0720 H     1 <1>   0.0800 
 46 H       -8.9310   -11.9180     0.5260 H     1 <1>   0.0800 
 47 H       -8.5950   -12.1730     2.2180 H     1 <1>   0.0800 
@<TRIPOS>BOND
  1   1   2  1   
  2   2   3  ar  
  3   2   4  ar  
  4   3   5  ar  
  5   3  26  1   
  6   4   6  ar  
  7   4  27  1   
  8   5   7  1   
  9   5   8  ar  
 10   6   8  ar  
 11   6  28  1   
 12   7   9  am  
 13   7  29  1   
 14   8  10  1   
 15   9  11  2   
 16   9  12  1   
 17  10  30  1   
 18  10  31  1   
 19  10  32  1   
 20  12  13  1   
 21  12  33  1   
 22  12  34  1   
 23  13  14  2   
 24  13  15  am  
 25  15  16  1   
 26  15  17  1   
 27  16  18  1   
 28  16  35  1   
 29  16  36  1   
 30  17  19  1   
 31  17  37  1   
 32  17  38  1   
 33  18  20  1   
 34  18  21  1   
 35  18  39  1   
 36  19  22  1   
 37  19  40  1   
 38  19  41  1   
 39  20  42  1   
 40  21  22  1   
 41  21  43  1   
 42  21  44  1   
 43  22  23  am  
 44  23  24  2   
 45  23  25  1   
 46  25  45  1   
 47  25  46  1   
 48  25  47  1   
@<TRIPOS>SUBSTRUCTURE
  1 ****  13 GROUP 4 **** **** 0

# MOE 2024.06 (io_trps.svl 2023.06)
