@<TRIPOS>MOLECULE
NONAME
53 56 1 0 0 
SMALL
USER_CHARGES


@<TRIPOS>ATOM
  1 S        0.7320     0.0090    -2.3050 S.3   1 <1>  -0.0800 
  2 C        1.3480    -1.0870    -1.0610 C.2   1 <1>  -0.0450 
  3 C        1.7440     1.3220    -1.7560 C.2   1 <1>  -0.1100 
  4 C        2.2800    -0.4250    -0.3220 C.2   1 <1>  -0.1810 
  5 C        0.8490    -2.4420    -1.0270 C.2   1 <1>   0.7150 
  6 C        2.4890     0.9380    -0.7050 C.2   1 <1>  -0.1810 
  7 C        3.0920    -1.0580     0.8030 C.3   1 <1>   0.0210 
  8 O        1.5210    -3.3480    -0.5600 O.2   1 <1>  -0.5700 
  9 N       -0.4100    -2.7820    -1.4760 N.am  1 <1>  -0.6600 
 10 C        3.4530     1.8490     0.0410 C.3   1 <1>   0.0210 
 11 C        3.7640    -0.0160     1.7060 C.3   1 <1>  -0.1600 
 12 C       -0.6900    -4.1850    -1.8720 C.3   1 <1>   0.1400 
 13 C       -1.6050    -2.0350    -1.0020 C.3   1 <1>   0.1400 
 14 C        4.4720     1.0550     0.8660 C.3   1 <1>  -0.1600 
 15 C       -1.2460    -4.9510    -0.6510 C.3   1 <1>   0.4230 
 16 C       -2.1890    -2.7750     0.2100 C.3   1 <1>  -0.1600 
 17 N       -1.3850    -6.4510    -0.8730 N.4   1 <1>  -0.9590 
 18 C       -2.5220    -4.2710    -0.0660 C.3   1 <1>   0.0000 
 19 C       -2.2840    -7.1340     0.1140 C.3   1 <1>   0.3430 
 20 C       -1.7420    -6.8700    -2.2680 C.3   1 <1>   0.2630 
 21 C       -2.8940    -4.9560     1.2830 C.3   1 <1>  -0.1600 
 22 C       -3.7000    -4.3830    -1.0750 C.3   1 <1>   0.1200 
 23 C       -2.3180    -6.3770     1.4400 C.3   1 <1>  -0.1600 
 24 O       -4.7900    -3.6280    -0.6780 O.3   1 <1>  -0.6800 
 25 H        1.6680     2.2590    -2.2790 H     1 <1>   0.1500 
 26 H        2.4630    -1.6970     1.3980 H     1 <1>   0.0800 
 27 H        3.8530    -1.6730     0.3560 H     1 <1>   0.0800 
 28 H        3.9650     2.4890    -0.6560 H     1 <1>   0.0800 
 29 H        2.8790     2.4720     0.7040 H     1 <1>   0.0800 
 30 H        3.0190     0.4490     2.3280 H     1 <1>   0.0800 
 31 H        4.4750    -0.5070     2.3480 H     1 <1>   0.0800 
 32 H       -1.3860    -4.1780    -2.6910 H     1 <1>   0.0800 
 33 H        0.2240    -4.6460    -2.2070 H     1 <1>   0.0800 
 34 H       -1.3350    -1.0330    -0.7100 H     1 <1>   0.0800 
 35 H       -2.3310    -1.9630    -1.7950 H     1 <1>   0.0800 
 36 H        5.1780     0.5840     0.2040 H     1 <1>   0.0800 
 37 H        5.0130     1.7270     1.5090 H     1 <1>   0.0800 
 38 H       -0.4920    -4.8310     0.1110 H     1 <1>   0.0800 
 39 H       -1.4640    -2.7030     1.0040 H     1 <1>   0.0800 
 40 H       -3.0630    -2.2460     0.5490 H     1 <1>   0.0800 
 41 H       -0.4370    -6.8160    -0.6880 H     1 <1>   0.4500 
 42 H       -3.2870    -7.1800    -0.2780 H     1 <1>   0.0800 
 43 H       -1.9460    -8.1460     0.2780 H     1 <1>   0.0800 
 44 H       -2.7080    -6.4810    -2.5440 H     1 <1>   0.0800 
 45 H       -1.7730    -7.9460    -2.3380 H     1 <1>   0.0800 
 46 H       -1.0090    -6.5090    -2.9710 H     1 <1>   0.0800 
 47 H       -2.5350    -4.3740     2.1160 H     1 <1>   0.0800 
 48 H       -3.9630    -5.0010     1.3930 H     1 <1>   0.0800 
 49 H       -4.0360    -5.3990    -1.1800 H     1 <1>   0.0800 
 50 H       -3.4200    -4.0170    -2.0470 H     1 <1>   0.0800 
 51 H       -2.9200    -6.9250     2.1460 H     1 <1>   0.0800 
 52 H       -1.3220    -6.3320     1.8460 H     1 <1>   0.0800 
 53 H       -5.1550    -3.9230     0.1800 H     1 <1>   0.4000 
@<TRIPOS>BOND
  1   1   2  1   
  2   1   3  1   
  3   2   4  2   
  4   2   5  1   
  5   3   6  2   
  6   3  25  1   
  7   4   6  1   
  8   4   7  1   
  9   5   8  2   
 10   5   9  am  
 11   6  10  1   
 12   7  11  1   
 13   7  26  1   
 14   7  27  1   
 15   9  12  1   
 16   9  13  1   
 17  10  14  1   
 18  10  28  1   
 19  10  29  1   
 20  11  14  1   
 21  11  30  1   
 22  11  31  1   
 23  12  15  1   
 24  12  32  1   
 25  12  33  1   
 26  13  16  1   
 27  13  34  1   
 28  13  35  1   
 29  14  36  1   
 30  14  37  1   
 31  15  17  1   
 32  15  18  1   
 33  15  38  1   
 34  16  18  1   
 35  16  39  1   
 36  16  40  1   
 37  17  19  1   
 38  17  20  1   
 39  17  41  1   
 40  18  21  1   
 41  18  22  1   
 42  19  23  1   
 43  19  42  1   
 44  19  43  1   
 45  20  44  1   
 46  20  45  1   
 47  20  46  1   
 48  21  23  1   
 49  21  47  1   
 50  21  48  1   
 51  22  24  1   
 52  22  49  1   
 53  22  50  1   
 54  23  51  1   
 55  23  52  1   
 56  24  53  1   
@<TRIPOS>SUBSTRUCTURE
  1 ****   9 GROUP 4 **** **** 0

# MOE 2024.06 (io_trps.svl 2023.06)
