@<TRIPOS>MOLECULE
NONAME
46 49 1 0 0 
SMALL
USER_CHARGES


@<TRIPOS>ATOM
  1 O       -4.9330     3.3680     0.5170 O.2   1 <1>  -0.5700 
  2 C       -3.7280     3.2350     0.4170 C.2   1 <1>   0.7800 
  3 O       -2.8650     3.7400     1.3000 O.3   1 <1>  -0.2330 
  4 N       -3.0750     2.5510    -0.5630 N.am  1 <1>  -0.4770 
  5 C       -1.6340     3.3640     0.8980 C.ar  1 <1>   0.0830 
  6 C       -1.7340     2.6160    -0.2540 C.ar  1 <1>   0.1170 
  7 C       -3.7000     1.8490    -1.7140 C.3   1 <1>   0.2010 
  8 C       -0.4150     3.6380     1.4900 C.ar  1 <1>  -0.1500 
  9 C       -0.5960     2.0980    -0.8550 C.ar  1 <1>  -0.1500 
 10 C       -3.5610     0.3310    -1.6250 C.2   1 <1>   0.5690 
 11 C        0.7260     3.1290     0.8880 C.ar  1 <1>  -0.1500 
 12 C        0.6350     2.3630    -0.2730 C.ar  1 <1>  -0.1500 
 13 O       -2.7750    -0.2050    -2.3720 O.2   1 <1>  -0.5700 
 14 N       -4.3110    -0.3960    -0.7390 N.am  1 <1>  -0.6600 
 15 C       -5.3170     0.1300     0.2210 C.3   1 <1>   0.1400 
 16 C       -4.1960    -1.8700    -0.6220 C.3   1 <1>   0.1400 
 17 C       -6.0300    -1.1140     0.7480 C.3   1 <1>   0.2000 
 18 C       -5.0110    -2.2430     0.6180 C.3   1 <1>  -0.0800 
 19 O       -6.4200    -0.9670     2.0690 O.3   1 <1>  -0.6800 
 20 C       -5.6550    -3.6350     0.5360 C.3   1 <1>   0.0210 
 21 C       -4.6130    -4.7040     0.2700 C.2   1 <1>   0.1080 
 22 N       -3.6240    -4.9380     1.0750 N.2   1 <1>  -0.7070 
 23 C       -4.5880    -5.5310    -0.8480 C.2   1 <1>  -0.1500 
 24 N       -2.9340    -5.9320     0.4860 N.pl3 1 <1>   0.3000 
 25 C       -3.4980    -6.3080    -0.6820 C.2   1 <1>  -0.3320 
 26 C       -2.9510    -7.4020    -1.5800 C.3   1 <1>  -0.0600 
 27 H       -4.7420     2.1040    -1.7710 H     1 <1>   0.0800 
 28 H       -3.2280     2.1840    -2.6190 H     1 <1>   0.0800 
 29 H       -0.3640     4.2280     2.3870 H     1 <1>   0.1500 
 30 H       -0.6740     1.5020    -1.7480 H     1 <1>   0.1500 
 31 H        1.6930     3.3240     1.3220 H     1 <1>   0.1500 
 32 H        1.5310     1.9710    -0.7230 H     1 <1>   0.1500 
 33 H       -4.8090     0.6400     1.0210 H     1 <1>   0.0800 
 34 H       -6.0100     0.7940    -0.2650 H     1 <1>   0.0800 
 35 H       -4.6060    -2.3250    -1.5080 H     1 <1>   0.0800 
 36 H       -3.1650    -2.1690    -0.5160 H     1 <1>   0.0800 
 37 H       -6.9080    -1.3060     0.1550 H     1 <1>   0.0800 
 38 H       -4.3350    -2.2190     1.4550 H     1 <1>   0.0800 
 39 H       -5.6370    -0.8880     2.6480 H     1 <1>   0.4000 
 40 H       -6.3930    -3.6560    -0.2460 H     1 <1>   0.0800 
 41 H       -6.1470    -3.8570     1.4660 H     1 <1>   0.0800 
 42 H       -5.2970    -5.5290    -1.6560 H     1 <1>   0.1500 
 43 H       -2.0850    -6.3300     0.9040 H     1 <1>   0.2700 
 44 H       -3.5750    -7.5120    -2.4490 H     1 <1>   0.0800 
 45 H       -2.9280    -8.3390    -1.0530 H     1 <1>   0.0800 
 46 H       -1.9550    -7.1550    -1.9030 H     1 <1>   0.0800 
@<TRIPOS>BOND
  1   1   2  2   
  2   2   3  1   
  3   2   4  am  
  4   3   5  1   
  5   4   6  1   
  6   4   7  1   
  7   5   6  ar  
  8   5   8  ar  
  9   6   9  ar  
 10   7  10  1   
 11   7  27  1   
 12   7  28  1   
 13   8  11  ar  
 14   8  29  1   
 15   9  12  ar  
 16   9  30  1   
 17  10  13  2   
 18  10  14  am  
 19  11  12  ar  
 20  11  31  1   
 21  12  32  1   
 22  14  15  1   
 23  14  16  1   
 24  15  17  1   
 25  15  33  1   
 26  15  34  1   
 27  16  18  1   
 28  16  35  1   
 29  16  36  1   
 30  17  18  1   
 31  17  19  1   
 32  17  37  1   
 33  18  20  1   
 34  18  38  1   
 35  19  39  1   
 36  20  21  1   
 37  20  40  1   
 38  20  41  1   
 39  21  22  2   
 40  21  23  1   
 41  22  24  1   
 42  23  25  2   
 43  23  42  1   
 44  24  25  1   
 45  24  43  1   
 46  25  26  1   
 47  26  44  1   
 48  26  45  1   
 49  26  46  1   
@<TRIPOS>SUBSTRUCTURE
  1 ****  14 GROUP 4 **** **** 0

# MOE 2024.06 (io_trps.svl 2023.06)
