@<TRIPOS>MOLECULE
NONAME
48 51 1 0 0 
SMALL
USER_CHARGES


@<TRIPOS>ATOM
  1 S        0.2220    -0.4920    -0.6210 S.o2  1 <1>   1.3330 
  2 O        0.9000    -1.7680    -0.5700 O.2   1 <1>  -0.6500 
  3 O       -0.3180    -0.0370    -1.8830 O.2   1 <1>  -0.6500 
  4 N       -1.0220    -0.4960     0.5400 N.am  1 <1>  -0.8490 
  5 C        1.3590     0.7410     0.0210 C.3   1 <1>  -0.0550 
  6 C       -2.3250     0.0140     0.1000 C.3   1 <1>   0.1960 
  7 C       -1.1430    -1.7030     1.3650 C.3   1 <1>   0.1960 
  8 C        0.7630     2.1440     0.2500 C.3   1 <1>  -0.0800 
  9 C       -3.0990    -1.0490    -0.6860 C.3   1 <1>  -0.1600 
 10 C       -1.8830    -2.8140     0.6150 C.3   1 <1>  -0.1600 
 11 C        0.4020     2.8910    -1.0340 C.3   1 <1>  -0.1600 
 12 C        1.7490     3.0840     0.9390 C.3   1 <1>  -0.1600 
 13 C       -3.2520    -2.3400     0.1240 C.3   1 <1>   0.4610 
 14 C        0.4450     4.3780    -0.6730 C.3   1 <1>  -0.1600 
 15 C        1.2100     4.4840     0.6500 C.3   1 <1>  -0.1600 
 16 O       -4.0110    -2.0680     1.2900 O.3   1 <1>  -0.5600 
 17 C       -3.9330    -3.4350    -0.7000 C.2   1 <1>  -0.1810 
 18 C       -5.4150    -2.0190     1.1840 C.3   1 <1>   0.1200 
 19 C       -5.1520    -3.8840    -0.3790 C.2   1 <1>  -0.1400 
 20 C       -3.3840    -4.0850    -1.8570 C.2   1 <1>  -0.1500 
 21 C       -5.9900    -3.3820     0.7650 C.3   1 <1>   0.0200 
 22 S       -5.6910    -5.1480    -1.4640 S.3   1 <1>  -0.0800 
 23 C       -4.1960    -5.0230    -2.3810 C.2   1 <1>  -0.1100 
 24 H        2.1950     0.8210    -0.6460 H     1 <1>   0.0800 
 25 H        1.7360     0.3850     0.9600 H     1 <1>   0.0800 
 26 H       -2.1940     0.8980    -0.5020 H     1 <1>   0.0800 
 27 H       -2.8970     0.2950     0.9680 H     1 <1>   0.0800 
 28 H       -1.6920    -1.4580     2.2590 H     1 <1>   0.0800 
 29 H       -0.1690    -2.0460     1.6690 H     1 <1>   0.0800 
 30 H       -0.1160     2.0690     0.8680 H     1 <1>   0.0800 
 31 H       -2.5750    -1.2650    -1.5990 H     1 <1>   0.0800 
 32 H       -4.0630    -0.6700    -0.9660 H     1 <1>   0.0800 
 33 H       -2.0160    -3.6630     1.2590 H     1 <1>   0.0800 
 34 H       -1.2860    -3.1350    -0.2170 H     1 <1>   0.0800 
 35 H       -0.5660     2.6040    -1.4100 H     1 <1>   0.0800 
 36 H        1.1380     2.6930    -1.7940 H     1 <1>   0.0800 
 37 H        2.7240     2.9850     0.4930 H     1 <1>   0.0800 
 38 H        1.8210     2.8930     1.9960 H     1 <1>   0.0800 
 39 H       -0.5530     4.7620    -0.5490 H     1 <1>   0.0800 
 40 H        0.9370     4.9380    -1.4500 H     1 <1>   0.0800 
 41 H        2.0060     5.2070     0.5950 H     1 <1>   0.0800 
 42 H        0.5300     4.7750     1.4330 H     1 <1>   0.0800 
 43 H       -5.6770    -1.2660     0.4630 H     1 <1>   0.0800 
 44 H       -5.8070    -1.7300     2.1430 H     1 <1>   0.0800 
 45 H       -2.4130    -3.8190    -2.2390 H     1 <1>   0.1500 
 46 H       -7.0140    -3.2680     0.4600 H     1 <1>   0.0800 
 47 H       -5.9460    -4.0750     1.5860 H     1 <1>   0.0800 
 48 H       -4.0820    -5.6750    -3.2280 H     1 <1>   0.1500 
@<TRIPOS>BOND
  1   1   2  2   
  2   1   3  2   
  3   1   4  am  
  4   1   5  1   
  5   4   6  1   
  6   4   7  1   
  7   5   8  1   
  8   5  24  1   
  9   5  25  1   
 10   6   9  1   
 11   6  26  1   
 12   6  27  1   
 13   7  10  1   
 14   7  28  1   
 15   7  29  1   
 16   8  11  1   
 17   8  12  1   
 18   8  30  1   
 19   9  13  1   
 20   9  31  1   
 21   9  32  1   
 22  10  13  1   
 23  10  33  1   
 24  10  34  1   
 25  11  14  1   
 26  11  35  1   
 27  11  36  1   
 28  12  15  1   
 29  12  37  1   
 30  12  38  1   
 31  13  16  1   
 32  13  17  1   
 33  14  15  1   
 34  14  39  1   
 35  14  40  1   
 36  15  41  1   
 37  15  42  1   
 38  16  18  1   
 39  17  19  2   
 40  17  20  1   
 41  18  21  1   
 42  18  43  1   
 43  18  44  1   
 44  19  21  1   
 45  19  22  1   
 46  20  23  2   
 47  20  45  1   
 48  21  46  1   
 49  21  47  1   
 50  22  23  1   
 51  23  48  1   
@<TRIPOS>SUBSTRUCTURE
  1 ****   6 GROUP 4 **** **** 0

# MOE 2024.06 (io_trps.svl 2023.06)
