@<TRIPOS>MOLECULE
NONAME
48 49 1 0 0 
SMALL
USER_CHARGES


@<TRIPOS>ATOM
  1 S       -0.3630     0.1460    -1.5730 S.o2  1 <1>   1.4470 
  2 O       -1.3990     1.0960    -1.9280 O.2   1 <1>  -0.6500 
  3 O        0.2840    -0.6090    -2.6240 O.2   1 <1>  -0.6500 
  4 N       -1.0610    -0.9540    -0.4870 N.am  1 <1>  -0.8490 
  5 C        0.9380     0.9490    -0.5750 C.ar  1 <1>  -0.0090 
  6 C       -1.7930    -2.0500    -1.1480 C.3   1 <1>   0.1960 
  7 C       -1.9380    -0.3080     0.5040 C.3   1 <1>   0.1960 
  8 C        1.4070     2.2420    -0.8250 C.ar  1 <1>  -0.1440 
  9 C        1.5280     0.2450     0.4730 C.ar  1 <1>  -0.1500 
 10 C       -2.0660    -3.2220    -0.1680 C.3   1 <1>  -0.1060 
 11 C       -2.5890    -1.3260     1.4530 C.3   1 <1>  -0.1600 
 12 C        2.3950     2.7990    -0.0260 C.ar  1 <1>  -0.1500 
 13 C        0.8640     3.0820    -1.9750 C.3   1 <1>  -0.0970 
 14 C        2.5140     0.8010     1.2650 C.ar  1 <1>  -0.1500 
 15 C       -3.4800    -3.7180    -0.5160 C.2   1 <1>   0.9060 
 16 C       -1.9550    -2.7070     1.2970 C.3   1 <1>   0.2000 
 17 C       -1.0640    -4.3910    -0.4100 C.3   1 <1>  -0.1600 
 18 C        2.9500     2.0890     1.0230 C.ar  1 <1>  -0.1440 
 19 O       -4.3140    -3.9400     0.3770 O.co2 1 <1>  -0.9000 
 20 O       -3.7700    -3.8890    -1.7050 O.co2 1 <1>  -0.9000 
 21 O       -2.5540    -3.5710     2.1890 O.3   1 <1>  -0.6800 
 22 C        0.4320    -4.0420    -0.2870 C.3   1 <1>  -0.1600 
 23 C        4.0320     2.7130     1.8860 C.3   1 <1>  -0.0970 
 24 C        1.3030    -5.2510    -0.6400 C.3   1 <1>  -0.2400 
 25 H       -2.7200    -1.6540    -1.5340 H     1 <1>   0.0800 
 26 H       -1.2440    -2.4240    -1.9960 H     1 <1>   0.0800 
 27 H       -1.3560     0.3900     1.0820 H     1 <1>   0.0800 
 28 H       -2.7170     0.2450     0.0030 H     1 <1>   0.0800 
 29 H        1.2130    -0.7650     0.6760 H     1 <1>   0.1500 
 30 H       -3.6390    -1.3900     1.2290 H     1 <1>   0.0800 
 31 H       -2.4830    -0.9880     2.4680 H     1 <1>   0.0800 
 32 H        2.7430     3.7980    -0.2220 H     1 <1>   0.1500 
 33 H        1.4770     3.9470    -2.1470 H     1 <1>   0.0800 
 34 H       -0.1340     3.4150    -1.7500 H     1 <1>   0.0800 
 35 H        0.8430     2.5070    -2.8840 H     1 <1>   0.0800 
 36 H        2.9400     0.2230     2.0680 H     1 <1>   0.1500 
 37 H       -0.9250    -2.6260     1.5910 H     1 <1>   0.0800 
 38 H       -1.2980    -5.1840     0.2810 H     1 <1>   0.0800 
 39 H       -1.2420    -4.7800    -1.3990 H     1 <1>   0.0800 
 40 H       -3.4030    -3.8620     1.7330 H     1 <1>   0.4000 
 41 H        0.6810    -3.2310    -0.9500 H     1 <1>   0.0800 
 42 H        0.6630    -3.7360     0.7170 H     1 <1>   0.0800 
 43 H        4.0510     2.2550     2.8580 H     1 <1>   0.0800 
 44 H        3.8500     3.7650     2.0100 H     1 <1>   0.0800 
 45 H        4.9910     2.5790     1.4190 H     1 <1>   0.0800 
 46 H        1.1150    -5.5610    -1.6530 H     1 <1>   0.0800 
 47 H        1.0870    -6.0710     0.0210 H     1 <1>   0.0800 
 48 H        2.3430    -4.9950    -0.5460 H     1 <1>   0.0800 
@<TRIPOS>BOND
  1   1   2  2   
  2   1   3  2   
  3   1   4  am  
  4   1   5  1   
  5   4   6  1   
  6   4   7  1   
  7   5   8  ar  
  8   5   9  ar  
  9   6  10  1   
 10   6  25  1   
 11   6  26  1   
 12   7  11  1   
 13   7  27  1   
 14   7  28  1   
 15   8  12  ar  
 16   8  13  1   
 17   9  14  ar  
 18   9  29  1   
 19  10  15  1   
 20  10  16  1   
 21  10  17  1   
 22  11  16  1   
 23  11  30  1   
 24  11  31  1   
 25  12  18  ar  
 26  12  32  1   
 27  13  33  1   
 28  13  34  1   
 29  13  35  1   
 30  14  18  ar  
 31  14  36  1   
 32  15  19  ar  
 33  15  20  ar  
 34  16  21  1   
 35  16  37  1   
 36  17  22  1   
 37  17  38  1   
 38  17  39  1   
 39  18  23  1   
 40  21  40  1   
 41  22  24  1   
 42  22  41  1   
 43  22  42  1   
 44  23  43  1   
 45  23  44  1   
 46  23  45  1   
 47  24  46  1   
 48  24  47  1   
 49  24  48  1   
@<TRIPOS>SUBSTRUCTURE
  1 ****   4 GROUP 4 **** **** 0

# MOE 2024.06 (io_trps.svl 2023.06)
