@<TRIPOS>MOLECULE
NONAME
35 36 1 0 0 
SMALL
USER_CHARGES


@<TRIPOS>ATOM
  1 CL      -0.2180     0.0280     1.0850 Cl    1 <1>  -0.1770 
  2 C        1.1330    -0.8340     0.3710 C.ar  1 <1>   0.1770 
  3 C        1.2040    -2.2210     0.4180 C.ar  1 <1>   0.4100 
  4 C        2.1460    -0.1540    -0.2480 C.ar  1 <1>   0.1600 
  5 N        2.2230    -2.8560    -0.1280 N.ar  1 <1>  -0.6200 
  6 N        0.2260    -2.9890     1.0070 N.pl3 1 <1>  -0.8690 
  7 N        3.1730    -0.7830    -0.7960 N.ar  1 <1>  -0.6200 
  8 C        3.1440    -2.1030    -0.7030 C.ar  1 <1>   0.4770 
  9 C        0.3450    -4.4400     1.3700 C.3   1 <1>   0.2090 
 10 C        4.3040    -2.8420    -1.3270 C.3   1 <1>  -0.0970 
 11 C       -0.0990    -5.4010     0.2380 C.3   1 <1>   0.2800 
 12 O        0.7210    -5.1750    -0.8510 O.3   1 <1>  -0.6800 
 13 C        0.0820    -6.8710     0.6600 C.3   1 <1>  -0.1600 
 14 C       -1.5530    -5.1370    -0.2060 C.3   1 <1>  -0.1600 
 15 C       -0.4280    -7.8710    -0.3910 C.3   1 <1>  -0.1600 
 16 C       -2.0590    -6.1450    -1.2520 C.3   1 <1>  -0.1600 
 17 C       -1.8890    -7.5880    -0.7620 C.3   1 <1>  -0.1600 
 18 H        2.1200     0.9200    -0.2990 H     1 <1>   0.1500 
 19 H       -0.5930    -2.5010     1.3850 H     1 <1>   0.4000 
 20 H       -0.2570    -4.6260     2.2420 H     1 <1>   0.0800 
 21 H        1.3660    -4.6610     1.6340 H     1 <1>   0.0800 
 22 H        3.9770    -3.7950    -1.7000 H     1 <1>   0.0800 
 23 H        5.0660    -2.9960    -0.5870 H     1 <1>   0.0800 
 24 H        4.7120    -2.2720    -2.1410 H     1 <1>   0.0800 
 25 H        1.1160    -4.2760    -0.7330 H     1 <1>   0.4000 
 26 H       -0.4600    -7.0370     1.5740 H     1 <1>   0.0800 
 27 H        1.1220    -7.0590     0.8620 H     1 <1>   0.0800 
 28 H       -1.6340    -4.1400    -0.6030 H     1 <1>   0.0800 
 29 H       -2.1910    -5.1930     0.6570 H     1 <1>   0.0800 
 30 H       -0.3360    -8.8740    -0.0130 H     1 <1>   0.0800 
 31 H        0.1830    -7.7960    -1.2760 H     1 <1>   0.0800 
 32 H       -1.5040    -6.0140    -2.1650 H     1 <1>   0.0800 
 33 H       -3.0960    -5.9540    -1.4670 H     1 <1>   0.0800 
 34 H       -2.5170    -7.7540     0.0970 H     1 <1>   0.0800 
 35 H       -2.2000    -8.2680    -1.5360 H     1 <1>   0.0800 
@<TRIPOS>BOND
  1   1   2  1   
  2   2   3  ar  
  3   2   4  ar  
  4   3   5  ar  
  5   3   6  1   
  6   4   7  ar  
  7   4  18  1   
  8   5   8  ar  
  9   6   9  1   
 10   6  19  1   
 11   7   8  ar  
 12   8  10  1   
 13   9  11  1   
 14   9  20  1   
 15   9  21  1   
 16  10  22  1   
 17  10  23  1   
 18  10  24  1   
 19  11  12  1   
 20  11  13  1   
 21  11  14  1   
 22  12  25  1   
 23  13  15  1   
 24  13  26  1   
 25  13  27  1   
 26  14  16  1   
 27  14  28  1   
 28  14  29  1   
 29  15  17  1   
 30  15  30  1   
 31  15  31  1   
 32  16  17  1   
 33  16  32  1   
 34  16  33  1   
 35  17  34  1   
 36  17  35  1   
@<TRIPOS>SUBSTRUCTURE
  1 ****   6 GROUP 4 **** **** 0

# MOE 2024.06 (io_trps.svl 2023.06)
