@<TRIPOS>MOLECULE
NONAME
48 50 1 0 0 
SMALL
USER_CHARGES


@<TRIPOS>ATOM
  1 S        0.6430    -0.6920    -0.3550 S.3   1 <1>  -0.0800 
  2 C       -1.0670    -1.0890    -0.5490 C.2   1 <1>  -0.0450 
  3 C        0.2950     0.9660     0.0910 C.2   1 <1>  -0.1400 
  4 C       -1.4230    -2.4310    -0.9470 C.2   1 <1>   0.7150 
  5 C       -1.7960     0.0270    -0.2830 C.2   1 <1>  -0.1500 
  6 C       -1.0350     1.1760     0.0800 C.2   1 <1>  -0.1500 
  7 C        1.4920     1.8490     0.3990 C.3   1 <1>   0.0200 
  8 O       -0.7300    -3.0210    -1.7580 O.2   1 <1>  -0.5700 
  9 N       -2.5480    -3.0670    -0.4640 N.am  1 <1>  -0.6600 
 10 C        1.0790     3.2730     0.7790 C.3   1 <1>  -0.2400 
 11 C       -3.1390    -4.2260    -1.2190 C.3   1 <1>   0.1400 
 12 C       -3.2600    -2.6790     0.7950 C.3   1 <1>   0.1400 
 13 C       -4.2610    -4.9100    -0.4240 C.3   1 <1>   0.2000 
 14 C       -4.7500    -2.5710     0.4760 C.3   1 <1>  -0.1600 
 15 O       -4.8160    -5.9460    -1.1570 O.3   1 <1>  -0.6800 
 16 C       -5.3730    -3.9430     0.0600 C.3   1 <1>  -0.1060 
 17 C       -5.9850    -4.7060     1.2390 C.2   1 <1>   0.9060 
 18 C       -6.4520    -3.6890    -1.0370 C.3   1 <1>  -0.0170 
 19 O       -5.7890    -4.3300     2.4000 O.co2 1 <1>  -0.9000 
 20 O       -6.5930    -5.7590     0.9920 O.co2 1 <1>  -0.9000 
 21 C       -7.4450    -2.5730    -0.7130 C.ar  1 <1>  -0.1430 
 22 C       -8.3860    -2.7400     0.2920 C.ar  1 <1>  -0.1500 
 23 C       -7.4220    -1.3820    -1.4240 C.ar  1 <1>  -0.1500 
 24 C       -9.2860    -1.7310     0.5860 C.ar  1 <1>  -0.1500 
 25 C       -8.3230    -0.3720    -1.1330 C.ar  1 <1>  -0.1500 
 26 C       -9.2560    -0.5460    -0.1260 C.ar  1 <1>  -0.1500 
 27 H       -2.8700     0.0770    -0.3380 H     1 <1>   0.1500 
 28 H       -1.5220     2.1060     0.3130 H     1 <1>   0.1500 
 29 H        2.0490     1.4110     1.2080 H     1 <1>   0.0800 
 30 H        2.1320     1.8810    -0.4660 H     1 <1>   0.0800 
 31 H        0.4540     3.2590     1.6540 H     1 <1>   0.0800 
 32 H        0.5390     3.7320    -0.0310 H     1 <1>   0.0800 
 33 H        1.9520     3.8650     0.9890 H     1 <1>   0.0800 
 34 H       -3.5340    -3.8650    -2.1510 H     1 <1>   0.0800 
 35 H       -2.3680    -4.9470    -1.4250 H     1 <1>   0.0800 
 36 H       -3.1040    -3.4320     1.5510 H     1 <1>   0.0800 
 37 H       -2.8970    -1.7490     1.1870 H     1 <1>   0.0800 
 38 H       -3.8000    -5.3710     0.4350 H     1 <1>   0.0800 
 39 H       -5.2750    -2.1690     1.3260 H     1 <1>   0.0800 
 40 H       -4.8510    -1.8530    -0.3160 H     1 <1>   0.0800 
 41 H       -5.5690    -6.2870    -0.6020 H     1 <1>   0.4000 
 42 H       -5.9550    -3.4530    -1.9600 H     1 <1>   0.0800 
 43 H       -7.0160    -4.5880    -1.2170 H     1 <1>   0.0800 
 44 H       -8.4170    -3.6610     0.8530 H     1 <1>   0.1500 
 45 H       -6.7010    -1.2390    -2.2080 H     1 <1>   0.1500 
 46 H      -10.0050    -1.8770     1.3730 H     1 <1>   0.1500 
 47 H       -8.2970     0.5480    -1.6900 H     1 <1>   0.1500 
 48 H       -9.9560     0.2370     0.1040 H     1 <1>   0.1500 
@<TRIPOS>BOND
  1   1   2  1   
  2   1   3  1   
  3   2   4  1   
  4   2   5  2   
  5   3   6  2   
  6   3   7  1   
  7   4   8  2   
  8   4   9  am  
  9   5   6  1   
 10   5  27  1   
 11   6  28  1   
 12   7  10  1   
 13   7  29  1   
 14   7  30  1   
 15   9  11  1   
 16   9  12  1   
 17  10  31  1   
 18  10  32  1   
 19  10  33  1   
 20  11  13  1   
 21  11  34  1   
 22  11  35  1   
 23  12  14  1   
 24  12  36  1   
 25  12  37  1   
 26  13  15  1   
 27  13  16  1   
 28  13  38  1   
 29  14  16  1   
 30  14  39  1   
 31  14  40  1   
 32  15  41  1   
 33  16  17  1   
 34  16  18  1   
 35  17  19  ar  
 36  17  20  ar  
 37  18  21  1   
 38  18  42  1   
 39  18  43  1   
 40  21  22  ar  
 41  21  23  ar  
 42  22  24  ar  
 43  22  44  1   
 44  23  25  ar  
 45  23  45  1   
 46  24  26  ar  
 47  24  46  1   
 48  25  26  ar  
 49  25  47  1   
 50  26  48  1   
@<TRIPOS>SUBSTRUCTURE
  1 ****  14 GROUP 4 **** **** 0

# MOE 2024.06 (io_trps.svl 2023.06)
