@<TRIPOS>MOLECULE
NONAME
51 53 1 0 0 
SMALL
USER_CHARGES


@<TRIPOS>ATOM
  1 O       -1.8550     0.4390    -1.9590 O.2   1 <1>  -0.5700 
  2 C       -1.9790     0.8510    -0.8220 C.2   1 <1>   0.5440 
  3 N       -2.2400    -0.0570     0.1630 N.am  1 <1>  -0.7300 
  4 C       -1.8510     2.2660    -0.5180 C.ar  1 <1>   0.0860 
  5 C       -2.4140    -1.5110    -0.0410 C.3   1 <1>   0.2200 
  6 C       -1.1160     3.1140    -1.3420 C.ar  1 <1>  -0.1500 
  7 C       -2.4510     2.8450     0.6010 C.ar  1 <1>  -0.1500 
  8 C       -3.8980    -1.8350    -0.0430 C.3   1 <1>  -0.0800 
  9 C       -1.9350    -2.2620     1.1960 C.3   1 <1>   0.1200 
 10 C       -0.9770     4.4600    -1.0590 C.ar  1 <1>  -0.1500 
 11 C       -2.3120     4.1910     0.8860 C.ar  1 <1>  -0.1500 
 12 C       -4.2060    -1.9690     1.4530 C.3   1 <1>   0.1200 
 13 C       -4.1930    -3.1300    -0.8220 C.3   1 <1>  -0.0160 
 14 O       -2.9920    -2.2140     2.1070 O.3   1 <1>  -0.5600 
 15 C       -1.5690     5.0300     0.0620 C.ar  1 <1>  -0.1430 
 16 C       -5.6840    -3.4290    -0.8550 C.ar  1 <1>  -0.1430 
 17 C       -1.3830     6.5390     0.3380 C.3   1 <1>   0.1430 
 18 C       -6.2510    -4.4310    -0.0920 C.ar  1 <1>  -0.1500 
 19 C       -6.5480    -2.7100    -1.6550 C.ar  1 <1>  -0.1500 
 20 C        0.1120     6.8510     0.5000 C.3   1 <1>  -0.2400 
 21 C       -1.9490     7.3490    -0.8370 C.3   1 <1>  -0.2400 
 22 C       -2.0960     7.0130     1.6160 C.3   1 <1>  -0.2400 
 23 C       -7.6160    -4.6530    -0.1600 C.ar  1 <1>   0.1600 
 24 C       -7.9000    -3.0130    -1.6490 C.ar  1 <1>   0.1600 
 25 N       -8.4550    -3.9660    -0.9190 N.ar  1 <1>  -0.6200 
 26 H       -2.3180     0.2440     1.1360 H     1 <1>   0.3700 
 27 H       -1.9050    -1.8290    -0.9360 H     1 <1>   0.0800 
 28 H       -0.6460     2.7060    -2.2200 H     1 <1>   0.1500 
 29 H       -3.0440     2.2380     1.2600 H     1 <1>   0.1500 
 30 H       -4.4670    -1.0330    -0.4820 H     1 <1>   0.0800 
 31 H       -1.0570    -1.8230     1.6340 H     1 <1>   0.0800 
 32 H       -1.7500    -3.2960     0.9650 H     1 <1>   0.0800 
 33 H       -0.3950     5.0640    -1.7320 H     1 <1>   0.1500 
 34 H       -2.8010     4.5640     1.7660 H     1 <1>   0.1500 
 35 H       -4.8880    -2.7710     1.6740 H     1 <1>   0.0800 
 36 H       -4.6030    -1.0480     1.8430 H     1 <1>   0.0800 
 37 H       -3.6670    -3.9590    -0.3830 H     1 <1>   0.0800 
 38 H       -3.8430    -3.0230    -1.8340 H     1 <1>   0.0800 
 39 H       -5.6460    -5.0390     0.5560 H     1 <1>   0.1500 
 40 H       -6.1830    -1.9160    -2.2820 H     1 <1>   0.1500 
 41 H        0.2610     7.8910     0.7280 H     1 <1>   0.0800 
 42 H        0.6550     6.6270    -0.4000 H     1 <1>   0.0800 
 43 H        0.5260     6.2620     1.2990 H     1 <1>   0.0800 
 44 H       -1.8620     8.4040    -0.6490 H     1 <1>   0.0800 
 45 H       -2.9890     7.1120    -0.9800 H     1 <1>   0.0800 
 46 H       -1.4260     7.1290    -1.7490 H     1 <1>   0.0800 
 47 H       -1.9380     8.0660     1.7680 H     1 <1>   0.0800 
 48 H       -1.7160     6.4920     2.4760 H     1 <1>   0.0800 
 49 H       -3.1560     6.8440     1.5420 H     1 <1>   0.0800 
 50 H       -8.0410    -5.4370     0.4430 H     1 <1>   0.1500 
 51 H       -8.5580    -2.4400    -2.2790 H     1 <1>   0.1500 
@<TRIPOS>BOND
  1   1   2  2   
  2   2   3  am  
  3   2   4  1   
  4   3   5  1   
  5   3  26  1   
  6   4   6  ar  
  7   4   7  ar  
  8   5   8  1   
  9   5   9  1   
 10   5  27  1   
 11   6  10  ar  
 12   6  28  1   
 13   7  11  ar  
 14   7  29  1   
 15   8  12  1   
 16   8  13  1   
 17   8  30  1   
 18   9  14  1   
 19   9  31  1   
 20   9  32  1   
 21  10  15  ar  
 22  10  33  1   
 23  11  15  ar  
 24  11  34  1   
 25  12  14  1   
 26  12  35  1   
 27  12  36  1   
 28  13  16  1   
 29  13  37  1   
 30  13  38  1   
 31  15  17  1   
 32  16  18  ar  
 33  16  19  ar  
 34  17  20  1   
 35  17  21  1   
 36  17  22  1   
 37  18  23  ar  
 38  18  39  1   
 39  19  24  ar  
 40  19  40  1   
 41  20  41  1   
 42  20  42  1   
 43  20  43  1   
 44  21  44  1   
 45  21  45  1   
 46  21  46  1   
 47  22  47  1   
 48  22  48  1   
 49  22  49  1   
 50  23  25  ar  
 51  23  50  1   
 52  24  25  ar  
 53  24  51  1   
@<TRIPOS>SUBSTRUCTURE
  1 ****   3 GROUP 4 **** **** 0

# MOE 2024.06 (io_trps.svl 2023.06)
