@<TRIPOS>MOLECULE
NONAME
51 54 1 0 0 
SMALL
USER_CHARGES


@<TRIPOS>ATOM
  1 O       -0.7720     0.2810     0.7340 O.2   1 <1>  -0.5700 
  2 C       -1.6640     0.8810     0.1530 C.2   1 <1>   0.7160 
  3 N       -2.7990     0.1530    -0.1590 N.am  1 <1>  -0.6600 
  4 C       -1.4890     2.2980    -0.1730 C.2   1 <1>   0.2030 
  5 C       -4.0150     0.6750    -0.8340 C.3   1 <1>   0.1400 
  6 C       -2.8920    -1.3170     0.0090 C.3   1 <1>   0.1400 
  7 N       -2.2750     3.0700    -0.9080 N.2   1 <1>  -0.7070 
  8 C       -0.3920     3.0460     0.2800 C.2   1 <1>  -0.1500 
  9 C       -5.0240    -0.4680    -0.7410 C.3   1 <1>   0.2000 
 10 C       -4.1490    -1.7280    -0.7690 C.3   1 <1>  -0.0800 
 11 N       -1.6920     4.2770    -0.9180 N.pl3 1 <1>   0.3000 
 12 C       -0.5500     4.2920    -0.2050 C.2   1 <1>  -0.3320 
 13 O       -5.6700    -0.3760     0.4840 O.3   1 <1>  -0.6800 
 14 C       -4.8360    -3.0010    -0.2320 C.3   1 <1>  -0.0170 
 15 C        0.3360     5.5130    -0.0330 C.3   1 <1>   0.0200 
 16 C       -4.0520    -4.3130    -0.3660 C.ar  1 <1>  -0.1430 
 17 C       -0.3780     6.5900     0.7910 C.3   1 <1>  -0.1600 
 18 C       -4.5190    -5.4790     0.2910 C.ar  1 <1>   0.0000 
 19 C       -2.9090    -4.4380    -1.1060 C.ar  1 <1>  -0.1500 
 20 C        0.5110     7.8190     1.0020 C.3   1 <1>  -0.2400 
 21 C       -3.7590    -6.6680     0.1580 C.ar  1 <1>   0.3100 
 22 C       -5.7010    -5.5390     1.0680 C.ar  1 <1>  -0.1500 
 23 C       -2.2360    -5.6640    -1.1760 C.ar  1 <1>   0.1600 
 24 N       -2.6220    -6.7430    -0.5760 N.ar  1 <1>  -0.6200 
 25 C       -4.1960    -7.8340     0.8080 C.ar  1 <1>  -0.1500 
 26 C       -6.1000    -6.6920     1.6870 C.ar  1 <1>  -0.1500 
 27 C       -5.3390    -7.8560     1.5590 C.ar  1 <1>  -0.1500 
 28 H       -4.3830     1.5700    -0.3630 H     1 <1>   0.0800 
 29 H       -3.7800     0.8820    -1.8640 H     1 <1>   0.0800 
 30 H       -2.0060    -1.7980    -0.3690 H     1 <1>   0.0800 
 31 H       -2.9960    -1.5440     1.0570 H     1 <1>   0.0800 
 32 H        0.4010     2.6570     0.8960 H     1 <1>   0.1500 
 33 H       -5.7650    -0.4420    -1.5220 H     1 <1>   0.0800 
 34 H       -3.8720    -1.8880    -1.7960 H     1 <1>   0.0800 
 35 H       -2.0910     5.0800    -1.4180 H     1 <1>   0.2700 
 36 H       -5.0040    -0.1800     1.1740 H     1 <1>   0.4000 
 37 H       -5.7770    -3.1210    -0.7390 H     1 <1>   0.0800 
 38 H       -5.0500    -2.8460     0.8110 H     1 <1>   0.0800 
 39 H        1.2420     5.2210     0.4700 H     1 <1>   0.0800 
 40 H        0.6060     5.9030    -1.0000 H     1 <1>   0.0800 
 41 H       -1.2830     6.8900     0.2920 H     1 <1>   0.0800 
 42 H       -0.6490     6.1770     1.7480 H     1 <1>   0.0800 
 43 H       -2.4790    -3.6260    -1.6590 H     1 <1>   0.1500 
 44 H        0.7790     8.2600     0.0570 H     1 <1>   0.0800 
 45 H        1.4110     7.5470     1.5260 H     1 <1>   0.0800 
 46 H       -0.0130     8.5560     1.5860 H     1 <1>   0.0800 
 47 H       -6.3090    -4.6610     1.1790 H     1 <1>   0.1500 
 48 H       -1.3370    -5.7100    -1.7670 H     1 <1>   0.1500 
 49 H       -3.5950    -8.7170     0.6920 H     1 <1>   0.1500 
 50 H       -7.0010    -6.7190     2.2760 H     1 <1>   0.1500 
 51 H       -5.6620    -8.7570     2.0510 H     1 <1>   0.1500 
@<TRIPOS>BOND
  1   1   2  2   
  2   2   3  am  
  3   2   4  1   
  4   3   5  1   
  5   3   6  1   
  6   4   7  2   
  7   4   8  1   
  8   5   9  1   
  9   5  28  1   
 10   5  29  1   
 11   6  10  1   
 12   6  30  1   
 13   6  31  1   
 14   7  11  1   
 15   8  12  2   
 16   8  32  1   
 17   9  10  1   
 18   9  13  1   
 19   9  33  1   
 20  10  14  1   
 21  10  34  1   
 22  11  12  1   
 23  11  35  1   
 24  12  15  1   
 25  13  36  1   
 26  14  16  1   
 27  14  37  1   
 28  14  38  1   
 29  15  17  1   
 30  15  39  1   
 31  15  40  1   
 32  16  18  ar  
 33  16  19  ar  
 34  17  20  1   
 35  17  41  1   
 36  17  42  1   
 37  18  21  ar  
 38  18  22  ar  
 39  19  23  ar  
 40  19  43  1   
 41  20  44  1   
 42  20  45  1   
 43  20  46  1   
 44  21  24  ar  
 45  21  25  ar  
 46  22  26  ar  
 47  22  47  1   
 48  23  24  ar  
 49  23  48  1   
 50  25  27  ar  
 51  25  49  1   
 52  26  27  ar  
 53  26  50  1   
 54  27  51  1   
@<TRIPOS>SUBSTRUCTURE
  1 ****   6 GROUP 4 **** **** 0

# MOE 2024.06 (io_trps.svl 2023.06)
