@<TRIPOS>MOLECULE
NONAME
37 37 1 0 0 
SMALL
USER_CHARGES


@<TRIPOS>ATOM
  1 S       -0.2220     0.5030    -0.0300 S.3   1 <1>  -0.4600 
  2 C        1.5290     0.9530     0.0300 C.3   1 <1>   0.0700 
  3 C       -0.1880    -1.3080    -0.0740 C.3   1 <1>  -0.0100 
  4 C        1.6100     2.4790     0.0570 C.3   1 <1>  -0.1600 
  5 C        3.0600     2.9490     0.1320 C.3   1 <1>   0.2090 
  6 N        3.0790     4.4280     0.1440 N.pl3 1 <1>  -0.8690 
  7 C        4.1300     5.2230    -0.1470 C.ar  1 <1>   0.4100 
  8 N        5.2630     4.6230    -0.4500 N.ar  1 <1>  -0.6200 
  9 C        3.9940     6.6360    -0.1220 C.ar  1 <1>  -0.1440 
 10 C        6.2860     5.3870    -0.7470 C.ar  1 <1>   0.7710 
 11 C        5.0810     7.3880    -0.4630 C.ar  1 <1>   0.2180 
 12 C        2.6420     7.2320     0.2920 C.3   1 <1>  -0.0960 
 13 N        6.2250     6.7260    -0.7650 N.ar  1 <1>  -0.1790 
 14 N        7.4250     4.7640    -1.0420 N.pl3 1 <1>  -0.9000 
 15 C        5.1440     8.9140    -0.5370 C.3   1 <1>  -0.0170 
 16 C        5.7350     9.5140     0.7450 C.3   1 <1>  -0.2400 
 17 H        1.9980     0.5410    -0.8470 H     1 <1>   0.0800 
 18 H        1.9430     0.5130     0.9210 H     1 <1>   0.0800 
 19 H       -1.2060    -1.6530    -0.1060 H     1 <1>   0.0800 
 20 H        0.3050    -1.6540     0.8170 H     1 <1>   0.0800 
 21 H        0.3460    -1.6100    -0.9570 H     1 <1>   0.0800 
 22 H        1.0700     2.8390     0.9150 H     1 <1>   0.0800 
 23 H        1.1540     2.8660    -0.8370 H     1 <1>   0.0800 
 24 H        3.6120     2.5840    -0.7190 H     1 <1>   0.0800 
 25 H        3.5260     2.5810     1.0310 H     1 <1>   0.0800 
 26 H        2.1810     4.8430     0.4030 H     1 <1>   0.4000 
 27 H        2.3020     6.7760     1.2060 H     1 <1>   0.0800 
 28 H        1.9090     7.0480    -0.4740 H     1 <1>   0.0800 
 29 H        2.6850     8.2890     0.4740 H     1 <1>   0.0800 
 30 H        7.0740     7.2230    -1.0060 H     1 <1>   0.4570 
 31 H        8.3300     5.1600    -1.2970 H     1 <1>   0.4000 
 32 H        7.4140     3.7390    -1.0120 H     1 <1>   0.4000 
 33 H        4.1660     9.3290    -0.7030 H     1 <1>   0.0800 
 34 H        5.7410     9.2140    -1.3800 H     1 <1>   0.0800 
 35 H        5.1340     9.2480     1.5970 H     1 <1>   0.0800 
 36 H        5.7540    10.5880     0.6720 H     1 <1>   0.0800 
 37 H        6.7400     9.1700     0.9120 H     1 <1>   0.0800 
@<TRIPOS>BOND
  1   1   2  1   
  2   1   3  1   
  3   2   4  1   
  4   2  17  1   
  5   2  18  1   
  6   3  19  1   
  7   3  20  1   
  8   3  21  1   
  9   4   5  1   
 10   4  22  1   
 11   4  23  1   
 12   5   6  1   
 13   5  24  1   
 14   5  25  1   
 15   6   7  1   
 16   6  26  1   
 17   7   8  ar  
 18   7   9  ar  
 19   8  10  ar  
 20   9  11  ar  
 21   9  12  1   
 22  10  13  ar  
 23  10  14  1   
 24  11  13  ar  
 25  11  15  1   
 26  12  27  1   
 27  12  28  1   
 28  12  29  1   
 29  13  30  1   
 30  14  31  1   
 31  14  32  1   
 32  15  16  1   
 33  15  33  1   
 34  15  34  1   
 35  16  35  1   
 36  16  36  1   
 37  16  37  1   
@<TRIPOS>SUBSTRUCTURE
  1 ****   7 GROUP 4 **** **** 0

# MOE 2024.06 (io_trps.svl 2023.06)
