@<TRIPOS>MOLECULE
NONAME
59 61 1 0 0 
SMALL
USER_CHARGES


@<TRIPOS>ATOM
  1 O       -0.5750    -0.0220     1.6410 O.2   1 <1>  -0.5700 
  2 C       -1.3170     0.9040     1.3990 C.2   1 <1>   0.5690 
  3 N       -2.6830     0.7210     1.2960 N.am  1 <1>  -0.6600 
  4 C       -0.6610     2.2790     1.2620 C.3   1 <1>   0.1810 
  5 C       -3.6330     1.8500     1.0550 C.3   1 <1>   0.2200 
  6 C       -3.2460    -0.6630     1.3890 C.3   1 <1>   0.0600 
  7 O       -0.9680     2.8870     0.0140 O.3   1 <1>  -0.3620 
  8 C       -4.9050     1.8160     1.9030 C.3   1 <1>  -0.1600 
  9 C       -4.1390     1.8910    -0.3840 C.3   1 <1>  -0.1600 
 10 C       -0.6620     4.1870    -0.2280 C.ar  1 <1>   0.0820 
 11 C       -5.8800     2.7260     1.1420 C.3   1 <1>  -0.0800 
 12 C       -5.4000     2.7630    -0.3130 C.3   1 <1>  -0.0800 
 13 C        0.0830     4.9850     0.6370 C.ar  1 <1>  -0.1500 
 14 C       -1.1390     4.7250    -1.4120 C.ar  1 <1>  -0.1500 
 15 C       -7.3370     2.2380     1.0900 C.3   1 <1>  -0.1600 
 16 C       -6.5850     2.2760    -1.1590 C.3   1 <1>  -0.1600 
 17 C        0.3320     6.3100     0.3200 C.ar  1 <1>  -0.1500 
 18 C       -0.8900     6.0490    -1.7280 C.ar  1 <1>  -0.1500 
 19 C       -7.8310     2.5800    -0.3210 C.3   1 <1>   0.4230 
 20 C       -0.1580     6.8500    -0.8670 C.ar  1 <1>   0.0820 
 21 N       -8.1980     4.0300    -0.4200 N.4   1 <1>  -0.9590 
 22 O        0.0370     8.1380    -1.2520 O.3   1 <1>  -0.3620 
 23 C       -9.3300     4.4050     0.4890 C.3   1 <1>   0.2630 
 24 C       -8.5570     4.4430    -1.8150 C.3   1 <1>   0.2630 
 25 C        0.8110     9.0230    -0.4780 C.3   1 <1>   0.1200 
 26 C        0.8510    10.3670    -1.1970 C.3   1 <1>  -0.2400 
 27 H        0.4070     2.1750     1.3250 H     1 <1>   0.0800 
 28 H       -1.0110     2.9140     2.0530 H     1 <1>   0.0800 
 29 H       -3.1500     2.7900     1.2600 H     1 <1>   0.0800 
 30 H       -4.0540    -0.7940     0.6930 H     1 <1>   0.0800 
 31 H       -3.6030    -0.8400     2.3880 H     1 <1>   0.0800 
 32 H       -2.4910    -1.3960     1.1620 H     1 <1>   0.0800 
 33 H       -5.2990     0.8190     1.9580 H     1 <1>   0.0800 
 34 H       -4.7180     2.1800     2.8980 H     1 <1>   0.0800 
 35 H       -3.4020     2.3160    -1.0420 H     1 <1>   0.0800 
 36 H       -4.3760     0.8980    -0.7170 H     1 <1>   0.0800 
 37 H       -5.8330     3.7230     1.5500 H     1 <1>   0.0800 
 38 H       -5.1460     3.7780    -0.5720 H     1 <1>   0.0800 
 39 H        0.4800     4.5950     1.5550 H     1 <1>   0.1500 
 40 H       -1.7010     4.1040    -2.0850 H     1 <1>   0.1500 
 41 H       -7.9310     2.6370     1.8890 H     1 <1>   0.0800 
 42 H       -7.3590     1.1660     1.1810 H     1 <1>   0.0800 
 43 H       -6.5290     1.2070    -1.2710 H     1 <1>   0.0800 
 44 H       -6.5850     2.6990    -2.1460 H     1 <1>   0.0800 
 45 H        0.9080     6.9030     1.0040 H     1 <1>   0.1500 
 46 H       -1.2580     6.4700    -2.6470 H     1 <1>   0.1500 
 47 H       -8.6640     1.9580    -0.6100 H     1 <1>   0.0800 
 48 H       -7.3600     4.5550    -0.1310 H     1 <1>   0.4500 
 49 H      -10.1990     3.8050     0.2740 H     1 <1>   0.0800 
 50 H       -9.5870     5.4430     0.3550 H     1 <1>   0.0800 
 51 H       -9.0560     4.2610     1.5210 H     1 <1>   0.0800 
 52 H       -9.3720     3.8430    -2.1860 H     1 <1>   0.0800 
 53 H       -7.7150     4.3290    -2.4770 H     1 <1>   0.0800 
 54 H       -8.8570     5.4780    -1.8320 H     1 <1>   0.0800 
 55 H        0.3500     9.1240     0.4900 H     1 <1>   0.0800 
 56 H        1.8020     8.6150    -0.3810 H     1 <1>   0.0800 
 57 H       -0.1450    10.7590    -1.3040 H     1 <1>   0.0800 
 58 H        1.2970    10.2530    -2.1690 H     1 <1>   0.0800 
 59 H        1.4360    11.0670    -0.6300 H     1 <1>   0.0800 
@<TRIPOS>BOND
  1   1   2  2   
  2   2   3  am  
  3   2   4  1   
  4   3   5  1   
  5   3   6  1   
  6   4   7  1   
  7   4  27  1   
  8   4  28  1   
  9   5   8  1   
 10   5   9  1   
 11   5  29  1   
 12   6  30  1   
 13   6  31  1   
 14   6  32  1   
 15   7  10  1   
 16   8  11  1   
 17   8  33  1   
 18   8  34  1   
 19   9  12  1   
 20   9  35  1   
 21   9  36  1   
 22  10  13  ar  
 23  10  14  ar  
 24  11  12  1   
 25  11  15  1   
 26  11  37  1   
 27  12  16  1   
 28  12  38  1   
 29  13  17  ar  
 30  13  39  1   
 31  14  18  ar  
 32  14  40  1   
 33  15  19  1   
 34  15  41  1   
 35  15  42  1   
 36  16  19  1   
 37  16  43  1   
 38  16  44  1   
 39  17  20  ar  
 40  17  45  1   
 41  18  20  ar  
 42  18  46  1   
 43  19  21  1   
 44  19  47  1   
 45  20  22  1   
 46  21  23  1   
 47  21  24  1   
 48  21  48  1   
 49  22  25  1   
 50  23  49  1   
 51  23  50  1   
 52  23  51  1   
 53  24  52  1   
 54  24  53  1   
 55  24  54  1   
 56  25  26  1   
 57  25  55  1   
 58  25  56  1   
 59  26  57  1   
 60  26  58  1   
 61  26  59  1   
@<TRIPOS>SUBSTRUCTURE
  1 ****   9 GROUP 4 **** **** 0

# MOE 2024.06 (io_trps.svl 2023.06)
