@<TRIPOS>MOLECULE
NONAME
58 60 1 0 0 
SMALL
USER_CHARGES


@<TRIPOS>ATOM
  1 O       -0.3250     2.0120    -1.8730 O.2   1 <1>  -0.5700 
  2 C       -0.2690     2.7720    -0.9240 C.2   1 <1>   0.7160 
  3 N       -1.3770     3.5330    -0.6140 N.am  1 <1>  -0.6600 
  4 C        0.9450     2.8440    -0.1480 C.2   1 <1>  -0.0860 
  5 C       -2.4920     3.7140    -1.5750 C.3   1 <1>   0.1400 
  6 C       -1.7090     3.9840     0.7630 C.3   1 <1>   0.1400 
  7 C        1.5130     3.9960     0.4030 C.2   1 <1>   0.1390 
  8 C        1.8200     1.8660     0.2150 C.2   1 <1>  -0.3020 
  9 C       -3.7000     2.8990    -1.1070 C.3   1 <1>  -0.1600 
 10 C       -2.9090     3.1820     1.2720 C.3   1 <1>  -0.1600 
 11 N        2.6080     3.7630     1.0560 N.2   1 <1>  -0.7070 
 12 N        2.7980     2.4360     0.9320 N.pl3 1 <1>   0.3000 
 13 C       -4.1290     3.2570     0.3320 C.3   1 <1>   0.2800 
 14 O       -4.5090     4.6140     0.2890 O.3   1 <1>  -0.5600 
 15 C       -5.2770     2.3530     0.8910 C.3   1 <1>   0.2000 
 16 C       -5.7860     4.9890     0.7100 C.3   1 <1>   0.1200 
 17 O       -4.9560     0.9900     0.8390 O.3   1 <1>  -0.6800 
 18 C       -6.7000     2.6450     0.3100 C.3   1 <1>   0.3000 
 19 C       -6.8220     4.1450    -0.0320 C.3   1 <1>  -0.1600 
 20 N       -7.6680     2.3060     1.3860 N.am  1 <1>  -0.7300 
 21 C       -7.0430     1.7740    -0.9150 C.3   1 <1>  -0.2400 
 22 C       -9.0230     2.2710     1.4790 C.2   1 <1>   0.5690 
 23 O       -9.5090     1.9720     2.5630 O.2   1 <1>  -0.5700 
 24 C       -9.9600     2.5800     0.2910 C.3   1 <1>   0.2010 
 25 N      -11.3310     2.8900     0.7000 N.am  1 <1>  -0.7300 
 26 C      -12.2660     3.3990    -0.1340 C.2   1 <1>   0.5690 
 27 O      -12.0170     3.6490    -1.2880 O.2   1 <1>  -0.5700 
 28 C      -13.6590     3.6610     0.4070 C.3   1 <1>  -0.0990 
 29 C      -14.4340     2.3670     0.7010 C.3   1 <1>  -0.2400 
 30 H       -2.7490     4.7590    -1.6240 H     1 <1>   0.0800 
 31 H       -2.1960     3.4000    -2.5620 H     1 <1>   0.0800 
 32 H       -0.8810     3.8360     1.4330 H     1 <1>   0.0800 
 33 H       -1.9480     5.0340     0.7450 H     1 <1>   0.0800 
 34 H        1.0880     4.9810     0.2960 H     1 <1>   0.1500 
 35 H        1.7780     0.8160    -0.0120 H     1 <1>   0.1500 
 36 H       -3.4390     1.8580    -1.1700 H     1 <1>   0.0800 
 37 H       -4.5060     3.0840    -1.7880 H     1 <1>   0.0800 
 38 H       -3.1830     3.5380     2.2480 H     1 <1>   0.0800 
 39 H       -2.6030     2.1560     1.3800 H     1 <1>   0.0800 
 40 H        3.6100     1.9600     1.3460 H     1 <1>   0.2700 
 41 H       -5.3200     2.5810     1.9420 H     1 <1>   0.0800 
 42 H       -5.8550     4.8640     1.7780 H     1 <1>   0.0800 
 43 H       -5.9100     6.0330     0.4750 H     1 <1>   0.0800 
 44 H       -4.8920     0.6860    -0.0870 H     1 <1>   0.4000 
 45 H       -7.7980     4.5220     0.2050 H     1 <1>   0.0800 
 46 H       -6.6670     4.3010    -1.0850 H     1 <1>   0.0800 
 47 H       -7.2080     1.9290     2.2190 H     1 <1>   0.3700 
 48 H       -6.2560     1.7970    -1.6410 H     1 <1>   0.0800 
 49 H       -7.9290     2.1250    -1.4080 H     1 <1>   0.0800 
 50 H       -7.1910     0.7490    -0.6200 H     1 <1>   0.0800 
 51 H       -9.9740     1.7100    -0.3640 H     1 <1>   0.0800 
 52 H       -9.5650     3.4200    -0.2750 H     1 <1>   0.0800 
 53 H      -11.5620     2.6850     1.6620 H     1 <1>   0.3700 
 54 H      -13.5760     4.2480     1.3030 H     1 <1>   0.0800 
 55 H      -14.2010     4.2420    -0.3170 H     1 <1>   0.0800 
 56 H      -13.9260     1.7820     1.4470 H     1 <1>   0.0800 
 57 H      -14.5240     1.7790    -0.1960 H     1 <1>   0.0800 
 58 H      -15.4210     2.6000     1.0600 H     1 <1>   0.0800 
@<TRIPOS>BOND
  1   1   2  2   
  2   2   3  am  
  3   2   4  1   
  4   3   5  1   
  5   3   6  1   
  6   4   7  1   
  7   4   8  2   
  8   5   9  1   
  9   5  30  1   
 10   5  31  1   
 11   6  10  1   
 12   6  32  1   
 13   6  33  1   
 14   7  11  2   
 15   7  34  1   
 16   8  12  1   
 17   8  35  1   
 18   9  13  1   
 19   9  36  1   
 20   9  37  1   
 21  10  13  1   
 22  10  38  1   
 23  10  39  1   
 24  11  12  1   
 25  12  40  1   
 26  13  14  1   
 27  13  15  1   
 28  14  16  1   
 29  15  17  1   
 30  15  18  1   
 31  15  41  1   
 32  16  19  1   
 33  16  42  1   
 34  16  43  1   
 35  17  44  1   
 36  18  19  1   
 37  18  20  1   
 38  18  21  1   
 39  19  45  1   
 40  19  46  1   
 41  20  22  am  
 42  20  47  1   
 43  21  48  1   
 44  21  49  1   
 45  21  50  1   
 46  22  23  2   
 47  22  24  1   
 48  24  25  1   
 49  24  51  1   
 50  24  52  1   
 51  25  26  am  
 52  25  53  1   
 53  26  27  2   
 54  26  28  1   
 55  28  29  1   
 56  28  54  1   
 57  28  55  1   
 58  29  56  1   
 59  29  57  1   
 60  29  58  1   
@<TRIPOS>SUBSTRUCTURE
  1 ****  15 GROUP 4 **** **** 0

# MOE 2024.06 (io_trps.svl 2023.06)
