@<TRIPOS>MOLECULE
NONAME
21 22 1 0 0 
SMALL
USER_CHARGES


@<TRIPOS>ATOM
  1 F        4.0430     0.7800    -0.3770 F     1 <1>  -0.3400 
  2 C        4.5950    -0.4270    -0.4140 C.3   1 <1>   1.1150 
  3 F        4.4600    -0.8540    -1.6630 F     1 <1>  -0.3400 
  4 F        3.8340    -1.2110     0.3380 F     1 <1>  -0.3400 
  5 C        6.0930    -0.3830     0.0140 C.3   1 <1>   0.2320 
  6 N        6.7200    -1.5240     0.5910 N.2   1 <1>  -0.2110 
  7 N        6.4640    -0.6040     1.3720 N.2   1 <1>  -0.2110 
  8 C        6.9620     0.6060    -0.8150 C.3   1 <1>   0.0150 
  9 C        8.4250     0.1700    -0.9120 C.3   1 <1>   0.3430 
 10 C        7.0730     1.9870    -0.1490 C.3   1 <1>  -0.1600 
 11 N        9.0600     0.7110     0.3170 N.4   1 <1>  -0.9060 
 12 C        8.3680     1.9790     0.6670 C.3   1 <1>   0.3430 
 13 H        6.5550     0.6950    -1.8080 H     1 <1>   0.0800 
 14 H        8.8760     0.6250    -1.7800 H     1 <1>   0.0800 
 15 H        8.5300    -0.9020    -0.9800 H     1 <1>   0.0800 
 16 H        6.2260     2.2230     0.4730 H     1 <1>   0.0800 
 17 H        7.1490     2.7530    -0.9030 H     1 <1>   0.0800 
 18 H       10.0770     0.8310     0.2180 H     1 <1>   0.4500 
 19 H        8.9000     0.0340     1.0800 H     1 <1>   0.4500 
 20 H        8.1540     2.0090     1.7250 H     1 <1>   0.0800 
 21 H        8.9760     2.8310     0.4050 H     1 <1>   0.0800 
@<TRIPOS>BOND
  1   1   2  1   
  2   2   3  1   
  3   2   4  1   
  4   2   5  1   
  5   5   6  1   
  6   5   7  1   
  7   5   8  1   
  8   6   7  2   
  9   8   9  1   
 10   8  10  1   
 11   8  13  1   
 12   9  11  1   
 13   9  14  1   
 14   9  15  1   
 15  10  12  1   
 16  10  16  1   
 17  10  17  1   
 18  11  12  1   
 19  11  18  1   
 20  11  19  1   
 21  12  20  1   
 22  12  21  1   
@<TRIPOS>SUBSTRUCTURE
  1 ****   5 GROUP 4 **** **** 0

# MOE 2024.06 (io_trps.svl 2023.06)
