@<TRIPOS>MOLECULE
NONAME
39 41 1 0 0 
SMALL
USER_CHARGES


@<TRIPOS>ATOM
  1 F       -0.2520    -0.4440    -0.4080 F     1 <1>  -0.1900 
  2 C       -0.8200    -1.6020    -0.1830 C.ar  1 <1>   0.1900 
  3 C       -0.0730    -2.7640     0.0410 C.ar  1 <1>   0.0820 
  4 C       -2.2010    -1.6180    -0.1750 C.ar  1 <1>  -0.1500 
  5 O        1.2870    -2.8750     0.0580 O.3   1 <1>  -0.3630 
  6 C       -0.7690    -3.9390     0.2730 C.ar  1 <1>  -0.1500 
  7 C       -2.8620    -2.8080     0.0620 C.ar  1 <1>  -0.1500 
  8 C        2.1500    -1.7950    -0.2200 C.3   1 <1>   0.0400 
  9 C       -2.1650    -3.9970     0.2880 C.ar  1 <1>   0.0530 
 10 C       -2.8500    -5.2450     0.5340 C.2   1 <1>   0.0870 
 11 O       -2.2440    -6.2210     1.1700 O.3   1 <1>  -0.0190 
 12 C       -4.0940    -5.6940     0.2330 C.2   1 <1>  -0.2330 
 13 N       -3.0000    -7.2790     1.3180 N.2   1 <1>  -0.4100 
 14 C       -4.1220    -6.9830     0.7640 C.2   1 <1>   0.3720 
 15 C       -5.1640    -5.0640    -0.4630 C.2   1 <1>   1.0330 
 16 N       -5.1960    -7.8770     0.7300 N.pl3 1 <1>  -0.8210 
 17 O       -5.9530    -4.3200     0.1450 O.co2 1 <1>  -0.9000 
 18 O       -5.3340    -5.2550    -1.6780 O.co2 1 <1>  -0.9000 
 19 C       -5.4900    -8.3760    -0.6390 C.3   1 <1>   0.2090 
 20 C       -6.4080    -7.3730     1.4300 C.3   1 <1>   0.2090 
 21 C       -6.4720    -9.5420    -0.5460 C.3   1 <1>  -0.1600 
 22 C       -7.4110    -8.5150     1.5770 C.3   1 <1>  -0.1600 
 23 C       -7.7280    -9.0900     0.1970 C.3   1 <1>   0.2600 
 24 F       -8.5010   -10.1550     0.3700 F     1 <1>  -0.3400 
 25 H       -2.7540    -0.7130    -0.3500 H     1 <1>   0.1500 
 26 H       -0.2060    -4.8390     0.4440 H     1 <1>   0.1500 
 27 H       -3.9390    -2.8090     0.0740 H     1 <1>   0.1500 
 28 H        3.1620    -2.1550    -0.1730 H     1 <1>   0.0800 
 29 H        2.0020    -1.0300     0.5210 H     1 <1>   0.0800 
 30 H        1.9400    -1.4240    -1.2070 H     1 <1>   0.0800 
 31 H       -4.5740    -8.6970    -1.1070 H     1 <1>   0.0800 
 32 H       -5.9170    -7.5890    -1.2360 H     1 <1>   0.0800 
 33 H       -6.8550    -6.5700     0.8690 H     1 <1>   0.0800 
 34 H       -6.1300    -6.9940     2.4000 H     1 <1>   0.0800 
 35 H       -5.9970   -10.3490    -0.0180 H     1 <1>   0.0800 
 36 H       -6.7290    -9.8670    -1.5370 H     1 <1>   0.0800 
 37 H       -8.3090    -8.1410     2.0330 H     1 <1>   0.0800 
 38 H       -6.9800    -9.2730     2.2060 H     1 <1>   0.0800 
 39 H       -8.2950    -8.3900    -0.3920 H     1 <1>   0.0800 
@<TRIPOS>BOND
  1   1   2  1   
  2   2   3  ar  
  3   2   4  ar  
  4   3   5  1   
  5   3   6  ar  
  6   4   7  ar  
  7   4  25  1   
  8   5   8  1   
  9   6   9  ar  
 10   6  26  1   
 11   7   9  ar  
 12   7  27  1   
 13   8  28  1   
 14   8  29  1   
 15   8  30  1   
 16   9  10  1   
 17  10  11  1   
 18  10  12  2   
 19  11  13  1   
 20  12  14  1   
 21  12  15  1   
 22  13  14  2   
 23  14  16  1   
 24  15  17  ar  
 25  15  18  ar  
 26  16  19  1   
 27  16  20  1   
 28  19  21  1   
 29  19  31  1   
 30  19  32  1   
 31  20  22  1   
 32  20  33  1   
 33  20  34  1   
 34  21  23  1   
 35  21  35  1   
 36  21  36  1   
 37  22  23  1   
 38  22  37  1   
 39  22  38  1   
 40  23  24  1   
 41  23  39  1   
@<TRIPOS>SUBSTRUCTURE
  1 ****  12 GROUP 4 **** **** 0

# MOE 2024.06 (io_trps.svl 2023.06)
