@<TRIPOS>MOLECULE
NONAME
57 61 1 0 0 
SMALL
USER_CHARGES


@<TRIPOS>ATOM
  1 O       -4.8850     2.6800    -0.9710 O.2   1 <1>  -0.5700 
  2 C       -4.5290     2.7790     0.1900 C.2   1 <1>   0.7150 
  3 N       -3.6890     3.7990     0.5460 N.am  1 <1>  -0.7300 
  4 C       -5.0050     1.8400     1.1820 C.2   1 <1>   0.0550 
  5 C       -3.1290     4.8250    -0.3730 C.3   1 <1>   0.0600 
  6 O       -5.5460     0.6910     0.7960 O.3   1 <1>  -0.2800 
  7 C       -5.0450     1.8840     2.5440 C.2   1 <1>  -0.1500 
  8 C       -5.9580     0.0210     1.8490 C.2   1 <1>  -0.0400 
  9 C       -5.6690     0.7100     2.9740 C.2   1 <1>  -0.1500 
 10 C       -6.6680    -1.3010     1.6040 C.3   1 <1>   0.5230 
 11 N       -7.4380    -1.1560     0.3380 N.4   1 <1>  -0.9590 
 12 C       -8.5640    -0.1730     0.4780 C.3   1 <1>   0.3430 
 13 C       -7.8910    -2.4430    -0.2510 C.3   1 <1>   0.3430 
 14 C       -9.1670     0.1720    -0.8930 C.3   1 <1>   0.1430 
 15 C       -8.4770    -2.1790    -1.6430 C.3   1 <1>  -0.1600 
 16 C      -10.3560     1.0790    -0.6790 C.ar  1 <1>   0.1670 
 17 C       -9.5980    -1.1200    -1.6210 C.3   1 <1>  -0.1600 
 18 C       -8.2210     1.0500    -1.7570 C.3   1 <1>  -0.1600 
 19 N      -11.3130     0.8540     0.1850 N.ar  1 <1>  -0.6200 
 20 C      -10.3100     2.1750    -1.4820 C.ar  1 <1>  -0.1430 
 21 C       -9.0850     2.1740    -2.3630 C.3   1 <1>  -0.0170 
 22 C      -12.2800     1.7840     0.2280 C.ar  1 <1>   0.6200 
 23 C      -11.3330     3.0800    -1.3760 C.ar  1 <1>   0.1600 
 24 N      -12.3170     2.8930    -0.5250 N.ar  1 <1>  -0.6200 
 25 C      -13.3680     1.5760     1.1710 C.ar  1 <1>   0.0000 
 26 C      -13.8350     0.2950     1.4790 C.ar  1 <1>  -0.1500 
 27 C      -13.9940     2.6480     1.8130 C.ar  1 <1>  -0.1500 
 28 C      -14.8660     0.0940     2.3790 C.ar  1 <1>  -0.1500 
 29 C      -15.0260     2.4550     2.7140 C.ar  1 <1>  -0.1500 
 30 C      -15.4640     1.1750     3.0000 C.ar  1 <1>  -0.1500 
 31 H       -3.3540     3.8390     1.5090 H     1 <1>   0.3700 
 32 H       -3.5480     4.7200    -1.3600 H     1 <1>   0.0800 
 33 H       -2.0600     4.7120    -0.4390 H     1 <1>   0.0800 
 34 H       -3.3580     5.8100    -0.0040 H     1 <1>   0.0800 
 35 H       -4.6890     2.6670     3.1920 H     1 <1>   0.1500 
 36 H       -5.8650     0.4560     4.0030 H     1 <1>   0.1500 
 37 H       -7.3160    -1.5460     2.4290 H     1 <1>   0.0800 
 38 H       -5.9280    -2.0770     1.4930 H     1 <1>   0.0800 
 39 H       -6.7630    -0.7140    -0.3080 H     1 <1>   0.4500 
 40 H       -8.2150     0.7370     0.9390 H     1 <1>   0.0800 
 41 H       -9.3390    -0.5870     1.1030 H     1 <1>   0.0800 
 42 H       -8.6440    -2.8890     0.3790 H     1 <1>   0.0800 
 43 H       -7.0630    -3.1290    -0.3340 H     1 <1>   0.0800 
 44 H       -8.8730    -3.1010    -2.0330 H     1 <1>   0.0800 
 45 H       -7.6880    -1.8710    -2.3060 H     1 <1>   0.0800 
 46 H       -9.9090    -0.8890    -2.6260 H     1 <1>   0.0800 
 47 H      -10.4530    -1.5340    -1.1130 H     1 <1>   0.0800 
 48 H       -7.7150     0.4980    -2.5290 H     1 <1>   0.0800 
 49 H       -7.4760     1.5130    -1.1320 H     1 <1>   0.0800 
 50 H       -9.3660     1.9380    -3.3750 H     1 <1>   0.0800 
 51 H       -8.5730     3.1220    -2.3380 H     1 <1>   0.0800 
 52 H      -11.3480     3.9660    -1.9890 H     1 <1>   0.1500 
 53 H      -13.3860    -0.5570     1.0020 H     1 <1>   0.1500 
 54 H      -13.6670     3.6510     1.6000 H     1 <1>   0.1500 
 55 H      -15.2060    -0.9040     2.5960 H     1 <1>   0.1500 
 56 H      -15.4880     3.3010     3.1910 H     1 <1>   0.1500 
 57 H      -16.2670     1.0220     3.7000 H     1 <1>   0.1500 
@<TRIPOS>BOND
  1   1   2  2   
  2   2   3  am  
  3   2   4  1   
  4   3   5  1   
  5   3  31  1   
  6   4   6  1   
  7   4   7  2   
  8   5  32  1   
  9   5  33  1   
 10   5  34  1   
 11   6   8  1   
 12   7   9  1   
 13   7  35  1   
 14   8   9  2   
 15   8  10  1   
 16   9  36  1   
 17  10  11  1   
 18  10  37  1   
 19  10  38  1   
 20  11  12  1   
 21  11  13  1   
 22  11  39  1   
 23  12  14  1   
 24  12  40  1   
 25  12  41  1   
 26  13  15  1   
 27  13  42  1   
 28  13  43  1   
 29  14  16  1   
 30  14  17  1   
 31  14  18  1   
 32  15  17  1   
 33  15  44  1   
 34  15  45  1   
 35  16  19  ar  
 36  16  20  ar  
 37  17  46  1   
 38  17  47  1   
 39  18  21  1   
 40  18  48  1   
 41  18  49  1   
 42  19  22  ar  
 43  20  21  1   
 44  20  23  ar  
 45  21  50  1   
 46  21  51  1   
 47  22  24  ar  
 48  22  25  1   
 49  23  24  ar  
 50  23  52  1   
 51  25  26  ar  
 52  25  27  ar  
 53  26  28  ar  
 54  26  53  1   
 55  27  29  ar  
 56  27  54  1   
 57  28  30  ar  
 58  28  55  1   
 59  29  30  ar  
 60  29  56  1   
 61  30  57  1   
@<TRIPOS>SUBSTRUCTURE
  1 ****  12 GROUP 4 **** **** 0

# MOE 2024.06 (io_trps.svl 2023.06)
