@<TRIPOS>MOLECULE
NONAME
57 60 1 0 0 
SMALL
USER_CHARGES


@<TRIPOS>ATOM
  1 O       -2.0630    -1.5920    -0.9990 O.3   1 <1>  -0.3630 
  2 C       -1.7990    -2.9210    -0.9450 C.ar  1 <1>   0.0820 
  3 C       -2.1230    -0.8610    -2.2040 C.3   1 <1>   0.2000 
  4 C       -1.8150    -3.4940     0.3150 C.ar  1 <1>  -0.1500 
  5 C       -1.5220    -3.7150    -2.0540 C.ar  1 <1>  -0.1500 
  6 C       -1.9260     0.6100    -1.8460 C.3   1 <1>  -0.2400 
  7 C       -3.4890    -1.0900    -2.8560 C.3   1 <1>  -0.2400 
  8 C       -1.5740    -4.8490     0.4830 C.ar  1 <1>  -0.1440 
  9 C       -1.2720    -5.0660    -1.8900 C.ar  1 <1>  -0.1500 
 10 C       -1.3010    -5.6340    -0.6280 C.ar  1 <1>  -0.1500 
 11 C       -1.6170    -5.4680     1.8630 C.3   1 <1>   0.4860 
 12 N       -2.9620    -6.0580     2.0510 N.4   1 <1>  -0.9590 
 13 C       -4.0830    -5.0740     2.1130 C.3   1 <1>   0.3430 
 14 C       -3.1310    -6.9870     3.1900 C.3   1 <1>   0.3430 
 15 C       -5.1820    -5.7410     2.9540 C.3   1 <1>   0.2000 
 16 C       -4.6450    -7.1220     3.3590 C.3   1 <1>  -0.0800 
 17 O       -5.4040    -4.9910     4.1030 O.3   1 <1>  -0.6800 
 18 C       -5.2450    -8.2770     2.5150 C.3   1 <1>  -0.0170 
 19 C       -4.6780    -8.4350     1.1060 C.ar  1 <1>   0.1670 
 20 N       -4.7930    -7.4330     0.2880 N.ar  1 <1>  -0.6200 
 21 C       -4.0530    -9.6440     0.7560 C.ar  1 <1>  -0.1500 
 22 C       -4.3160    -7.5770    -0.9780 C.ar  1 <1>   0.3100 
 23 C       -3.5340    -9.8040    -0.4930 C.ar  1 <1>  -0.1500 
 24 C       -3.6560    -8.7470    -1.4090 C.ar  1 <1>   0.0000 
 25 C       -4.4710    -6.5200    -1.8900 C.ar  1 <1>  -0.1500 
 26 C       -3.1620    -8.8090    -2.7260 C.ar  1 <1>  -0.1500 
 27 C       -3.9880    -6.6030    -3.1690 C.ar  1 <1>  -0.1500 
 28 C       -3.3240    -7.7590    -3.5900 C.ar  1 <1>  -0.1500 
 29 H       -1.3180    -1.1760    -2.8460 H     1 <1>   0.0800 
 30 H       -2.0200    -2.8530     1.1540 H     1 <1>   0.1500 
 31 H       -1.4960    -3.3060    -3.0450 H     1 <1>   0.1500 
 32 H       -2.7000     0.9400    -1.1770 H     1 <1>   0.0800 
 33 H       -1.9580     1.2130    -2.7350 H     1 <1>   0.0800 
 34 H       -0.9680     0.7470    -1.3770 H     1 <1>   0.0800 
 35 H       -4.2740    -0.7740    -2.1930 H     1 <1>   0.0800 
 36 H       -3.6270    -2.1270    -3.0990 H     1 <1>   0.0800 
 37 H       -3.5590    -0.5200    -3.7650 H     1 <1>   0.0800 
 38 H       -1.0590    -5.6790    -2.7490 H     1 <1>   0.1500 
 39 H       -1.1080    -6.6890    -0.5310 H     1 <1>   0.1500 
 40 H       -1.4230    -4.7200     2.6140 H     1 <1>   0.0800 
 41 H       -0.8620    -6.2340     1.9310 H     1 <1>   0.0800 
 42 H       -3.1820    -6.6020     1.1920 H     1 <1>   0.4500 
 43 H       -3.7710    -4.1550     2.5780 H     1 <1>   0.0800 
 44 H       -4.4450    -4.8700     1.1170 H     1 <1>   0.0800 
 45 H       -2.6640    -7.9400     2.9980 H     1 <1>   0.0800 
 46 H       -2.7060    -6.5520     4.0810 H     1 <1>   0.0800 
 47 H       -6.1120    -5.7920     2.4120 H     1 <1>   0.0800 
 48 H       -4.8840    -7.3270     4.3880 H     1 <1>   0.0800 
 49 H       -4.6460    -4.9910     4.7190 H     1 <1>   0.4000 
 50 H       -6.3120    -8.1470     2.4380 H     1 <1>   0.0800 
 51 H       -5.0930    -9.1970     3.0520 H     1 <1>   0.0800 
 52 H       -3.9900   -10.4430     1.4730 H     1 <1>   0.1500 
 53 H       -3.0490   -10.7160    -0.7960 H     1 <1>   0.1500 
 54 H       -4.9840    -5.6370    -1.5570 H     1 <1>   0.1500 
 55 H       -2.6570    -9.7030    -3.0490 H     1 <1>   0.1500 
 56 H       -4.1140    -5.7870    -3.8600 H     1 <1>   0.1500 
 57 H       -2.9500    -7.8100    -4.5990 H     1 <1>   0.1500 
@<TRIPOS>BOND
  1   1   2  1   
  2   1   3  1   
  3   2   4  ar  
  4   2   5  ar  
  5   3   6  1   
  6   3   7  1   
  7   3  29  1   
  8   4   8  ar  
  9   4  30  1   
 10   5   9  ar  
 11   5  31  1   
 12   6  32  1   
 13   6  33  1   
 14   6  34  1   
 15   7  35  1   
 16   7  36  1   
 17   7  37  1   
 18   8  10  ar  
 19   8  11  1   
 20   9  10  ar  
 21   9  38  1   
 22  10  39  1   
 23  11  12  1   
 24  11  40  1   
 25  11  41  1   
 26  12  13  1   
 27  12  14  1   
 28  12  42  1   
 29  13  15  1   
 30  13  43  1   
 31  13  44  1   
 32  14  16  1   
 33  14  45  1   
 34  14  46  1   
 35  15  16  1   
 36  15  17  1   
 37  15  47  1   
 38  16  18  1   
 39  16  48  1   
 40  17  49  1   
 41  18  19  1   
 42  18  50  1   
 43  18  51  1   
 44  19  20  ar  
 45  19  21  ar  
 46  20  22  ar  
 47  21  23  ar  
 48  21  52  1   
 49  22  24  ar  
 50  22  25  ar  
 51  23  24  ar  
 52  23  53  1   
 53  24  26  ar  
 54  25  27  ar  
 55  25  54  1   
 56  26  28  ar  
 57  26  55  1   
 58  27  28  ar  
 59  27  56  1   
 60  28  57  1   
@<TRIPOS>SUBSTRUCTURE
  1 ****   8 GROUP 4 **** **** 0

# MOE 2024.06 (io_trps.svl 2023.06)
