@<TRIPOS>MOLECULE
NONAME
53 56 1 0 0 
SMALL
USER_CHARGES


@<TRIPOS>ATOM
  1 F        0.9120     2.6230    -1.8540 F     1 <1>  -0.3400 
  2 C        2.0470     2.1180    -2.3210 C.3   1 <1>   1.1640 
  3 F        1.7310     0.9700    -2.9090 F     1 <1>  -0.3400 
  4 F        2.4450     2.9320    -3.2920 F     1 <1>  -0.3400 
  5 C        3.1020     1.9580    -1.2130 C.ar  1 <1>  -0.1440 
  6 C        3.9040     3.0320    -0.8400 C.ar  1 <1>  -0.1500 
  7 C        3.2720     0.7460    -0.5560 C.ar  1 <1>  -0.1500 
  8 C        4.8670     2.9250     0.1600 C.ar  1 <1>  -0.1440 
  9 C        4.2230     0.6170     0.4380 C.ar  1 <1>  -0.1500 
 10 C        5.0140     1.6950     0.7910 C.ar  1 <1>  -0.1500 
 11 C        5.7210     4.1580     0.5150 C.3   1 <1>   0.4240 
 12 O        4.8320     5.1990     0.6970 O.3   1 <1>  -0.6800 
 13 C        6.5210     4.0290     1.8230 C.3   1 <1>  -0.1600 
 14 C        6.6500     4.5320    -0.6480 C.3   1 <1>  -0.1600 
 15 C        7.3730     5.2690     2.0950 C.3   1 <1>   0.2090 
 16 C        7.5270     5.7420    -0.3270 C.3   1 <1>   0.2090 
 17 N        8.2710     5.4820     0.9350 N.pl3 1 <1>  -0.8380 
 18 C        9.4880     6.1100     1.1520 C.ar  1 <1>   0.4100 
 19 N        9.6490     7.3050     0.6100 N.ar  1 <1>  -0.6200 
 20 C       10.4830     5.4940     1.9250 C.ar  1 <1>   0.1600 
 21 C       10.8380     7.8730     0.8710 C.ar  1 <1>   0.3960 
 22 N       11.6580     6.0180     2.2060 N.ar  1 <1>  -0.6200 
 23 C       11.1790     9.2000     0.3460 C.2   1 <1>   0.5440 
 24 C       11.7960     7.2160     1.6510 C.ar  1 <1>   0.1600 
 25 O       12.3550     9.4870     0.1850 O.2   1 <1>  -0.5700 
 26 N       10.2510    10.1780     0.0340 N.am  1 <1>  -0.6600 
 27 C        8.7900    10.1110     0.2660 C.3   1 <1>   0.1400 
 28 C       10.6340    11.4900    -0.5340 C.3   1 <1>   0.1400 
 29 C        8.2990    11.5410     0.0780 C.3   1 <1>  -0.1600 
 30 C        9.3130    12.1740    -0.8710 C.3   1 <1>  -0.1600 
 31 H        3.7760     3.9790    -1.3420 H     1 <1>   0.1500 
 32 H        2.6670    -0.1090    -0.8120 H     1 <1>   0.1500 
 33 H        4.3490    -0.3280     0.9380 H     1 <1>   0.1500 
 34 H        5.7410     1.5420     1.5670 H     1 <1>   0.1500 
 35 H        4.0500     4.8450     1.1600 H     1 <1>   0.4000 
 36 H        7.1930     3.1950     1.7510 H     1 <1>   0.0800 
 37 H        5.8550     3.8540     2.6470 H     1 <1>   0.0800 
 38 H        6.0740     4.7350    -1.5310 H     1 <1>   0.0800 
 39 H        7.2910     3.6970    -0.8650 H     1 <1>   0.0800 
 40 H        7.9490     5.1310     2.9940 H     1 <1>   0.0800 
 41 H        6.7460     6.1350     2.2250 H     1 <1>   0.0800 
 42 H        6.9190     6.6240    -0.2100 H     1 <1>   0.0800 
 43 H        8.2210     5.9130    -1.1340 H     1 <1>   0.0800 
 44 H       10.2680     4.5160     2.3120 H     1 <1>   0.1500 
 45 H       12.7330     7.7160     1.8250 H     1 <1>   0.1500 
 46 H        8.5690     9.7430     1.2530 H     1 <1>   0.0800 
 47 H        8.3480     9.4620    -0.4710 H     1 <1>   0.0800 
 48 H       11.2520    11.3630    -1.4070 H     1 <1>   0.0800 
 49 H       11.1730    12.0490     0.2110 H     1 <1>   0.0800 
 50 H        8.3240    12.0460     1.0280 H     1 <1>   0.0800 
 51 H        7.2970    11.5720    -0.3110 H     1 <1>   0.0800 
 52 H        9.0530    11.9440    -1.8900 H     1 <1>   0.0800 
 53 H        9.3760    13.2410    -0.7560 H     1 <1>   0.0800 
@<TRIPOS>BOND
  1   1   2  1   
  2   2   3  1   
  3   2   4  1   
  4   2   5  1   
  5   5   6  ar  
  6   5   7  ar  
  7   6   8  ar  
  8   6  31  1   
  9   7   9  ar  
 10   7  32  1   
 11   8  10  ar  
 12   8  11  1   
 13   9  10  ar  
 14   9  33  1   
 15  10  34  1   
 16  11  12  1   
 17  11  13  1   
 18  11  14  1   
 19  12  35  1   
 20  13  15  1   
 21  13  36  1   
 22  13  37  1   
 23  14  16  1   
 24  14  38  1   
 25  14  39  1   
 26  15  17  1   
 27  15  40  1   
 28  15  41  1   
 29  16  17  1   
 30  16  42  1   
 31  16  43  1   
 32  17  18  1   
 33  18  19  ar  
 34  18  20  ar  
 35  19  21  ar  
 36  20  22  ar  
 37  20  44  1   
 38  21  23  1   
 39  21  24  ar  
 40  22  24  ar  
 41  23  25  2   
 42  23  26  am  
 43  24  45  1   
 44  26  27  1   
 45  26  28  1   
 46  27  29  1   
 47  27  46  1   
 48  27  47  1   
 49  28  30  1   
 50  28  48  1   
 51  28  49  1   
 52  29  30  1   
 53  29  50  1   
 54  29  51  1   
 55  30  52  1   
 56  30  53  1   
@<TRIPOS>SUBSTRUCTURE
  1 ****  16 GROUP 4 **** **** 0

# MOE 2024.06 (io_trps.svl 2023.06)
