@<TRIPOS>MOLECULE
NONAME
35 36 1 0 0 
SMALL
USER_CHARGES


@<TRIPOS>ATOM
  1 F       -0.2460     0.8380     0.9530 F     1 <1>  -0.3400 
  2 C       -0.2100     2.1430     1.1850 C.3   1 <1>   1.1640 
  3 F       -1.3720     2.6300     0.7650 F     1 <1>  -0.3400 
  4 F       -0.2010     2.2860     2.5040 F     1 <1>  -0.3400 
  5 C        0.9950     2.8060     0.5290 C.ar  1 <1>  -0.1440 
  6 C        2.2610     2.4010     0.9160 C.ar  1 <1>   0.1600 
  7 C        0.8880     3.7930    -0.4400 C.ar  1 <1>  -0.1500 
  8 N        3.3940     2.8850     0.4370 N.ar  1 <1>  -0.6200 
  9 C        2.0600     4.3000    -0.9460 C.ar  1 <1>  -0.1500 
 10 C        3.2890     3.8300    -0.4880 C.ar  1 <1>   0.4100 
 11 N        4.4700     4.3610    -0.9780 N.pl3 1 <1>  -0.8380 
 12 C        4.6740     5.8380    -1.0370 C.3   1 <1>   0.2090 
 13 C        5.6570     3.4910    -1.1920 C.3   1 <1>   0.2090 
 14 C        4.5100     6.4470     0.3560 C.3   1 <1>   0.0960 
 15 C        6.6530     3.6510    -0.0460 C.3   1 <1>  -0.2400 
 16 N        4.8530     7.8750     0.3170 N.pl3 1 <1>   0.3140 
 17 N        4.2390     8.7360    -0.5170 N.2   1 <1>  -0.7070 
 18 C        5.7840     8.5010     1.0640 C.2   1 <1>  -0.3020 
 19 C        4.7930     9.8860    -0.2770 C.2   1 <1>   0.1390 
 20 C        5.7710     9.8020     0.7060 C.2   1 <1>  -0.1500 
 21 H        2.3570     1.6330     1.6660 H     1 <1>   0.1500 
 22 H       -0.0650     4.1530    -0.7910 H     1 <1>   0.1500 
 23 H        2.0400     5.0580    -1.7050 H     1 <1>   0.1500 
 24 H        3.9590     6.2750    -1.7120 H     1 <1>   0.0800 
 25 H        5.6600     6.0520    -1.4110 H     1 <1>   0.0800 
 26 H        6.1230     3.7460    -2.1290 H     1 <1>   0.0800 
 27 H        5.3410     2.4620    -1.2510 H     1 <1>   0.0800 
 28 H        5.1570     5.9500     1.0530 H     1 <1>   0.0800 
 29 H        3.4920     6.3530     0.6830 H     1 <1>   0.0800 
 30 H        7.0560     4.6460    -0.0220 H     1 <1>   0.0800 
 31 H        7.4650     2.9600    -0.1790 H     1 <1>   0.0800 
 32 H        6.1700     3.4310     0.8890 H     1 <1>   0.0800 
 33 H        6.3910     7.9990     1.7950 H     1 <1>   0.1500 
 34 H        4.5170    10.7940    -0.7870 H     1 <1>   0.1500 
 35 H        6.3680    10.6150     1.0790 H     1 <1>   0.1500 
@<TRIPOS>BOND
  1   1   2  1   
  2   2   3  1   
  3   2   4  1   
  4   2   5  1   
  5   5   6  ar  
  6   5   7  ar  
  7   6   8  ar  
  8   6  21  1   
  9   7   9  ar  
 10   7  22  1   
 11   8  10  ar  
 12   9  10  ar  
 13   9  23  1   
 14  10  11  1   
 15  11  12  1   
 16  11  13  1   
 17  12  14  1   
 18  12  24  1   
 19  12  25  1   
 20  13  15  1   
 21  13  26  1   
 22  13  27  1   
 23  14  16  1   
 24  14  28  1   
 25  14  29  1   
 26  15  30  1   
 27  15  31  1   
 28  15  32  1   
 29  16  17  1   
 30  16  18  1   
 31  17  19  2   
 32  18  20  2   
 33  18  33  1   
 34  19  20  1   
 35  19  34  1   
 36  20  35  1   
@<TRIPOS>SUBSTRUCTURE
  1 ****  10 GROUP 4 **** **** 0

# MOE 2024.06 (io_trps.svl 2023.06)
