@<TRIPOS>MOLECULE
NONAME
49 52 1 0 0 
SMALL
USER_CHARGES


@<TRIPOS>ATOM
  1 O       -1.2230     0.4360     2.0280 O.2   1 <1>  -0.5700 
  2 C       -1.8400     0.6600     1.0030 C.2   1 <1>   0.5440 
  3 N       -1.3100     1.5520     0.0920 N.am  1 <1>  -0.6600 
  4 C       -3.1010    -0.0040     0.7790 C.ar  1 <1>   0.0860 
  5 C       -2.1360     2.3790    -0.8410 C.3   1 <1>   0.1400 
  6 C        0.1100     2.0150     0.1770 C.3   1 <1>   0.1400 
  7 C       -3.4180    -0.5620    -0.4580 C.ar  1 <1>   0.1600 
  8 C       -4.0550    -0.1310     1.7830 C.ar  1 <1>  -0.1500 
  9 C       -1.9350     3.8790    -0.5610 C.3   1 <1>   0.1200 
 10 C        0.1700     3.5330     0.4120 C.3   1 <1>   0.1200 
 11 N       -4.5470    -1.1750    -0.7710 N.ar  1 <1>  -0.6200 
 12 C       -5.2320    -0.7710     1.4800 C.ar  1 <1>  -0.1500 
 13 O       -0.5750     4.2100    -0.5620 O.3   1 <1>  -0.5600 
 14 C       -5.4450    -1.2760     0.2010 C.ar  1 <1>   0.4100 
 15 N       -6.6220    -1.9070    -0.0900 N.pl3 1 <1>  -0.8690 
 16 C       -6.8060    -2.7710    -1.2690 C.3   1 <1>   0.3530 
 17 C       -7.8860    -3.7850    -0.9340 C.ar  1 <1>  -0.1430 
 18 C       -7.5460    -5.0060    -0.3690 C.ar  1 <1>  -0.1500 
 19 C       -9.2190    -3.4960    -1.1820 C.ar  1 <1>  -0.1500 
 20 C       -8.5220    -5.9390    -0.0570 C.ar  1 <1>  -0.1430 
 21 C      -10.2010    -4.4200    -0.8720 C.ar  1 <1>  -0.1500 
 22 C       -9.8580    -5.6370    -0.3090 C.ar  1 <1>   0.0820 
 23 C       -8.1340    -7.2750     0.5530 C.3   1 <1>  -0.0170 
 24 O      -10.8580    -6.5090    -0.0270 O.3   1 <1>  -0.3620 
 25 C       -9.2760    -8.2820     0.4020 C.3   1 <1>  -0.1600 
 26 C      -10.6010    -7.6260     0.8000 C.3   1 <1>   0.1200 
 27 H       -3.1810     2.1450    -0.7360 H     1 <1>   0.0800 
 28 H       -1.8450     2.1670    -1.8550 H     1 <1>   0.0800 
 29 H        0.6140     1.7810    -0.7430 H     1 <1>   0.0800 
 30 H        0.6310     1.5110     0.9730 H     1 <1>   0.0800 
 31 H       -2.6790    -0.4930    -1.2360 H     1 <1>   0.1500 
 32 H       -3.8600     0.2640     2.7660 H     1 <1>   0.1500 
 33 H       -2.3530     4.1450     0.3950 H     1 <1>   0.0800 
 34 H       -2.4150     4.4670    -1.3230 H     1 <1>   0.0800 
 35 H        1.1860     3.8780     0.3490 H     1 <1>   0.0800 
 36 H       -0.2210     3.7790     1.3840 H     1 <1>   0.0800 
 37 H       -5.9990    -0.8880     2.2230 H     1 <1>   0.1500 
 38 H       -7.2300    -2.1820     0.6840 H     1 <1>   0.4000 
 39 H       -5.8850    -3.2750    -1.5100 H     1 <1>   0.0800 
 40 H       -7.0980    -2.1690    -2.1120 H     1 <1>   0.0800 
 41 H       -6.5120    -5.2290    -0.1710 H     1 <1>   0.1500 
 42 H       -9.4970    -2.5500    -1.6150 H     1 <1>   0.1500 
 43 H      -11.2360    -4.2040    -1.0630 H     1 <1>   0.1500 
 44 H       -7.9210    -7.1250     1.5970 H     1 <1>   0.0800 
 45 H       -7.2480    -7.6570     0.0770 H     1 <1>   0.0800 
 46 H       -9.0910    -9.1420     1.0200 H     1 <1>   0.0800 
 47 H       -9.3440    -8.6110    -0.6210 H     1 <1>   0.0800 
 48 H      -11.4210    -8.3130     0.6850 H     1 <1>   0.0800 
 49 H      -10.5670    -7.2800     1.8180 H     1 <1>   0.0800 
@<TRIPOS>BOND
  1   1   2  2   
  2   2   3  am  
  3   2   4  1   
  4   3   5  1   
  5   3   6  1   
  6   4   7  ar  
  7   4   8  ar  
  8   5   9  1   
  9   5  27  1   
 10   5  28  1   
 11   6  10  1   
 12   6  29  1   
 13   6  30  1   
 14   7  11  ar  
 15   7  31  1   
 16   8  12  ar  
 17   8  32  1   
 18   9  13  1   
 19   9  33  1   
 20   9  34  1   
 21  10  13  1   
 22  10  35  1   
 23  10  36  1   
 24  11  14  ar  
 25  12  14  ar  
 26  12  37  1   
 27  14  15  1   
 28  15  16  1   
 29  15  38  1   
 30  16  17  1   
 31  16  39  1   
 32  16  40  1   
 33  17  18  ar  
 34  17  19  ar  
 35  18  20  ar  
 36  18  41  1   
 37  19  21  ar  
 38  19  42  1   
 39  20  22  ar  
 40  20  23  1   
 41  21  22  ar  
 42  21  43  1   
 43  22  24  1   
 44  23  25  1   
 45  23  44  1   
 46  23  45  1   
 47  24  26  1   
 48  25  26  1   
 49  25  46  1   
 50  25  47  1   
 51  26  48  1   
 52  26  49  1   
@<TRIPOS>SUBSTRUCTURE
  1 ****  14 GROUP 4 **** **** 0

# MOE 2024.06 (io_trps.svl 2023.06)
