@<TRIPOS>MOLECULE
NONAME
57 59 1 0 0 
SMALL
USER_CHARGES


@<TRIPOS>ATOM
  1 O        5.0250    -0.8420     0.7710 O.2   1 <1>  -0.5700 
  2 C        3.8660    -1.0840     0.4820 C.2   1 <1>   0.5440 
  3 N        3.5150    -0.8860    -0.8340 N.am  1 <1>  -0.6600 
  4 C        2.9010    -1.4630     1.4940 C.ar  1 <1>   0.0860 
  5 C        4.4560    -1.2950    -1.9290 C.3   1 <1>   0.1400 
  6 C        2.5280     0.1660    -1.1890 C.3   1 <1>   0.1400 
  7 C        3.1310    -1.1690     2.8370 C.ar  1 <1>   0.1600 
  8 C        1.7160    -2.1230     1.1910 C.ar  1 <1>  -0.1500 
  9 C        5.3760    -0.1490    -2.4030 C.3   1 <1>   0.3430 
 10 C        3.0910     1.5530    -0.8430 C.3   1 <1>  -0.1600 
 11 N        2.3140    -1.4360     3.8410 N.ar  1 <1>  -0.6200 
 12 C        0.8470    -2.4230     2.2190 C.ar  1 <1>  -0.1430 
 13 N        5.4590     0.9370    -1.3790 N.4   1 <1>  -0.9590 
 14 C        4.3850     1.9540    -1.5650 C.3   1 <1>   0.3430 
 15 C        1.1930    -2.0560     3.5110 C.ar  1 <1>   0.1600 
 16 C       -0.4630    -3.1410     1.9430 C.3   1 <1>  -0.0970 
 17 C        6.8300     1.5210    -1.2760 C.3   1 <1>   0.3430 
 18 C        7.0730     2.1230     0.1090 C.3   1 <1>   0.1200 
 19 O        8.3300     2.7500     0.0800 O.3   1 <1>  -0.3630 
 20 C        8.8540     3.3490     1.1830 C.ar  1 <1>   0.0820 
 21 C       10.1050     3.9500     1.0640 C.ar  1 <1>  -0.1430 
 22 C        8.1900     3.3770     2.4090 C.ar  1 <1>  -0.1500 
 23 C       10.6730     4.5670     2.1680 C.ar  1 <1>  -0.1500 
 24 C       10.8760     3.9460    -0.2520 C.3   1 <1>  -0.0170 
 25 C        8.7680     3.9980     3.5020 C.ar  1 <1>  -0.1500 
 26 C       10.0100     4.5930     3.3810 C.ar  1 <1>  -0.1500 
 27 C       11.6960     2.6620    -0.3940 C.3   1 <1>  -0.2400 
 28 H        3.8980    -1.6840    -2.7630 H     1 <1>   0.0800 
 29 H        5.0770    -2.0980    -1.5660 H     1 <1>   0.0800 
 30 H        1.6170     0.0020    -0.6360 H     1 <1>   0.0800 
 31 H        2.2880     0.1060    -2.2380 H     1 <1>   0.0800 
 32 H        4.0540    -0.6770     3.0950 H     1 <1>   0.1500 
 33 H        1.4840    -2.3970     0.1770 H     1 <1>   0.1500 
 34 H        5.0070     0.2510    -3.3330 H     1 <1>   0.0800 
 35 H        6.3550    -0.5590    -2.5920 H     1 <1>   0.0800 
 36 H        3.2420     1.6260     0.2200 H     1 <1>   0.0800 
 37 H        2.3410     2.2840    -1.0900 H     1 <1>   0.0800 
 38 H        5.2660     0.4330    -0.4840 H     1 <1>   0.4500 
 39 H        4.7120     2.9030    -1.1710 H     1 <1>   0.0800 
 40 H        4.1900     2.0880    -2.6170 H     1 <1>   0.0800 
 41 H        0.5150    -2.2850     4.3170 H     1 <1>   0.1500 
 42 H       -0.3890    -3.7380     1.0510 H     1 <1>   0.0800 
 43 H       -1.2540    -2.4230     1.8140 H     1 <1>   0.0800 
 44 H       -0.7150    -3.7900     2.7620 H     1 <1>   0.0800 
 45 H        6.9620     2.2820    -2.0270 H     1 <1>   0.0800 
 46 H        7.5640     0.7490    -1.4330 H     1 <1>   0.0800 
 47 H        7.0970     1.3490     0.8570 H     1 <1>   0.0800 
 48 H        6.3380     2.8690     0.3490 H     1 <1>   0.0800 
 49 H        7.2270     2.9250     2.5440 H     1 <1>   0.1500 
 50 H       11.6410     5.0300     2.0890 H     1 <1>   0.1500 
 51 H       11.5370     4.7950    -0.2880 H     1 <1>   0.0800 
 52 H       10.1960     4.0390    -1.0800 H     1 <1>   0.0800 
 53 H        8.2540     4.0180     4.4470 H     1 <1>   0.1500 
 54 H       10.4610     5.0750     4.2310 H     1 <1>   0.1500 
 55 H       12.3950     2.5780     0.4200 H     1 <1>   0.0800 
 56 H       12.2410     2.6690    -1.3200 H     1 <1>   0.0800 
 57 H       11.0470     1.8040    -0.3780 H     1 <1>   0.0800 
@<TRIPOS>BOND
  1   1   2  2   
  2   2   3  am  
  3   2   4  1   
  4   3   5  1   
  5   3   6  1   
  6   4   7  ar  
  7   4   8  ar  
  8   5   9  1   
  9   5  28  1   
 10   5  29  1   
 11   6  10  1   
 12   6  30  1   
 13   6  31  1   
 14   7  11  ar  
 15   7  32  1   
 16   8  12  ar  
 17   8  33  1   
 18   9  13  1   
 19   9  34  1   
 20   9  35  1   
 21  10  14  1   
 22  10  36  1   
 23  10  37  1   
 24  11  15  ar  
 25  12  15  ar  
 26  12  16  1   
 27  13  14  1   
 28  13  17  1   
 29  13  38  1   
 30  14  39  1   
 31  14  40  1   
 32  15  41  1   
 33  16  42  1   
 34  16  43  1   
 35  16  44  1   
 36  17  18  1   
 37  17  45  1   
 38  17  46  1   
 39  18  19  1   
 40  18  47  1   
 41  18  48  1   
 42  19  20  1   
 43  20  21  ar  
 44  20  22  ar  
 45  21  23  ar  
 46  21  24  1   
 47  22  25  ar  
 48  22  49  1   
 49  23  26  ar  
 50  23  50  1   
 51  24  27  1   
 52  24  51  1   
 53  24  52  1   
 54  25  26  ar  
 55  25  53  1   
 56  26  54  1   
 57  27  55  1   
 58  27  56  1   
 59  27  57  1   
@<TRIPOS>SUBSTRUCTURE
  1 ****   1 GROUP 4 **** **** 0

# MOE 2024.06 (io_trps.svl 2023.06)
