@<TRIPOS>MOLECULE
NONAME
40 41 1 0 0 
SMALL
USER_CHARGES


@<TRIPOS>ATOM
  1 S        0.9720     0.9690    -1.2460 S.o2  1 <1>   1.3330 
  2 O        1.0680    -0.1160    -2.1980 O.2   1 <1>  -0.6500 
  3 O        0.2670     2.1770    -1.6100 O.2   1 <1>  -0.6500 
  4 N        0.2400     0.3630     0.1620 N.am  1 <1>  -0.8490 
  5 C        2.6360     1.3850    -0.7250 C.3   1 <1>  -0.0550 
  6 C       -0.2000     1.4160     1.0840 C.3   1 <1>   0.1160 
  7 C       -0.8850    -0.5270    -0.1440 C.3   1 <1>   0.1160 
  8 C        3.5180     0.1670    -0.3680 C.3   1 <1>  -0.0800 
  9 C        4.9900     0.4700    -0.1160 C.3   1 <1>   0.2890 
 10 C        3.0960    -0.5660     0.9090 C.3   1 <1>   0.1200 
 11 N        5.1630     1.7130     0.6730 N.pl3 1 <1>  -0.8690 
 12 C        5.3830    -0.7250     0.7440 C.3   1 <1>   0.1200 
 13 O        4.2630    -1.0230     1.5240 O.3   1 <1>  -0.5600 
 14 C        5.2310     2.9630     0.1410 C.ar  1 <1>   0.4100 
 15 N        4.4890     3.8600     0.7440 N.ar  1 <1>  -0.6200 
 16 C        6.0030     3.2810    -0.9590 C.ar  1 <1>  -0.1500 
 17 C        4.5240     5.0730     0.2250 C.ar  1 <1>   0.4770 
 18 C        5.9580     4.5710    -1.4090 C.ar  1 <1>   0.1600 
 19 N        5.2110     5.4870    -0.8250 N.ar  1 <1>  -0.6200 
 20 C        3.6680     6.1120     0.9070 C.3   1 <1>  -0.0970 
 21 H        3.1110     1.9180    -1.5260 H     1 <1>   0.0800 
 22 H        2.5840     2.0530     0.1120 H     1 <1>   0.0800 
 23 H       -0.5790     0.9780     1.9920 H     1 <1>   0.0800 
 24 H       -0.9750     2.0140     0.6330 H     1 <1>   0.0800 
 25 H        0.6260     2.0580     1.3390 H     1 <1>   0.0800 
 26 H       -1.3190    -0.9060     0.7650 H     1 <1>   0.0800 
 27 H       -0.5440    -1.3650    -0.7290 H     1 <1>   0.0800 
 28 H       -1.6380     0.0020    -0.7050 H     1 <1>   0.0800 
 29 H        3.4650    -0.5400    -1.1770 H     1 <1>   0.0800 
 30 H        5.5640     0.5120    -1.0250 H     1 <1>   0.0800 
 31 H        2.4560    -1.4070     0.6980 H     1 <1>   0.0800 
 32 H        2.6060     0.0940     1.6030 H     1 <1>   0.0800 
 33 H        4.6730     1.6780     1.5720 H     1 <1>   0.4000 
 34 H        6.2230    -0.5150     1.3830 H     1 <1>   0.0800 
 35 H        5.5910    -1.5840     0.1310 H     1 <1>   0.0800 
 36 H        6.6180     2.5420    -1.4300 H     1 <1>   0.1500 
 37 H        6.5410     4.8710    -2.2640 H     1 <1>   0.1500 
 38 H        4.1240     7.0810     0.8170 H     1 <1>   0.0800 
 39 H        3.5560     5.8760     1.9490 H     1 <1>   0.0800 
 40 H        2.7000     6.1340     0.4430 H     1 <1>   0.0800 
@<TRIPOS>BOND
  1   1   2  2   
  2   1   3  2   
  3   1   4  am  
  4   1   5  1   
  5   4   6  1   
  6   4   7  1   
  7   5   8  1   
  8   5  21  1   
  9   5  22  1   
 10   6  23  1   
 11   6  24  1   
 12   6  25  1   
 13   7  26  1   
 14   7  27  1   
 15   7  28  1   
 16   8   9  1   
 17   8  10  1   
 18   8  29  1   
 19   9  11  1   
 20   9  12  1   
 21   9  30  1   
 22  10  13  1   
 23  10  31  1   
 24  10  32  1   
 25  11  14  1   
 26  11  33  1   
 27  12  13  1   
 28  12  34  1   
 29  12  35  1   
 30  14  15  ar  
 31  14  16  ar  
 32  15  17  ar  
 33  16  18  ar  
 34  16  36  1   
 35  17  19  ar  
 36  17  20  1   
 37  18  19  ar  
 38  18  37  1   
 39  20  38  1   
 40  20  39  1   
 41  20  40  1   
@<TRIPOS>SUBSTRUCTURE
  1 ****   5 GROUP 4 **** **** 0

# MOE 2024.06 (io_trps.svl 2023.06)
