@<TRIPOS>MOLECULE
NONAME
55 58 1 0 0 
SMALL
USER_CHARGES


@<TRIPOS>ATOM
  1 S        0.5570    -0.0060    -1.6020 S.o2  1 <1>   1.4470 
  2 O        0.2050     0.7130    -2.8020 O.2   1 <1>  -0.6500 
  3 O        1.6310    -0.9780    -1.6560 O.2   1 <1>  -0.6500 
  4 N        1.1310     1.1540    -0.5040 N.am  1 <1>  -0.8490 
  5 C       -0.9310    -0.6820    -0.8170 C.ar  1 <1>  -0.0090 
  6 C        1.5700     0.6180     0.8160 C.3   1 <1>   0.2760 
  7 C        1.8990     2.2380    -1.1500 C.3   1 <1>   0.1960 
  8 C       -1.0960    -2.0500    -0.6380 C.ar  1 <1>  -0.1500 
  9 C       -1.9470     0.1540    -0.3710 C.ar  1 <1>  -0.1500 
 10 C        1.5410     1.7030     1.9060 C.3   1 <1>   0.1200 
 11 C        2.9500    -0.1010     0.8220 C.3   1 <1>   0.3430 
 12 C        3.1640     2.7160    -0.4210 C.3   1 <1>  -0.0800 
 13 C       -2.2370    -2.5680    -0.0480 C.ar  1 <1>  -0.1440 
 14 C       -3.0900    -0.3570     0.2170 C.ar  1 <1>  -0.1500 
 15 O        2.7370     2.4230     1.9290 O.3   1 <1>  -0.5600 
 16 N        3.8380     0.2440    -0.3400 N.4   1 <1>  -0.9590 
 17 C        2.8710     3.3780     0.9320 C.3   1 <1>   0.1200 
 18 C        4.2940     1.6710    -0.3420 C.3   1 <1>   0.3430 
 19 C       -3.2710    -1.7290     0.3600 C.ar  1 <1>   0.1170 
 20 C       -2.3830    -4.0580     0.2010 C.3   1 <1>  -0.0170 
 21 C        4.9920    -0.6950    -0.4220 C.3   1 <1>   0.2630 
 22 N       -4.4520    -2.2790     0.9090 N.am  1 <1>  -0.4770 
 23 C       -2.9750    -4.2310     1.6030 C.3   1 <1>  -0.1600 
 24 C       -5.7420    -1.8750     0.6230 C.2   1 <1>   0.5690 
 25 C       -4.3350    -3.5260     1.7340 C.3   1 <1>   0.1400 
 26 O       -6.6900    -2.2550     1.2670 O.2   1 <1>  -0.5700 
 27 C       -6.0400    -0.9630    -0.5480 C.3   1 <1>  -0.1790 
 28 H        0.8390    -0.1060     1.1300 H     1 <1>   0.0800 
 29 H        2.2010     1.9310    -2.1390 H     1 <1>   0.0800 
 30 H        1.2340     3.0760    -1.2850 H     1 <1>   0.0800 
 31 H       -0.3200    -2.7210    -0.9670 H     1 <1>   0.1500 
 32 H       -1.8450     1.2200    -0.4880 H     1 <1>   0.1500 
 33 H        1.4500     1.2340     2.8700 H     1 <1>   0.0800 
 34 H        0.7070     2.3730     1.7790 H     1 <1>   0.0800 
 35 H        2.7600    -1.1610     0.8030 H     1 <1>   0.0800 
 36 H        3.4570     0.1170     1.7480 H     1 <1>   0.0800 
 37 H        3.5540     3.5130    -1.0280 H     1 <1>   0.0800 
 38 H       -3.8490     0.3170     0.5690 H     1 <1>   0.1500 
 39 H        3.2370     0.0730    -1.1710 H     1 <1>   0.4500 
 40 H        1.9830     3.9890     0.8980 H     1 <1>   0.0800 
 41 H        3.6980     4.0070     1.2170 H     1 <1>   0.0800 
 42 H        4.8810     1.8630     0.5420 H     1 <1>   0.0800 
 43 H        4.9380     1.8170    -1.1940 H     1 <1>   0.0800 
 44 H       -3.0390    -4.4870    -0.5370 H     1 <1>   0.0800 
 45 H       -1.4290    -4.5530     0.1430 H     1 <1>   0.0800 
 46 H        5.6210    -0.5940     0.4490 H     1 <1>   0.0800 
 47 H        5.5810    -0.4880    -1.3010 H     1 <1>   0.0800 
 48 H        4.6400    -1.7120    -0.4810 H     1 <1>   0.0800 
 49 H       -2.2980    -3.8110     2.3260 H     1 <1>   0.0800 
 50 H       -3.0900    -5.2750     1.8330 H     1 <1>   0.0800 
 51 H       -4.5270    -3.2840     2.7650 H     1 <1>   0.0800 
 52 H       -5.1010    -4.2120     1.4140 H     1 <1>   0.0800 
 53 H       -5.3320    -1.1160    -1.3410 H     1 <1>   0.0800 
 54 H       -6.0190     0.0610    -0.2280 H     1 <1>   0.0800 
 55 H       -7.0210    -1.1820    -0.9260 H     1 <1>   0.0800 
@<TRIPOS>BOND
  1   1   2  2   
  2   1   3  2   
  3   1   4  am  
  4   1   5  1   
  5   4   6  1   
  6   4   7  1   
  7   5   8  ar  
  8   5   9  ar  
  9   6  10  1   
 10   6  11  1   
 11   6  28  1   
 12   7  12  1   
 13   7  29  1   
 14   7  30  1   
 15   8  13  ar  
 16   8  31  1   
 17   9  14  ar  
 18   9  32  1   
 19  10  15  1   
 20  10  33  1   
 21  10  34  1   
 22  11  16  1   
 23  11  35  1   
 24  11  36  1   
 25  12  17  1   
 26  12  18  1   
 27  12  37  1   
 28  13  19  ar  
 29  13  20  1   
 30  14  19  ar  
 31  14  38  1   
 32  15  17  1   
 33  16  18  1   
 34  16  21  1   
 35  16  39  1   
 36  17  40  1   
 37  17  41  1   
 38  18  42  1   
 39  18  43  1   
 40  19  22  1   
 41  20  23  1   
 42  20  44  1   
 43  20  45  1   
 44  21  46  1   
 45  21  47  1   
 46  21  48  1   
 47  22  24  am  
 48  22  25  1   
 49  23  25  1   
 50  23  49  1   
 51  23  50  1   
 52  24  26  2   
 53  24  27  1   
 54  25  51  1   
 55  25  52  1   
 56  27  53  1   
 57  27  54  1   
 58  27  55  1   
@<TRIPOS>SUBSTRUCTURE
  1 ****   5 GROUP 4 **** **** 0

# MOE 2024.06 (io_trps.svl 2023.06)
