@<TRIPOS>MOLECULE
NONAME
51 55 1 0 0 
SMALL
USER_CHARGES


@<TRIPOS>ATOM
  1 O       -2.5800    -0.2420     2.4890 O.2   1 <1>  -0.5700 
  2 C       -2.7520    -1.1490     1.6980 C.2   1 <1>   0.7160 
  3 N       -1.7150    -1.3830     0.8490 N.am  1 <1>  -0.8000 
  4 C       -3.9820    -1.9470     1.6400 C.2   1 <1>   0.4300 
  5 N       -5.0200    -1.8210     2.3970 N.2   1 <1>  -0.4100 
  6 N       -4.1560    -2.9350     0.7420 N.2   1 <1>  -0.5650 
  7 O       -5.8970    -2.6960     2.0290 O.3   1 <1>  -0.0190 
  8 C       -5.3320    -3.3240     1.0300 C.2   1 <1>   0.2980 
  9 C       -6.1150    -4.4420     0.3430 C.3   1 <1>   0.2900 
 10 N       -7.0280    -3.9680    -0.7270 N.3   1 <1>  -0.8100 
 11 C       -8.1110    -3.1010    -0.2020 C.3   1 <1>   0.1100 
 12 C       -7.5830    -5.1040    -1.4790 C.3   1 <1>   0.1100 
 13 C       -8.9760    -2.5170    -1.3350 C.3   1 <1>   0.1430 
 14 C       -8.4210    -4.6040    -2.6620 C.3   1 <1>  -0.1600 
 15 C      -10.0630    -1.6560    -0.7180 C.ar  1 <1>   0.1670 
 16 C       -9.5430    -3.6630    -2.1970 C.3   1 <1>  -0.1600 
 17 C       -8.1760    -1.4890    -2.1810 C.3   1 <1>  -0.1600 
 18 N      -11.1180    -2.1020    -0.0800 N.ar  1 <1>  -0.6200 
 19 C       -9.8060    -0.3300    -0.8850 C.ar  1 <1>  -0.1440 
 20 C       -8.5160    -0.0940    -1.6300 C.3   1 <1>  -0.0170 
 21 C      -11.9550    -1.1680     0.3930 C.ar  1 <1>   0.6200 
 22 C      -10.7070     0.5640    -0.3690 C.ar  1 <1>   0.1600 
 23 N      -11.7820     0.1570     0.2670 N.ar  1 <1>  -0.6200 
 24 C      -13.1440    -1.6280     1.0990 C.ar  1 <1>   0.0000 
 25 C      -14.3150    -0.8640     1.1390 C.ar  1 <1>  -0.1500 
 26 C      -13.1720    -2.8540     1.7700 C.ar  1 <1>  -0.1500 
 27 C      -15.4460    -1.2970     1.8070 C.ar  1 <1>  -0.1500 
 28 C      -14.2990    -3.2940     2.4400 C.ar  1 <1>  -0.1500 
 29 C      -15.4410    -2.5150     2.4610 C.ar  1 <1>  -0.1500 
 30 H       -0.8750    -0.8110     0.9040 H     1 <1>   0.3700 
 31 H       -1.7650    -2.1090     0.1330 H     1 <1>   0.3700 
 32 H       -6.6730    -4.9880     1.0840 H     1 <1>   0.0800 
 33 H       -5.3960    -5.1140    -0.0920 H     1 <1>   0.0800 
 34 H       -7.6930    -2.2780     0.3500 H     1 <1>   0.0800 
 35 H       -8.7390    -3.6660     0.4660 H     1 <1>   0.0800 
 36 H       -8.1960    -5.7080    -0.8310 H     1 <1>   0.0800 
 37 H       -6.7800    -5.7150    -1.8560 H     1 <1>   0.0800 
 38 H       -8.8490    -5.4470    -3.1750 H     1 <1>   0.0800 
 39 H       -7.7740    -4.0950    -3.3550 H     1 <1>   0.0800 
 40 H      -10.0780    -3.2680    -3.0420 H     1 <1>   0.0800 
 41 H      -10.2450    -4.2270    -1.6070 H     1 <1>   0.0800 
 42 H       -8.5020    -1.5350    -3.2040 H     1 <1>   0.0800 
 43 H       -7.1160    -1.6780    -2.1570 H     1 <1>   0.0800 
 44 H       -8.6360     0.6250    -2.4210 H     1 <1>   0.0800 
 45 H       -7.7570     0.2370    -0.9430 H     1 <1>   0.0800 
 46 H      -10.5460     1.6230    -0.4750 H     1 <1>   0.1500 
 47 H      -14.3390     0.0860     0.6350 H     1 <1>   0.1500 
 48 H      -12.2930    -3.4750     1.7660 H     1 <1>   0.1500 
 49 H      -16.3310    -0.6840     1.8190 H     1 <1>   0.1500 
 50 H      -14.2880    -4.2440     2.9470 H     1 <1>   0.1500 
 51 H      -16.3190    -2.8540     2.9820 H     1 <1>   0.1500 
@<TRIPOS>BOND
  1   1   2  2   
  2   2   3  am  
  3   2   4  1   
  4   3  30  1   
  5   3  31  1   
  6   4   5  2   
  7   4   6  1   
  8   5   7  1   
  9   6   8  2   
 10   7   8  1   
 11   8   9  1   
 12   9  10  1   
 13   9  32  1   
 14   9  33  1   
 15  10  11  1   
 16  10  12  1   
 17  11  13  1   
 18  11  34  1   
 19  11  35  1   
 20  12  14  1   
 21  12  36  1   
 22  12  37  1   
 23  13  15  1   
 24  13  16  1   
 25  13  17  1   
 26  14  16  1   
 27  14  38  1   
 28  14  39  1   
 29  15  18  ar  
 30  15  19  ar  
 31  16  40  1   
 32  16  41  1   
 33  17  20  1   
 34  17  42  1   
 35  17  43  1   
 36  18  21  ar  
 37  19  20  1   
 38  19  22  ar  
 39  20  44  1   
 40  20  45  1   
 41  21  23  ar  
 42  21  24  1   
 43  22  23  ar  
 44  22  46  1   
 45  24  25  ar  
 46  24  26  ar  
 47  25  27  ar  
 48  25  47  1   
 49  26  28  ar  
 50  26  48  1   
 51  27  29  ar  
 52  27  49  1   
 53  28  29  ar  
 54  28  50  1   
 55  29  51  1   
@<TRIPOS>SUBSTRUCTURE
  1 ****  11 GROUP 4 **** **** 0

# MOE 2024.06 (io_trps.svl 2023.06)
