@<TRIPOS>MOLECULE
NONAME
46 49 1 0 0 
SMALL
USER_CHARGES


@<TRIPOS>ATOM
  1 F        5.7500     6.5540     3.9210 F     1 <1>  -0.1900 
  2 C        6.0550     5.7010     2.9770 C.ar  1 <1>   0.1900 
  3 C        6.1840     6.1510     1.6850 C.ar  1 <1>  -0.1500 
  4 C        6.2260     4.3610     3.3390 C.ar  1 <1>  -0.1500 
  5 C        6.4870     5.2100     0.7050 C.ar  1 <1>   0.2270 
  6 C        6.5310     3.4330     2.3660 C.ar  1 <1>  -0.1500 
  7 N        6.6730     5.3840    -0.6330 N.2   1 <1>  -0.5650 
  8 C        6.6550     3.8770     1.0450 C.ar  1 <1>  -0.1520 
  9 C        6.9440     4.2060    -1.0770 C.2   1 <1>   0.0060 
 10 N        6.9480     3.2450    -0.1190 N.pl3 1 <1>   0.0330 
 11 C        7.2910     3.8920    -2.5200 C.3   1 <1>   0.3000 
 12 O        8.5400     3.2570    -2.5310 O.3   1 <1>  -0.5600 
 13 C        9.5690     3.9260    -3.2360 C.3   1 <1>   0.1810 
 14 C       10.1620     5.1560    -2.5330 C.2   1 <1>   0.5690 
 15 O       11.0810     5.7270    -3.0700 O.2   1 <1>  -0.5700 
 16 N        9.6590     5.5870    -1.3500 N.am  1 <1>  -0.7300 
 17 C       10.0960     6.7550    -0.5690 C.3   1 <1>   0.2350 
 18 C       10.6500     6.3450     0.8130 C.3   1 <1>  -0.1900 
 19 C       11.5640     5.1620     0.9250 C.3   1 <1>  -0.2000 
 20 C       10.1780     5.1050     1.5140 C.3   1 <1>  -0.2000 
 21 C       10.9690     7.5750     1.6860 C.3   1 <1>   0.1910 
 22 N        9.7400     8.2510     2.1630 N.pl3 1 <1>   0.3140 
 23 N        9.1830     7.9540     3.3530 N.2   1 <1>  -0.7070 
 24 C        9.0470     9.2240     1.5330 C.2   1 <1>  -0.3020 
 25 C        8.1450     8.7270     3.4400 C.2   1 <1>   0.1390 
 26 C        8.0070     9.5490     2.3290 C.2   1 <1>  -0.1500 
 27 H        6.0630     7.1840     1.4240 H     1 <1>   0.1500 
 28 H        6.1160     4.0800     4.3700 H     1 <1>   0.1500 
 29 H        6.6710     2.3940     2.6100 H     1 <1>   0.1500 
 30 H        7.2010     2.2610    -0.2470 H     1 <1>   0.2700 
 31 H        7.3190     4.7970    -3.1040 H     1 <1>   0.0800 
 32 H        6.5680     3.2180    -2.9430 H     1 <1>   0.0800 
 33 H        9.2010     4.2080    -4.2060 H     1 <1>   0.0800 
 34 H       10.3630     3.2160    -3.3770 H     1 <1>   0.0800 
 35 H        8.8220     5.1330    -0.9640 H     1 <1>   0.3700 
 36 H        9.2420     7.3980    -0.4450 H     1 <1>   0.0800 
 37 H       10.8490     7.2950    -1.1170 H     1 <1>   0.0800 
 38 H       12.4010     5.1910     1.6010 H     1 <1>   0.1000 
 39 H       11.7730     4.5740     0.0480 H     1 <1>   0.1000 
 40 H        9.4560     4.4600     1.0490 H     1 <1>   0.1000 
 41 H       10.0530     5.1400     2.5830 H     1 <1>   0.1000 
 42 H       11.5630     8.2810     1.1370 H     1 <1>   0.0800 
 43 H       11.5250     7.2720     2.5530 H     1 <1>   0.0800 
 44 H        9.3230     9.6220     0.5750 H     1 <1>   0.1500 
 45 H        7.4740     8.7230     4.2830 H     1 <1>   0.1500 
 46 H        7.2310    10.2760     2.1710 H     1 <1>   0.1500 
@<TRIPOS>BOND
  1   1   2  1   
  2   2   3  ar  
  3   2   4  ar  
  4   3   5  ar  
  5   3  27  1   
  6   4   6  ar  
  7   4  28  1   
  8   5   7  1   
  9   5   8  ar  
 10   6   8  ar  
 11   6  29  1   
 12   7   9  2   
 13   8  10  1   
 14   9  10  1   
 15   9  11  1   
 16  10  30  1   
 17  11  12  1   
 18  11  31  1   
 19  11  32  1   
 20  12  13  1   
 21  13  14  1   
 22  13  33  1   
 23  13  34  1   
 24  14  15  2   
 25  14  16  am  
 26  16  17  1   
 27  16  35  1   
 28  17  18  1   
 29  17  36  1   
 30  17  37  1   
 31  18  19  1   
 32  18  20  1   
 33  18  21  1   
 34  19  20  1   
 35  19  38  1   
 36  19  39  1   
 37  20  40  1   
 38  20  41  1   
 39  21  22  1   
 40  21  42  1   
 41  21  43  1   
 42  22  23  1   
 43  22  24  1   
 44  23  25  2   
 45  24  26  2   
 46  24  44  1   
 47  25  26  1   
 48  25  45  1   
 49  26  46  1   
@<TRIPOS>SUBSTRUCTURE
  1 ****   5 GROUP 4 **** **** 0

# MOE 2024.06 (io_trps.svl 2023.06)
