@<TRIPOS>MOLECULE
NONAME
54 57 1 0 0 
SMALL
USER_CHARGES


@<TRIPOS>ATOM
  1 O       -1.2030    -2.0190     0.3290 O.2   1 <1>  -0.5700 
  2 C       -0.1470    -2.5460     0.0740 C.2   1 <1>   0.5690 
  3 N        0.1970    -2.9800    -1.1770 N.am  1 <1>  -0.6600 
  4 C        0.8600    -2.7510     1.1880 C.3   1 <1>  -0.0990 
  5 C        1.5020    -3.6480    -1.4080 C.3   1 <1>   0.1400 
  6 C       -0.7190    -2.8690    -2.3440 C.3   1 <1>   0.0600 
  7 C        2.2710    -2.3530     0.7200 C.3   1 <1>  -0.0800 
  8 C        2.6290    -2.8800    -0.6900 C.3   1 <1>  -0.0800 
  9 C        3.3810    -2.8350     1.6630 C.3   1 <1>  -0.1600 
 10 C        3.9020    -3.7190    -0.5130 C.3   1 <1>  -0.1600 
 11 C        4.5560    -3.1440     0.7420 C.3   1 <1>   0.2200 
 12 N        5.5700    -4.0320     1.3860 N.am  1 <1>  -0.6600 
 13 C        6.6760    -3.4870     2.0060 C.2   1 <1>   0.7150 
 14 C        5.2280    -5.4750     1.5900 C.3   1 <1>   0.0600 
 15 O        7.1390    -4.0370     2.9890 O.2   1 <1>  -0.5700 
 16 C        7.2780    -2.2520     1.5700 C.2   1 <1>  -0.2370 
 17 N        7.6880    -1.3340     2.5030 N.pl3 1 <1>   0.0330 
 18 C        7.5790    -1.7450     0.3340 C.2   1 <1>  -0.1810 
 19 C        8.2030    -0.2370     1.8680 C.ar  1 <1>  -0.1520 
 20 C        8.1450    -0.4660     0.5000 C.ar  1 <1>   0.0000 
 21 C        7.4020    -2.4050    -1.0210 C.3   1 <1>  -0.0590 
 22 C        8.7260     0.9520     2.3810 C.ar  1 <1>  -0.1500 
 23 C        8.6160     0.5130    -0.3850 C.ar  1 <1>  -0.1500 
 24 C        9.1840     1.9050     1.5020 C.ar  1 <1>  -0.1500 
 25 C        9.1330     1.6930     0.1170 C.ar  1 <1>   0.0820 
 26 O        9.6150     2.7050    -0.6560 O.3   1 <1>  -0.3620 
 27 C        9.6380     2.5830    -2.0600 C.3   1 <1>   0.0400 
 28 H        0.5750    -2.1640     2.0430 H     1 <1>   0.0800 
 29 H        0.8310    -3.7880     1.4660 H     1 <1>   0.0800 
 30 H        1.4340    -4.6530    -1.0280 H     1 <1>   0.0800 
 31 H        1.7130    -3.6990    -2.4630 H     1 <1>   0.0800 
 32 H       -0.2570    -2.2770    -3.1140 H     1 <1>   0.0800 
 33 H       -1.6430    -2.3970    -2.0550 H     1 <1>   0.0800 
 34 H       -0.9390    -3.8490    -2.7290 H     1 <1>   0.0800 
 35 H        2.3070    -1.2760     0.6750 H     1 <1>   0.0800 
 36 H        2.8770    -2.0270    -1.2990 H     1 <1>   0.0800 
 37 H        3.0680    -3.7250     2.1770 H     1 <1>   0.0800 
 38 H        3.6400    -2.0800     2.3850 H     1 <1>   0.0800 
 39 H        4.5490    -3.6420    -1.3680 H     1 <1>   0.0800 
 40 H        3.6250    -4.7440    -0.3580 H     1 <1>   0.0800 
 41 H        5.0040    -2.2030     0.4740 H     1 <1>   0.0800 
 42 H        5.2100    -5.9840     0.6430 H     1 <1>   0.0800 
 43 H        4.2690    -5.5730     2.0660 H     1 <1>   0.0800 
 44 H        5.9620    -5.9610     2.2100 H     1 <1>   0.0800 
 45 H        7.6670    -1.4930     3.5160 H     1 <1>   0.2700 
 46 H        8.3340    -2.3880    -1.5560 H     1 <1>   0.0800 
 47 H        6.6610    -1.8770    -1.5930 H     1 <1>   0.0800 
 48 H        7.0970    -3.4290    -0.9070 H     1 <1>   0.0800 
 49 H        8.7660     1.1110     3.4430 H     1 <1>   0.1500 
 50 H        8.5580     0.3090    -1.4350 H     1 <1>   0.1500 
 51 H        9.5930     2.8320     1.8590 H     1 <1>   0.1500 
 52 H       10.0640     3.4830    -2.4660 H     1 <1>   0.0800 
 53 H        8.6300     2.4640    -2.4160 H     1 <1>   0.0800 
 54 H       10.2460     1.7370    -2.3270 H     1 <1>   0.0800 
@<TRIPOS>BOND
  1   1   2  2   
  2   2   3  am  
  3   2   4  1   
  4   3   5  1   
  5   3   6  1   
  6   4   7  1   
  7   4  28  1   
  8   4  29  1   
  9   5   8  1   
 10   5  30  1   
 11   5  31  1   
 12   6  32  1   
 13   6  33  1   
 14   6  34  1   
 15   7   8  1   
 16   7   9  1   
 17   7  35  1   
 18   8  10  1   
 19   8  36  1   
 20   9  11  1   
 21   9  37  1   
 22   9  38  1   
 23  10  11  1   
 24  10  39  1   
 25  10  40  1   
 26  11  12  1   
 27  11  41  1   
 28  12  13  am  
 29  12  14  1   
 30  13  15  2   
 31  13  16  1   
 32  14  42  1   
 33  14  43  1   
 34  14  44  1   
 35  16  17  1   
 36  16  18  2   
 37  17  19  1   
 38  17  45  1   
 39  18  20  1   
 40  18  21  1   
 41  19  20  ar  
 42  19  22  ar  
 43  20  23  ar  
 44  21  46  1   
 45  21  47  1   
 46  21  48  1   
 47  22  24  ar  
 48  22  49  1   
 49  23  25  ar  
 50  23  50  1   
 51  24  25  ar  
 52  24  51  1   
 53  25  26  1   
 54  26  27  1   
 55  27  52  1   
 56  27  53  1   
 57  27  54  1   
@<TRIPOS>SUBSTRUCTURE
  1 ****  11 GROUP 4 **** **** 0

# MOE 2024.06 (io_trps.svl 2023.06)
