@<TRIPOS>MOLECULE
NONAME
35 37 1 0 0 
SMALL
USER_CHARGES


@<TRIPOS>ATOM
  1 O       -0.5010     0.2350    -0.5360 O.2   1 <1>  -0.5700 
  2 C       -1.5120     0.7980    -0.1610 C.2   1 <1>   0.7160 
  3 N       -2.6370     0.0410     0.0790 N.am  1 <1>  -0.6600 
  4 C       -1.5020     2.2340    -0.0010 C.2   1 <1>  -0.0860 
  5 C       -4.0260     0.5620     0.0380 C.3   1 <1>   0.1400 
  6 C       -2.6340    -1.4350    -0.0880 C.3   1 <1>   0.1400 
  7 C       -0.7650     3.1370    -0.7020 C.2   1 <1>  -0.0100 
  8 C       -2.2250     3.0280     0.9170 C.2   1 <1>  -0.1500 
  9 C       -4.8880    -0.6400    -0.3450 C.3   1 <1>   0.2000 
 10 C       -4.0920    -1.8670     0.0900 C.3   1 <1>  -0.0800 
 11 O       -0.9970     4.3640    -0.3020 O.3   1 <1>  -0.2800 
 12 C       -1.8740     4.3080     0.6760 C.2   1 <1>  -0.0100 
 13 O       -6.1150    -0.6170     0.2990 O.3   1 <1>  -0.6800 
 14 C       -4.4780    -3.1320    -0.6960 C.3   1 <1>  -0.0170 
 15 C       -3.7260    -4.3570    -0.2000 C.ar  1 <1>   0.1670 
 16 N       -2.4930    -4.5160    -0.6520 N.ar  1 <1>  -0.6200 
 17 C       -4.3410    -5.2400     0.6860 C.ar  1 <1>   0.1600 
 18 C       -1.9200    -5.6040    -0.1630 C.ar  1 <1>   0.1600 
 19 N       -3.7690    -6.3270     1.1780 N.ar  1 <1>  -0.6200 
 20 C       -2.5380    -6.4790     0.7220 C.ar  1 <1>   0.1600 
 21 H       -4.2970     0.9230     1.0140 H     1 <1>   0.0800 
 22 H       -4.1190     1.3480    -0.6920 H     1 <1>   0.0800 
 23 H       -2.2800    -1.6790    -1.0770 H     1 <1>   0.0800 
 24 H       -1.9910    -1.9030     0.6380 H     1 <1>   0.0800 
 25 H       -0.0590     2.9640    -1.4950 H     1 <1>   0.1500 
 26 H       -2.9050     2.6580     1.6620 H     1 <1>   0.1500 
 27 H       -5.0610    -0.6400    -1.4090 H     1 <1>   0.0800 
 28 H       -4.2450    -2.0380     1.1410 H     1 <1>   0.0800 
 29 H       -2.1860     5.2250     1.1460 H     1 <1>   0.1500 
 30 H       -5.9960    -0.6380     1.2680 H     1 <1>   0.4000 
 31 H       -4.2700    -2.9940    -1.7430 H     1 <1>   0.0800 
 32 H       -5.5360    -3.2990    -0.5980 H     1 <1>   0.0800 
 33 H       -5.3480    -5.0390     1.0040 H     1 <1>   0.1500 
 34 H       -0.9130    -5.8130    -0.4780 H     1 <1>   0.1500 
 35 H       -1.9890    -7.3390     1.0650 H     1 <1>   0.1500 
@<TRIPOS>BOND
  1   1   2  2   
  2   2   3  am  
  3   2   4  1   
  4   3   5  1   
  5   3   6  1   
  6   4   7  2   
  7   4   8  1   
  8   5   9  1   
  9   5  21  1   
 10   5  22  1   
 11   6  10  1   
 12   6  23  1   
 13   6  24  1   
 14   7  11  1   
 15   7  25  1   
 16   8  12  2   
 17   8  26  1   
 18   9  10  1   
 19   9  13  1   
 20   9  27  1   
 21  10  14  1   
 22  10  28  1   
 23  11  12  1   
 24  12  29  1   
 25  13  30  1   
 26  14  15  1   
 27  14  31  1   
 28  14  32  1   
 29  15  16  ar  
 30  15  17  ar  
 31  16  18  ar  
 32  17  19  ar  
 33  17  33  1   
 34  18  20  ar  
 35  18  34  1   
 36  19  20  ar  
 37  20  35  1   
@<TRIPOS>SUBSTRUCTURE
  1 ****   6 GROUP 4 **** **** 0

# MOE 2024.06 (io_trps.svl 2023.06)
