@<TRIPOS>MOLECULE
NONAME
64 68 1 0 0 
SMALL
USER_CHARGES


@<TRIPOS>ATOM
  1 O       -1.9270    -0.1600     2.0490 O.2   1 <1>  -0.5700 
  2 C       -1.9190     0.3510     0.9520 C.2   1 <1>   0.5690 
  3 N       -1.9220    -0.3990    -0.1880 N.am  1 <1>  -0.7300 
  4 C       -1.9530     1.9060     0.7760 C.3   1 <1>   0.3310 
  5 C       -1.9750    -1.8720    -0.4050 C.3   1 <1>   0.2200 
  6 N       -1.2210     2.2790    -0.5020 N.3   1 <1>  -0.8100 
  7 C       -1.3080     2.6310     1.9960 C.3   1 <1>  -0.1600 
  8 C       -3.4590     2.2860     0.6580 C.3   1 <1>  -0.1600 
  9 C       -3.3820    -2.4520    -0.4160 C.3   1 <1>  -0.0800 
 10 C       -1.2590    -2.7610     0.6130 C.3   1 <1>   0.1200 
 11 C        0.2370     1.9860    -0.4460 C.3   1 <1>   0.1100 
 12 C       -1.4120     3.6530    -1.0290 C.3   1 <1>   0.1100 
 13 C       -2.2880     2.8350     3.1640 C.3   1 <1>  -0.1600 
 14 C       -3.8230     3.6530     1.2660 C.3   1 <1>  -0.1600 
 15 C       -3.0670    -3.9360    -0.2150 C.3   1 <1>   0.1200 
 16 C       -4.3010    -1.9190     0.7080 C.3   1 <1>  -0.0170 
 17 O       -1.9010    -4.0030     0.5520 O.3   1 <1>  -0.5600 
 18 C        0.9070     2.2240    -1.8090 C.3   1 <1>   0.1200 
 19 C       -0.6750     3.8490    -2.3670 C.3   1 <1>   0.1200 
 20 C       -3.4910     3.7080     2.7660 C.3   1 <1>  -0.1600 
 21 C       -5.6960    -2.5320     0.6460 C.ar  1 <1>  -0.1430 
 22 O        0.6810     3.5330    -2.2390 O.3   1 <1>  -0.5600 
 23 C       -6.6600    -2.1290    -0.3080 C.ar  1 <1>   0.0000 
 24 C       -6.0550    -3.5020     1.5350 C.ar  1 <1>  -0.1500 
 25 C       -7.9180    -2.7810    -0.2860 C.ar  1 <1>   0.3100 
 26 C       -6.4540    -1.1190    -1.2770 C.ar  1 <1>  -0.1500 
 27 C       -7.3300    -4.0770     1.4760 C.ar  1 <1>   0.1600 
 28 N       -8.2360    -3.7490     0.6090 N.ar  1 <1>  -0.6200 
 29 C       -8.8900    -2.4120    -1.2290 C.ar  1 <1>  -0.1500 
 30 C       -7.4250    -0.7820    -2.1810 C.ar  1 <1>  -0.1500 
 31 C       -8.6580    -1.4370    -2.1610 C.ar  1 <1>  -0.1500 
 32 H       -1.8520     0.1690    -1.0400 H     1 <1>   0.3700 
 33 H       -1.5200    -2.0730    -1.3600 H     1 <1>   0.0800 
 34 H       -0.4670     2.0600     2.3470 H     1 <1>   0.0800 
 35 H       -0.9470     3.6000     1.7090 H     1 <1>   0.0800 
 36 H       -3.7790     2.2220    -0.3670 H     1 <1>   0.0800 
 37 H       -4.0380     1.5580     1.1990 H     1 <1>   0.0800 
 38 H       -3.8460    -2.3050    -1.3740 H     1 <1>   0.0800 
 39 H       -1.3660    -2.4050     1.6200 H     1 <1>   0.0800 
 40 H       -0.2200    -2.8930     0.3740 H     1 <1>   0.0800 
 41 H        0.7180     2.6200     0.2780 H     1 <1>   0.0800 
 42 H        0.4040     0.9640    -0.1540 H     1 <1>   0.0800 
 43 H       -2.4540     3.8410    -1.2080 H     1 <1>   0.0800 
 44 H       -1.0510     4.3820    -0.3260 H     1 <1>   0.0800 
 45 H       -2.6450     1.8740     3.4940 H     1 <1>   0.0800 
 46 H       -1.7760     3.2860     3.9960 H     1 <1>   0.0800 
 47 H       -3.2830     4.4360     0.7660 H     1 <1>   0.0800 
 48 H       -4.8720     3.8480     1.1260 H     1 <1>   0.0800 
 49 H       -2.8570    -4.4080    -1.1600 H     1 <1>   0.0800 
 50 H       -3.8490    -4.4780     0.2850 H     1 <1>   0.0800 
 51 H       -4.4000    -0.8520     0.6430 H     1 <1>   0.0800 
 52 H       -3.8550    -2.1280     1.6650 H     1 <1>   0.0800 
 53 H        0.5210     1.5440    -2.5480 H     1 <1>   0.0800 
 54 H        1.9710     2.0850    -1.7300 H     1 <1>   0.0800 
 55 H       -0.7430     4.8750    -2.6820 H     1 <1>   0.0800 
 56 H       -1.1040     3.2230    -3.1290 H     1 <1>   0.0800 
 57 H       -3.2970     4.7320     3.0370 H     1 <1>   0.0800 
 58 H       -4.3470     3.3840     3.3340 H     1 <1>   0.0800 
 59 H       -5.3750    -3.8490     2.2930 H     1 <1>   0.1500 
 60 H       -5.5150    -0.6000    -1.3050 H     1 <1>   0.1500 
 61 H       -7.5710    -4.8400     2.1960 H     1 <1>   0.1500 
 62 H       -9.8320    -2.9270    -1.1920 H     1 <1>   0.1500 
 63 H       -7.2540    -0.0130    -2.9140 H     1 <1>   0.1500 
 64 H       -9.4140    -1.1650    -2.8780 H     1 <1>   0.1500 
@<TRIPOS>BOND
  1   1   2  2   
  2   2   3  am  
  3   2   4  1   
  4   3   5  1   
  5   3  32  1   
  6   4   6  1   
  7   4   7  1   
  8   4   8  1   
  9   5   9  1   
 10   5  10  1   
 11   5  33  1   
 12   6  11  1   
 13   6  12  1   
 14   7  13  1   
 15   7  34  1   
 16   7  35  1   
 17   8  14  1   
 18   8  36  1   
 19   8  37  1   
 20   9  15  1   
 21   9  16  1   
 22   9  38  1   
 23  10  17  1   
 24  10  39  1   
 25  10  40  1   
 26  11  18  1   
 27  11  41  1   
 28  11  42  1   
 29  12  19  1   
 30  12  43  1   
 31  12  44  1   
 32  13  20  1   
 33  13  45  1   
 34  13  46  1   
 35  14  20  1   
 36  14  47  1   
 37  14  48  1   
 38  15  17  1   
 39  15  49  1   
 40  15  50  1   
 41  16  21  1   
 42  16  51  1   
 43  16  52  1   
 44  18  22  1   
 45  18  53  1   
 46  18  54  1   
 47  19  22  1   
 48  19  55  1   
 49  19  56  1   
 50  20  57  1   
 51  20  58  1   
 52  21  23  ar  
 53  21  24  ar  
 54  23  25  ar  
 55  23  26  ar  
 56  24  27  ar  
 57  24  59  1   
 58  25  28  ar  
 59  25  29  ar  
 60  26  30  ar  
 61  26  60  1   
 62  27  28  ar  
 63  27  61  1   
 64  29  31  ar  
 65  29  62  1   
 66  30  31  ar  
 67  30  63  1   
 68  31  64  1   
@<TRIPOS>SUBSTRUCTURE
  1 ****   3 GROUP 4 **** **** 0

# MOE 2024.06 (io_trps.svl 2023.06)
