@<TRIPOS>MOLECULE
NONAME
48 50 1 0 0 
SMALL
USER_CHARGES


@<TRIPOS>ATOM
  1 S       -0.7940    -1.2920     0.3360 S.3   1 <1>  -0.0800 
  2 C       -1.9990    -0.1150     0.8150 C.2   1 <1>   0.1980 
  3 C       -2.0130    -2.1220    -0.5830 C.2   1 <1>  -0.1100 
  4 N       -3.1590    -0.3310     0.3390 N.2   1 <1>  -0.5650 
  5 C       -1.5550     1.0200     1.7190 C.3   1 <1>   0.0200 
  6 C       -3.1810    -1.4700    -0.4550 C.2   1 <1>   0.0460 
  7 C       -1.2910     0.5410     3.1510 C.3   1 <1>  -0.2400 
  8 C       -4.5120    -1.8470    -1.0890 C.3   1 <1>   0.3210 
  9 N       -4.5480    -3.2900    -1.4340 N.am  1 <1>  -0.7300 
 10 C       -4.9090    -3.7820    -2.6410 C.2   1 <1>   0.5690 
 11 O       -5.2390    -3.0700    -3.5550 O.2   1 <1>  -0.5700 
 12 C       -4.9070    -5.2840    -2.8410 C.3   1 <1>  -0.0990 
 13 C       -6.1190    -5.9500    -2.1690 C.3   1 <1>  -0.1600 
 14 C       -6.1330    -7.4690    -2.3900 C.3   1 <1>   0.0200 
 15 C       -7.2890    -8.1170    -1.6530 C.2   1 <1>   0.2980 
 16 O       -8.5030    -7.9420    -2.1030 O.3   1 <1>  -0.0190 
 17 N       -7.1890    -8.8260    -0.6080 N.2   1 <1>  -0.5650 
 18 N       -9.2450    -8.5960    -1.2660 N.2   1 <1>  -0.4100 
 19 C       -8.4740    -9.1240    -0.3830 C.2   1 <1>   0.4620 
 20 C       -8.9220    -9.9190     0.7480 C.ar  1 <1>   0.0540 
 21 C       -8.3410   -11.1380     1.1290 C.ar  1 <1>  -0.1430 
 22 C       -9.9980    -9.4520     1.5050 C.ar  1 <1>  -0.1500 
 23 C       -8.8210   -11.8280     2.2310 C.ar  1 <1>  -0.1500 
 24 C       -7.1810   -11.7460     0.3500 C.3   1 <1>  -0.0970 
 25 C      -10.4760   -10.1460     2.6000 C.ar  1 <1>  -0.1500 
 26 C       -9.8840   -11.3380     2.9660 C.ar  1 <1>  -0.1500 
 27 H       -1.7260    -3.0050    -1.1230 H     1 <1>   0.1500 
 28 H       -2.3280     1.7680     1.7320 H     1 <1>   0.0800 
 29 H       -0.6660     1.4670     1.3110 H     1 <1>   0.0800 
 30 H       -2.1790     0.0890     3.5570 H     1 <1>   0.0800 
 31 H       -1.0100     1.3720     3.7740 H     1 <1>   0.0800 
 32 H       -0.4970    -0.1850     3.1650 H     1 <1>   0.0800 
 33 H       -4.6740    -1.2420    -1.9640 H     1 <1>   0.0800 
 34 H       -5.3030    -1.6410    -0.3890 H     1 <1>   0.0800 
 35 H       -4.3000    -3.9160    -0.6680 H     1 <1>   0.3700 
 36 H       -3.9930    -5.6840    -2.4440 H     1 <1>   0.0800 
 37 H       -4.9240    -5.4830    -3.8980 H     1 <1>   0.0800 
 38 H       -7.0240    -5.5220    -2.5680 H     1 <1>   0.0800 
 39 H       -6.0990    -5.7490    -1.1110 H     1 <1>   0.0800 
 40 H       -5.2150    -7.8970    -2.0290 H     1 <1>   0.0800 
 41 H       -6.2190    -7.6920    -3.4380 H     1 <1>   0.0800 
 42 H      -10.4670    -8.5240     1.2260 H     1 <1>   0.1500 
 43 H       -8.3710   -12.7600     2.5250 H     1 <1>   0.1500 
 44 H       -7.3870   -11.7230    -0.7050 H     1 <1>   0.0800 
 45 H       -7.0160   -12.7690     0.6350 H     1 <1>   0.0800 
 46 H       -6.2810   -11.1900     0.5410 H     1 <1>   0.0800 
 47 H      -11.3060    -9.7590     3.1650 H     1 <1>   0.1500 
 48 H      -10.2480   -11.8830     3.8190 H     1 <1>   0.1500 
@<TRIPOS>BOND
  1   1   2  1   
  2   1   3  1   
  3   2   4  2   
  4   2   5  1   
  5   3   6  2   
  6   3  27  1   
  7   4   6  1   
  8   5   7  1   
  9   5  28  1   
 10   5  29  1   
 11   6   8  1   
 12   7  30  1   
 13   7  31  1   
 14   7  32  1   
 15   8   9  1   
 16   8  33  1   
 17   8  34  1   
 18   9  10  am  
 19   9  35  1   
 20  10  11  2   
 21  10  12  1   
 22  12  13  1   
 23  12  36  1   
 24  12  37  1   
 25  13  14  1   
 26  13  38  1   
 27  13  39  1   
 28  14  15  1   
 29  14  40  1   
 30  14  41  1   
 31  15  16  1   
 32  15  17  2   
 33  16  18  1   
 34  17  19  1   
 35  18  19  2   
 36  19  20  1   
 37  20  21  ar  
 38  20  22  ar  
 39  21  23  ar  
 40  21  24  1   
 41  22  25  ar  
 42  22  42  1   
 43  23  26  ar  
 44  23  43  1   
 45  24  44  1   
 46  24  45  1   
 47  24  46  1   
 48  25  26  ar  
 49  25  47  1   
 50  26  48  1   
@<TRIPOS>SUBSTRUCTURE
  1 ****  13 GROUP 4 **** **** 0

# MOE 2024.06 (io_trps.svl 2023.06)
