@<TRIPOS>MOLECULE
NONAME
47 49 1 0 0 
SMALL
USER_CHARGES


@<TRIPOS>ATOM
  1 CL      -1.7710    -2.2840    -3.4600 Cl    1 <1>  -0.1770 
  2 C       -2.1920    -3.4590    -2.2420 C.ar  1 <1>   0.1770 
  3 C       -3.1780    -4.3900    -2.5030 C.ar  1 <1>  -0.1500 
  4 C       -1.5320    -3.4460    -1.0280 C.ar  1 <1>  -0.1500 
  5 C       -3.5050    -5.3210    -1.5340 C.ar  1 <1>  -0.1500 
  6 C       -1.8720    -4.3810    -0.0660 C.ar  1 <1>  -0.1500 
  7 C       -2.8660    -5.3370    -0.2920 C.ar  1 <1>   0.0530 
  8 C       -3.1840    -6.2960     0.7380 C.2   1 <1>   0.0870 
  9 O       -2.2040    -6.8260     1.4350 O.3   1 <1>  -0.0190 
 10 C       -4.3370    -6.8310     1.2200 C.2   1 <1>  -0.2330 
 11 N       -2.6210    -7.6600     2.3520 N.2   1 <1>  -0.4100 
 12 C       -3.9000    -7.6480     2.2590 C.2   1 <1>   0.3720 
 13 C       -5.7090    -6.7680     0.8250 C.2   1 <1>   1.0330 
 14 N       -4.7510    -8.3630     3.0880 N.pl3 1 <1>  -0.8520 
 15 O       -6.0260    -6.8190    -0.3750 O.co2 1 <1>  -0.9000 
 16 O       -6.6240    -6.9470     1.6510 O.co2 1 <1>  -0.9000 
 17 C       -4.6960    -9.8350     3.0430 C.3   1 <1>   0.2090 
 18 C       -5.8310   -10.3720     2.1610 C.3   1 <1>  -0.1600 
 19 C       -5.6430   -10.0010     0.6770 C.3   1 <1>   0.4230 
 20 N       -6.9110   -10.1180    -0.1180 N.4   1 <1>  -0.9590 
 21 C       -4.5530   -10.8840     0.0410 C.3   1 <1>  -0.1600 
 22 C       -6.6740    -9.6850    -1.5270 C.3   1 <1>   0.3430 
 23 C       -7.9980    -9.2140     0.3920 C.3   1 <1>   0.2630 
 24 C       -4.3130   -10.5390    -1.4320 C.3   1 <1>  -0.1600 
 25 C       -5.6360   -10.5800    -2.1990 C.3   1 <1>  -0.1600 
 26 H       -3.6820    -4.3850    -3.4530 H     1 <1>   0.1500 
 27 H       -0.7670    -2.7150    -0.8430 H     1 <1>   0.1500 
 28 H       -4.2670    -6.0470    -1.7470 H     1 <1>   0.1500 
 29 H       -1.3630    -4.3740     0.8820 H     1 <1>   0.1500 
 30 H       -5.7120    -7.9910     2.9340 H     1 <1>   0.4000 
 31 H       -4.8170   -10.2040     4.0480 H     1 <1>   0.0800 
 32 H       -3.7300   -10.1580     2.6940 H     1 <1>   0.0800 
 33 H       -6.7400    -9.9710     2.5630 H     1 <1>   0.0800 
 34 H       -5.8710   -11.4400     2.2640 H     1 <1>   0.0800 
 35 H       -5.3090    -8.9860     0.6170 H     1 <1>   0.0800 
 36 H       -7.2180   -11.0920    -0.1040 H     1 <1>   0.4500 
 37 H       -4.8260   -11.9210     0.1310 H     1 <1>   0.0800 
 38 H       -3.6260   -10.7450     0.5670 H     1 <1>   0.0800 
 39 H       -6.3230    -8.6650    -1.5370 H     1 <1>   0.0800 
 40 H       -7.5960    -9.7220    -2.0830 H     1 <1>   0.0800 
 41 H       -7.7370    -8.1830     0.2220 H     1 <1>   0.0800 
 42 H       -8.1700    -9.3490     1.4440 H     1 <1>   0.0800 
 43 H       -8.9190    -9.4090    -0.1310 H     1 <1>   0.0800 
 44 H       -3.6090   -11.2290    -1.8660 H     1 <1>   0.0800 
 45 H       -3.8920    -9.5480    -1.4990 H     1 <1>   0.0800 
 46 H       -5.4740   -10.2310    -3.2040 H     1 <1>   0.0800 
 47 H       -6.0070   -11.5880    -2.2570 H     1 <1>   0.0800 
@<TRIPOS>BOND
  1   1   2  1   
  2   2   3  ar  
  3   2   4  ar  
  4   3   5  ar  
  5   3  26  1   
  6   4   6  ar  
  7   4  27  1   
  8   5   7  ar  
  9   5  28  1   
 10   6   7  ar  
 11   6  29  1   
 12   7   8  1   
 13   8   9  1   
 14   8  10  2   
 15   9  11  1   
 16  10  12  1   
 17  10  13  1   
 18  11  12  2   
 19  12  14  1   
 20  13  15  ar  
 21  13  16  ar  
 22  14  17  1   
 23  14  30  1   
 24  17  18  1   
 25  17  31  1   
 26  17  32  1   
 27  18  19  1   
 28  18  33  1   
 29  18  34  1   
 30  19  20  1   
 31  19  21  1   
 32  19  35  1   
 33  20  22  1   
 34  20  23  1   
 35  20  36  1   
 36  21  24  1   
 37  21  37  1   
 38  21  38  1   
 39  22  25  1   
 40  22  39  1   
 41  22  40  1   
 42  23  41  1   
 43  23  42  1   
 44  23  43  1   
 45  24  25  1   
 46  24  44  1   
 47  24  45  1   
 48  25  46  1   
 49  25  47  1   
@<TRIPOS>SUBSTRUCTURE
  1 ****  10 GROUP 4 **** **** 0

# MOE 2024.06 (io_trps.svl 2023.06)
