@<TRIPOS>MOLECULE
NONAME
40 41 1 0 0 
SMALL
USER_CHARGES


@<TRIPOS>ATOM
  1 CL      -0.9930    -1.4800     0.5170 Cl    1 <1>  -0.1770 
  2 C       -1.8990    -0.0150     0.2040 C.ar  1 <1>   0.1770 
  3 C       -3.2130    -0.0350    -0.2560 C.ar  1 <1>   0.0860 
  4 C       -1.2440     1.1840     0.4270 C.ar  1 <1>   0.1600 
  5 C       -4.0080    -1.2210    -0.5190 C.2   1 <1>   0.5440 
  6 C       -3.7520     1.2310    -0.4660 C.ar  1 <1>  -0.1500 
  7 N       -1.7720     2.3810     0.2320 N.ar  1 <1>  -0.6200 
  8 O       -4.9540    -1.1600    -1.2800 O.2   1 <1>  -0.5700 
  9 N       -3.7690    -2.4160     0.0910 N.am  1 <1>  -0.7300 
 10 C       -3.0170     2.3750    -0.2150 C.ar  1 <1>   0.1600 
 11 C       -4.5110    -3.6700    -0.1740 C.3   1 <1>   0.2200 
 12 C       -5.7420    -3.7280     0.7340 C.3   1 <1>  -0.0800 
 13 C       -3.6910    -4.8780     0.2740 C.3   1 <1>   0.1200 
 14 C       -5.4570    -4.9120     1.6670 C.3   1 <1>   0.1200 
 15 C       -7.0780    -3.7520    -0.0430 C.3   1 <1>  -0.0550 
 16 O       -4.0840    -5.1130     1.5870 O.3   1 <1>  -0.5600 
 17 S       -7.4510    -5.2120    -1.0290 S.o2  1 <1>   1.3330 
 18 O       -6.2230    -5.7350    -1.5860 O.2   1 <1>  -0.6500 
 19 O       -8.5600    -4.9140    -1.9060 O.2   1 <1>  -0.6500 
 20 N       -8.0220    -6.3290     0.1190 N.am  1 <1>  -0.8490 
 21 C       -7.7660    -7.7160    -0.2810 C.3   1 <1>   0.1160 
 22 C       -9.4440    -6.1610     0.4410 C.3   1 <1>   0.1160 
 23 H       -0.2290     1.1510     0.7850 H     1 <1>   0.1500 
 24 H       -4.7610     1.3230    -0.8310 H     1 <1>   0.1500 
 25 H       -3.0240    -2.5040     0.7880 H     1 <1>   0.3700 
 26 H       -3.4750     3.3350    -0.3910 H     1 <1>   0.1500 
 27 H       -4.7460    -3.7350    -1.2230 H     1 <1>   0.0800 
 28 H       -5.7620    -2.8470     1.3510 H     1 <1>   0.0800 
 29 H       -2.6300    -4.7070     0.2340 H     1 <1>   0.0800 
 30 H       -3.9460    -5.7470    -0.3090 H     1 <1>   0.0800 
 31 H       -5.9270    -5.8230     1.3470 H     1 <1>   0.0800 
 32 H       -5.7220    -4.7050     2.6890 H     1 <1>   0.0800 
 33 H       -7.0710    -2.9030    -0.7020 H     1 <1>   0.0800 
 34 H       -7.8790    -3.5930     0.6510 H     1 <1>   0.0800 
 35 H       -8.1320    -8.3960     0.4700 H     1 <1>   0.0800 
 36 H       -6.7070    -7.8790    -0.3930 H     1 <1>   0.0800 
 37 H       -8.2500    -7.9300    -1.2200 H     1 <1>   0.0800 
 38 H       -9.7230    -6.8260     1.2400 H     1 <1>   0.0800 
 39 H      -10.0540    -6.3740    -0.4220 H     1 <1>   0.0800 
 40 H       -9.6380    -5.1510     0.7580 H     1 <1>   0.0800 
@<TRIPOS>BOND
  1   1   2  1   
  2   2   3  ar  
  3   2   4  ar  
  4   3   5  1   
  5   3   6  ar  
  6   4   7  ar  
  7   4  23  1   
  8   5   8  2   
  9   5   9  am  
 10   6  10  ar  
 11   6  24  1   
 12   7  10  ar  
 13   9  11  1   
 14   9  25  1   
 15  10  26  1   
 16  11  12  1   
 17  11  13  1   
 18  11  27  1   
 19  12  14  1   
 20  12  15  1   
 21  12  28  1   
 22  13  16  1   
 23  13  29  1   
 24  13  30  1   
 25  14  16  1   
 26  14  31  1   
 27  14  32  1   
 28  15  17  1   
 29  15  33  1   
 30  15  34  1   
 31  17  18  2   
 32  17  19  2   
 33  17  20  am  
 34  20  21  1   
 35  20  22  1   
 36  21  35  1   
 37  21  36  1   
 38  21  37  1   
 39  22  38  1   
 40  22  39  1   
 41  22  40  1   
@<TRIPOS>SUBSTRUCTURE
  1 ****  11 GROUP 4 **** **** 0

# MOE 2024.06 (io_trps.svl 2023.06)
