@<TRIPOS>MOLECULE
NONAME
59 62 1 0 0 
SMALL
USER_CHARGES


@<TRIPOS>ATOM
  1 O       -1.2410     0.3040     2.9100 O.2   1 <1>  -0.5700 
  2 C       -1.4470     1.0070     1.9470 C.2   1 <1>   0.5690 
  3 N       -2.0390     0.4850     0.8230 N.am  1 <1>  -0.6600 
  4 C       -1.0650     2.4960     2.0360 C.3   1 <1>   0.1710 
  5 C       -2.5810     1.2240    -0.3470 C.3   1 <1>   0.1400 
  6 C       -2.3730    -0.9570     0.7120 C.3   1 <1>   0.1400 
  7 N        0.3170     2.8470     1.6040 N.3   1 <1>  -0.8100 
  8 C       -3.6800     0.3100    -0.8860 C.3   1 <1>   0.2000 
  9 C       -3.1450    -1.0980    -0.6060 C.3   1 <1>  -0.0800 
 10 C        0.5800     4.2910     1.7960 C.3   1 <1>   0.1100 
 11 C        0.6040     2.4580     0.2050 C.3   1 <1>   0.1100 
 12 O       -4.8260     0.5290    -0.1360 O.3   1 <1>  -0.6800 
 13 C       -4.2010    -2.2180    -0.5910 C.3   1 <1>  -0.0170 
 14 C        2.0120     4.6860     1.3860 C.3   1 <1>   0.2090 
 15 C        2.0380     2.8270    -0.2200 C.3   1 <1>   0.2090 
 16 C       -3.5440    -3.5770    -0.3990 C.ar  1 <1>  -0.1440 
 17 N        2.2930     4.2830    -0.0220 N.pl3 1 <1>  -0.8380 
 18 C       -3.0290    -4.2900    -1.4620 C.ar  1 <1>  -0.1500 
 19 C       -3.4250    -4.1640     0.8450 C.ar  1 <1>  -0.1500 
 20 C        3.4730     4.7740    -0.5690 C.ar  1 <1>   0.1000 
 21 C       -2.4320    -5.5200    -1.2360 C.ar  1 <1>   0.1600 
 22 C       -2.8070    -5.3980     0.9620 C.ar  1 <1>   0.1600 
 23 C        4.7200     4.3630    -0.1090 C.ar  1 <1>  -0.1500 
 24 C        3.4140     5.7000    -1.6000 C.ar  1 <1>  -0.1500 
 25 N       -2.3060    -6.0900    -0.0490 N.ar  1 <1>  -0.6200 
 26 C        5.8860     4.8620    -0.6650 C.ar  1 <1>  -0.1440 
 27 C        4.5720     6.2040    -2.1620 C.ar  1 <1>  -0.1500 
 28 C        5.8070     5.7860    -1.6960 C.ar  1 <1>  -0.1500 
 29 C        7.2450     4.4100    -0.1620 C.3   1 <1>  -0.0970 
 30 H       -1.1720     2.7790     3.0680 H     1 <1>   0.0800 
 31 H       -1.7710     3.0780     1.4750 H     1 <1>   0.0800 
 32 H       -2.9720     2.1910    -0.0840 H     1 <1>   0.0800 
 33 H       -1.8060     1.3320    -1.0840 H     1 <1>   0.0800 
 34 H       -1.4770    -1.5560     0.7110 H     1 <1>   0.0800 
 35 H       -2.9840    -1.2400     1.5520 H     1 <1>   0.0800 
 36 H       -3.9100     0.4860    -1.9230 H     1 <1>   0.0800 
 37 H       -2.4250    -1.3290    -1.3720 H     1 <1>   0.0800 
 38 H       -0.1130     4.8700     1.2110 H     1 <1>   0.0800 
 39 H        0.4390     4.5430     2.8330 H     1 <1>   0.0800 
 40 H        0.4860     1.3940     0.0960 H     1 <1>   0.0800 
 41 H       -0.0850     2.9490    -0.4590 H     1 <1>   0.0800 
 42 H       -4.5950     0.4690     0.8130 H     1 <1>   0.4000 
 43 H       -4.7430    -2.2120    -1.5210 H     1 <1>   0.0800 
 44 H       -4.9160    -2.0530     0.1970 H     1 <1>   0.0800 
 45 H        2.7130     4.2080     2.0470 H     1 <1>   0.0800 
 46 H        2.1330     5.7510     1.4790 H     1 <1>   0.0800 
 47 H        2.1820     2.5810    -1.2580 H     1 <1>   0.0800 
 48 H        2.7370     2.2530     0.3620 H     1 <1>   0.0800 
 49 H       -3.0860    -3.9040    -2.4630 H     1 <1>   0.1500 
 50 H       -3.8040    -3.6770     1.7240 H     1 <1>   0.1500 
 51 H       -2.0360    -6.0630    -2.0770 H     1 <1>   0.1500 
 52 H       -2.7210    -5.8400     1.9400 H     1 <1>   0.1500 
 53 H        4.7640     3.6470     0.6890 H     1 <1>   0.1500 
 54 H        2.4510     6.0160    -1.9520 H     1 <1>   0.1500 
 55 H        4.5130     6.9220    -2.9610 H     1 <1>   0.1500 
 56 H        6.7040     6.1810    -2.1370 H     1 <1>   0.1500 
 57 H        7.7830     3.9230    -0.9540 H     1 <1>   0.0800 
 58 H        7.1420     3.7220     0.6570 H     1 <1>   0.0800 
 59 H        7.8110     5.2600     0.1740 H     1 <1>   0.0800 
@<TRIPOS>BOND
  1   1   2  2   
  2   2   3  am  
  3   2   4  1   
  4   3   5  1   
  5   3   6  1   
  6   4   7  1   
  7   4  30  1   
  8   4  31  1   
  9   5   8  1   
 10   5  32  1   
 11   5  33  1   
 12   6   9  1   
 13   6  34  1   
 14   6  35  1   
 15   7  10  1   
 16   7  11  1   
 17   8   9  1   
 18   8  12  1   
 19   8  36  1   
 20   9  13  1   
 21   9  37  1   
 22  10  14  1   
 23  10  38  1   
 24  10  39  1   
 25  11  15  1   
 26  11  40  1   
 27  11  41  1   
 28  12  42  1   
 29  13  16  1   
 30  13  43  1   
 31  13  44  1   
 32  14  17  1   
 33  14  45  1   
 34  14  46  1   
 35  15  17  1   
 36  15  47  1   
 37  15  48  1   
 38  16  18  ar  
 39  16  19  ar  
 40  17  20  1   
 41  18  21  ar  
 42  18  49  1   
 43  19  22  ar  
 44  19  50  1   
 45  20  23  ar  
 46  20  24  ar  
 47  21  25  ar  
 48  21  51  1   
 49  22  25  ar  
 50  22  52  1   
 51  23  26  ar  
 52  23  53  1   
 53  24  27  ar  
 54  24  54  1   
 55  26  28  ar  
 56  26  29  1   
 57  27  28  ar  
 58  27  55  1   
 59  28  56  1   
 60  29  57  1   
 61  29  58  1   
 62  29  59  1   
@<TRIPOS>SUBSTRUCTURE
  1 ****  11 GROUP 4 **** **** 0

# MOE 2024.06 (io_trps.svl 2023.06)
