@<TRIPOS>MOLECULE
NONAME
41 42 1 0 0 
SMALL
USER_CHARGES


@<TRIPOS>ATOM
  1 O       -0.0310     0.8680     1.3160 O.3   1 <1>  -0.3630 
  2 C       -1.2140     1.1630     0.7050 C.ar  1 <1>   0.3920 
  3 C        0.1990    -0.4180     1.8610 C.3   1 <1>   0.0400 
  4 N       -2.1240     0.2050     0.6070 N.ar  1 <1>  -0.6200 
  5 C       -1.3870     2.4840     0.2040 C.ar  1 <1>   0.4100 
  6 C       -3.2160     0.6250    -0.0150 C.ar  1 <1>   0.1600 
  7 N       -2.4870     2.8750    -0.4240 N.ar  1 <1>  -0.6200 
  8 N       -0.3940     3.4450     0.3520 N.pl3 1 <1>  -0.8690 
  9 C       -3.3880     1.9080    -0.5110 C.ar  1 <1>   0.1600 
 10 C       -0.2920     4.5990    -0.5580 C.3   1 <1>   0.2090 
 11 C        0.9740     5.3800    -0.2240 C.3   1 <1>  -0.1600 
 12 C        1.0860     6.6310    -1.1040 C.3   1 <1>   0.0960 
 13 N        2.3030     7.4020    -0.7650 N.pl3 1 <1>   0.0480 
 14 C        2.4380     8.6080    -0.1480 C.2   1 <1>   0.0060 
 15 C        3.5620     7.0100    -1.0340 C.2   1 <1>  -0.3020 
 16 N        3.6750     8.9750    -0.0150 N.2   1 <1>  -0.5650 
 17 C        1.2490     9.4440     0.3390 C.3   1 <1>   0.1000 
 18 C        4.3800     7.9760    -0.5700 C.2   1 <1>   0.0770 
 19 C        1.6040    10.9330     0.4660 C.3   1 <1>  -0.2400 
 20 C        0.7440     8.9190     1.6880 C.3   1 <1>  -0.2400 
 21 H        1.1810    -0.4310     2.2980 H     1 <1>   0.0800 
 22 H        0.1350    -1.1470     1.0720 H     1 <1>   0.0800 
 23 H       -0.5430    -0.6150     2.6140 H     1 <1>   0.0800 
 24 H       -4.0120    -0.0880    -0.1360 H     1 <1>   0.1500 
 25 H        0.4990     3.0550     0.6700 H     1 <1>   0.4000 
 26 H       -4.3140     2.1500    -1.0020 H     1 <1>   0.1500 
 27 H       -1.1620     5.2220    -0.4290 H     1 <1>   0.0800 
 28 H       -0.2660     4.2490    -1.5770 H     1 <1>   0.0800 
 29 H        1.8310     4.7500    -0.3860 H     1 <1>   0.0800 
 30 H        0.9420     5.6730     0.8110 H     1 <1>   0.0800 
 31 H        0.2190     7.2510    -0.9700 H     1 <1>   0.0800 
 32 H        1.1430     6.3500    -2.1400 H     1 <1>   0.0800 
 33 H        3.8060     6.0880    -1.5270 H     1 <1>   0.1500 
 34 H        0.4560     9.3710    -0.3830 H     1 <1>   0.0800 
 35 H        5.4560     8.0070    -0.6060 H     1 <1>   0.1500 
 36 H        2.3730    11.0710     1.2050 H     1 <1>   0.0800 
 37 H        0.7410    11.5070     0.7490 H     1 <1>   0.0800 
 38 H        1.9710    11.3010    -0.4750 H     1 <1>   0.0800 
 39 H        1.5340     8.9680     2.4160 H     1 <1>   0.0800 
 40 H        0.4250     7.8980     1.6000 H     1 <1>   0.0800 
 41 H       -0.0850     9.5080     2.0350 H     1 <1>   0.0800 
@<TRIPOS>BOND
  1   1   2  1   
  2   1   3  1   
  3   2   4  ar  
  4   2   5  ar  
  5   3  21  1   
  6   3  22  1   
  7   3  23  1   
  8   4   6  ar  
  9   5   7  ar  
 10   5   8  1   
 11   6   9  ar  
 12   6  24  1   
 13   7   9  ar  
 14   8  10  1   
 15   8  25  1   
 16   9  26  1   
 17  10  11  1   
 18  10  27  1   
 19  10  28  1   
 20  11  12  1   
 21  11  29  1   
 22  11  30  1   
 23  12  13  1   
 24  12  31  1   
 25  12  32  1   
 26  13  14  1   
 27  13  15  1   
 28  14  16  2   
 29  14  17  1   
 30  15  18  2   
 31  15  33  1   
 32  16  18  1   
 33  17  19  1   
 34  17  20  1   
 35  17  34  1   
 36  18  35  1   
 37  19  36  1   
 38  19  37  1   
 39  19  38  1   
 40  20  39  1   
 41  20  40  1   
 42  20  41  1   
@<TRIPOS>SUBSTRUCTURE
  1 ****  11 GROUP 4 **** **** 0

# MOE 2024.06 (io_trps.svl 2023.06)
