@<TRIPOS>MOLECULE
NONAME
55 58 1 0 0 
SMALL
USER_CHARGES


@<TRIPOS>ATOM
  1 O        2.4090    -0.2370     0.9370 O.3   1 <1>  -0.5600 
  2 C        2.9780    -1.1370     0.0080 C.3   1 <1>   0.4240 
  3 C        1.0140    -0.1340     0.9610 C.3   1 <1>   0.1200 
  4 C        2.1300    -2.4100    -0.1690 C.ar  1 <1>  -0.1440 
  5 C        4.3630    -1.4810     0.5840 C.3   1 <1>  -0.1600 
  6 C        3.1600    -0.3810    -1.3170 C.3   1 <1>  -0.1600 
  7 C        0.4250    -1.4680     1.4100 C.3   1 <1>  -0.0160 
  8 C        0.9270    -2.5730     0.5020 C.ar  1 <1>  -0.1440 
  9 C        2.5510    -3.4270    -1.0160 C.ar  1 <1>  -0.1500 
 10 C        5.4040    -0.3670     0.4170 C.3   1 <1>   0.3430 
 11 C        3.9820     0.9050    -1.1620 C.3   1 <1>   0.3430 
 12 C        0.1820    -3.7310     0.3410 C.ar  1 <1>  -0.1500 
 13 C        1.8200    -4.5890    -1.1970 C.ar  1 <1>   0.0830 
 14 N        4.7210     0.9230     0.1410 N.4   1 <1>  -0.9590 
 15 C        0.6110    -4.7550    -0.5000 C.ar  1 <1>   0.0830 
 16 O        2.3980    -5.4650    -2.0710 O.3   1 <1>  -0.3630 
 17 C        5.5870     2.1190     0.3340 C.3   1 <1>   0.4860 
 18 O       -0.1230    -5.8980    -0.6440 O.3   1 <1>  -0.3630 
 19 C        1.7750    -6.6510    -2.5100 C.3   1 <1>   0.0400 
 20 C        4.7510     3.3680     0.1820 C.ar  1 <1>  -0.1430 
 21 C       -1.2770    -6.1630     0.1240 C.3   1 <1>   0.0400 
 22 C        4.8860     4.1900    -0.9130 C.ar  1 <1>   0.1600 
 23 C        3.8130     3.7280     1.1220 C.ar  1 <1>   0.1600 
 24 N        4.1420     5.2570    -1.0750 N.ar  1 <1>  -0.6200 
 25 N        3.0590     4.7920     0.9790 N.ar  1 <1>  -0.6200 
 26 C        3.2680     5.5060    -0.1150 C.ar  1 <1>   0.4770 
 27 C        2.4090     6.7350    -0.2880 C.3   1 <1>  -0.0970 
 28 H        0.6600     0.1310    -0.0200 H     1 <1>   0.0800 
 29 H        0.7470     0.6440     1.6550 H     1 <1>   0.0800 
 30 H        4.7580    -2.3590     0.1060 H     1 <1>   0.0800 
 31 H        4.2540    -1.7300     1.6240 H     1 <1>   0.0800 
 32 H        2.2020    -0.1520    -1.7480 H     1 <1>   0.0800 
 33 H        3.6620    -1.0180    -2.0200 H     1 <1>   0.0800 
 34 H       -0.6480    -1.4120     1.3690 H     1 <1>   0.0800 
 35 H        0.7130    -1.6700     2.4260 H     1 <1>   0.0800 
 36 H        3.4690    -3.3420    -1.5650 H     1 <1>   0.1500 
 37 H        6.0620    -0.6080    -0.4020 H     1 <1>   0.0800 
 38 H        5.9940    -0.2980     1.3170 H     1 <1>   0.0800 
 39 H        3.3110     1.7490    -1.1970 H     1 <1>   0.0800 
 40 H        4.6710     0.9920    -1.9870 H     1 <1>   0.0800 
 41 H       -0.7390    -3.8150     0.8840 H     1 <1>   0.1500 
 42 H        3.9560     0.9570     0.8430 H     1 <1>   0.4500 
 43 H        6.3830     2.1190    -0.3930 H     1 <1>   0.0800 
 44 H        6.0260     2.1010     1.3190 H     1 <1>   0.0800 
 45 H        2.4070    -7.1080    -3.2490 H     1 <1>   0.0800 
 46 H        0.8220    -6.4050    -2.9430 H     1 <1>   0.0800 
 47 H        1.6570    -7.3130    -1.6700 H     1 <1>   0.0800 
 48 H       -1.6330    -7.1430    -0.1380 H     1 <1>   0.0800 
 49 H       -2.0280    -5.4300    -0.1080 H     1 <1>   0.0800 
 50 H       -1.0160    -6.1370     1.1670 H     1 <1>   0.0800 
 51 H        5.6110     3.9790    -1.6820 H     1 <1>   0.1500 
 52 H        3.6620     3.1390     2.0120 H     1 <1>   0.1500 
 53 H        2.9290     7.4720    -0.8710 H     1 <1>   0.0800 
 54 H        2.1710     7.1580     0.6710 H     1 <1>   0.0800 
 55 H        1.4990     6.4670    -0.7900 H     1 <1>   0.0800 
@<TRIPOS>BOND
  1   1   2  1   
  2   1   3  1   
  3   2   4  1   
  4   2   5  1   
  5   2   6  1   
  6   3   7  1   
  7   3  28  1   
  8   3  29  1   
  9   4   8  ar  
 10   4   9  ar  
 11   5  10  1   
 12   5  30  1   
 13   5  31  1   
 14   6  11  1   
 15   6  32  1   
 16   6  33  1   
 17   7   8  1   
 18   7  34  1   
 19   7  35  1   
 20   8  12  ar  
 21   9  13  ar  
 22   9  36  1   
 23  10  14  1   
 24  10  37  1   
 25  10  38  1   
 26  11  14  1   
 27  11  39  1   
 28  11  40  1   
 29  12  15  ar  
 30  12  41  1   
 31  13  15  ar  
 32  13  16  1   
 33  14  17  1   
 34  14  42  1   
 35  15  18  1   
 36  16  19  1   
 37  17  20  1   
 38  17  43  1   
 39  17  44  1   
 40  18  21  1   
 41  19  45  1   
 42  19  46  1   
 43  19  47  1   
 44  20  22  ar  
 45  20  23  ar  
 46  21  48  1   
 47  21  49  1   
 48  21  50  1   
 49  22  24  ar  
 50  22  51  1   
 51  23  25  ar  
 52  23  52  1   
 53  24  26  ar  
 54  25  26  ar  
 55  26  27  1   
 56  27  53  1   
 57  27  54  1   
 58  27  55  1   
@<TRIPOS>SUBSTRUCTURE
  1 ****   2 GROUP 4 **** **** 0

# MOE 2024.06 (io_trps.svl 2023.06)
