@<TRIPOS>MOLECULE
NONAME
48 50 1 0 0 
SMALL
USER_CHARGES


@<TRIPOS>ATOM
  1 O       -0.9380    -3.2780     1.4570 O.co2 1 <1>  -0.9000 
  2 C        0.0550    -4.0100     1.5420 C.2   1 <1>   1.0330 
  3 O       -0.1360    -5.1260     2.0700 O.co2 1 <1>  -0.9000 
  4 C        1.2320    -3.7690     0.7720 C.2   1 <1>  -0.2330 
  5 C        1.9070    -4.7980     0.1210 C.2   1 <1>   0.3720 
  6 C        1.9200    -2.6580     0.3960 C.2   1 <1>   0.0870 
  7 N        2.8510    -4.3570    -0.6230 N.2   1 <1>  -0.4100 
  8 N        1.5880    -6.1420     0.2510 N.pl3 1 <1>  -0.8520 
  9 O        2.8570    -3.0630    -0.4340 O.3   1 <1>  -0.0190 
 10 C        1.8320    -1.2520     0.7110 C.ar  1 <1>   0.0530 
 11 C        0.9360    -6.7660    -0.9300 C.3   1 <1>   0.2090 
 12 C        2.9960    -0.4990     0.8700 C.ar  1 <1>  -0.1500 
 13 C        0.6170    -0.5830     0.8610 C.ar  1 <1>  -0.1500 
 14 C       -0.4880    -6.2230    -1.2440 C.3   1 <1>   0.4230 
 15 C        2.9540     0.8510     1.1680 C.ar  1 <1>  -0.1500 
 16 C        0.5660     0.7660     1.1620 C.ar  1 <1>  -0.1500 
 17 N       -1.4020    -6.2760    -0.0500 N.4   1 <1>  -0.9590 
 18 C       -1.0510    -6.9860    -2.4650 C.3   1 <1>  -0.1600 
 19 C        1.7350     1.4880     1.3160 C.ar  1 <1>  -0.1500 
 20 C       -1.7980    -7.6190     0.4830 C.3   1 <1>   0.3430 
 21 C       -2.5230    -5.2780    -0.0640 C.3   1 <1>   0.3430 
 22 C       -2.3850    -6.4790    -3.0340 C.3   1 <1>  -0.2400 
 23 C       -3.3280    -7.8000     0.5870 C.3   1 <1>   0.1200 
 24 C       -3.4020    -5.4580     1.1850 C.3   1 <1>   0.1200 
 25 O       -3.9760    -6.7450     1.2540 O.3   1 <1>  -0.5600 
 26 H        1.0260    -6.2300     1.1210 H     1 <1>   0.4000 
 27 H        0.8910    -7.8290    -0.7730 H     1 <1>   0.0800 
 28 H        1.5670    -6.5980    -1.7860 H     1 <1>   0.0800 
 29 H        3.9500    -0.9840     0.7600 H     1 <1>   0.1500 
 30 H       -0.3040    -1.1200     0.7360 H     1 <1>   0.1500 
 31 H       -0.3670    -5.1900    -1.5260 H     1 <1>   0.0800 
 32 H        3.8680     1.4060     1.2860 H     1 <1>   0.1500 
 33 H       -0.3880     1.2510     1.2760 H     1 <1>   0.1500 
 34 H       -0.8340    -5.8850     0.7420 H     1 <1>   0.4500 
 35 H       -1.1320    -8.0350    -2.2450 H     1 <1>   0.0800 
 36 H       -0.3250    -6.8960    -3.2550 H     1 <1>   0.0800 
 37 H        1.6960     2.5370     1.5510 H     1 <1>   0.1500 
 38 H       -1.3830    -7.7330     1.4720 H     1 <1>   0.0800 
 39 H       -1.3880    -8.4000    -0.1320 H     1 <1>   0.0800 
 40 H       -3.1410    -5.4000    -0.9330 H     1 <1>   0.0800 
 41 H       -2.1270    -4.2770    -0.0790 H     1 <1>   0.0800 
 42 H       -3.2080    -6.7450    -2.3970 H     1 <1>   0.0800 
 43 H       -2.5630    -6.9310    -3.9950 H     1 <1>   0.0800 
 44 H       -2.3640    -5.4110    -3.1680 H     1 <1>   0.0800 
 45 H       -3.5570    -8.7060     1.1200 H     1 <1>   0.0800 
 46 H       -3.7550    -7.8750    -0.3970 H     1 <1>   0.0800 
 47 H       -4.2000    -4.7380     1.1860 H     1 <1>   0.0800 
 48 H       -2.8090    -5.3000     2.0710 H     1 <1>   0.0800 
@<TRIPOS>BOND
  1   1   2  ar  
  2   2   3  ar  
  3   2   4  1   
  4   4   5  1   
  5   4   6  2   
  6   5   7  2   
  7   5   8  1   
  8   6   9  1   
  9   6  10  1   
 10   7   9  1   
 11   8  11  1   
 12   8  26  1   
 13  10  12  ar  
 14  10  13  ar  
 15  11  14  1   
 16  11  27  1   
 17  11  28  1   
 18  12  15  ar  
 19  12  29  1   
 20  13  16  ar  
 21  13  30  1   
 22  14  17  1   
 23  14  18  1   
 24  14  31  1   
 25  15  19  ar  
 26  15  32  1   
 27  16  19  ar  
 28  16  33  1   
 29  17  20  1   
 30  17  21  1   
 31  17  34  1   
 32  18  22  1   
 33  18  35  1   
 34  18  36  1   
 35  19  37  1   
 36  20  23  1   
 37  20  38  1   
 38  20  39  1   
 39  21  24  1   
 40  21  40  1   
 41  21  41  1   
 42  22  42  1   
 43  22  43  1   
 44  22  44  1   
 45  23  25  1   
 46  23  45  1   
 47  23  46  1   
 48  24  25  1   
 49  24  47  1   
 50  24  48  1   
@<TRIPOS>SUBSTRUCTURE
  1 ****   2 GROUP 4 **** **** 0

# MOE 2024.06 (io_trps.svl 2023.06)
