@<TRIPOS>MOLECULE
NONAME
49 51 1 0 0 
SMALL
USER_CHARGES


@<TRIPOS>ATOM
  1 S        0.6420     0.3970     0.4550 S.o2  1 <1>   1.3330 
  2 O       -0.4720    -0.1430     1.2000 O.2   1 <1>  -0.6500 
  3 O        1.8690     0.7350     1.1430 O.2   1 <1>  -0.6500 
  4 N        1.0310    -0.6950    -0.7860 N.am  1 <1>  -0.8490 
  5 C        0.0570     1.8250    -0.4590 C.3   1 <1>  -0.0550 
  6 C        0.8390    -2.0910    -0.3820 C.3   1 <1>   0.1160 
  7 C        2.3840    -0.5130    -1.3240 C.3   1 <1>   0.1160 
  8 C       -0.5250     2.9430     0.4280 C.3   1 <1>  -0.0800 
  9 C       -1.1080     4.0610    -0.4340 C.3   1 <1>   0.2000 
 10 C        0.5550     3.6390     1.2810 C.3   1 <1>   0.1100 
 11 O       -2.1320     4.6520     0.2780 O.3   1 <1>  -0.6800 
 12 C        0.0320     5.0670    -0.5110 C.3   1 <1>   0.1100 
 13 N        0.6100     5.0400     0.8390 N.3   1 <1>  -0.8100 
 14 C        1.9740     5.6030     0.8980 C.3   1 <1>   0.2900 
 15 C        1.9890     7.1020     0.6410 C.2   1 <1>  -0.0400 
 16 O        3.1370     7.6760     0.3450 O.3   1 <1>  -0.2800 
 17 C        1.0050     8.0260     0.6620 C.2   1 <1>  -0.1500 
 18 C        2.9420     8.9770     0.1580 C.2   1 <1>   0.0870 
 19 C        1.6200     9.2390     0.3490 C.2   1 <1>  -0.1500 
 20 C        4.0660     9.8260    -0.1800 C.ar  1 <1>   0.0530 
 21 C        3.9380    11.0960    -0.7500 C.ar  1 <1>   0.1900 
 22 C        5.3740     9.3970     0.0570 C.ar  1 <1>  -0.1500 
 23 F        2.7520    11.5730    -1.0190 F     1 <1>  -0.1900 
 24 C        5.0170    11.9010    -1.0640 C.ar  1 <1>  -0.1500 
 25 C        6.4700    10.1870    -0.2500 C.ar  1 <1>  -0.1500 
 26 C        6.2970    11.4410    -0.8110 C.ar  1 <1>  -0.1500 
 27 H        0.8570     2.2190    -1.0550 H     1 <1>   0.0800 
 28 H       -0.7140     1.4930    -1.1280 H     1 <1>   0.0800 
 29 H        1.0800    -2.7530    -1.1960 H     1 <1>   0.0800 
 30 H       -0.1900    -2.2580    -0.1090 H     1 <1>   0.0800 
 31 H        1.4630    -2.3260     0.4650 H     1 <1>   0.0800 
 32 H        2.5380    -1.1670    -2.1650 H     1 <1>   0.0800 
 33 H        3.1220    -0.7340    -0.5690 H     1 <1>   0.0800 
 34 H        2.5200     0.5020    -1.6530 H     1 <1>   0.0800 
 35 H       -1.2870     2.5140     1.0570 H     1 <1>   0.0800 
 36 H       -1.4870     3.7470    -1.3920 H     1 <1>   0.0800 
 37 H        1.5160     3.1710     1.1490 H     1 <1>   0.0800 
 38 H        0.2970     3.6020     2.3260 H     1 <1>   0.0800 
 39 H       -1.7120     5.0950     1.0480 H     1 <1>   0.4000 
 40 H       -0.3190     6.0480    -0.7800 H     1 <1>   0.0800 
 41 H        0.7590     4.7380    -1.2340 H     1 <1>   0.0800 
 42 H        2.3920     5.4250     1.8730 H     1 <1>   0.0800 
 43 H        2.6000     5.1140     0.1710 H     1 <1>   0.0800 
 44 H       -0.0380     7.8800     0.8770 H     1 <1>   0.1500 
 45 H        1.1120    10.1840     0.2850 H     1 <1>   0.1500 
 46 H        5.5350     8.4270     0.4940 H     1 <1>   0.1500 
 47 H        4.8560    12.8710    -1.5010 H     1 <1>   0.1500 
 48 H        7.4640     9.8230    -0.0520 H     1 <1>   0.1500 
 49 H        7.1510    12.0530    -1.0480 H     1 <1>   0.1500 
@<TRIPOS>BOND
  1   1   2  2   
  2   1   3  2   
  3   1   4  am  
  4   1   5  1   
  5   4   6  1   
  6   4   7  1   
  7   5   8  1   
  8   5  27  1   
  9   5  28  1   
 10   6  29  1   
 11   6  30  1   
 12   6  31  1   
 13   7  32  1   
 14   7  33  1   
 15   7  34  1   
 16   8   9  1   
 17   8  10  1   
 18   8  35  1   
 19   9  11  1   
 20   9  12  1   
 21   9  36  1   
 22  10  13  1   
 23  10  37  1   
 24  10  38  1   
 25  11  39  1   
 26  12  13  1   
 27  12  40  1   
 28  12  41  1   
 29  13  14  1   
 30  14  15  1   
 31  14  42  1   
 32  14  43  1   
 33  15  16  1   
 34  15  17  2   
 35  16  18  1   
 36  17  19  1   
 37  17  44  1   
 38  18  19  2   
 39  18  20  1   
 40  19  45  1   
 41  20  21  ar  
 42  20  22  ar  
 43  21  23  1   
 44  21  24  ar  
 45  22  25  ar  
 46  22  46  1   
 47  24  26  ar  
 48  24  47  1   
 49  25  26  ar  
 50  25  48  1   
 51  26  49  1   
@<TRIPOS>SUBSTRUCTURE
  1 ****  14 GROUP 4 **** **** 0

# MOE 2024.06 (io_trps.svl 2023.06)
