@<TRIPOS>MOLECULE
NONAME
47 49 1 0 0 
SMALL
USER_CHARGES


@<TRIPOS>ATOM
  1 O       -0.5340     0.1170    -0.1320 O.3   1 <1>  -0.5600 
  2 C       -0.3570     1.4790    -0.3830 C.3   1 <1>   0.2640 
  3 C       -1.6610    -0.4460    -0.7100 C.3   1 <1>   0.1200 
  4 C        0.9540     1.9170     0.2460 C.ar  1 <1>  -0.1440 
  5 C       -1.6950    -1.9170    -0.2800 C.3   1 <1>   0.3430 
  6 C        2.0130     2.3360    -0.5460 C.ar  1 <1>  -0.1500 
  7 C        1.1020     1.9070     1.6250 C.ar  1 <1>  -0.1500 
  8 N       -2.6640    -2.7460    -1.0770 N.4   1 <1>  -0.9590 
  9 C        3.2030     2.7440     0.0330 C.ar  1 <1>  -0.1500 
 10 C        2.2910     2.3140     2.2060 C.ar  1 <1>  -0.1500 
 11 C       -4.0860    -2.3380    -0.8650 C.3   1 <1>   0.3430 
 12 C       -2.6150    -4.1590    -0.6060 C.3   1 <1>   0.3430 
 13 C        3.3420     2.7340     1.4100 C.ar  1 <1>  -0.1500 
 14 C       -4.5350    -3.0400     0.4210 C.3   1 <1>   0.2000 
 15 C       -3.6840    -4.3150     0.4920 C.3   1 <1>  -0.0800 
 16 O       -4.2090    -2.2280     1.4990 O.3   1 <1>  -0.6800 
 17 C       -4.5300    -5.5910     0.3020 C.3   1 <1>  -0.0170 
 18 C       -3.6840    -6.8550     0.3720 C.ar  1 <1>   0.1670 
 19 N       -2.8900    -7.0840    -0.6630 N.ar  1 <1>  -0.6200 
 20 C       -3.7690    -7.6980     1.4790 C.ar  1 <1>   0.1600 
 21 C       -2.2040    -8.2100    -0.5230 C.ar  1 <1>   0.1600 
 22 N       -3.0740    -8.8120     1.6240 N.ar  1 <1>  -0.6200 
 23 C       -2.2930    -9.0450     0.5850 C.ar  1 <1>   0.1600 
 24 H       -0.3380     1.6390    -1.4480 H     1 <1>   0.0800 
 25 H       -1.1760     2.0240     0.0520 H     1 <1>   0.0800 
 26 H       -2.5300     0.0790    -0.3530 H     1 <1>   0.0800 
 27 H       -1.5680    -0.3600    -1.7790 H     1 <1>   0.0800 
 28 H       -1.9460    -1.9620     0.7670 H     1 <1>   0.0800 
 29 H       -0.7030    -2.3190    -0.4040 H     1 <1>   0.0800 
 30 H        1.9210     2.3480    -1.6180 H     1 <1>   0.1500 
 31 H        0.2910     1.5770     2.2500 H     1 <1>   0.1500 
 32 H       -2.4050    -2.7020    -2.0720 H     1 <1>   0.4500 
 33 H        4.0200     3.0680    -0.5860 H     1 <1>   0.1500 
 34 H        2.3980     2.3020     3.2760 H     1 <1>   0.1500 
 35 H       -4.2020    -1.2700    -0.7860 H     1 <1>   0.0800 
 36 H       -4.6840    -2.6990    -1.6860 H     1 <1>   0.0800 
 37 H       -2.8550    -4.8130    -1.4280 H     1 <1>   0.0800 
 38 H       -1.6360    -4.4240    -0.2370 H     1 <1>   0.0800 
 39 H        4.2660     3.0500     1.8610 H     1 <1>   0.1500 
 40 H       -5.5990    -3.2130     0.4330 H     1 <1>   0.0800 
 41 H       -3.1860    -4.3830     1.4440 H     1 <1>   0.0800 
 42 H       -4.6010    -2.5610     2.3340 H     1 <1>   0.4000 
 43 H       -5.0310    -5.5700    -0.6500 H     1 <1>   0.0800 
 44 H       -5.2900    -5.6310     1.0630 H     1 <1>   0.0800 
 45 H       -4.4390    -7.4460     2.2820 H     1 <1>   0.1500 
 46 H       -1.5390    -8.4890    -1.3210 H     1 <1>   0.1500 
 47 H       -1.6950    -9.9390     0.6100 H     1 <1>   0.1500 
@<TRIPOS>BOND
  1   1   2  1   
  2   1   3  1   
  3   2   4  1   
  4   2  24  1   
  5   2  25  1   
  6   3   5  1   
  7   3  26  1   
  8   3  27  1   
  9   4   6  ar  
 10   4   7  ar  
 11   5   8  1   
 12   5  28  1   
 13   5  29  1   
 14   6   9  ar  
 15   6  30  1   
 16   7  10  ar  
 17   7  31  1   
 18   8  11  1   
 19   8  12  1   
 20   8  32  1   
 21   9  13  ar  
 22   9  33  1   
 23  10  13  ar  
 24  10  34  1   
 25  11  14  1   
 26  11  35  1   
 27  11  36  1   
 28  12  15  1   
 29  12  37  1   
 30  12  38  1   
 31  13  39  1   
 32  14  15  1   
 33  14  16  1   
 34  14  40  1   
 35  15  17  1   
 36  15  41  1   
 37  16  42  1   
 38  17  18  1   
 39  17  43  1   
 40  17  44  1   
 41  18  19  ar  
 42  18  20  ar  
 43  19  21  ar  
 44  20  22  ar  
 45  20  45  1   
 46  21  23  ar  
 47  21  46  1   
 48  22  23  ar  
 49  23  47  1   
@<TRIPOS>SUBSTRUCTURE
  1 ****   5 GROUP 4 **** **** 0

# MOE 2024.06 (io_trps.svl 2023.06)
