@<TRIPOS>MOLECULE
NONAME
29 29 1 0 0 
SMALL
USER_CHARGES


@<TRIPOS>ATOM
  1 O        3.9660    -2.3130     0.1680 O.2   1 <1>  -0.5700 
  2 C        4.8740    -1.6890    -0.2840 C.2   1 <1>   0.4480 
  3 C        4.8770    -0.1640    -0.3040 C.3   1 <1>   0.4040 
  4 C        6.1290    -2.3440    -0.8200 C.3   1 <1>  -0.0990 
  5 N        6.1380     0.4340     0.2980 N.4   1 <1>  -0.9590 
  6 C        7.3780    -1.6750    -0.2180 C.3   1 <1>  -0.1600 
  7 C        6.1250     1.9230     0.3700 C.3   1 <1>   0.5030 
  8 C        7.3600    -0.1470    -0.3560 C.3   1 <1>   0.3430 
  9 C        6.1010     2.5420    -1.0310 C.3   1 <1>  -0.2400 
 10 C        4.8930     2.3750     1.1600 C.3   1 <1>  -0.2400 
 11 C        7.3710     2.3970     1.1250 C.3   1 <1>  -0.2400 
 12 H        4.0100     0.1660     0.2420 H     1 <1>   0.0800 
 13 H        4.7720     0.1590    -1.3250 H     1 <1>   0.0800 
 14 H        6.1390    -2.2530    -1.8920 H     1 <1>   0.0800 
 15 H        6.1180    -3.3930    -0.5760 H     1 <1>   0.0800 
 16 H        6.1570     0.1260     1.2790 H     1 <1>   0.4500 
 17 H        8.2540    -2.0610    -0.7110 H     1 <1>   0.0800 
 18 H        7.4610    -1.9360     0.8240 H     1 <1>   0.0800 
 19 H        8.2520     0.2470     0.1030 H     1 <1>   0.0800 
 20 H        7.3770     0.1190    -1.4010 H     1 <1>   0.0800 
 21 H        5.2170     2.2630    -1.5750 H     1 <1>   0.0800 
 22 H        6.9710     2.2730    -1.6000 H     1 <1>   0.0800 
 23 H        6.0960     3.6150    -0.9470 H     1 <1>   0.0800 
 24 H        3.9800     2.1950     0.6240 H     1 <1>   0.0800 
 25 H        4.9410     3.4360     1.3330 H     1 <1>   0.0800 
 26 H        4.8480     1.8910     2.1190 H     1 <1>   0.0800 
 27 H        8.2710     2.2310     0.5630 H     1 <1>   0.0800 
 28 H        7.4500     1.9140     2.0830 H     1 <1>   0.0800 
 29 H        7.3100     3.4570     1.2990 H     1 <1>   0.0800 
@<TRIPOS>BOND
  1   1   2  2   
  2   2   3  1   
  3   2   4  1   
  4   3   5  1   
  5   3  12  1   
  6   3  13  1   
  7   4   6  1   
  8   4  14  1   
  9   4  15  1   
 10   5   7  1   
 11   5   8  1   
 12   5  16  1   
 13   6   8  1   
 14   6  17  1   
 15   6  18  1   
 16   7   9  1   
 17   7  10  1   
 18   7  11  1   
 19   8  19  1   
 20   8  20  1   
 21   9  21  1   
 22   9  22  1   
 23   9  23  1   
 24  10  24  1   
 25  10  25  1   
 26  10  26  1   
 27  11  27  1   
 28  11  28  1   
 29  11  29  1   
@<TRIPOS>SUBSTRUCTURE
  1 ****   5 GROUP 4 **** **** 0

# MOE 2024.06 (io_trps.svl 2023.06)
