@<TRIPOS>MOLECULE
NONAME
36 38 1 0 0 
SMALL
USER_CHARGES


@<TRIPOS>ATOM
  1 F       -0.3870     1.5300     0.7890 F     1 <1>  -0.1900 
  2 C        0.9040     1.7460     0.7940 C.ar  1 <1>   0.1900 
  3 C        1.4290     2.7650    -0.0400 C.ar  1 <1>   0.3100 
  4 C        1.6670     0.9620     1.6140 C.ar  1 <1>  -0.1500 
  5 N        0.6070     3.4910    -0.8480 N.ar  1 <1>  -0.6200 
  6 C        2.8300     2.9780     0.0060 C.ar  1 <1>   0.0000 
  7 C        3.0390     1.1910     1.6150 C.ar  1 <1>   0.1900 
  8 C        1.1550     4.4040    -1.5930 C.ar  1 <1>   0.1600 
  9 C        3.3810     4.0010    -0.8040 C.ar  1 <1>   0.1000 
 10 C        3.6200     2.1580     0.8420 C.ar  1 <1>  -0.1500 
 11 F        3.7840     0.4470     2.3870 F     1 <1>  -0.1900 
 12 C        2.5150     4.6940    -1.6070 C.ar  1 <1>  -0.1500 
 13 N        4.7330     4.3070    -0.7770 N.pl3 1 <1>  -0.8380 
 14 C        5.2570     5.1450     0.3490 C.3   1 <1>   0.2090 
 15 C        5.4890     4.4170    -2.0550 C.3   1 <1>   0.1290 
 16 C        4.9230     6.6460     0.2120 C.3   1 <1>   0.2000 
 17 O        5.6500     7.2490    -0.8140 O.3   1 <1>  -0.5600 
 18 C        5.2840     7.4650     1.4430 C.3   1 <1>  -0.1600 
 19 C        5.7070     8.6260    -0.6200 C.3   1 <1>   0.1200 
 20 C        5.4930     8.8590     0.8740 C.3   1 <1>  -0.1600 
 21 H        1.2390     0.1970     2.2350 H     1 <1>   0.1500 
 22 H        0.5100     4.9760    -2.2390 H     1 <1>   0.1500 
 23 H        4.6860     2.2960     0.8610 H     1 <1>   0.1500 
 24 H        2.8790     5.4750    -2.2460 H     1 <1>   0.1500 
 25 H        6.3220     5.0210     0.4300 H     1 <1>   0.0800 
 26 H        4.8180     4.7880     1.2640 H     1 <1>   0.0800 
 27 H        5.1150     3.6980    -2.7630 H     1 <1>   0.0800 
 28 H        6.5330     4.2210    -1.8810 H     1 <1>   0.0800 
 29 H        5.3810     5.4040    -2.4700 H     1 <1>   0.0800 
 30 H        3.8770     6.7680    -0.0110 H     1 <1>   0.0800 
 31 H        6.2030     7.0990     1.8680 H     1 <1>   0.0800 
 32 H        4.5090     7.4330     2.1870 H     1 <1>   0.0800 
 33 H        4.9260     9.0810    -1.2040 H     1 <1>   0.0800 
 34 H        6.6690     8.9760    -0.9520 H     1 <1>   0.0800 
 35 H        6.3430     9.3480     1.3180 H     1 <1>   0.0800 
 36 H        4.6210     9.4720     1.0210 H     1 <1>   0.0800 
@<TRIPOS>BOND
  1   1   2  1   
  2   2   3  ar  
  3   2   4  ar  
  4   3   5  ar  
  5   3   6  ar  
  6   4   7  ar  
  7   4  21  1   
  8   5   8  ar  
  9   6   9  ar  
 10   6  10  ar  
 11   7  10  ar  
 12   7  11  1   
 13   8  12  ar  
 14   8  22  1   
 15   9  12  ar  
 16   9  13  1   
 17  10  23  1   
 18  12  24  1   
 19  13  14  1   
 20  13  15  1   
 21  14  16  1   
 22  14  25  1   
 23  14  26  1   
 24  15  27  1   
 25  15  28  1   
 26  15  29  1   
 27  16  17  1   
 28  16  18  1   
 29  16  30  1   
 30  17  19  1   
 31  18  20  1   
 32  18  31  1   
 33  18  32  1   
 34  19  20  1   
 35  19  33  1   
 36  19  34  1   
 37  20  35  1   
 38  20  36  1   
@<TRIPOS>SUBSTRUCTURE
  1 ****   9 GROUP 4 **** **** 0

# MOE 2024.06 (io_trps.svl 2023.06)
