@<TRIPOS>MOLECULE
NONAME
55 57 1 0 0 
SMALL
USER_CHARGES


@<TRIPOS>ATOM
  1 O        0.4680    -0.7450    -2.1910 O.2   1 <1>  -0.5700 
  2 C        1.4130    -1.3620    -1.7320 C.2   1 <1>   0.5440 
  3 N        2.5770    -0.6670    -1.4750 N.am  1 <1>  -0.6600 
  4 C        1.2980    -2.7730    -1.4490 C.ar  1 <1>   0.0860 
  5 C        2.6760     0.7720    -1.8330 C.3   1 <1>   0.1400 
  6 C        3.5010    -1.0660    -0.3780 C.3   1 <1>   0.1400 
  7 C        0.6710    -3.2290    -0.2860 C.ar  1 <1>   0.0820 
  8 C        1.8170    -3.7200    -2.3300 C.ar  1 <1>  -0.1500 
  9 C        2.2010     1.5910    -0.6200 C.3   1 <1>   0.4230 
 10 C        3.1660    -0.2340     0.8710 C.3   1 <1>  -0.1600 
 11 O        0.1630    -2.3210     0.5790 O.3   1 <1>  -0.3630 
 12 C        0.5860    -4.5900    -0.0150 C.ar  1 <1>  -0.1500 
 13 C        1.7240    -5.0740    -2.0650 C.ar  1 <1>  -0.1500 
 14 N        2.1080     3.0610    -0.9280 N.4   1 <1>  -0.9590 
 15 C        3.1110     1.2840     0.5890 C.3   1 <1>  -0.1600 
 16 C       -1.1850    -2.4340     0.9990 C.3   1 <1>   0.1200 
 17 C        1.1080    -5.5100    -0.9040 C.ar  1 <1>  -0.1500 
 18 C        3.4220     3.7190    -1.2190 C.3   1 <1>   0.2630 
 19 C        1.3700     3.7940     0.1480 C.3   1 <1>   0.2630 
 20 C       -2.1270    -2.1250    -0.1680 C.3   1 <1>  -0.0170 
 21 C       -3.5710    -2.2430     0.2930 C.ar  1 <1>  -0.1430 
 22 C       -4.2330    -3.4580     0.2040 C.ar  1 <1>  -0.1500 
 23 C       -4.2350    -1.1430     0.8120 C.ar  1 <1>  -0.1500 
 24 C       -5.5450    -3.5720     0.6310 C.ar  1 <1>  -0.1500 
 25 C       -5.5470    -1.2560     1.2400 C.ar  1 <1>  -0.1500 
 26 C       -6.2020    -2.4710     1.1500 C.ar  1 <1>  -0.1500 
 27 H        2.0600     0.9780    -2.6910 H     1 <1>   0.0800 
 28 H        3.6970     1.0010    -2.0780 H     1 <1>   0.0800 
 29 H        4.5170    -0.8860    -0.6860 H     1 <1>   0.0800 
 30 H        3.4050    -2.1160    -0.1550 H     1 <1>   0.0800 
 31 H        2.2960    -3.3840    -3.2330 H     1 <1>   0.1500 
 32 H        1.2090     1.2350    -0.3880 H     1 <1>   0.0800 
 33 H        3.8970    -0.4370     1.6340 H     1 <1>   0.0800 
 34 H        2.2130    -0.5640     1.2500 H     1 <1>   0.0800 
 35 H        0.1230    -4.9360     0.8900 H     1 <1>   0.1500 
 36 H        2.1300    -5.7900    -2.7590 H     1 <1>   0.1500 
 37 H        1.5280     3.1230    -1.7800 H     1 <1>   0.4500 
 38 H        2.7460     1.7780     1.4710 H     1 <1>   0.0800 
 39 H        4.1130     1.6210     0.3950 H     1 <1>   0.0800 
 40 H       -1.3370    -1.7230     1.7910 H     1 <1>   0.0800 
 41 H       -1.3610    -3.4210     1.3860 H     1 <1>   0.0800 
 42 H        1.0390    -6.5640    -0.6960 H     1 <1>   0.1500 
 43 H        4.0550     3.6970    -0.3470 H     1 <1>   0.0800 
 44 H        3.2690     4.7470    -1.5040 H     1 <1>   0.0800 
 45 H        3.9270     3.2140    -2.0260 H     1 <1>   0.0800 
 46 H        1.9340     3.7830     1.0660 H     1 <1>   0.0800 
 47 H        0.4120     3.3320     0.3260 H     1 <1>   0.0800 
 48 H        1.2070     4.8190    -0.1420 H     1 <1>   0.0800 
 49 H       -1.9550    -2.8140    -0.9760 H     1 <1>   0.0800 
 50 H       -1.9390    -1.1300    -0.5320 H     1 <1>   0.0800 
 51 H       -3.7320    -4.3200    -0.2000 H     1 <1>   0.1500 
 52 H       -3.7360    -0.1930     0.8850 H     1 <1>   0.1500 
 53 H       -6.0540    -4.5170     0.5590 H     1 <1>   0.1500 
 54 H       -6.0590    -0.3990     1.6420 H     1 <1>   0.1500 
 55 H       -7.2220    -2.5590     1.4820 H     1 <1>   0.1500 
@<TRIPOS>BOND
  1   1   2  2   
  2   2   3  am  
  3   2   4  1   
  4   3   5  1   
  5   3   6  1   
  6   4   7  ar  
  7   4   8  ar  
  8   5   9  1   
  9   5  27  1   
 10   5  28  1   
 11   6  10  1   
 12   6  29  1   
 13   6  30  1   
 14   7  11  1   
 15   7  12  ar  
 16   8  13  ar  
 17   8  31  1   
 18   9  14  1   
 19   9  15  1   
 20   9  32  1   
 21  10  15  1   
 22  10  33  1   
 23  10  34  1   
 24  11  16  1   
 25  12  17  ar  
 26  12  35  1   
 27  13  17  ar  
 28  13  36  1   
 29  14  18  1   
 30  14  19  1   
 31  14  37  1   
 32  15  38  1   
 33  15  39  1   
 34  16  20  1   
 35  16  40  1   
 36  16  41  1   
 37  17  42  1   
 38  18  43  1   
 39  18  44  1   
 40  18  45  1   
 41  19  46  1   
 42  19  47  1   
 43  19  48  1   
 44  20  21  1   
 45  20  49  1   
 46  20  50  1   
 47  21  22  ar  
 48  21  23  ar  
 49  22  24  ar  
 50  22  51  1   
 51  23  25  ar  
 52  23  52  1   
 53  24  26  ar  
 54  24  53  1   
 55  25  26  ar  
 56  25  54  1   
 57  26  55  1   
@<TRIPOS>SUBSTRUCTURE
  1 ****  11 GROUP 4 **** **** 0

# MOE 2024.06 (io_trps.svl 2023.06)
