@<TRIPOS>MOLECULE
NONAME
44 46 1 0 0 
SMALL
USER_CHARGES


@<TRIPOS>ATOM
  1 S       -4.4560    -1.9930    -1.3590 S.3   1 <1>  -0.0800 
  2 C       -3.2350    -2.4080    -0.1830 C.2   1 <1>   0.1240 
  3 C       -3.9760    -0.2960    -1.2960 C.2   1 <1>  -0.1400 
  4 N       -3.0030    -3.6550     0.2930 N.pl3 1 <1>  -0.5340 
  5 C       -2.5220    -1.3330     0.2240 C.2   1 <1>  -0.0860 
  6 C       -2.9570    -0.1170    -0.4270 C.2   1 <1>  -0.1810 
  7 C       -4.7630     0.6350    -2.1980 C.3   1 <1>  -0.0600 
  8 C       -2.0170    -3.8330     1.2150 C.2   1 <1>   0.4390 
  9 C       -1.5030    -1.5980     1.1970 C.2   1 <1>   0.8670 
 10 C       -2.2790     1.2070    -0.1080 C.3   1 <1>  -0.0590 
 11 N       -1.2890    -2.8760     1.6670 N.2   1 <1>  -0.6610 
 12 C       -1.7920    -5.2450     1.7130 C.3   1 <1>  -0.0990 
 13 O       -0.7930    -0.7100     1.6480 O.2   1 <1>  -0.5700 
 14 C       -2.9670    -5.7220     2.5730 C.3   1 <1>   0.2090 
 15 N       -3.4720    -7.0220     2.0710 N.pl3 1 <1>  -0.8690 
 16 C       -4.4250    -7.1350     1.1160 C.ar  1 <1>   0.7200 
 17 N       -5.1560    -8.2250     1.2090 N.ar  1 <1>  -0.6200 
 18 N       -4.5130    -6.1650     0.2230 N.ar  1 <1>  -0.6200 
 19 C       -6.0830    -8.3590     0.2910 C.ar  1 <1>   0.3930 
 20 C       -5.4440    -6.3220    -0.6820 C.ar  1 <1>   0.3930 
 21 O       -6.8230    -9.4800     0.3950 O.3   1 <1>  -0.3630 
 22 C       -6.2760    -7.4200    -0.7000 C.ar  1 <1>  -0.1500 
 23 O       -5.5130    -5.3200    -1.5780 O.3   1 <1>  -0.3620 
 24 C       -7.8450    -9.8190    -0.5160 C.3   1 <1>   0.0400 
 25 C       -6.4960    -5.2540    -2.5860 C.3   1 <1>   0.0400 
 26 H       -3.5810    -4.4600    -0.0060 H     1 <1>   0.4000 
 27 H       -4.6540     0.3260    -3.2220 H     1 <1>   0.0800 
 28 H       -4.4190     1.6470    -2.1060 H     1 <1>   0.0800 
 29 H       -5.8050     0.6010    -1.9340 H     1 <1>   0.0800 
 30 H       -2.7080     2.0150    -0.6690 H     1 <1>   0.0800 
 31 H       -1.2320     1.1470    -0.3450 H     1 <1>   0.0800 
 32 H       -2.3820     1.4280     0.9390 H     1 <1>   0.0800 
 33 H       -0.8930    -5.2730     2.3010 H     1 <1>   0.0800 
 34 H       -1.6500    -5.8900     0.8650 H     1 <1>   0.0800 
 35 H       -3.7690    -5.0000     2.5590 H     1 <1>   0.0800 
 36 H       -2.6460    -5.8330     3.5940 H     1 <1>   0.0800 
 37 H       -3.5690    -7.7610     2.7680 H     1 <1>   0.4000 
 38 H       -7.0320    -7.5370    -1.4440 H     1 <1>   0.1500 
 39 H       -8.2630   -10.7620    -0.2100 H     1 <1>   0.0800 
 40 H       -7.4220    -9.9120    -1.5010 H     1 <1>   0.0800 
 41 H       -8.6060    -9.0600    -0.4890 H     1 <1>   0.0800 
 42 H       -6.3430    -4.3440    -3.1390 H     1 <1>   0.0800 
 43 H       -7.4690    -5.2410    -2.1280 H     1 <1>   0.0800 
 44 H       -6.3850    -6.1000    -3.2410 H     1 <1>   0.0800 
@<TRIPOS>BOND
  1   1   2  1   
  2   1   3  1   
  3   2   4  1   
  4   2   5  2   
  5   3   6  2   
  6   3   7  1   
  7   4   8  1   
  8   4  26  1   
  9   5   6  1   
 10   5   9  1   
 11   6  10  1   
 12   7  27  1   
 13   7  28  1   
 14   7  29  1   
 15   8  11  2   
 16   8  12  1   
 17   9  11  1   
 18   9  13  2   
 19  10  30  1   
 20  10  31  1   
 21  10  32  1   
 22  12  14  1   
 23  12  33  1   
 24  12  34  1   
 25  14  15  1   
 26  14  35  1   
 27  14  36  1   
 28  15  16  1   
 29  15  37  1   
 30  16  17  ar  
 31  16  18  ar  
 32  17  19  ar  
 33  18  20  ar  
 34  19  21  1   
 35  19  22  ar  
 36  20  22  ar  
 37  20  23  1   
 38  21  24  1   
 39  22  38  1   
 40  23  25  1   
 41  24  39  1   
 42  24  40  1   
 43  24  41  1   
 44  25  42  1   
 45  25  43  1   
 46  25  44  1   
@<TRIPOS>SUBSTRUCTURE
  1 ****   4 GROUP 4 **** **** 0

# MOE 2024.06 (io_trps.svl 2023.06)
