@<TRIPOS>MOLECULE
NONAME
19 19 1 0 0 
SMALL
USER_CHARGES


@<TRIPOS>ATOM
  1 O        0.1600     0.5300    -0.8920 O.2   1 <1>  -0.5700 
  2 C        0.0270     1.6510    -0.4770 C.2   1 <1>   0.4950 
  3 C        1.1190     2.5220    -0.1590 C.2   1 <1>  -0.1360 
  4 C       -1.3660     2.2230    -0.2110 C.3   1 <1>   0.1810 
  5 C        0.9150     3.7630     0.3160 C.2   1 <1>  -0.2880 
  6 O       -1.3910     3.6320    -0.3010 O.3   1 <1>  -0.5600 
  7 C       -0.4870     4.3160     0.5190 C.3   1 <1>   0.6180 
  8 O       -0.5100     5.6370     0.0730 O.3   1 <1>  -0.4300 
  9 C       -1.2540     6.5320     0.6910 C.2   1 <1>   0.6590 
 10 O       -1.8550     6.2950     1.7050 O.2   1 <1>  -0.5700 
 11 C       -1.3040     7.8930     0.0460 C.3   1 <1>  -0.1790 
 12 H        2.0980     2.1090    -0.3230 H     1 <1>   0.1500 
 13 H       -1.7000     1.9360     0.7700 H     1 <1>   0.0800 
 14 H       -2.0550     1.8380    -0.9410 H     1 <1>   0.0800 
 15 H        1.6970     4.4490     0.5870 H     1 <1>   0.1500 
 16 H       -0.7980     4.2500     1.5490 H     1 <1>   0.0800 
 17 H       -1.6980     7.8020    -0.9480 H     1 <1>   0.0800 
 18 H       -0.3150     8.3070     0.0010 H     1 <1>   0.0800 
 19 H       -1.9360     8.5450     0.6190 H     1 <1>   0.0800 
@<TRIPOS>BOND
  1   1   2  2   
  2   2   3  1   
  3   2   4  1   
  4   3   5  2   
  5   3  12  1   
  6   4   6  1   
  7   4  13  1   
  8   4  14  1   
  9   5   7  1   
 10   5  15  1   
 11   6   7  1   
 12   7   8  1   
 13   7  16  1   
 14   8   9  1   
 15   9  10  2   
 16   9  11  1   
 17  11  17  1   
 18  11  18  1   
 19  11  19  1   
@<TRIPOS>SUBSTRUCTURE
  1 ****   7 GROUP 4 **** **** 0

# MOE 2024.06 (io_trps.svl 2023.06)
