@<TRIPOS>MOLECULE
NONAME
37 38 1 0 0 
SMALL
USER_CHARGES


@<TRIPOS>ATOM
  1 S        0.3190    -0.1090     0.0830 S.3   1 <1>  -0.4600 
  2 C       -1.1990    -0.8620    -0.5680 C.3   1 <1>   0.2140 
  3 C        0.2280     1.5960    -0.5260 C.3   1 <1>   0.0700 
  4 C       -1.2640    -2.3040    -0.0940 C.ar  1 <1>  -0.1430 
  5 C        1.5030     2.3200    -0.0890 C.3   1 <1>  -0.0990 
  6 C       -0.4820    -3.2740    -0.7030 C.ar  1 <1>  -0.1500 
  7 C       -2.1070    -2.6650     0.9460 C.ar  1 <1>  -0.1500 
  8 C        1.4990     3.7740    -0.5100 C.2   1 <1>   0.5690 
  9 C       -0.5470    -4.5910    -0.2820 C.ar  1 <1>  -0.1500 
 10 C       -2.1730    -3.9820     1.3680 C.ar  1 <1>  -0.1500 
 11 O        0.8420     4.1260    -1.4600 O.2   1 <1>  -0.5700 
 12 N        2.2520     4.6490     0.1940 N.am  1 <1>  -0.7300 
 13 C       -1.3940    -4.9460     0.7530 C.ar  1 <1>  -0.1500 
 14 C        2.4580     6.0740    -0.1880 C.3   1 <1>   0.2810 
 15 C        3.5030     6.7890     0.6610 C.2   1 <1>   0.5690 
 16 C        1.1870     6.9070     0.0680 C.3   1 <1>  -0.1600 
 17 O        4.5940     6.3470     0.9300 O.2   1 <1>  -0.5700 
 18 N        3.0320     7.9670     1.1000 N.am  1 <1>  -0.7300 
 19 C        1.6440     8.2320     0.7030 C.3   1 <1>   0.1400 
 20 H       -1.1540    -0.8040    -1.6410 H     1 <1>   0.0800 
 21 H       -2.0280    -0.2850    -0.2010 H     1 <1>   0.0800 
 22 H       -0.6500     2.0490    -0.1010 H     1 <1>   0.0800 
 23 H        0.1450     1.5580    -1.5990 H     1 <1>   0.0800 
 24 H        2.3550     1.8380    -0.5300 H     1 <1>   0.0800 
 25 H        1.5900     2.2630     0.9810 H     1 <1>   0.0800 
 26 H        0.1840    -3.0030    -1.5030 H     1 <1>   0.1500 
 27 H       -2.7140    -1.9220     1.4340 H     1 <1>   0.1500 
 28 H        0.0630    -5.3380    -0.7580 H     1 <1>   0.1500 
 29 H       -2.8290    -4.2550     2.1750 H     1 <1>   0.1500 
 30 H        2.8970     4.3210     0.9180 H     1 <1>   0.3700 
 31 H       -1.4450    -5.9690     1.0810 H     1 <1>   0.1500 
 32 H        2.7500     6.1380    -1.2210 H     1 <1>   0.0800 
 33 H        0.5390     6.3970     0.7580 H     1 <1>   0.0800 
 34 H        0.6490     7.0800    -0.8460 H     1 <1>   0.0800 
 35 H        3.5790     8.5900     1.7000 H     1 <1>   0.3700 
 36 H        1.0420     8.4840     1.5610 H     1 <1>   0.0800 
 37 H        1.6190     9.0350    -0.0140 H     1 <1>   0.0800 
@<TRIPOS>BOND
  1   1   2  1   
  2   1   3  1   
  3   2   4  1   
  4   2  20  1   
  5   2  21  1   
  6   3   5  1   
  7   3  22  1   
  8   3  23  1   
  9   4   6  ar  
 10   4   7  ar  
 11   5   8  1   
 12   5  24  1   
 13   5  25  1   
 14   6   9  ar  
 15   6  26  1   
 16   7  10  ar  
 17   7  27  1   
 18   8  11  2   
 19   8  12  am  
 20   9  13  ar  
 21   9  28  1   
 22  10  13  ar  
 23  10  29  1   
 24  12  14  1   
 25  12  30  1   
 26  13  31  1   
 27  14  15  1   
 28  14  16  1   
 29  14  32  1   
 30  15  17  2   
 31  15  18  am  
 32  16  19  1   
 33  16  33  1   
 34  16  34  1   
 35  18  19  1   
 36  18  35  1   
 37  19  36  1   
 38  19  37  1   
@<TRIPOS>SUBSTRUCTURE
  1 ****   3 GROUP 4 **** **** 0

# MOE 2024.06 (io_trps.svl 2023.06)
