@<TRIPOS>MOLECULE
NONAME
39 41 1 0 0 
SMALL
USER_CHARGES


@<TRIPOS>ATOM
  1 CL      -0.4760    -1.5740    -1.1930 Cl    1 <1>  -0.1770 
  2 C       -2.0470    -1.8840    -0.5050 C.ar  1 <1>   0.1770 
  3 C       -3.1840    -1.7750    -1.2850 C.ar  1 <1>   0.1600 
  4 C       -2.1570    -2.2400     0.8190 C.ar  1 <1>  -0.1500 
  5 N       -4.4140    -1.9890    -0.8450 N.ar  1 <1>  -0.6200 
  6 C       -3.4350    -2.4680     1.2850 C.ar  1 <1>  -0.1500 
  7 C       -4.5520    -2.3390     0.4510 C.ar  1 <1>   0.3960 
  8 C       -5.8770    -2.6130     1.0180 C.2   1 <1>   0.5440 
  9 O       -5.9980    -3.5560     1.7850 O.2   1 <1>  -0.5700 
 10 N       -7.0050    -1.8510     0.7540 N.am  1 <1>  -0.6600 
 11 C       -8.3820    -2.3630     1.0270 C.3   1 <1>   0.1400 
 12 C       -6.9970    -0.5180     0.0950 C.3   1 <1>   0.1400 
 13 C       -9.1840    -2.5030    -0.2930 C.3   1 <1>   0.0000 
 14 C       -7.7580    -0.6000    -1.2330 C.3   1 <1>  -0.1600 
 15 C      -10.6190    -3.0140    -0.0500 C.3   1 <1>   0.2000 
 16 C       -9.1830    -1.1490    -1.0380 C.3   1 <1>  -0.1600 
 17 C       -8.5990    -3.6350    -1.1570 C.3   1 <1>  -0.1600 
 18 O      -11.1880    -2.5100     1.1080 O.3   1 <1>  -0.6800 
 19 C      -10.5410    -4.5400     0.0240 C.3   1 <1>  -0.1600 
 20 C       -9.1870    -4.9270    -0.5860 C.3   1 <1>  -0.1600 
 21 H       -3.0660    -1.4980    -2.3190 H     1 <1>   0.1500 
 22 H       -1.2880    -2.3340     1.4460 H     1 <1>   0.1500 
 23 H       -3.5870    -2.7570     2.3100 H     1 <1>   0.1500 
 24 H       -8.3410    -3.3100     1.5340 H     1 <1>   0.0800 
 25 H       -8.8720    -1.6630     1.6800 H     1 <1>   0.0800 
 26 H       -7.4830     0.1900     0.7440 H     1 <1>   0.0800 
 27 H       -5.9940    -0.1710    -0.0720 H     1 <1>   0.0800 
 28 H       -7.8070     0.3800    -1.6720 H     1 <1>   0.0800 
 29 H       -7.2070    -1.2310    -1.9080 H     1 <1>   0.0800 
 30 H      -11.2490    -2.7280    -0.8760 H     1 <1>   0.0800 
 31 H       -9.6630    -1.2490    -1.9950 H     1 <1>   0.0800 
 32 H       -9.7530    -0.4390    -0.4630 H     1 <1>   0.0800 
 33 H       -8.9340    -3.5240    -2.1740 H     1 <1>   0.0800 
 34 H       -7.5230    -3.6540    -1.1560 H     1 <1>   0.0800 
 35 H      -10.7520    -2.9010     1.8870 H     1 <1>   0.4000 
 36 H      -10.5970    -4.8960     1.0380 H     1 <1>   0.0800 
 37 H      -11.3440    -4.9700    -0.5470 H     1 <1>   0.0800 
 38 H       -8.5360    -5.3040     0.1860 H     1 <1>   0.0800 
 39 H       -9.2900    -5.6810    -1.3480 H     1 <1>   0.0800 
@<TRIPOS>BOND
  1   1   2  1   
  2   2   3  ar  
  3   2   4  ar  
  4   3   5  ar  
  5   3  21  1   
  6   4   6  ar  
  7   4  22  1   
  8   5   7  ar  
  9   6   7  ar  
 10   6  23  1   
 11   7   8  1   
 12   8   9  2   
 13   8  10  am  
 14  10  11  1   
 15  10  12  1   
 16  11  13  1   
 17  11  24  1   
 18  11  25  1   
 19  12  14  1   
 20  12  26  1   
 21  12  27  1   
 22  13  15  1   
 23  13  16  1   
 24  13  17  1   
 25  14  16  1   
 26  14  28  1   
 27  14  29  1   
 28  15  18  1   
 29  15  19  1   
 30  15  30  1   
 31  16  31  1   
 32  16  32  1   
 33  17  20  1   
 34  17  33  1   
 35  17  34  1   
 36  18  35  1   
 37  19  20  1   
 38  19  36  1   
 39  19  37  1   
 40  20  38  1   
 41  20  39  1   
@<TRIPOS>SUBSTRUCTURE
  1 ****  10 GROUP 4 **** **** 0

# MOE 2024.06 (io_trps.svl 2023.06)
