@<TRIPOS>MOLECULE
NONAME
37 39 1 0 0 
SMALL
USER_CHARGES


@<TRIPOS>ATOM
  1 CL       0.1820     0.0930    -0.0390 Cl    1 <1>  -0.1770 
  2 C        1.6590     1.0240     0.0760 C.ar  1 <1>   0.1770 
  3 C        2.6080     0.9520    -0.9290 C.ar  1 <1>   0.1600 
  4 C        1.8710     1.8300     1.1730 C.ar  1 <1>  -0.1500 
  5 N        3.7520     1.6210    -0.9270 N.ar  1 <1>  -0.6200 
  6 C        3.0570     2.5280     1.1850 C.ar  1 <1>  -0.1500 
  7 C        3.9620     2.4000     0.1320 C.ar  1 <1>   0.4100 
  8 N        5.1360     3.1210     0.1650 N.pl3 1 <1>  -0.8380 
  9 C        5.0440     4.5370    -0.2610 C.3   1 <1>   0.2090 
 10 C        6.3700     2.4430    -0.3080 C.3   1 <1>   0.2090 
 11 C        6.2390     5.3110     0.3000 C.3   1 <1>  -0.1600 
 12 C        7.5950     3.1790     0.2400 C.3   1 <1>  -0.1600 
 13 C        7.5790     4.6750    -0.1370 C.3   1 <1>  -0.0800 
 14 C        8.8220     5.4250     0.3990 C.3   1 <1>   0.3800 
 15 O        8.8490     5.3350     1.7790 O.3   1 <1>  -0.6800 
 16 C        8.8350     6.9010     0.0220 C.2   1 <1>  -0.1400 
 17 S        8.8960     7.2890    -1.6940 S.3   1 <1>  -0.0800 
 18 C        8.8170     8.0350     0.7510 C.2   1 <1>  -0.1500 
 19 C        8.8850     9.0110    -1.3580 C.2   1 <1>  -0.1100 
 20 C        8.8420     9.2330    -0.0320 C.2   1 <1>  -0.1500 
 21 H        2.4110     0.3130    -1.7710 H     1 <1>   0.1500 
 22 H        1.1480     1.8990     1.9660 H     1 <1>   0.1500 
 23 H        3.3120     3.1770     2.0020 H     1 <1>   0.1500 
 24 H        4.1250     4.9680     0.1000 H     1 <1>   0.0800 
 25 H        5.0410     4.5840    -1.3370 H     1 <1>   0.0800 
 26 H        6.3850     2.4410    -1.3850 H     1 <1>   0.0800 
 27 H        6.3720     1.4210     0.0320 H     1 <1>   0.0800 
 28 H        6.1590     5.3200     1.3720 H     1 <1>   0.0800 
 29 H        6.1800     6.3270    -0.0470 H     1 <1>   0.0800 
 30 H        8.4840     2.7140    -0.1460 H     1 <1>   0.0800 
 31 H        7.6040     3.0630     1.3100 H     1 <1>   0.0800 
 32 H        7.6220     4.7280    -1.2110 H     1 <1>   0.0800 
 33 H        9.7190     4.9570     0.0310 H     1 <1>   0.0800 
 34 H        8.0340     5.7370     2.1260 H     1 <1>   0.4000 
 35 H        8.7920     8.0860     1.8260 H     1 <1>   0.1500 
 36 H        8.9140     9.6810    -2.1980 H     1 <1>   0.1500 
 37 H        8.8290    10.2010     0.4390 H     1 <1>   0.1500 
@<TRIPOS>BOND
  1   1   2  1   
  2   2   3  ar  
  3   2   4  ar  
  4   3   5  ar  
  5   3  21  1   
  6   4   6  ar  
  7   4  22  1   
  8   5   7  ar  
  9   6   7  ar  
 10   6  23  1   
 11   7   8  1   
 12   8   9  1   
 13   8  10  1   
 14   9  11  1   
 15   9  24  1   
 16   9  25  1   
 17  10  12  1   
 18  10  26  1   
 19  10  27  1   
 20  11  13  1   
 21  11  28  1   
 22  11  29  1   
 23  12  13  1   
 24  12  30  1   
 25  12  31  1   
 26  13  14  1   
 27  13  32  1   
 28  14  15  1   
 29  14  16  1   
 30  14  33  1   
 31  15  34  1   
 32  16  17  1   
 33  16  18  2   
 34  17  19  1   
 35  18  20  1   
 36  18  35  1   
 37  19  20  2   
 38  19  36  1   
 39  20  37  1   
@<TRIPOS>SUBSTRUCTURE
  1 ****   9 GROUP 4 **** **** 0

# MOE 2024.06 (io_trps.svl 2023.06)
