@<TRIPOS>MOLECULE
NONAME
50 52 1 0 0 
SMALL
USER_CHARGES


@<TRIPOS>ATOM
  1 F        2.2110    -1.8490     0.5750 F     1 <1>  -0.1900 
  2 C        1.5790    -2.8810     0.0820 C.ar  1 <1>   0.1900 
  3 C        1.1800    -3.9060     0.9270 C.ar  1 <1>  -0.1440 
  4 C        1.3320    -2.9030    -1.2770 C.ar  1 <1>  -0.1500 
  5 C        0.5140    -4.9850     0.3680 C.ar  1 <1>  -0.1500 
  6 C        1.4540    -3.8600     2.4230 C.3   1 <1>  -0.0960 
  7 C        0.6610    -3.9870    -1.8170 C.ar  1 <1>  -0.1500 
  8 C        0.2490    -5.0310    -0.9970 C.ar  1 <1>  -0.1440 
  9 C       -0.4950    -6.2160    -1.5920 C.3   1 <1>   0.4870 
 10 N       -1.7940    -6.3830    -0.9140 N.4   1 <1>  -0.9590 
 11 C       -2.5410    -7.6320    -1.3150 C.3   1 <1>   0.3430 
 12 C       -2.6660    -5.1790    -0.8780 C.3   1 <1>   0.3430 
 13 C       -4.0090    -7.6360    -0.8130 C.3   1 <1>   0.2000 
 14 C       -3.7520    -5.3500     0.2040 C.3   1 <1>  -0.1600 
 15 O       -4.8020    -7.0420    -1.7960 O.3   1 <1>  -0.6800 
 16 C       -4.1160    -6.8430     0.5120 C.3   1 <1>  -0.1060 
 17 C       -3.0670    -7.5030     1.4200 C.2   1 <1>   0.9060 
 18 C       -5.4910    -6.9780     1.2240 C.3   1 <1>  -0.0170 
 19 O       -2.0440    -6.8750     1.7260 O.co2 1 <1>  -0.9000 
 20 O       -3.1550    -8.7130     1.6230 O.co2 1 <1>  -0.9000 
 21 C       -6.7110    -6.6300     0.3760 C.ar  1 <1>  -0.1430 
 22 C       -7.1960    -5.3330     0.3230 C.ar  1 <1>  -0.1500 
 23 C       -7.3570    -7.6240    -0.3450 C.ar  1 <1>  -0.1500 
 24 C       -8.2940    -5.0260    -0.4630 C.ar  1 <1>  -0.1500 
 25 C       -8.4540    -7.3190    -1.1310 C.ar  1 <1>  -0.1500 
 26 C       -8.9210    -6.0190    -1.1940 C.ar  1 <1>  -0.1500 
 27 H        1.6620    -2.0860    -1.8930 H     1 <1>   0.1500 
 28 H        0.1970    -5.7930     1.0120 H     1 <1>   0.1500 
 29 H        0.9750    -4.6800     2.9280 H     1 <1>   0.0800 
 30 H        1.0790    -2.9410     2.8380 H     1 <1>   0.0800 
 31 H        2.5120    -3.9150     2.6030 H     1 <1>   0.0800 
 32 H        0.4670    -4.0070    -2.8760 H     1 <1>   0.1500 
 33 H        0.0980    -7.1060    -1.4600 H     1 <1>   0.0800 
 34 H       -0.6520    -6.0590    -2.6450 H     1 <1>   0.0800 
 35 H       -1.5750    -6.5270     0.1060 H     1 <1>   0.4500 
 36 H       -2.5450    -7.7490    -2.3850 H     1 <1>   0.0800 
 37 H       -2.0400    -8.4820    -0.8800 H     1 <1>   0.0800 
 38 H       -2.0870    -4.2960    -0.6630 H     1 <1>   0.0800 
 39 H       -3.1370    -5.0580    -1.8400 H     1 <1>   0.0800 
 40 H       -4.3480    -8.6510    -0.6850 H     1 <1>   0.0800 
 41 H       -3.4330    -4.8600     1.1070 H     1 <1>   0.0800 
 42 H       -4.6150    -4.8180    -0.1460 H     1 <1>   0.0800 
 43 H       -5.7120    -6.9160    -1.4350 H     1 <1>   0.4000 
 44 H       -5.6080    -7.9910     1.5700 H     1 <1>   0.0800 
 45 H       -5.4860    -6.3610     2.1060 H     1 <1>   0.0800 
 46 H       -6.7240    -4.5540     0.8960 H     1 <1>   0.1500 
 47 H       -7.0080    -8.6420    -0.2960 H     1 <1>   0.1500 
 48 H       -8.6620    -4.0160    -0.5030 H     1 <1>   0.1500 
 49 H       -8.9470    -8.0950    -1.6920 H     1 <1>   0.1500 
 50 H       -9.7730    -5.7810    -1.8060 H     1 <1>   0.1500 
@<TRIPOS>BOND
  1   1   2  1   
  2   2   3  ar  
  3   2   4  ar  
  4   3   5  ar  
  5   3   6  1   
  6   4   7  ar  
  7   4  27  1   
  8   5   8  ar  
  9   5  28  1   
 10   6  29  1   
 11   6  30  1   
 12   6  31  1   
 13   7   8  ar  
 14   7  32  1   
 15   8   9  1   
 16   9  10  1   
 17   9  33  1   
 18   9  34  1   
 19  10  11  1   
 20  10  12  1   
 21  10  35  1   
 22  11  13  1   
 23  11  36  1   
 24  11  37  1   
 25  12  14  1   
 26  12  38  1   
 27  12  39  1   
 28  13  15  1   
 29  13  16  1   
 30  13  40  1   
 31  14  16  1   
 32  14  41  1   
 33  14  42  1   
 34  15  43  1   
 35  16  17  1   
 36  16  18  1   
 37  17  19  ar  
 38  17  20  ar  
 39  18  21  1   
 40  18  44  1   
 41  18  45  1   
 42  21  22  ar  
 43  21  23  ar  
 44  22  24  ar  
 45  22  46  1   
 46  23  25  ar  
 47  23  47  1   
 48  24  26  ar  
 49  24  48  1   
 50  25  26  ar  
 51  25  49  1   
 52  26  50  1   
@<TRIPOS>SUBSTRUCTURE
  1 ****  14 GROUP 4 **** **** 0

# MOE 2024.06 (io_trps.svl 2023.06)
