@<TRIPOS>MOLECULE
NONAME
50 51 1 0 0 
SMALL
USER_CHARGES


@<TRIPOS>ATOM
  1 O        0.4600    -0.2680     0.4310 O.3   1 <1>  -0.5600 
  2 C        1.6970    -0.9400     0.5000 C.3   1 <1>   0.2000 
  3 C        0.2320     0.4140    -0.7690 C.3   1 <1>   0.1200 
  4 C        2.8630     0.0670     0.3280 C.3   1 <1>   0.5660 
  5 C        1.7810    -1.6850     1.8400 C.3   1 <1>   0.1200 
  6 C        1.3100     1.4940    -0.9830 C.3   1 <1>   0.3430 
  7 N        2.6970     0.9220    -0.9000 N.4   1 <1>  -0.9590 
  8 C        4.2090    -0.6380     0.2430 C.ar  1 <1>  -0.1430 
  9 O        0.6570    -2.4770     1.9950 O.3   1 <1>  -0.6800 
 10 C        3.7890     1.9440    -1.0490 C.3   1 <1>   0.3430 
 11 C        4.5010    -1.5040    -0.8010 C.ar  1 <1>  -0.1500 
 12 C        5.1720    -0.4080     1.2110 C.ar  1 <1>  -0.1500 
 13 C        3.7610     3.0630     0.0140 C.3   1 <1>  -0.0800 
 14 C        5.7320    -2.1280    -0.9020 C.ar  1 <1>   0.0830 
 15 C        6.4090    -1.0240     1.1280 C.ar  1 <1>  -0.1500 
 16 C        3.0370     4.3210    -0.4950 C.3   1 <1>  -0.2400 
 17 C        5.1990     3.4400     0.3940 C.3   1 <1>  -0.2400 
 18 O        5.8440    -2.9380    -1.9930 O.3   1 <1>  -0.3620 
 19 C        6.7130    -1.8830     0.0740 C.ar  1 <1>   0.0830 
 20 C        6.8310    -3.9410    -2.1020 C.3   1 <1>   0.0400 
 21 O        7.9410    -2.4680    -0.0240 O.3   1 <1>  -0.3630 
 22 C        8.9590    -2.2740     0.9340 C.3   1 <1>   0.0400 
 23 H        1.7260    -1.6710    -0.2900 H     1 <1>   0.0800 
 24 H        0.2210    -0.2960    -1.5790 H     1 <1>   0.0800 
 25 H       -0.7410     0.8710    -0.7050 H     1 <1>   0.0800 
 26 H        2.8680     0.6990     1.2000 H     1 <1>   0.0800 
 27 H        1.8180    -0.9940     2.6650 H     1 <1>   0.0800 
 28 H        2.6450    -2.3270     1.8780 H     1 <1>   0.0800 
 29 H        1.1810     2.2470    -0.2230 H     1 <1>   0.0800 
 30 H        1.1620     1.9640    -1.9410 H     1 <1>   0.0800 
 31 H        2.8120     0.2700    -1.6840 H     1 <1>   0.4500 
 32 H       -0.1470    -1.9440     1.8160 H     1 <1>   0.4000 
 33 H        4.7410     1.4410    -0.9880 H     1 <1>   0.0800 
 34 H        3.7360     2.3940    -2.0270 H     1 <1>   0.0800 
 35 H        3.7790    -1.7250    -1.5680 H     1 <1>   0.1500 
 36 H        4.9800     0.2520     2.0420 H     1 <1>   0.1500 
 37 H        3.2750     2.7220     0.9110 H     1 <1>   0.0800 
 38 H        7.1260    -0.8160     1.9000 H     1 <1>   0.1500 
 39 H        3.5220     4.7100    -1.3740 H     1 <1>   0.0800 
 40 H        3.0570     5.0890     0.2600 H     1 <1>   0.0800 
 41 H        2.0090     4.1270    -0.7330 H     1 <1>   0.0800 
 42 H        5.7370     3.8190    -0.4580 H     1 <1>   0.0800 
 43 H        5.7300     2.5870     0.7790 H     1 <1>   0.0800 
 44 H        5.1980     4.2020     1.1560 H     1 <1>   0.0800 
 45 H        6.5770    -4.5730    -2.9340 H     1 <1>   0.0800 
 46 H        6.8480    -4.5180    -1.1950 H     1 <1>   0.0800 
 47 H        7.7840    -3.4750    -2.2790 H     1 <1>   0.0800 
 48 H        9.8170    -2.8480     0.6310 H     1 <1>   0.0800 
 49 H        8.6110    -2.6210     1.8910 H     1 <1>   0.0800 
 50 H        9.2150    -1.2300     0.9680 H     1 <1>   0.0800 
@<TRIPOS>BOND
  1   1   2  1   
  2   1   3  1   
  3   2   4  1   
  4   2   5  1   
  5   2  23  1   
  6   3   6  1   
  7   3  24  1   
  8   3  25  1   
  9   4   7  1   
 10   4   8  1   
 11   4  26  1   
 12   5   9  1   
 13   5  27  1   
 14   5  28  1   
 15   6   7  1   
 16   6  29  1   
 17   6  30  1   
 18   7  10  1   
 19   7  31  1   
 20   8  11  ar  
 21   8  12  ar  
 22   9  32  1   
 23  10  13  1   
 24  10  33  1   
 25  10  34  1   
 26  11  14  ar  
 27  11  35  1   
 28  12  15  ar  
 29  12  36  1   
 30  13  16  1   
 31  13  17  1   
 32  13  37  1   
 33  14  18  1   
 34  14  19  ar  
 35  15  19  ar  
 36  15  38  1   
 37  16  39  1   
 38  16  40  1   
 39  16  41  1   
 40  17  42  1   
 41  17  43  1   
 42  17  44  1   
 43  18  20  1   
 44  19  21  1   
 45  20  45  1   
 46  20  46  1   
 47  20  47  1   
 48  21  22  1   
 49  22  48  1   
 50  22  49  1   
 51  22  50  1   
@<TRIPOS>SUBSTRUCTURE
  1 ****   8 GROUP 4 **** **** 0

# MOE 2024.06 (io_trps.svl 2023.06)
