@<TRIPOS>MOLECULE
NONAME
48 51 1 0 0 
SMALL
USER_CHARGES


@<TRIPOS>ATOM
  1 O        0.8050    -1.9090    -0.8760 O.3   1 <1>  -0.3630 
  2 C        0.9740    -0.7140    -1.4840 C.ar  1 <1>   0.0820 
  3 C        1.4500    -2.0970     0.3720 C.3   1 <1>   0.1200 
  4 C       -0.0030     0.3010    -1.3240 C.ar  1 <1>   0.3100 
  5 C        2.0920    -0.5210    -2.2570 C.ar  1 <1>  -0.1500 
  6 C        0.4050    -2.1990     1.4960 C.3   1 <1>   0.2090 
  7 N       -1.1210     0.0610    -0.5720 N.ar  1 <1>  -0.6200 
  8 C        0.2290     1.5420    -1.9600 C.ar  1 <1>   0.0000 
  9 C        2.2990     0.7040    -2.8920 C.ar  1 <1>  -0.1500 
 10 N       -0.5060    -3.3690     1.3220 N.pl3 1 <1>  -0.8690 
 11 C       -1.9600     1.0470    -0.4240 C.ar  1 <1>   0.1600 
 12 C       -0.7140     2.5670    -1.7780 C.ar  1 <1>  -0.1500 
 13 C        1.3870     1.7140    -2.7430 C.ar  1 <1>  -0.1500 
 14 C       -1.5210    -3.5790     0.4740 C.ar  1 <1>   0.7710 
 15 C       -1.8030     2.3120    -1.0040 C.ar  1 <1>  -0.1500 
 16 N       -2.1700    -4.7180     0.6170 N.ar  1 <1>  -0.6200 
 17 N       -1.8410    -2.6720    -0.4600 N.ar  1 <1>  -0.1790 
 18 C       -3.1730    -4.9640    -0.2080 C.ar  1 <1>   0.4100 
 19 C       -2.8560    -2.8810    -1.3250 C.ar  1 <1>   0.2110 
 20 N       -3.8330    -6.1400    -0.0540 N.pl3 1 <1>  -0.8380 
 21 C       -3.5450    -4.0410    -1.2070 C.ar  1 <1>  -0.1500 
 22 C       -4.8810    -6.7110    -0.9500 C.3   1 <1>   0.2090 
 23 C       -3.5420    -7.1100     1.0420 C.3   1 <1>   0.2090 
 24 C       -4.8650    -8.2110    -0.6570 C.3   1 <1>   0.2000 
 25 C       -4.4970    -8.2810     0.8180 C.3   1 <1>  -0.1600 
 26 O       -3.8320    -8.7870    -1.3750 O.3   1 <1>  -0.6800 
 27 H        2.1160    -1.2710     0.5560 H     1 <1>   0.0800 
 28 H        2.0280    -3.0020     0.3160 H     1 <1>   0.0800 
 29 H        2.8140    -1.3090    -2.3810 H     1 <1>   0.1500 
 30 H       -0.1640    -1.2870     1.5480 H     1 <1>   0.0800 
 31 H        0.9220    -2.3040     2.4350 H     1 <1>   0.0800 
 32 H        3.1810     0.8410    -3.4960 H     1 <1>   0.1500 
 33 H       -0.3460    -4.1440     1.9740 H     1 <1>   0.4000 
 34 H       -2.8380     0.8930     0.1820 H     1 <1>   0.1500 
 35 H       -0.5600     3.5250    -2.2440 H     1 <1>   0.1500 
 36 H        1.5470     2.6610    -3.2280 H     1 <1>   0.1500 
 37 H       -2.5510     3.0660    -0.8280 H     1 <1>   0.1500 
 38 H       -1.2500    -1.8290    -0.5030 H     1 <1>   0.4570 
 39 H       -3.0750    -2.1280    -2.0640 H     1 <1>   0.1500 
 40 H       -4.3670    -4.2670    -1.8580 H     1 <1>   0.1500 
 41 H       -4.6810    -6.5210    -1.9910 H     1 <1>   0.0800 
 42 H       -5.8390    -6.3000    -0.6800 H     1 <1>   0.0800 
 43 H       -3.6980    -6.6550     2.0060 H     1 <1>   0.0800 
 44 H       -2.5200    -7.4390     0.9650 H     1 <1>   0.0800 
 45 H       -5.7850    -8.7130    -0.9050 H     1 <1>   0.0800 
 46 H       -5.3800    -8.1240     1.4110 H     1 <1>   0.0800 
 47 H       -4.0640    -9.2270     1.0920 H     1 <1>   0.0800 
 48 H       -3.0200    -8.2650    -1.2140 H     1 <1>   0.4000 
@<TRIPOS>BOND
  1   1   2  1   
  2   1   3  1   
  3   2   4  ar  
  4   2   5  ar  
  5   3   6  1   
  6   3  27  1   
  7   3  28  1   
  8   4   7  ar  
  9   4   8  ar  
 10   5   9  ar  
 11   5  29  1   
 12   6  10  1   
 13   6  30  1   
 14   6  31  1   
 15   7  11  ar  
 16   8  12  ar  
 17   8  13  ar  
 18   9  13  ar  
 19   9  32  1   
 20  10  14  1   
 21  10  33  1   
 22  11  15  ar  
 23  11  34  1   
 24  12  15  ar  
 25  12  35  1   
 26  13  36  1   
 27  14  16  ar  
 28  14  17  ar  
 29  15  37  1   
 30  16  18  ar  
 31  17  19  ar  
 32  17  38  1   
 33  18  20  1   
 34  18  21  ar  
 35  19  21  ar  
 36  19  39  1   
 37  20  22  1   
 38  20  23  1   
 39  21  40  1   
 40  22  24  1   
 41  22  41  1   
 42  22  42  1   
 43  23  25  1   
 44  23  43  1   
 45  23  44  1   
 46  24  25  1   
 47  24  26  1   
 48  24  45  1   
 49  25  46  1   
 50  25  47  1   
 51  26  48  1   
@<TRIPOS>SUBSTRUCTURE
  1 ****  17 GROUP 4 **** **** 0

# MOE 2024.06 (io_trps.svl 2023.06)
