@<TRIPOS>MOLECULE
NONAME
46 48 1 0 0 
SMALL
USER_CHARGES


@<TRIPOS>ATOM
  1 O       -0.4880     0.3410    -1.4140 O.2   1 <1>  -0.5700 
  2 C       -1.5220     0.8820    -1.0600 C.2   1 <1>   0.5440 
  3 N       -2.6970     0.1590    -1.1800 N.am  1 <1>  -0.6600 
  4 C       -1.4680     2.2550    -0.5480 C.ar  1 <1>   0.3960 
  5 C       -4.0690     0.7240    -1.0140 C.3   1 <1>   0.1400 
  6 C       -2.7080    -1.3340    -1.2220 C.3   1 <1>   0.1400 
  7 N       -2.1450     2.5840     0.5700 N.ar  1 <1>  -0.6200 
  8 C       -0.6980     3.1910    -1.2410 C.ar  1 <1>  -0.1500 
  9 C       -4.7530     0.0830     0.2050 C.3   1 <1>   0.2950 
 10 C       -3.4960    -1.9010    -0.0180 C.3   1 <1>   0.2000 
 11 C       -2.0360     3.8340     0.9560 C.ar  1 <1>   0.3920 
 12 C       -0.6060     4.5000    -0.8150 C.ar  1 <1>  -0.1500 
 13 O       -4.7650    -1.3100     0.0640 O.3   1 <1>  -0.5600 
 14 C       -6.2040     0.5500     0.3480 C.3   1 <1>  -0.1950 
 15 C       -3.7200    -3.4160    -0.1030 C.3   1 <1>  -0.1600 
 16 O       -2.7040     4.1150     2.0570 O.3   1 <1>  -0.5330 
 17 C       -1.3050     4.8240     0.3240 C.ar  1 <1>  -0.1500 
 18 C       -6.5360     1.8340     1.0410 C.3   1 <1>  -0.2000 
 19 C       -6.9010     0.5190     1.6710 C.3   1 <1>  -0.2000 
 20 C       -2.4130    -4.2240    -0.0430 C.3   1 <1>  -0.1600 
 21 C       -2.6980    -5.7300    -0.0350 C.3   1 <1>  -0.1600 
 22 C       -1.3980    -6.5360     0.0220 C.3   1 <1>  -0.2400 
 23 H       -4.0430     1.7910    -0.8980 H     1 <1>   0.0800 
 24 H       -4.6470     0.5080    -1.8940 H     1 <1>   0.0800 
 25 H       -3.1670    -1.6590    -2.1390 H     1 <1>   0.0800 
 26 H       -1.7030    -1.7150    -1.2030 H     1 <1>   0.0800 
 27 H       -0.1670     2.8750    -2.1220 H     1 <1>   0.1500 
 28 H       -4.2040     0.3280     1.0980 H     1 <1>   0.0800 
 29 H       -2.9670    -1.6730     0.8930 H     1 <1>   0.0800 
 30 H       -0.0170     5.2290    -1.3450 H     1 <1>   0.1500 
 31 H       -6.7920     0.2990    -0.5190 H     1 <1>   0.1000 
 32 H       -4.3450    -3.7080     0.7230 H     1 <1>   0.0800 
 33 H       -4.2430    -3.6440    -1.0160 H     1 <1>   0.0800 
 34 H       -3.1100     3.2980     2.3920 H     1 <1>   0.4500 
 35 H       -1.2900     5.8180     0.7300 H     1 <1>   0.1500 
 36 H       -5.7460     2.4150     1.4860 H     1 <1>   0.1000 
 37 H       -7.3240     2.4500     0.6430 H     1 <1>   0.1000 
 38 H       -7.9340     0.2170     1.6960 H     1 <1>   0.1000 
 39 H       -6.3530     0.1770     2.5330 H     1 <1>   0.1000 
 40 H       -1.7960    -3.9900    -0.8940 H     1 <1>   0.0800 
 41 H       -1.8700    -3.9600     0.8480 H     1 <1>   0.0800 
 42 H       -3.3070    -5.9790     0.8180 H     1 <1>   0.0800 
 43 H       -3.2440    -6.0000    -0.9240 H     1 <1>   0.0800 
 44 H       -0.8460    -6.2970     0.9140 H     1 <1>   0.0800 
 45 H       -0.7830    -6.3210    -0.8350 H     1 <1>   0.0800 
 46 H       -1.6180    -7.5890     0.0280 H     1 <1>   0.0800 
@<TRIPOS>BOND
  1   1   2  2   
  2   2   3  am  
  3   2   4  1   
  4   3   5  1   
  5   3   6  1   
  6   4   7  ar  
  7   4   8  ar  
  8   5   9  1   
  9   5  23  1   
 10   5  24  1   
 11   6  10  1   
 12   6  25  1   
 13   6  26  1   
 14   7  11  ar  
 15   8  12  ar  
 16   8  27  1   
 17   9  13  1   
 18   9  14  1   
 19   9  28  1   
 20  10  13  1   
 21  10  15  1   
 22  10  29  1   
 23  11  16  1   
 24  11  17  ar  
 25  12  17  ar  
 26  12  30  1   
 27  14  18  1   
 28  14  19  1   
 29  14  31  1   
 30  15  20  1   
 31  15  32  1   
 32  15  33  1   
 33  16  34  1   
 34  17  35  1   
 35  18  19  1   
 36  18  36  1   
 37  18  37  1   
 38  19  38  1   
 39  19  39  1   
 40  20  21  1   
 41  20  40  1   
 42  20  41  1   
 43  21  22  1   
 44  21  42  1   
 45  21  43  1   
 46  22  44  1   
 47  22  45  1   
 48  22  46  1   
@<TRIPOS>SUBSTRUCTURE
  1 ****   3 GROUP 4 **** **** 0

# MOE 2024.06 (io_trps.svl 2023.06)
