@<TRIPOS>MOLECULE
NONAME
49 50 1 0 0 
SMALL
USER_CHARGES


@<TRIPOS>ATOM
  1 O        0.4420     2.0060     2.4760 O.2   1 <1>  -0.5700 
  2 C       -0.0350     2.2100     1.3720 C.2   1 <1>   0.5440 
  3 N        0.1570     1.2500     0.3870 N.am  1 <1>  -0.6600 
  4 C       -0.7890     3.4460     1.1530 C.ar  1 <1>   0.3960 
  5 C        1.0390     0.0660     0.5950 C.3   1 <1>   0.0600 
  6 C       -0.5370     1.2780    -0.9300 C.3   1 <1>   0.0600 
  7 N       -0.5020     4.2240     0.0950 N.ar  1 <1>  -0.6200 
  8 C       -1.7780     3.7940     2.0730 C.ar  1 <1>  -0.1500 
  9 C       -1.1870     5.3410    -0.0200 C.ar  1 <1>   0.4100 
 10 C       -2.5060     4.9560     1.9290 C.ar  1 <1>  -0.1500 
 11 N       -0.7980     6.1130    -1.0740 N.pl3 1 <1>  -0.8690 
 12 C       -2.1930     5.7430     0.8490 C.ar  1 <1>  -0.1500 
 13 C       -0.0440     7.3550    -0.8020 C.3   1 <1>   0.2090 
 14 C        1.3110     7.0230    -0.1540 C.3   1 <1>  -0.0800 
 15 C        2.1700     8.2590     0.1090 C.3   1 <1>   0.3430 
 16 C        2.1990     6.0940    -0.9850 C.3   1 <1>  -0.1600 
 17 N        3.5580     7.9130    -0.3290 N.4   1 <1>  -0.9590 
 18 C        3.6010     6.4380    -0.5280 C.3   1 <1>   0.3430 
 19 C        4.5900     8.4130     0.6380 C.3   1 <1>   0.3430 
 20 C        6.0250     8.2230     0.1320 C.3   1 <1>   0.1200 
 21 O        6.8690     8.7750     1.0830 O.3   1 <1>  -0.5600 
 22 C        8.2250     8.6990     0.7690 C.3   1 <1>   0.0400 
 23 H        1.6490     0.1900     1.4730 H     1 <1>   0.0800 
 24 H        1.6870    -0.0600    -0.2550 H     1 <1>   0.0800 
 25 H        0.4360    -0.8160     0.7160 H     1 <1>   0.0800 
 26 H       -1.4210     1.8900    -0.8860 H     1 <1>   0.0800 
 27 H       -0.8320     0.2820    -1.2110 H     1 <1>   0.0800 
 28 H        0.1260     1.6740    -1.6780 H     1 <1>   0.0800 
 29 H       -1.9660     3.1390     2.9060 H     1 <1>   0.1500 
 30 H       -3.2780     5.2290     2.6290 H     1 <1>   0.1500 
 31 H       -0.3210     5.5200    -1.7570 H     1 <1>   0.4000 
 32 H       -2.7140     6.6630     0.6610 H     1 <1>   0.1500 
 33 H       -0.6250     7.9840    -0.1480 H     1 <1>   0.0800 
 34 H        0.1010     7.8800    -1.7320 H     1 <1>   0.0800 
 35 H        1.1260     6.5640     0.8030 H     1 <1>   0.0800 
 36 H        2.1460     8.4980     1.1600 H     1 <1>   0.0800 
 37 H        1.8050     9.1050    -0.4510 H     1 <1>   0.0800 
 38 H        2.1020     6.3010    -2.0370 H     1 <1>   0.0800 
 39 H        1.9750     5.0560    -0.8110 H     1 <1>   0.0800 
 40 H        3.7140     8.3580    -1.2430 H     1 <1>   0.4500 
 41 H        4.3440     6.1480    -1.2550 H     1 <1>   0.0800 
 42 H        3.8010     5.9440     0.4100 H     1 <1>   0.0800 
 43 H        4.4860     7.8980     1.5790 H     1 <1>   0.0800 
 44 H        4.4360     9.4660     0.8120 H     1 <1>   0.0800 
 45 H        6.1760     8.7440    -0.7980 H     1 <1>   0.0800 
 46 H        6.2670     7.1800     0.0300 H     1 <1>   0.0800 
 47 H        8.7810     9.1530     1.5710 H     1 <1>   0.0800 
 48 H        8.4130     9.2350    -0.1460 H     1 <1>   0.0800 
 49 H        8.5150     7.6670     0.6710 H     1 <1>   0.0800 
@<TRIPOS>BOND
  1   1   2  2   
  2   2   3  am  
  3   2   4  1   
  4   3   5  1   
  5   3   6  1   
  6   4   7  ar  
  7   4   8  ar  
  8   5  23  1   
  9   5  24  1   
 10   5  25  1   
 11   6  26  1   
 12   6  27  1   
 13   6  28  1   
 14   7   9  ar  
 15   8  10  ar  
 16   8  29  1   
 17   9  11  1   
 18   9  12  ar  
 19  10  12  ar  
 20  10  30  1   
 21  11  13  1   
 22  11  31  1   
 23  12  32  1   
 24  13  14  1   
 25  13  33  1   
 26  13  34  1   
 27  14  15  1   
 28  14  16  1   
 29  14  35  1   
 30  15  17  1   
 31  15  36  1   
 32  15  37  1   
 33  16  18  1   
 34  16  38  1   
 35  16  39  1   
 36  17  18  1   
 37  17  19  1   
 38  17  40  1   
 39  18  41  1   
 40  18  42  1   
 41  19  20  1   
 42  19  43  1   
 43  19  44  1   
 44  20  21  1   
 45  20  45  1   
 46  20  46  1   
 47  21  22  1   
 48  22  47  1   
 49  22  48  1   
 50  22  49  1   
@<TRIPOS>SUBSTRUCTURE
  1 ****  14 GROUP 4 **** **** 0

# MOE 2024.06 (io_trps.svl 2023.06)
