@<TRIPOS>MOLECULE
NONAME
48 50 1 0 0 
SMALL
USER_CHARGES


@<TRIPOS>ATOM
  1 S        0.5000    -0.3680    -0.8340 S.3   1 <1>  -0.2030 
  2 C        0.5780     1.3920    -0.4570 C.ar  1 <1>   0.1020 
  3 C        1.5200    -1.1040     0.4520 C.ar  1 <1>   0.1020 
  4 C        1.5700     1.8810     0.3940 C.ar  1 <1>   0.1000 
  5 C       -0.3700     2.2130    -1.0340 C.ar  1 <1>  -0.1500 
  6 C        2.3960    -0.3080     1.1940 C.ar  1 <1>   0.1000 
  7 C        1.3850    -2.4600     0.6770 C.ar  1 <1>  -0.1500 
  8 N        2.5970     1.0610     0.9100 N.pl3 1 <1>  -0.5690 
  9 C        1.5390     3.2410     0.6850 C.ar  1 <1>  -0.1500 
 10 C       -0.3600     3.5690    -0.7530 C.ar  1 <1>  -0.1500 
 11 C        3.0890    -0.9290     2.2310 C.ar  1 <1>  -0.1500 
 12 C        2.1130    -3.0570     1.6920 C.ar  1 <1>  -0.1500 
 13 C        3.9990     1.5380     0.7480 C.3   1 <1>   0.2090 
 14 C        0.5990     4.0840     0.1160 C.ar  1 <1>   0.0830 
 15 C        2.9570    -2.2870     2.4730 C.ar  1 <1>  -0.1500 
 16 C        4.3740     1.7330    -0.7370 C.3   1 <1>  -0.0800 
 17 O        0.6850     5.3970     0.4510 O.3   1 <1>  -0.3630 
 18 C        5.7170     2.4630    -0.8950 C.3   1 <1>   0.3430 
 19 C        4.3420     0.4130    -1.5360 C.3   1 <1>  -0.2400 
 20 C       -0.2800     6.3270     0.0100 C.3   1 <1>   0.0400 
 21 N        6.8780     1.5890    -0.5420 N.4   1 <1>  -0.9590 
 22 C        7.3600     1.8080     0.8590 C.3   1 <1>   0.2630 
 23 C        7.9990     1.7960    -1.5100 C.3   1 <1>   0.2630 
 24 H       -1.1110     1.7960    -1.6920 H     1 <1>   0.1500 
 25 H        0.7100    -3.0400     0.0720 H     1 <1>   0.1500 
 26 H        2.2470     3.6650     1.3690 H     1 <1>   0.1500 
 27 H       -1.1000     4.1970    -1.2110 H     1 <1>   0.1500 
 28 H        3.7310    -0.3470     2.8640 H     1 <1>   0.1500 
 29 H        2.0140    -4.1130     1.8780 H     1 <1>   0.1500 
 30 H        4.1090     2.4650     1.2830 H     1 <1>   0.0800 
 31 H        4.6710     0.8270     1.1900 H     1 <1>   0.0800 
 32 H        3.5060    -2.7470     3.2760 H     1 <1>   0.1500 
 33 H        3.6420     2.3920    -1.1710 H     1 <1>   0.0800 
 34 H        5.7250     3.3610    -0.2980 H     1 <1>   0.0800 
 35 H        5.8020     2.7610    -1.9280 H     1 <1>   0.0800 
 36 H        4.9270    -0.3560    -1.0650 H     1 <1>   0.0800 
 37 H        4.6940     0.5640    -2.5410 H     1 <1>   0.0800 
 38 H        3.3300     0.0540    -1.6020 H     1 <1>   0.0800 
 39 H       -0.0340     7.2860     0.4280 H     1 <1>   0.0800 
 40 H       -1.2500     6.0150     0.3560 H     1 <1>   0.0800 
 41 H       -0.2510     6.3780    -1.0640 H     1 <1>   0.0800 
 42 H        6.5560     0.6120    -0.6420 H     1 <1>   0.4500 
 43 H        7.6970     2.8240     0.9840 H     1 <1>   0.0800 
 44 H        8.1810     1.1450     1.0790 H     1 <1>   0.0800 
 45 H        6.5710     1.6180     1.5670 H     1 <1>   0.0800 
 46 H        8.3580     2.8120    -1.4580 H     1 <1>   0.0800 
 47 H        7.6660     1.5990    -2.5160 H     1 <1>   0.0800 
 48 H        8.8170     1.1300    -1.2850 H     1 <1>   0.0800 
@<TRIPOS>BOND
  1   1   2  1   
  2   1   3  1   
  3   2   4  ar  
  4   2   5  ar  
  5   3   6  ar  
  6   3   7  ar  
  7   4   8  1   
  8   4   9  ar  
  9   5  10  ar  
 10   5  24  1   
 11   6   8  1   
 12   6  11  ar  
 13   7  12  ar  
 14   7  25  1   
 15   8  13  1   
 16   9  14  ar  
 17   9  26  1   
 18  10  14  ar  
 19  10  27  1   
 20  11  15  ar  
 21  11  28  1   
 22  12  15  ar  
 23  12  29  1   
 24  13  16  1   
 25  13  30  1   
 26  13  31  1   
 27  14  17  1   
 28  15  32  1   
 29  16  18  1   
 30  16  19  1   
 31  16  33  1   
 32  17  20  1   
 33  18  21  1   
 34  18  34  1   
 35  18  35  1   
 36  19  36  1   
 37  19  37  1   
 38  19  38  1   
 39  20  39  1   
 40  20  40  1   
 41  20  41  1   
 42  21  22  1   
 43  21  23  1   
 44  21  42  1   
 45  22  43  1   
 46  22  44  1   
 47  22  45  1   
 48  23  46  1   
 49  23  47  1   
 50  23  48  1   
@<TRIPOS>SUBSTRUCTURE
  1 ****   8 GROUP 4 **** **** 0

# MOE 2024.06 (io_trps.svl 2023.06)
