@<TRIPOS>MOLECULE
NONAME
53 55 1 0 0 
SMALL
USER_CHARGES


@<TRIPOS>ATOM
  1 S       -0.7100     0.4540    -0.5660 S.o2  1 <1>   1.4470 
  2 O       -1.3070     0.9330     0.6590 O.2   1 <1>  -0.6500 
  3 O       -1.1480     0.9700    -1.8420 O.2   1 <1>  -0.6500 
  4 N        0.9100     0.8490    -0.3940 N.am  1 <1>  -0.9140 
  5 C       -0.7010    -1.3620    -0.5930 C.ar  1 <1>  -0.0090 
  6 C        1.2140     2.1890    -0.8570 C.3   1 <1>   0.1960 
  7 C       -1.5200    -2.1060     0.2480 C.ar  1 <1>  -0.1500 
  8 C        0.1190    -2.0630    -1.4680 C.ar  1 <1>  -0.1500 
  9 C        2.6720     2.5020    -0.5240 C.3   1 <1>  -0.1600 
 10 C       -1.5150    -3.4900     0.2220 C.ar  1 <1>  -0.1500 
 11 C        0.1270    -3.4460    -1.4940 C.ar  1 <1>  -0.1500 
 12 C        3.0660     3.9040    -1.0020 C.3   1 <1>  -0.2400 
 13 C       -0.6850    -4.2010    -0.6470 C.ar  1 <1>   0.0860 
 14 C       -0.6580    -5.6550    -0.6870 C.2   1 <1>   0.5440 
 15 O       -0.2500    -6.2440    -1.6680 O.2   1 <1>  -0.5700 
 16 N       -1.0850    -6.4000     0.3740 N.am  1 <1>  -0.7300 
 17 C       -1.1040    -7.8800     0.4260 C.3   1 <1>   0.2200 
 18 C       -2.5230    -8.3660     0.1870 C.3   1 <1>  -0.0800 
 19 C       -0.8580    -8.3420     1.8560 C.3   1 <1>   0.1200 
 20 C       -3.1410    -8.2980     1.5900 C.3   1 <1>   0.1200 
 21 C       -2.5400    -9.7920    -0.3930 C.3   1 <1>  -0.0160 
 22 O       -2.0860    -8.2180     2.5060 O.3   1 <1>  -0.5600 
 23 C       -3.9600   -10.2650    -0.6640 C.ar  1 <1>  -0.1430 
 24 C       -4.6910    -9.7830    -1.7310 C.ar  1 <1>  -0.1500 
 25 C       -4.5920   -11.1950     0.1370 C.ar  1 <1>  -0.1500 
 26 C       -5.9830   -10.2370    -1.9370 C.ar  1 <1>   0.1600 
 27 C       -5.8890   -11.5820    -0.1570 C.ar  1 <1>   0.1600 
 28 N       -6.6010   -11.1240    -1.1740 N.ar  1 <1>  -0.6200 
 29 H        1.0440     0.8510     0.6150 H     1 <1>   0.4200 
 30 H        1.0640     2.2470    -1.9240 H     1 <1>   0.0800 
 31 H        0.5630     2.9040    -0.3790 H     1 <1>   0.0800 
 32 H       -2.1740    -1.5910     0.9340 H     1 <1>   0.1500 
 33 H        0.7610    -1.5150    -2.1380 H     1 <1>   0.1500 
 34 H        2.8210     2.4410     0.5400 H     1 <1>   0.0800 
 35 H        3.3080     1.7760    -1.0030 H     1 <1>   0.0800 
 36 H       -2.1730    -4.0210     0.8850 H     1 <1>   0.1500 
 37 H        0.7740    -3.9590    -2.1860 H     1 <1>   0.1500 
 38 H        2.4550     4.6510    -0.5260 H     1 <1>   0.0800 
 39 H        2.9450     3.9860    -2.0690 H     1 <1>   0.0800 
 40 H        4.0960     4.0990    -0.7600 H     1 <1>   0.0800 
 41 H       -1.4160    -5.9520     1.2310 H     1 <1>   0.3700 
 42 H       -0.3870    -8.2920    -0.2660 H     1 <1>   0.0800 
 43 H       -3.0440    -7.7140    -0.4930 H     1 <1>   0.0800 
 44 H       -0.1150    -7.7520     2.3640 H     1 <1>   0.0800 
 45 H       -0.5770    -9.3800     1.8800 H     1 <1>   0.0800 
 46 H       -3.7390    -9.1600     1.8270 H     1 <1>   0.0800 
 47 H       -3.7380    -7.4100     1.7030 H     1 <1>   0.0800 
 48 H       -2.0530   -10.4760     0.2800 H     1 <1>   0.0800 
 49 H       -1.9930    -9.8050    -1.3210 H     1 <1>   0.0800 
 50 H       -4.2680    -9.0600    -2.4040 H     1 <1>   0.1500 
 51 H       -4.0920   -11.6220     0.9860 H     1 <1>   0.1500 
 52 H       -6.5380    -9.8500    -2.7750 H     1 <1>   0.1500 
 53 H       -6.3670   -12.3080     0.4790 H     1 <1>   0.1500 
@<TRIPOS>BOND
  1   1   2  2   
  2   1   3  2   
  3   1   4  am  
  4   1   5  1   
  5   4   6  1   
  6   4  29  1   
  7   5   7  ar  
  8   5   8  ar  
  9   6   9  1   
 10   6  30  1   
 11   6  31  1   
 12   7  10  ar  
 13   7  32  1   
 14   8  11  ar  
 15   8  33  1   
 16   9  12  1   
 17   9  34  1   
 18   9  35  1   
 19  10  13  ar  
 20  10  36  1   
 21  11  13  ar  
 22  11  37  1   
 23  12  38  1   
 24  12  39  1   
 25  12  40  1   
 26  13  14  1   
 27  14  15  2   
 28  14  16  am  
 29  16  17  1   
 30  16  41  1   
 31  17  18  1   
 32  17  19  1   
 33  17  42  1   
 34  18  20  1   
 35  18  21  1   
 36  18  43  1   
 37  19  22  1   
 38  19  44  1   
 39  19  45  1   
 40  20  22  1   
 41  20  46  1   
 42  20  47  1   
 43  21  23  1   
 44  21  48  1   
 45  21  49  1   
 46  23  24  ar  
 47  23  25  ar  
 48  24  26  ar  
 49  24  50  1   
 50  25  27  ar  
 51  25  51  1   
 52  26  28  ar  
 53  26  52  1   
 54  27  28  ar  
 55  27  53  1   
@<TRIPOS>SUBSTRUCTURE
  1 ****  13 GROUP 4 **** **** 0

# MOE 2024.06 (io_trps.svl 2023.06)
