@<TRIPOS>MOLECULE
NONAME
55 58 1 0 0 
SMALL
USER_CHARGES


@<TRIPOS>ATOM
  1 O        0.5610    -0.4280     0.2410 O.3   1 <1>  -0.5600 
  2 C        0.3880     0.7970    -0.4000 C.3   1 <1>   0.1200 
  3 C        1.8690    -0.9050     0.2530 C.3   1 <1>   0.1200 
  4 C        1.1680     1.8740     0.3620 C.3   1 <1>  -0.1600 
  5 C        2.7740     0.0820     1.0070 C.3   1 <1>  -0.1600 
  6 C        2.6690     1.5280     0.4730 C.3   1 <1>   0.0000 
  7 C        3.3590     2.4770     1.4860 C.3   1 <1>  -0.1600 
  8 C        3.3380     1.6570    -0.9230 C.3   1 <1>  -0.1600 
  9 C        3.9160     3.7390     0.8250 C.3   1 <1>   0.2090 
 10 C        4.8170     2.0400    -0.8320 C.3   1 <1>   0.2090 
 11 N        4.9710     3.3740    -0.1710 N.pl3 1 <1>  -0.8380 
 12 C        6.1720     4.0070    -0.1950 C.ar  1 <1>   0.4100 
 13 N        7.2290     3.2300    -0.0660 N.ar  1 <1>  -0.6200 
 14 C        6.2870     5.4180    -0.3380 C.ar  1 <1>  -0.1440 
 15 C        8.4180     3.7970     0.0090 C.ar  1 <1>   0.7710 
 16 C        7.5290     5.9700    -0.2290 C.ar  1 <1>   0.2180 
 17 C        5.0430     6.2590    -0.6470 C.3   1 <1>  -0.0960 
 18 N        8.5720     5.1260    -0.0510 N.ar  1 <1>  -0.1790 
 19 N        9.5170     3.0160     0.1560 N.pl3 1 <1>  -0.8380 
 20 C        7.8630     7.4550    -0.3010 C.3   1 <1>  -0.0970 
 21 C        9.4030     1.5350     0.2760 C.3   1 <1>   0.2090 
 22 C       10.9490     3.4200     0.1960 C.3   1 <1>   0.2090 
 23 C       10.8030     1.0540     0.6290 C.3   1 <1>  -0.1600 
 24 C       11.7290     2.1200     0.0570 C.3   1 <1>  -0.1600 
 25 H       -0.6640     1.0210    -0.3950 H     1 <1>   0.0800 
 26 H        0.7210     0.7050    -1.4190 H     1 <1>   0.0800 
 27 H        2.1890    -1.0510    -0.7630 H     1 <1>   0.0800 
 28 H        1.8620    -1.8590     0.7510 H     1 <1>   0.0800 
 29 H        0.7330     1.9500     1.3430 H     1 <1>   0.0800 
 30 H        1.0340     2.8240    -0.1220 H     1 <1>   0.0800 
 31 H        3.7910    -0.2610     0.9560 H     1 <1>   0.0800 
 32 H        2.4810     0.0600     2.0420 H     1 <1>   0.0800 
 33 H        4.1850     1.9770     1.9610 H     1 <1>   0.0800 
 34 H        2.6750     2.7540     2.2680 H     1 <1>   0.0800 
 35 H        2.8510     2.4200    -1.5050 H     1 <1>   0.0800 
 36 H        3.2520     0.7440    -1.4800 H     1 <1>   0.0800 
 37 H        4.3370     4.3810     1.5810 H     1 <1>   0.0800 
 38 H        3.1210     4.2680     0.3290 H     1 <1>   0.0800 
 39 H        5.2450     2.0830    -1.8190 H     1 <1>   0.0800 
 40 H        5.3510     1.2970    -0.2640 H     1 <1>   0.0800 
 41 H        4.3560     5.6990    -1.2570 H     1 <1>   0.0800 
 42 H        5.2840     7.1480    -1.1990 H     1 <1>   0.0800 
 43 H        4.5450     6.5390     0.2640 H     1 <1>   0.0800 
 44 H        9.5240     5.4520     0.0380 H     1 <1>   0.4570 
 45 H        6.9970     8.0650    -0.1220 H     1 <1>   0.0800 
 46 H        8.2560     7.7000    -1.2730 H     1 <1>   0.0800 
 47 H        8.5920     7.7150     0.4450 H     1 <1>   0.0800 
 48 H        9.0930     1.1240    -0.6710 H     1 <1>   0.0800 
 49 H        8.6900     1.2570     1.0360 H     1 <1>   0.0800 
 50 H       11.1690     3.8710     1.1500 H     1 <1>   0.0800 
 51 H       11.1980     4.0960    -0.6050 H     1 <1>   0.0800 
 52 H       11.0020     0.0760     0.2250 H     1 <1>   0.0800 
 53 H       10.9010     1.0150     1.7000 H     1 <1>   0.0800 
 54 H       12.6730     2.1590     0.5710 H     1 <1>   0.0800 
 55 H       11.9080     1.9250    -0.9870 H     1 <1>   0.0800 
@<TRIPOS>BOND
  1   1   2  1   
  2   1   3  1   
  3   2   4  1   
  4   2  25  1   
  5   2  26  1   
  6   3   5  1   
  7   3  27  1   
  8   3  28  1   
  9   4   6  1   
 10   4  29  1   
 11   4  30  1   
 12   5   6  1   
 13   5  31  1   
 14   5  32  1   
 15   6   7  1   
 16   6   8  1   
 17   7   9  1   
 18   7  33  1   
 19   7  34  1   
 20   8  10  1   
 21   8  35  1   
 22   8  36  1   
 23   9  11  1   
 24   9  37  1   
 25   9  38  1   
 26  10  11  1   
 27  10  39  1   
 28  10  40  1   
 29  11  12  1   
 30  12  13  ar  
 31  12  14  ar  
 32  13  15  ar  
 33  14  16  ar  
 34  14  17  1   
 35  15  18  ar  
 36  15  19  1   
 37  16  18  ar  
 38  16  20  1   
 39  17  41  1   
 40  17  42  1   
 41  17  43  1   
 42  18  44  1   
 43  19  21  1   
 44  19  22  1   
 45  20  45  1   
 46  20  46  1   
 47  20  47  1   
 48  21  23  1   
 49  21  48  1   
 50  21  49  1   
 51  22  24  1   
 52  22  50  1   
 53  22  51  1   
 54  23  24  1   
 55  23  52  1   
 56  23  53  1   
 57  24  54  1   
 58  24  55  1   
@<TRIPOS>SUBSTRUCTURE
  1 ****  11 GROUP 4 **** **** 0

# MOE 2024.06 (io_trps.svl 2023.06)
