@<TRIPOS>MOLECULE
NONAME
49 52 1 0 0 
SMALL
USER_CHARGES


@<TRIPOS>ATOM
  1 O       -0.0340    -0.9550    -2.0600 O.2   1 <1>  -0.5700 
  2 C        0.7350    -1.5840    -1.3730 C.2   1 <1>   0.5690 
  3 N        0.3920    -2.1310    -0.1670 N.am  1 <1>  -0.6600 
  4 C        2.1600    -1.7810    -1.8510 C.3   1 <1>  -0.0990 
  5 C        1.3900    -2.9020     0.6150 C.3   1 <1>   0.1400 
  6 C       -0.9590    -1.9710     0.4330 C.3   1 <1>   0.0600 
  7 C        2.6040    -3.2440    -1.6580 C.3   1 <1>  -0.0800 
  8 C        2.1500    -3.8640    -0.3160 C.3   1 <1>  -0.0800 
  9 C        4.1240    -3.4300    -1.7200 C.3   1 <1>  -0.1600 
 10 C        3.4150    -4.4450     0.3320 C.3   1 <1>  -0.1600 
 11 C        4.3900    -4.6390    -0.8240 C.3   1 <1>   0.2200 
 12 N        5.7900    -4.8190    -0.3410 N.am  1 <1>  -0.6600 
 13 C        6.8500    -4.0680    -0.8040 C.2   1 <1>   0.5440 
 14 C        6.0750    -6.2010     0.1350 C.3   1 <1>   0.0600 
 15 O        7.6840    -4.6240    -1.4950 O.2   1 <1>  -0.5700 
 16 C        7.0040    -2.6620    -0.4710 C.ar  1 <1>   0.0860 
 17 C        7.6540    -1.7850    -1.3110 C.ar  1 <1>  -0.1500 
 18 C        6.4880    -2.1380     0.7340 C.ar  1 <1>  -0.1500 
 19 C        7.7980    -0.4150    -1.0230 C.ar  1 <1>   0.0000 
 20 C        6.6070    -0.8130     1.0460 C.ar  1 <1>  -0.1500 
 21 C        7.2580     0.0860     0.1800 C.ar  1 <1>   0.0000 
 22 C        8.4610     0.4770    -1.8900 C.ar  1 <1>  -0.1500 
 23 C        7.3960     1.4580     0.4670 C.ar  1 <1>  -0.1500 
 24 C        8.5810     1.8050    -1.5870 C.ar  1 <1>  -0.1500 
 25 C        8.0420     2.3020    -0.3940 C.ar  1 <1>  -0.1500 
 26 H        2.2340    -1.5070    -2.8880 H     1 <1>   0.0800 
 27 H        2.7840    -1.1170    -1.2840 H     1 <1>   0.0800 
 28 H        2.0740    -2.2060     1.0710 H     1 <1>   0.0800 
 29 H        0.9020    -3.4610     1.3950 H     1 <1>   0.0800 
 30 H       -0.8780    -1.4860     1.3900 H     1 <1>   0.0800 
 31 H       -1.4180    -2.9360     0.5590 H     1 <1>   0.0800 
 32 H       -1.5870    -1.3730    -0.2050 H     1 <1>   0.0800 
 33 H        2.1590    -3.8300    -2.4460 H     1 <1>   0.0800 
 34 H        1.4870    -4.6820    -0.5440 H     1 <1>   0.0800 
 35 H        4.5890    -2.5510    -1.3160 H     1 <1>   0.0800 
 36 H        4.4670    -3.5950    -2.7260 H     1 <1>   0.0800 
 37 H        3.2080    -5.3720     0.8370 H     1 <1>   0.0800 
 38 H        3.8320    -3.7400     1.0290 H     1 <1>   0.0800 
 39 H        4.1000    -5.5200    -1.3730 H     1 <1>   0.0800 
 40 H        5.4440    -6.4430     0.9710 H     1 <1>   0.0800 
 41 H        7.1040    -6.2780     0.4460 H     1 <1>   0.0800 
 42 H        5.9050    -6.9040    -0.6620 H     1 <1>   0.0800 
 43 H        8.0710    -2.1560    -2.2310 H     1 <1>   0.1500 
 44 H        5.9980    -2.8130     1.4120 H     1 <1>   0.1500 
 45 H        6.2070    -0.4320     1.9690 H     1 <1>   0.1500 
 46 H        8.8750     0.0900    -2.8040 H     1 <1>   0.1500 
 47 H        6.9820     1.8350     1.3840 H     1 <1>   0.1500 
 48 H        9.0890     2.4810    -2.2530 H     1 <1>   0.1500 
 49 H        8.1460     3.3490    -0.1700 H     1 <1>   0.1500 
@<TRIPOS>BOND
  1   1   2  2   
  2   2   3  am  
  3   2   4  1   
  4   3   5  1   
  5   3   6  1   
  6   4   7  1   
  7   4  26  1   
  8   4  27  1   
  9   5   8  1   
 10   5  28  1   
 11   5  29  1   
 12   6  30  1   
 13   6  31  1   
 14   6  32  1   
 15   7   8  1   
 16   7   9  1   
 17   7  33  1   
 18   8  10  1   
 19   8  34  1   
 20   9  11  1   
 21   9  35  1   
 22   9  36  1   
 23  10  11  1   
 24  10  37  1   
 25  10  38  1   
 26  11  12  1   
 27  11  39  1   
 28  12  13  am  
 29  12  14  1   
 30  13  15  2   
 31  13  16  1   
 32  14  40  1   
 33  14  41  1   
 34  14  42  1   
 35  16  17  ar  
 36  16  18  ar  
 37  17  19  ar  
 38  17  43  1   
 39  18  20  ar  
 40  18  44  1   
 41  19  21  ar  
 42  19  22  ar  
 43  20  21  ar  
 44  20  45  1   
 45  21  23  ar  
 46  22  24  ar  
 47  22  46  1   
 48  23  25  ar  
 49  23  47  1   
 50  24  25  ar  
 51  24  48  1   
 52  25  49  1   
@<TRIPOS>SUBSTRUCTURE
  1 ****   9 GROUP 4 **** **** 0

# MOE 2024.06 (io_trps.svl 2023.06)
