@<TRIPOS>MOLECULE
NONAME
48 50 1 0 0 
SMALL
USER_CHARGES


@<TRIPOS>ATOM
  1 S        0.6150     0.0140     1.5580 S.3   1 <1>  -0.0800 
  2 C        1.2360    -0.9430     0.2270 C.2   1 <1>  -0.0450 
  3 C        1.2030     1.4620     0.7880 C.2   1 <1>   0.1980 
  4 C        1.8210    -0.0800    -0.6370 C.2   1 <1>   0.0460 
  5 C        1.0780    -2.3760     0.2480 C.2   1 <1>   0.7150 
  6 N        1.7890     1.2610    -0.3200 N.2   1 <1>  -0.5650 
  7 C        0.9640     2.7770     1.4920 C.3   1 <1>  -0.0600 
  8 C        2.5180    -0.4330    -1.9360 C.3   1 <1>  -0.0590 
  9 O        1.9770    -3.0870    -0.1630 O.2   1 <1>  -0.5700 
 10 N       -0.0770    -2.9810     0.6920 N.am  1 <1>  -0.6600 
 11 C       -0.1300    -4.4410     1.0170 C.3   1 <1>   0.1400 
 12 C       -1.4320    -2.3770     0.5070 C.3   1 <1>   0.1400 
 13 C       -1.0490    -5.1880     0.0370 C.3   1 <1>   0.3440 
 14 C       -2.3030    -3.2400    -0.4360 C.3   1 <1>   0.2000 
 15 O       -2.3090    -4.5700     0.0080 O.3   1 <1>  -0.5600 
 16 C       -1.2020    -6.6490     0.4480 C.ar  1 <1>  -0.1440 
 17 C       -3.7690    -2.7550    -0.5250 C.3   1 <1>  -0.0800 
 18 C       -2.1970    -7.0570     1.3270 C.ar  1 <1>  -0.1500 
 19 C       -0.3180    -7.5960    -0.0530 C.ar  1 <1>  -0.1500 
 20 C       -4.6060    -3.6570    -1.4480 C.3   1 <1>  -0.2400 
 21 C       -3.8740    -1.3050    -1.0290 C.3   1 <1>  -0.2400 
 22 C       -2.3070    -8.3860     1.6970 C.ar  1 <1>  -0.1500 
 23 C       -0.4270    -8.9250     0.3170 C.ar  1 <1>  -0.1500 
 24 C       -1.4220    -9.3210     1.1930 C.ar  1 <1>  -0.1500 
 25 H        1.3790     3.5790     0.9090 H     1 <1>   0.0800 
 26 H        1.4370     2.7640     2.4560 H     1 <1>   0.0800 
 27 H       -0.0900     2.9410     1.6130 H     1 <1>   0.0800 
 28 H        2.4680    -1.4870    -2.1330 H     1 <1>   0.0800 
 29 H        3.5510    -0.1410    -1.8780 H     1 <1>   0.0800 
 30 H        2.0550     0.0950    -2.7490 H     1 <1>   0.0800 
 31 H        0.8520    -4.8770     0.9840 H     1 <1>   0.0800 
 32 H       -0.5080    -4.5680     2.0160 H     1 <1>   0.0800 
 33 H       -1.9160    -2.2920     1.4640 H     1 <1>   0.0800 
 34 H       -1.3420    -1.3920     0.0890 H     1 <1>   0.0800 
 35 H       -0.6340    -5.1410    -0.9550 H     1 <1>   0.0800 
 36 H       -1.8740    -3.2260    -1.4240 H     1 <1>   0.0800 
 37 H       -4.1950    -2.7970     0.4630 H     1 <1>   0.0800 
 38 H       -2.8930    -6.3380     1.7220 H     1 <1>   0.1500 
 39 H        0.4610    -7.3020    -0.7350 H     1 <1>   0.1500 
 40 H       -4.2010    -3.6620    -2.4440 H     1 <1>   0.0800 
 41 H       -5.6240    -3.3130    -1.4900 H     1 <1>   0.0800 
 42 H       -4.6140    -4.6690    -1.0800 H     1 <1>   0.0800 
 43 H       -3.3980    -1.2020    -1.9880 H     1 <1>   0.0800 
 44 H       -3.4190    -0.6180    -0.3380 H     1 <1>   0.0800 
 45 H       -4.9070    -1.0230    -1.1320 H     1 <1>   0.0800 
 46 H       -3.0840    -8.6910     2.3770 H     1 <1>   0.1500 
 47 H        0.2620    -9.6510    -0.0770 H     1 <1>   0.1500 
 48 H       -1.5070   -10.3550     1.4800 H     1 <1>   0.1500 
@<TRIPOS>BOND
  1   1   2  1   
  2   1   3  1   
  3   2   4  2   
  4   2   5  1   
  5   3   6  2   
  6   3   7  1   
  7   4   6  1   
  8   4   8  1   
  9   5   9  2   
 10   5  10  am  
 11   7  25  1   
 12   7  26  1   
 13   7  27  1   
 14   8  28  1   
 15   8  29  1   
 16   8  30  1   
 17  10  11  1   
 18  10  12  1   
 19  11  13  1   
 20  11  31  1   
 21  11  32  1   
 22  12  14  1   
 23  12  33  1   
 24  12  34  1   
 25  13  15  1   
 26  13  16  1   
 27  13  35  1   
 28  14  15  1   
 29  14  17  1   
 30  14  36  1   
 31  16  18  ar  
 32  16  19  ar  
 33  17  20  1   
 34  17  21  1   
 35  17  37  1   
 36  18  22  ar  
 37  18  38  1   
 38  19  23  ar  
 39  19  39  1   
 40  20  40  1   
 41  20  41  1   
 42  20  42  1   
 43  21  43  1   
 44  21  44  1   
 45  21  45  1   
 46  22  24  ar  
 47  22  46  1   
 48  23  24  ar  
 49  23  47  1   
 50  24  48  1   
@<TRIPOS>SUBSTRUCTURE
  1 ****  10 GROUP 4 **** **** 0

# MOE 2024.06 (io_trps.svl 2023.06)
