@<TRIPOS>MOLECULE
NONAME
47 48 1 0 0 
SMALL
USER_CHARGES


@<TRIPOS>ATOM
  1 S        1.1300     0.7600    -1.3340 S.o2  1 <1>   1.3330 
  2 O        0.9620     1.5270    -2.5440 O.2   1 <1>  -0.6500 
  3 O        1.6840    -0.5720    -1.3710 O.2   1 <1>  -0.6500 
  4 N        2.0960     1.6800    -0.2220 N.am  1 <1>  -0.6930 
  5 C       -0.4260     0.6840    -0.4740 C.3   1 <1>  -0.1350 
  6 C        1.8480     3.0160     0.0610 C.ar  1 <1>   0.1990 
  7 C        3.1570     0.9500     0.5140 C.3   1 <1>   0.1160 
  8 C        1.8400     3.9820    -0.9380 C.ar  1 <1>  -0.1500 
  9 C        1.5940     3.4290     1.3640 C.ar  1 <1>  -0.1500 
 10 C        1.5810     5.3070    -0.6490 C.ar  1 <1>  -0.1500 
 11 C        1.3380     4.7550     1.6530 C.ar  1 <1>  -0.1500 
 12 C        1.3280     5.7360     0.6580 C.ar  1 <1>   0.0860 
 13 C        1.0630     7.1250     0.9830 C.2   1 <1>   0.5440 
 14 O        0.4660     7.4220     1.9990 O.2   1 <1>  -0.5700 
 15 N        1.4960     8.1340     0.1640 N.am  1 <1>  -0.7300 
 16 C        1.2780     9.5770     0.3950 C.3   1 <1>   0.1400 
 17 C        2.6160    10.2320     0.7280 C.3   1 <1>  -0.1600 
 18 C        2.4330    11.7210     1.0130 C.3   1 <1>   0.2090 
 19 N        3.7580    12.3240     1.2780 N.pl3 1 <1>  -0.8690 
 20 C        4.5270    12.7670     0.2000 C.ar  1 <1>   0.1000 
 21 C        5.8060    12.2650    -0.0520 C.ar  1 <1>   0.1600 
 22 C        4.0420    13.7360    -0.6630 C.ar  1 <1>  -0.1500 
 23 N        6.5950    12.6170    -1.0560 N.ar  1 <1>  -0.6200 
 24 C        4.8470    14.1210    -1.7130 C.ar  1 <1>  -0.1500 
 25 C        6.0950    13.5390    -1.8640 C.ar  1 <1>   0.1600 
 26 H       -1.1330     0.1160    -1.0450 H     1 <1>   0.0800 
 27 H       -0.8160     1.6730    -0.3280 H     1 <1>   0.0800 
 28 H       -0.2980     0.2160     0.4820 H     1 <1>   0.0800 
 29 H        3.8170     0.4710    -0.1880 H     1 <1>   0.0800 
 30 H        2.7140     0.1980     1.1440 H     1 <1>   0.0800 
 31 H        3.7320     1.6300     1.1190 H     1 <1>   0.0800 
 32 H        2.0420     3.6870    -1.9530 H     1 <1>   0.1500 
 33 H        1.5910     2.7020     2.1550 H     1 <1>   0.1500 
 34 H        1.5690     6.0180    -1.4550 H     1 <1>   0.1500 
 35 H        1.1400     5.0500     2.6700 H     1 <1>   0.1500 
 36 H        2.0960     7.9020    -0.6280 H     1 <1>   0.3700 
 37 H        0.5840     9.7200     1.2070 H     1 <1>   0.0800 
 38 H        0.8540    10.0170    -0.4930 H     1 <1>   0.0800 
 39 H        3.2860    10.1110    -0.1040 H     1 <1>   0.0800 
 40 H        3.0310     9.7540     1.5970 H     1 <1>   0.0800 
 41 H        1.8020    11.8610     1.8750 H     1 <1>   0.0800 
 42 H        1.9700    12.2050     0.1710 H     1 <1>   0.0800 
 43 H        4.2750    11.7910     1.9860 H     1 <1>   0.4000 
 44 H        6.1900    11.5220     0.6230 H     1 <1>   0.1500 
 45 H        3.0740    14.1730    -0.5060 H     1 <1>   0.1500 
 46 H        4.5150    14.8690    -2.4100 H     1 <1>   0.1500 
 47 H        6.7140    13.8480    -2.6890 H     1 <1>   0.1500 
@<TRIPOS>BOND
  1   1   2  2   
  2   1   3  2   
  3   1   4  am  
  4   1   5  1   
  5   4   6  1   
  6   4   7  1   
  7   5  26  1   
  8   5  27  1   
  9   5  28  1   
 10   6   8  ar  
 11   6   9  ar  
 12   7  29  1   
 13   7  30  1   
 14   7  31  1   
 15   8  10  ar  
 16   8  32  1   
 17   9  11  ar  
 18   9  33  1   
 19  10  12  ar  
 20  10  34  1   
 21  11  12  ar  
 22  11  35  1   
 23  12  13  1   
 24  13  14  2   
 25  13  15  am  
 26  15  16  1   
 27  15  36  1   
 28  16  17  1   
 29  16  37  1   
 30  16  38  1   
 31  17  18  1   
 32  17  39  1   
 33  17  40  1   
 34  18  19  1   
 35  18  41  1   
 36  18  42  1   
 37  19  20  1   
 38  19  43  1   
 39  20  21  ar  
 40  20  22  ar  
 41  21  23  ar  
 42  21  44  1   
 43  22  24  ar  
 44  22  45  1   
 45  23  25  ar  
 46  24  25  ar  
 47  24  46  1   
 48  25  47  1   
@<TRIPOS>SUBSTRUCTURE
  1 ****  15 GROUP 4 **** **** 0

# MOE 2024.06 (io_trps.svl 2023.06)
