@<TRIPOS>MOLECULE
NONAME
53 56 1 0 0 
SMALL
USER_CHARGES


@<TRIPOS>ATOM
  1 O        0.0340    -0.0930     1.3970 O.3   1 <1>  -0.0190 
  2 N       -0.1780    -1.2960     1.8340 N.2   1 <1>  -0.4100 
  3 C        0.3020    -0.2600     0.1250 C.2   1 <1>   0.2980 
  4 C       -0.0440    -2.0870     0.8420 C.2   1 <1>   0.3350 
  5 N        0.2740    -1.4630    -0.2890 N.2   1 <1>  -0.5650 
  6 C        0.6050     0.9570    -0.7290 C.3   1 <1>   0.0200 
  7 C       -0.1990    -3.6100     0.9110 C.3   1 <1>   0.2910 
  8 C        2.1010     1.3310    -0.7340 C.3   1 <1>  -0.0800 
  9 N       -1.5140    -4.1120     0.4360 N.3   1 <1>  -0.8100 
 10 C        2.6070     1.7260     0.6610 C.3   1 <1>  -0.2400 
 11 C        2.3570     2.4810    -1.7170 C.3   1 <1>  -0.2400 
 12 C       -1.7860    -3.7760    -0.9670 C.3   1 <1>   0.1100 
 13 C       -1.6250    -5.5760     0.5380 C.3   1 <1>   0.1100 
 14 C       -2.8670    -4.7650    -1.3800 C.3   1 <1>   0.2000 
 15 C       -2.4400    -6.0530    -0.6810 C.3   1 <1>  -0.0800 
 16 O       -4.0510    -4.3460    -0.8060 O.3   1 <1>  -0.6800 
 17 C       -1.6050    -6.9400    -1.6240 C.3   1 <1>  -0.0170 
 18 C       -1.1530    -8.2230    -0.9470 C.ar  1 <1>   0.1670 
 19 N        0.0790    -8.2890    -0.5440 N.ar  1 <1>  -0.6200 
 20 C       -2.0800    -9.2660    -0.7880 C.ar  1 <1>  -0.1500 
 21 C        0.4850    -9.4330     0.0660 C.ar  1 <1>   0.3100 
 22 C       -1.7010   -10.4230    -0.1780 C.ar  1 <1>  -0.1500 
 23 C       -0.3770   -10.5330     0.2750 C.ar  1 <1>   0.0000 
 24 C        1.8130    -9.5310     0.5110 C.ar  1 <1>  -0.1500 
 25 C        0.1230   -11.6810     0.9210 C.ar  1 <1>  -0.1500 
 26 C        2.2790   -10.6570     1.1370 C.ar  1 <1>  -0.1500 
 27 C        1.4230   -11.7430     1.3440 C.ar  1 <1>  -0.1500 
 28 H        0.2960     0.7370    -1.7350 H     1 <1>   0.0800 
 29 H        0.0160     1.7860    -0.3800 H     1 <1>   0.0800 
 30 H       -0.0690    -3.9090     1.9350 H     1 <1>   0.0800 
 31 H        0.5900    -4.0570     0.3320 H     1 <1>   0.0800 
 32 H        2.6610     0.4720    -1.0670 H     1 <1>   0.0800 
 33 H        2.0380     2.5510     1.0540 H     1 <1>   0.0800 
 34 H        3.6410     2.0170     0.6130 H     1 <1>   0.0800 
 35 H        2.5310     0.8990     1.3440 H     1 <1>   0.0800 
 36 H        1.8180     3.3640    -1.4190 H     1 <1>   0.0800 
 37 H        2.0450     2.2050    -2.7090 H     1 <1>   0.0800 
 38 H        3.4060     2.7160    -1.7500 H     1 <1>   0.0800 
 39 H       -2.1130    -2.7550    -1.0750 H     1 <1>   0.0800 
 40 H       -0.9030    -3.9320    -1.5640 H     1 <1>   0.0800 
 41 H       -0.6490    -6.0300     0.5490 H     1 <1>   0.0800 
 42 H       -2.1310    -5.8320     1.4540 H     1 <1>   0.0800 
 43 H       -3.0050    -4.8510    -2.4440 H     1 <1>   0.0800 
 44 H       -3.3010    -6.6130    -0.3600 H     1 <1>   0.0800 
 45 H       -3.8210    -4.0460     0.1010 H     1 <1>   0.4000 
 46 H       -0.7390    -6.3990    -1.9670 H     1 <1>   0.0800 
 47 H       -2.1890    -7.1940    -2.4900 H     1 <1>   0.0800 
 48 H       -3.0830    -9.1350    -1.1510 H     1 <1>   0.1500 
 49 H       -2.3840   -11.2420    -0.0380 H     1 <1>   0.1500 
 50 H        2.4550    -8.6870     0.3420 H     1 <1>   0.1500 
 51 H       -0.5400   -12.5130     1.0770 H     1 <1>   0.1500 
 52 H        3.3000   -10.7190     1.4740 H     1 <1>   0.1500 
 53 H        1.8020   -12.6220     1.8380 H     1 <1>   0.1500 
@<TRIPOS>BOND
  1   1   2  1   
  2   1   3  1   
  3   2   4  2   
  4   3   5  2   
  5   3   6  1   
  6   4   5  1   
  7   4   7  1   
  8   6   8  1   
  9   6  28  1   
 10   6  29  1   
 11   7   9  1   
 12   7  30  1   
 13   7  31  1   
 14   8  10  1   
 15   8  11  1   
 16   8  32  1   
 17   9  12  1   
 18   9  13  1   
 19  10  33  1   
 20  10  34  1   
 21  10  35  1   
 22  11  36  1   
 23  11  37  1   
 24  11  38  1   
 25  12  14  1   
 26  12  39  1   
 27  12  40  1   
 28  13  15  1   
 29  13  41  1   
 30  13  42  1   
 31  14  15  1   
 32  14  16  1   
 33  14  43  1   
 34  15  17  1   
 35  15  44  1   
 36  16  45  1   
 37  17  18  1   
 38  17  46  1   
 39  17  47  1   
 40  18  19  ar  
 41  18  20  ar  
 42  19  21  ar  
 43  20  22  ar  
 44  20  48  1   
 45  21  23  ar  
 46  21  24  ar  
 47  22  23  ar  
 48  22  49  1   
 49  23  25  ar  
 50  24  26  ar  
 51  24  50  1   
 52  25  27  ar  
 53  25  51  1   
 54  26  27  ar  
 55  26  52  1   
 56  27  53  1   
@<TRIPOS>SUBSTRUCTURE
  1 ****  13 GROUP 4 **** **** 0

# MOE 2024.06 (io_trps.svl 2023.06)
