@<TRIPOS>MOLECULE
NONAME
47 49 1 0 0 
SMALL
USER_CHARGES


@<TRIPOS>ATOM
  1 S       -1.6230     1.5280     0.1930 S.o2  1 <1>   1.4470 
  2 O       -2.3780     2.3930     1.0750 O.2   1 <1>  -0.6500 
  3 O       -1.8190     1.6560    -1.2350 O.2   1 <1>  -0.6500 
  4 N       -2.0180    -0.0610     0.6250 N.am  1 <1>  -0.8490 
  5 C        0.1350     1.6690     0.6190 C.ar  1 <1>  -0.0090 
  6 C       -1.4250    -1.0700    -0.2750 C.3   1 <1>   0.1960 
  7 C       -3.4770    -0.2470     0.6770 C.3   1 <1>   0.1960 
  8 C        1.1120     1.7910    -0.3610 C.ar  1 <1>  -0.1500 
  9 C        0.5460     1.6500     1.9470 C.ar  1 <1>  -0.1500 
 10 C       -1.5200    -2.5050     0.3200 C.3   1 <1>  -0.1060 
 11 C       -3.8760    -1.7190     0.8780 C.3   1 <1>  -0.1600 
 12 C        2.4550     1.8980    -0.0370 C.ar  1 <1>   0.0820 
 13 C        1.8840     1.7570     2.2880 C.ar  1 <1>  -0.1500 
 14 C       -1.7680    -3.4690    -0.8540 C.2   1 <1>   0.9060 
 15 C       -2.6780    -2.5290     1.3590 C.3   1 <1>   0.2000 
 16 C       -0.2200    -2.9110     1.0670 C.3   1 <1>  -0.0650 
 17 O        3.3250     2.0090    -1.0710 O.3   1 <1>  -0.3630 
 18 C        2.8410     1.8820     1.2990 C.ar  1 <1>  -0.1500 
 19 O       -2.3710    -4.5360    -0.6620 O.co2 1 <1>  -0.9000 
 20 O       -1.3620    -3.1740    -1.9840 O.co2 1 <1>  -0.9000 
 21 O       -3.0910    -3.8100     1.6590 O.3   1 <1>  -0.6800 
 22 C        1.0690    -2.8720     0.2300 C.3   1 <1>  -0.1950 
 23 C        4.7190     2.0360    -0.8600 C.3   1 <1>   0.0400 
 24 C        2.4000    -2.9920     0.9010 C.3   1 <1>  -0.2000 
 25 C        1.9880    -1.6920     0.2750 C.3   1 <1>  -0.2000 
 26 H       -1.9530    -1.0210    -1.2150 H     1 <1>   0.0800 
 27 H       -0.4010    -0.8300    -0.4920 H     1 <1>   0.0800 
 28 H       -3.8670     0.3360     1.4960 H     1 <1>   0.0800 
 29 H       -3.9270     0.1190    -0.2330 H     1 <1>   0.0800 
 30 H        0.8290     1.8020    -1.4000 H     1 <1>   0.1500 
 31 H       -0.1970     1.5490     2.7200 H     1 <1>   0.1500 
 32 H       -4.2280    -2.1220    -0.0550 H     1 <1>   0.0800 
 33 H       -4.6750    -1.7780     1.5950 H     1 <1>   0.0800 
 34 H        2.1760     1.7410     3.3240 H     1 <1>   0.1500 
 35 H       -2.3410    -2.0960     2.2860 H     1 <1>   0.0800 
 36 H       -0.0930    -2.2810     1.9300 H     1 <1>   0.0800 
 37 H       -0.3460    -3.9190     1.4230 H     1 <1>   0.0800 
 38 H        3.8730     1.9650     1.5850 H     1 <1>   0.1500 
 39 H       -2.9600    -4.3420     0.8100 H     1 <1>   0.4000 
 40 H        0.9670    -3.3900    -0.7110 H     1 <1>   0.1000 
 41 H        5.2000     2.0940    -1.8190 H     1 <1>   0.0800 
 42 H        5.0130     1.1320    -0.3570 H     1 <1>   0.0800 
 43 H        4.9660     2.9030    -0.2740 H     1 <1>   0.0800 
 44 H        2.4350    -3.0630     1.9740 H     1 <1>   0.1000 
 45 H        3.1590    -3.5850     0.4210 H     1 <1>   0.1000 
 46 H        2.4470    -1.3740    -0.6450 H     1 <1>   0.1000 
 47 H        1.7460    -0.8690     0.9220 H     1 <1>   0.1000 
@<TRIPOS>BOND
  1   1   2  2   
  2   1   3  2   
  3   1   4  am  
  4   1   5  1   
  5   4   6  1   
  6   4   7  1   
  7   5   8  ar  
  8   5   9  ar  
  9   6  10  1   
 10   6  26  1   
 11   6  27  1   
 12   7  11  1   
 13   7  28  1   
 14   7  29  1   
 15   8  12  ar  
 16   8  30  1   
 17   9  13  ar  
 18   9  31  1   
 19  10  14  1   
 20  10  15  1   
 21  10  16  1   
 22  11  15  1   
 23  11  32  1   
 24  11  33  1   
 25  12  17  1   
 26  12  18  ar  
 27  13  18  ar  
 28  13  34  1   
 29  14  19  ar  
 30  14  20  ar  
 31  15  21  1   
 32  15  35  1   
 33  16  22  1   
 34  16  36  1   
 35  16  37  1   
 36  17  23  1   
 37  18  38  1   
 38  21  39  1   
 39  22  24  1   
 40  22  25  1   
 41  22  40  1   
 42  23  41  1   
 43  23  42  1   
 44  23  43  1   
 45  24  25  1   
 46  24  44  1   
 47  24  45  1   
 48  25  46  1   
 49  25  47  1   
@<TRIPOS>SUBSTRUCTURE
  1 ****   6 GROUP 4 **** **** 0

# MOE 2024.06 (io_trps.svl 2023.06)
