@<TRIPOS>MOLECULE
NONAME
46 48 1 0 0 
SMALL
USER_CHARGES


@<TRIPOS>ATOM
  1 O       -1.7150     0.4800     2.0320 O.2   1 <1>  -0.5700 
  2 C       -1.8690     0.9040     0.9030 C.2   1 <1>   0.7160 
  3 N       -2.3700     0.0820    -0.0770 N.am  1 <1>  -0.6600 
  4 C       -1.5450     2.2720     0.6050 C.2   1 <1>  -0.0860 
  5 C       -2.3460    -1.4030     0.1320 C.3   1 <1>   0.3640 
  6 C       -3.1280     0.6520    -1.2330 C.3   1 <1>   0.1400 
  7 C       -0.5370     2.7350    -0.2240 C.2   1 <1>   0.1080 
  8 C       -2.0990     3.4280     1.0210 C.2   1 <1>  -0.0400 
  9 C       -0.9250    -1.8950    -0.1500 C.ar  1 <1>  -0.1440 
 10 C       -3.3830    -2.2190    -0.6990 C.3   1 <1>   0.2000 
 11 C       -3.7660    -0.4110    -2.1360 C.3   1 <1>   0.1200 
 12 N       -0.5590     4.0140    -0.2830 N.2   1 <1>  -0.4100 
 13 C        0.4760     1.8720    -0.9610 C.3   1 <1>   0.0210 
 14 O       -1.5220     4.4760     0.4850 O.3   1 <1>  -0.0190 
 15 C       -3.2490     3.6450     1.9840 C.3   1 <1>  -0.0600 
 16 C       -0.1870    -2.4720     0.8740 C.ar  1 <1>  -0.1500 
 17 C       -0.3450    -1.7730    -1.4070 C.ar  1 <1>  -0.1500 
 18 O       -4.3280    -1.4160    -1.3560 O.3   1 <1>  -0.5600 
 19 C       -4.1670    -3.2120     0.1700 C.3   1 <1>   0.1200 
 20 C        1.4530     1.1910     0.0030 C.3   1 <1>  -0.2400 
 21 C        1.1020    -2.9210     0.6470 C.ar  1 <1>  -0.1500 
 22 C        0.9440    -2.2230    -1.6360 C.ar  1 <1>  -0.1500 
 23 O       -3.3050    -4.0850     0.8290 O.3   1 <1>  -0.6800 
 24 C        1.6680    -2.7980    -0.6080 C.ar  1 <1>  -0.1500 
 25 H       -2.5600    -1.5930     1.1700 H     1 <1>   0.0800 
 26 H       -3.9120     1.2820    -0.8500 H     1 <1>   0.0800 
 27 H       -2.4770     1.2700    -1.8260 H     1 <1>   0.0800 
 28 H       -2.8720    -2.7800    -1.4620 H     1 <1>   0.0800 
 29 H       -3.0430    -0.8460    -2.8030 H     1 <1>   0.0800 
 30 H       -4.5510     0.0300    -2.7240 H     1 <1>   0.0800 
 31 H       -0.0380     1.1280    -1.5390 H     1 <1>   0.0800 
 32 H        1.0300     2.4930    -1.6430 H     1 <1>   0.0800 
 33 H       -3.6160     2.7040     2.3530 H     1 <1>   0.0800 
 34 H       -4.0500     4.1620     1.4870 H     1 <1>   0.0800 
 35 H       -2.9150     4.2360     2.8170 H     1 <1>   0.0800 
 36 H       -0.6150    -2.5690     1.8580 H     1 <1>   0.1500 
 37 H       -0.8910    -1.3220    -2.2150 H     1 <1>   0.1500 
 38 H       -4.8380    -3.7960    -0.4360 H     1 <1>   0.0800 
 39 H       -4.7300    -2.6820     0.9190 H     1 <1>   0.0800 
 40 H        0.9310     0.5220     0.6640 H     1 <1>   0.0800 
 41 H        1.9660     1.9290     0.5940 H     1 <1>   0.0800 
 42 H        2.1800     0.6210    -0.5480 H     1 <1>   0.0800 
 43 H        1.6630    -3.3650     1.4510 H     1 <1>   0.1500 
 44 H        1.3850    -2.1240    -2.6130 H     1 <1>   0.1500 
 45 H       -2.8280    -4.6600     0.1970 H     1 <1>   0.4000 
 46 H        2.6710    -3.1480    -0.7830 H     1 <1>   0.1500 
@<TRIPOS>BOND
  1   1   2  2   
  2   2   3  am  
  3   2   4  1   
  4   3   5  1   
  5   3   6  1   
  6   4   7  1   
  7   4   8  2   
  8   5   9  1   
  9   5  10  1   
 10   5  25  1   
 11   6  11  1   
 12   6  26  1   
 13   6  27  1   
 14   7  12  2   
 15   7  13  1   
 16   8  14  1   
 17   8  15  1   
 18   9  16  ar  
 19   9  17  ar  
 20  10  18  1   
 21  10  19  1   
 22  10  28  1   
 23  11  18  1   
 24  11  29  1   
 25  11  30  1   
 26  12  14  1   
 27  13  20  1   
 28  13  31  1   
 29  13  32  1   
 30  15  33  1   
 31  15  34  1   
 32  15  35  1   
 33  16  21  ar  
 34  16  36  1   
 35  17  22  ar  
 36  17  37  1   
 37  19  23  1   
 38  19  38  1   
 39  19  39  1   
 40  20  40  1   
 41  20  41  1   
 42  20  42  1   
 43  21  24  ar  
 44  21  43  1   
 45  22  24  ar  
 46  22  44  1   
 47  23  45  1   
 48  24  46  1   
@<TRIPOS>SUBSTRUCTURE
  1 ****   3 GROUP 4 **** **** 0

# MOE 2024.06 (io_trps.svl 2023.06)
