@<TRIPOS>MOLECULE
NONAME
57 60 1 0 0 
SMALL
USER_CHARGES


@<TRIPOS>ATOM
  1 O       -1.7090     0.1950    -1.6840 O.2   1 <1>  -0.5700 
  2 C       -1.6660     0.2240    -0.4660 C.2   1 <1>   0.5440 
  3 N       -1.7870    -0.9620     0.2030 N.am  1 <1>  -0.7300 
  4 C       -1.5060     1.4830     0.2630 C.ar  1 <1>   0.3960 
  5 C       -1.8920    -2.3110    -0.4030 C.3   1 <1>   0.2200 
  6 N       -1.4920     1.4780     1.5940 N.ar  1 <1>  -0.6200 
  7 C       -1.3680     2.6780    -0.4230 C.ar  1 <1>  -0.1500 
  8 C       -3.3160    -2.8480    -0.3300 C.3   1 <1>  -0.0800 
  9 C       -1.1710    -3.3100     0.4910 C.3   1 <1>   0.1200 
 10 C       -1.3560     2.6540     2.1670 C.ar  1 <1>   0.7200 
 11 C       -1.2180     3.8400     0.2930 C.ar  1 <1>   0.1660 
 12 C       -3.3860    -3.4030     1.0980 C.3   1 <1>   0.1200 
 13 C       -4.4210    -1.8270    -0.6750 C.3   1 <1>  -0.0160 
 14 O       -2.0680    -3.6080     1.5190 O.3   1 <1>  -0.5600 
 15 N       -1.2100     3.8350     1.6020 N.ar  1 <1>  -0.6200 
 16 N       -1.3410     2.6520     3.5000 N.pl3 1 <1>  -0.9000 
 17 C       -1.0550     5.1780    -0.4130 C.3   1 <1>  -0.0170 
 18 C       -5.8560    -2.3640    -0.7510 C.ar  1 <1>  -0.1430 
 19 C        0.3960     5.6940    -0.3820 C.3   1 <1>  -0.0800 
 20 C       -6.9340    -1.4550    -0.8940 C.ar  1 <1>   0.0000 
 21 C       -6.1710    -3.6930    -0.6980 C.ar  1 <1>  -0.1500 
 22 C        0.4780     7.0900    -1.0140 C.3   1 <1>  -0.2400 
 23 C        1.3590     4.7430    -1.1080 C.3   1 <1>  -0.2400 
 24 C       -8.2480    -1.9840    -0.9440 C.ar  1 <1>   0.3100 
 25 C       -6.7860    -0.0510    -0.9970 C.ar  1 <1>  -0.1500 
 26 C       -7.5060    -4.1100    -0.7630 C.ar  1 <1>   0.1600 
 27 N       -8.5170    -3.3110    -0.8750 N.ar  1 <1>  -0.6200 
 28 C       -9.3340    -1.1030    -1.0740 C.ar  1 <1>  -0.1500 
 29 C       -7.8660     0.7800    -1.1260 C.ar  1 <1>  -0.1500 
 30 C       -9.1580     0.2510    -1.1630 C.ar  1 <1>  -0.1500 
 31 H       -1.7900    -0.9420     1.2290 H     1 <1>   0.3700 
 32 H       -1.5010    -2.3070    -1.4060 H     1 <1>   0.0800 
 33 H       -1.3740     2.6870    -1.4970 H     1 <1>   0.1500 
 34 H       -3.3770    -3.6710    -1.0190 H     1 <1>   0.0800 
 35 H       -0.2590    -2.9180     0.9060 H     1 <1>   0.0800 
 36 H       -0.9690    -4.2220    -0.0430 H     1 <1>   0.0800 
 37 H       -3.9160    -4.3370     1.1490 H     1 <1>   0.0800 
 38 H       -3.8350    -2.6940     1.7730 H     1 <1>   0.0800 
 39 H       -4.1810    -1.3780    -1.6240 H     1 <1>   0.0800 
 40 H       -4.3990    -1.0470     0.0660 H     1 <1>   0.0800 
 41 H       -1.1140     1.7690     3.9480 H     1 <1>   0.4000 
 42 H       -0.9690     3.4950     3.9300 H     1 <1>   0.4000 
 43 H       -1.3850     5.0930    -1.4330 H     1 <1>   0.0800 
 44 H       -1.6960     5.8910     0.0740 H     1 <1>   0.0800 
 45 H        0.7060     5.7710     0.6470 H     1 <1>   0.0800 
 46 H       -5.4330    -4.4650    -0.6100 H     1 <1>   0.1500 
 47 H        0.1810     7.0590    -2.0470 H     1 <1>   0.0800 
 48 H        1.4840     7.4660    -0.9570 H     1 <1>   0.0800 
 49 H       -0.1660     7.7750    -0.4900 H     1 <1>   0.0800 
 50 H        1.0630     4.6090    -2.1340 H     1 <1>   0.0800 
 51 H        1.3790     3.7820    -0.6250 H     1 <1>   0.0800 
 52 H        2.3580     5.1410    -1.0900 H     1 <1>   0.0800 
 53 H       -5.8040     0.3820    -0.9780 H     1 <1>   0.1500 
 54 H       -7.7040    -5.1680    -0.7140 H     1 <1>   0.1500 
 55 H      -10.3170    -1.5340    -1.1030 H     1 <1>   0.1500 
 56 H       -7.7360     1.8460    -1.2010 H     1 <1>   0.1500 
 57 H       -9.9990     0.9140    -1.2630 H     1 <1>   0.1500 
@<TRIPOS>BOND
  1   1   2  2   
  2   2   3  am  
  3   2   4  1   
  4   3   5  1   
  5   3  31  1   
  6   4   6  ar  
  7   4   7  ar  
  8   5   8  1   
  9   5   9  1   
 10   5  32  1   
 11   6  10  ar  
 12   7  11  ar  
 13   7  33  1   
 14   8  12  1   
 15   8  13  1   
 16   8  34  1   
 17   9  14  1   
 18   9  35  1   
 19   9  36  1   
 20  10  15  ar  
 21  10  16  1   
 22  11  15  ar  
 23  11  17  1   
 24  12  14  1   
 25  12  37  1   
 26  12  38  1   
 27  13  18  1   
 28  13  39  1   
 29  13  40  1   
 30  16  41  1   
 31  16  42  1   
 32  17  19  1   
 33  17  43  1   
 34  17  44  1   
 35  18  20  ar  
 36  18  21  ar  
 37  19  22  1   
 38  19  23  1   
 39  19  45  1   
 40  20  24  ar  
 41  20  25  ar  
 42  21  26  ar  
 43  21  46  1   
 44  22  47  1   
 45  22  48  1   
 46  22  49  1   
 47  23  50  1   
 48  23  51  1   
 49  23  52  1   
 50  24  27  ar  
 51  24  28  ar  
 52  25  29  ar  
 53  25  53  1   
 54  26  27  ar  
 55  26  54  1   
 56  28  30  ar  
 57  28  55  1   
 58  29  30  ar  
 59  29  56  1   
 60  30  57  1   
@<TRIPOS>SUBSTRUCTURE
  1 ****   2 GROUP 4 **** **** 0

# MOE 2024.06 (io_trps.svl 2023.06)
