@<TRIPOS>MOLECULE
NONAME
50 53 1 0 0 
SMALL
USER_CHARGES


@<TRIPOS>ATOM
  1 N        0.2860     0.0530     0.2700 N.ar  1 <1>  -0.6200 
  2 C       -0.8500    -0.5820     0.2120 C.ar  1 <1>   0.7710 
  3 C        1.3910    -0.6680     0.4680 C.ar  1 <1>   0.4100 
  4 N       -0.9570    -1.9170     0.3310 N.ar  1 <1>  -0.1790 
  5 N       -1.9470     0.1580     0.0210 N.pl3 1 <1>  -0.9000 
  6 N        2.5700     0.0160     0.5430 N.pl3 1 <1>  -0.8380 
  7 C        1.3330    -2.0520     0.5820 C.ar  1 <1>  -0.1500 
  8 C        0.1230    -2.6920     0.5130 C.ar  1 <1>   0.4610 
  9 C        2.7680     1.4000    -0.0190 C.3   1 <1>   0.2090 
 10 C        3.8240    -0.4490     1.2270 C.3   1 <1>   0.2090 
 11 N       -0.0360    -4.0390     0.6140 N.pl3 1 <1>  -0.6690 
 12 C        3.9660     1.4500    -0.9900 C.3   1 <1>   0.2090 
 13 C        5.0190    -0.4640     0.2540 C.3   1 <1>   0.2090 
 14 C       -1.2880    -4.8120     0.5190 C.3   1 <1>   0.0690 
 15 N        5.2150     0.8600    -0.4070 N.pl3 1 <1>  -0.8380 
 16 C       -1.3200    -5.9200    -0.4780 C.3   1 <1>  -0.2000 
 17 C       -2.1300    -4.6850    -0.7120 C.3   1 <1>  -0.2000 
 18 C        6.1650     1.7020     0.1250 C.ar  1 <1>   0.4100 
 19 N        5.7280     2.6090     0.9730 N.ar  1 <1>  -0.6200 
 20 C        7.5160     1.5880    -0.1940 C.ar  1 <1>  -0.1430 
 21 C        6.6540     3.3830     1.4990 C.ar  1 <1>   0.4700 
 22 C        8.3820     2.4510     0.4420 C.ar  1 <1>   0.1670 
 23 C        7.9970     0.5510    -1.2120 C.3   1 <1>  -0.0970 
 24 N        7.9570     3.3620     1.2930 N.ar  1 <1>  -0.6200 
 25 C        9.8840     2.4320     0.2200 C.3   1 <1>  -0.0970 
 26 H       -1.8620    -2.3590     0.2630 H     1 <1>   0.4570 
 27 H       -2.9200    -0.1450    -0.0330 H     1 <1>   0.4000 
 28 H       -1.8200     1.1720    -0.0530 H     1 <1>   0.4000 
 29 H        2.2300    -2.6220     0.7100 H     1 <1>   0.1500 
 30 H        2.9500     2.0870     0.7900 H     1 <1>   0.0800 
 31 H        1.8910     1.7370    -0.5420 H     1 <1>   0.0800 
 32 H        3.6980    -1.4210     1.6630 H     1 <1>   0.0800 
 33 H        4.0540     0.2330     2.0290 H     1 <1>   0.0800 
 34 H        0.7860    -4.6330     0.7880 H     1 <1>   0.4000 
 35 H        4.1500     2.4740    -1.2670 H     1 <1>   0.0800 
 36 H        3.7120     0.9110    -1.8850 H     1 <1>   0.0800 
 37 H        4.8560    -1.2130    -0.5010 H     1 <1>   0.0800 
 38 H        5.9110    -0.7280     0.7970 H     1 <1>   0.0800 
 39 H       -1.7510    -5.0000     1.4770 H     1 <1>   0.1000 
 40 H       -1.8460    -6.8280    -0.2360 H     1 <1>   0.1000 
 41 H       -0.4620    -6.0980    -1.1030 H     1 <1>   0.1000 
 42 H       -1.8280    -4.0780    -1.5480 H     1 <1>   0.1000 
 43 H       -3.2000    -4.7940    -0.6460 H     1 <1>   0.1000 
 44 H        6.3030     4.1300     2.1910 H     1 <1>   0.1500 
 45 H        7.2220     0.3210    -1.9210 H     1 <1>   0.0800 
 46 H        8.2810    -0.3530    -0.7060 H     1 <1>   0.0800 
 47 H        8.8360     0.9200    -1.7720 H     1 <1>   0.0800 
 48 H       10.2410     1.4300     0.0800 H     1 <1>   0.0800 
 49 H       10.3870     2.8470     1.0750 H     1 <1>   0.0800 
 50 H       10.1270     3.0250    -0.6410 H     1 <1>   0.0800 
@<TRIPOS>BOND
  1   1   2  ar  
  2   1   3  ar  
  3   2   4  ar  
  4   2   5  1   
  5   3   6  1   
  6   3   7  ar  
  7   4   8  ar  
  8   4  26  1   
  9   5  27  1   
 10   5  28  1   
 11   6   9  1   
 12   6  10  1   
 13   7   8  ar  
 14   7  29  1   
 15   8  11  1   
 16   9  12  1   
 17   9  30  1   
 18   9  31  1   
 19  10  13  1   
 20  10  32  1   
 21  10  33  1   
 22  11  14  1   
 23  11  34  1   
 24  12  15  1   
 25  12  35  1   
 26  12  36  1   
 27  13  15  1   
 28  13  37  1   
 29  13  38  1   
 30  14  16  1   
 31  14  17  1   
 32  14  39  1   
 33  15  18  1   
 34  16  17  1   
 35  16  40  1   
 36  16  41  1   
 37  17  42  1   
 38  17  43  1   
 39  18  19  ar  
 40  18  20  ar  
 41  19  21  ar  
 42  20  22  ar  
 43  20  23  1   
 44  21  24  ar  
 45  21  44  1   
 46  22  24  ar  
 47  22  25  1   
 48  23  45  1   
 49  23  46  1   
 50  23  47  1   
 51  25  48  1   
 52  25  49  1   
 53  25  50  1   
@<TRIPOS>SUBSTRUCTURE
  1 ****   6 GROUP 4 **** **** 0

# MOE 2024.06 (io_trps.svl 2023.06)
