@<TRIPOS>MOLECULE
NONAME
40 41 1 0 0 
SMALL
USER_CHARGES


@<TRIPOS>ATOM
  1 O        2.7710     7.1180     2.6840 O.co2 1 <1>  -0.9000 
  2 C        3.1830     7.0810     1.5170 C.2   1 <1>   1.0320 
  3 O        3.5820     8.1460     0.9920 O.co2 1 <1>  -0.9000 
  4 C        3.3890     5.8280     0.8180 C.2   1 <1>  -0.0920 
  5 O        4.0460     5.8340    -0.3330 O.3   1 <1>  -0.2800 
  6 C        3.0930     4.5350     1.1220 C.2   1 <1>  -0.1500 
  7 C        4.2360     4.6040    -0.7470 C.2   1 <1>  -0.0400 
  8 C        3.6470     3.7410     0.1090 C.2   1 <1>  -0.1500 
  9 C        5.0730     4.4390    -2.0040 C.3   1 <1>   0.3200 
 10 N        6.2380     5.3460    -1.8450 N.am  1 <1>  -0.7300 
 11 C        6.1610     6.6320    -2.2930 C.2   1 <1>   0.5690 
 12 O        5.6310     6.8950    -3.3440 O.2   1 <1>  -0.5700 
 13 C        6.6990     7.8090    -1.4540 C.3   1 <1>   0.4040 
 14 N        6.0590     8.0190    -0.0990 N.4   1 <1>  -0.9590 
 15 C        6.0510     9.4370     0.3460 C.3   1 <1>   0.5240 
 16 C        6.5640     7.1290     0.9810 C.3   1 <1>   0.2630 
 17 C        7.4610     9.8820     0.6890 C.2   1 <1>  -0.1810 
 18 C        8.0650     9.9560     1.8980 C.2   1 <1>  -0.3320 
 19 C        8.4240    10.3150    -0.2170 C.2   1 <1>   0.1390 
 20 N        9.3210    10.4010     1.6740 N.pl3 1 <1>   0.3000 
 21 C        7.5230     9.6440     3.2850 C.3   1 <1>  -0.0600 
 22 N        9.5430    10.6110     0.3630 N.2   1 <1>  -0.7070 
 23 H        2.5560     4.1870     1.9880 H     1 <1>   0.1500 
 24 H        3.6040     2.6670     0.0710 H     1 <1>   0.1500 
 25 H        4.4920     4.7210    -2.8670 H     1 <1>   0.0800 
 26 H        5.4010     3.4210    -2.1170 H     1 <1>   0.0800 
 27 H        6.7400     5.1490    -0.9820 H     1 <1>   0.3700 
 28 H        6.5370     8.6920    -2.0470 H     1 <1>   0.0800 
 29 H        7.7610     7.6920    -1.3350 H     1 <1>   0.0800 
 30 H        5.0240     7.8170    -0.1430 H     1 <1>   0.4500 
 31 H        5.4230     9.5300     1.2180 H     1 <1>   0.0800 
 32 H        5.6340    10.0650    -0.4230 H     1 <1>   0.0800 
 33 H        7.6160     7.2920     1.1450 H     1 <1>   0.0800 
 34 H        6.3910     6.0970     0.7260 H     1 <1>   0.0800 
 35 H        6.0310     7.3380     1.8970 H     1 <1>   0.0800 
 36 H        8.2810    10.4040    -1.2810 H     1 <1>   0.1500 
 37 H       10.0420    10.5790     2.3850 H     1 <1>   0.2700 
 38 H        6.4930     9.3340     3.2350 H     1 <1>   0.0800 
 39 H        7.5770    10.5190     3.9090 H     1 <1>   0.0800 
 40 H        8.0940     8.8560     3.7430 H     1 <1>   0.0800 
@<TRIPOS>BOND
  1   1   2  ar  
  2   2   3  ar  
  3   2   4  1   
  4   4   5  1   
  5   4   6  2   
  6   5   7  1   
  7   6   8  1   
  8   6  23  1   
  9   7   8  2   
 10   7   9  1   
 11   8  24  1   
 12   9  10  1   
 13   9  25  1   
 14   9  26  1   
 15  10  11  am  
 16  10  27  1   
 17  11  12  2   
 18  11  13  1   
 19  13  14  1   
 20  13  28  1   
 21  13  29  1   
 22  14  15  1   
 23  14  16  1   
 24  14  30  1   
 25  15  17  1   
 26  15  31  1   
 27  15  32  1   
 28  16  33  1   
 29  16  34  1   
 30  16  35  1   
 31  17  18  2   
 32  17  19  1   
 33  18  20  1   
 34  18  21  1   
 35  19  22  2   
 36  19  36  1   
 37  20  22  1   
 38  20  37  1   
 39  21  38  1   
 40  21  39  1   
 41  21  40  1   
@<TRIPOS>SUBSTRUCTURE
  1 ****  14 GROUP 4 **** **** 0

# MOE 2024.06 (io_trps.svl 2023.06)
