@<TRIPOS>MOLECULE
NONAME
45 46 1 0 0 
SMALL
USER_CHARGES


@<TRIPOS>ATOM
  1 O       -0.4590    -0.4630     1.0060 O.2   1 <1>  -0.5700 
  2 C       -0.4940    -1.3840     0.2120 C.2   1 <1>   0.5440 
  3 N        0.4220    -1.3990    -0.8050 N.am  1 <1>  -0.7300 
  4 C       -1.4930    -2.4230     0.3340 C.ar  1 <1>   0.0860 
  5 C        1.4940    -0.4040    -1.0010 C.3   1 <1>   0.1400 
  6 C       -2.6390    -2.2180     1.1010 C.ar  1 <1>   0.1600 
  7 C       -1.3810    -3.6650    -0.2870 C.ar  1 <1>  -0.1500 
  8 C        2.7310    -1.1200    -1.5290 C.3   1 <1>  -0.2400 
  9 N       -3.6290    -3.0780     1.2750 N.ar  1 <1>  -0.6200 
 10 C       -2.3970    -4.5730    -0.1150 C.ar  1 <1>  -0.1500 
 11 C       -3.5040    -4.2440     0.6650 C.ar  1 <1>   0.4100 
 12 N       -4.5690    -5.0600     0.8880 N.pl3 1 <1>  -0.8690 
 13 C       -5.1190    -6.0730    -0.0570 C.3   1 <1>   0.4690 
 14 C       -4.1670    -7.2780    -0.1770 C.2   1 <1>   0.0060 
 15 C       -5.5550    -5.4270    -1.4050 C.3   1 <1>  -0.0800 
 16 N       -3.6400    -7.7210    -1.2820 N.2   1 <1>  -0.5650 
 17 N       -3.7840    -7.9960     0.9130 N.pl3 1 <1>   0.0480 
 18 C       -6.3240    -4.0990    -1.2340 C.3   1 <1>  -0.2400 
 19 C       -6.4510    -6.3750    -2.2280 C.3   1 <1>  -0.2400 
 20 C       -2.8940    -8.7700    -0.8990 C.2   1 <1>   0.0770 
 21 C       -2.9690    -8.9520     0.4350 C.2   1 <1>  -0.3020 
 22 C       -4.1230    -7.7890     2.3340 C.3   1 <1>   0.0160 
 23 H        0.3320    -2.0910    -1.5490 H     1 <1>   0.3700 
 24 H        1.7200     0.0830    -0.0650 H     1 <1>   0.0800 
 25 H        1.1640     0.3430    -1.7030 H     1 <1>   0.0800 
 26 H       -2.7380    -1.2680     1.6000 H     1 <1>   0.1500 
 27 H       -0.5210    -3.9180    -0.8800 H     1 <1>   0.1500 
 28 H        3.0580    -1.8630    -0.8240 H     1 <1>   0.0800 
 29 H        3.5260    -0.4090    -1.6650 H     1 <1>   0.0800 
 30 H        2.5240    -1.5850    -2.4760 H     1 <1>   0.0800 
 31 H       -2.3350    -5.5360    -0.5810 H     1 <1>   0.1500 
 32 H       -5.3050    -4.5360     1.3630 H     1 <1>   0.4000 
 33 H       -6.0180    -6.4510     0.3970 H     1 <1>   0.0800 
 34 H       -4.6650    -5.2310    -1.9790 H     1 <1>   0.0800 
 35 H       -7.1900    -4.2380    -0.6120 H     1 <1>   0.0800 
 36 H       -6.6450    -3.7270    -2.1910 H     1 <1>   0.0800 
 37 H       -5.6990    -3.3450    -0.7910 H     1 <1>   0.0800 
 38 H       -7.3630    -6.5930    -1.7010 H     1 <1>   0.0800 
 39 H       -5.9480    -7.3030    -2.4320 H     1 <1>   0.0800 
 40 H       -6.7010    -5.9260    -3.1730 H     1 <1>   0.0800 
 41 H       -2.3330    -9.3490    -1.6140 H     1 <1>   0.1500 
 42 H       -2.4950    -9.6930     1.0530 H     1 <1>   0.1500 
 43 H       -5.1830    -7.6500     2.4360 H     1 <1>   0.0800 
 44 H       -3.6100    -6.9140     2.6930 H     1 <1>   0.0800 
 45 H       -3.8170    -8.6440     2.9070 H     1 <1>   0.0800 
@<TRIPOS>BOND
  1   1   2  2   
  2   2   3  am  
  3   2   4  1   
  4   3   5  1   
  5   3  23  1   
  6   4   6  ar  
  7   4   7  ar  
  8   5   8  1   
  9   5  24  1   
 10   5  25  1   
 11   6   9  ar  
 12   6  26  1   
 13   7  10  ar  
 14   7  27  1   
 15   8  28  1   
 16   8  29  1   
 17   8  30  1   
 18   9  11  ar  
 19  10  11  ar  
 20  10  31  1   
 21  11  12  1   
 22  12  13  1   
 23  12  32  1   
 24  13  14  1   
 25  13  15  1   
 26  13  33  1   
 27  14  16  2   
 28  14  17  1   
 29  15  18  1   
 30  15  19  1   
 31  15  34  1   
 32  16  20  1   
 33  17  21  1   
 34  17  22  1   
 35  18  35  1   
 36  18  36  1   
 37  18  37  1   
 38  19  38  1   
 39  19  39  1   
 40  19  40  1   
 41  20  21  2   
 42  20  41  1   
 43  21  42  1   
 44  22  43  1   
 45  22  44  1   
 46  22  45  1   
@<TRIPOS>SUBSTRUCTURE
  1 ****  10 GROUP 4 **** **** 0

# MOE 2024.06 (io_trps.svl 2023.06)
