@<TRIPOS>MOLECULE
NONAME
48 50 1 0 0 
SMALL
USER_CHARGES


@<TRIPOS>ATOM
  1 CL      -0.6860    -0.2320     0.6350 Cl    1 <1>  -0.1770 
  2 C       -2.2000    -1.0640     0.3610 C.ar  1 <1>   0.1770 
  3 C       -2.2110    -2.4300     0.1190 C.ar  1 <1>  -0.1440 
  4 C       -3.3640    -0.3230     0.3940 C.ar  1 <1>  -0.1500 
  5 C       -3.4340    -3.0470    -0.0940 C.ar  1 <1>  -0.1500 
  6 C       -0.9230    -3.2390     0.0870 C.3   1 <1>  -0.0960 
  7 C       -4.5900    -0.9380     0.1830 C.ar  1 <1>   0.1170 
  8 C       -4.6050    -2.3090    -0.0640 C.ar  1 <1>  -0.1500 
  9 N       -5.7540    -0.1580     0.2060 N.am  1 <1>  -0.5470 
 10 C       -7.0540    -0.4850     0.4650 C.2   1 <1>   0.6900 
 11 O       -7.3440    -1.5860     0.8950 O.2   1 <1>  -0.5700 
 12 N       -8.0260     0.4630     0.2570 N.am  1 <1>  -0.6600 
 13 C       -9.4120     0.2760     0.7900 C.3   1 <1>   0.1400 
 14 C       -7.8870     1.6420    -0.6420 C.3   1 <1>   0.1400 
 15 C      -10.4390     0.1220    -0.3600 C.3   1 <1>   0.0000 
 16 C       -8.8740     1.5240    -1.8090 C.3   1 <1>  -0.1600 
 17 C      -11.8700    -0.0230     0.1860 C.3   1 <1>   0.2000 
 18 C      -10.3190     1.3260    -1.3200 C.3   1 <1>  -0.1600 
 19 C      -10.2460    -1.2240    -1.0800 C.3   1 <1>  -0.1600 
 20 O      -12.0980     0.8390     1.2620 O.3   1 <1>  -0.5600 
 21 C      -12.0080    -1.4910     0.6040 C.3   1 <1>  -0.1600 
 22 C      -10.9550    -2.2610    -0.2050 C.3   1 <1>  -0.1600 
 23 C      -13.4350     0.9890     1.6210 C.3   1 <1>   0.0400 
 24 H       -3.3090     0.7310     0.5880 H     1 <1>   0.1500 
 25 H       -3.4850    -4.1050    -0.2850 H     1 <1>   0.1500 
 26 H       -1.1240    -4.2770    -0.1120 H     1 <1>   0.0800 
 27 H       -0.4200    -3.1650     1.0340 H     1 <1>   0.0800 
 28 H       -0.2730    -2.8630    -0.6820 H     1 <1>   0.0800 
 29 H       -5.5430    -2.8070    -0.2360 H     1 <1>   0.1500 
 30 H       -5.6180     0.8430     0.1370 H     1 <1>   0.3700 
 31 H       -9.4540    -0.5780     1.4430 H     1 <1>   0.0800 
 32 H       -9.6610     1.1390     1.3820 H     1 <1>   0.0800 
 33 H       -8.0970     2.5340    -0.0780 H     1 <1>   0.0800 
 34 H       -6.8890     1.7160    -1.0350 H     1 <1>   0.0800 
 35 H       -8.8190     2.4150    -2.4080 H     1 <1>   0.0800 
 36 H       -8.5810     0.6960    -2.4300 H     1 <1>   0.0800 
 37 H      -12.5720     0.2010    -0.6000 H     1 <1>   0.0800 
 38 H      -10.9710     1.1950    -2.1650 H     1 <1>   0.0800 
 39 H      -10.6350     2.2140    -0.7990 H     1 <1>   0.0800 
 40 H      -10.7300    -1.1940    -2.0420 H     1 <1>   0.0800 
 41 H       -9.2110    -1.4760    -1.2290 H     1 <1>   0.0800 
 42 H      -11.8010    -1.6000     1.6550 H     1 <1>   0.0800 
 43 H      -12.9960    -1.8530     0.3890 H     1 <1>   0.0800 
 44 H      -10.2420    -2.7110     0.4660 H     1 <1>   0.0800 
 45 H      -11.4000    -3.0360    -0.8060 H     1 <1>   0.0800 
 46 H      -13.4840     1.6870     2.4380 H     1 <1>   0.0800 
 47 H      -13.8320     0.0390     1.9350 H     1 <1>   0.0800 
 48 H      -13.9880     1.3740     0.7820 H     1 <1>   0.0800 
@<TRIPOS>BOND
  1   1   2  1   
  2   2   3  ar  
  3   2   4  ar  
  4   3   5  ar  
  5   3   6  1   
  6   4   7  ar  
  7   4  24  1   
  8   5   8  ar  
  9   5  25  1   
 10   6  26  1   
 11   6  27  1   
 12   6  28  1   
 13   7   8  ar  
 14   7   9  1   
 15   8  29  1   
 16   9  10  am  
 17   9  30  1   
 18  10  11  2   
 19  10  12  am  
 20  12  13  1   
 21  12  14  1   
 22  13  15  1   
 23  13  31  1   
 24  13  32  1   
 25  14  16  1   
 26  14  33  1   
 27  14  34  1   
 28  15  17  1   
 29  15  18  1   
 30  15  19  1   
 31  16  18  1   
 32  16  35  1   
 33  16  36  1   
 34  17  20  1   
 35  17  21  1   
 36  17  37  1   
 37  18  38  1   
 38  18  39  1   
 39  19  22  1   
 40  19  40  1   
 41  19  41  1   
 42  20  23  1   
 43  21  22  1   
 44  21  42  1   
 45  21  43  1   
 46  22  44  1   
 47  22  45  1   
 48  23  46  1   
 49  23  47  1   
 50  23  48  1   
@<TRIPOS>SUBSTRUCTURE
  1 ****  10 GROUP 4 **** **** 0

# MOE 2024.06 (io_trps.svl 2023.06)
