@<TRIPOS>MOLECULE
NONAME
59 62 1 0 0 
SMALL
USER_CHARGES


@<TRIPOS>ATOM
  1 O       -3.0300     0.6250     1.2800 O.2   1 <1>  -0.5700 
  2 C       -3.0030     1.5110     0.4570 C.2   1 <1>   0.5690 
  3 N       -3.4630     1.2740    -0.8030 N.am  1 <1>  -0.6600 
  4 C       -2.5150     2.8950     0.8390 C.3   1 <1>  -0.0990 
  5 C       -4.9170     1.5190    -1.0520 C.3   1 <1>   0.1400 
  6 C       -2.9830     0.0290    -1.4880 C.3   1 <1>   0.1400 
  7 C       -1.0850     3.1490     0.3380 C.3   1 <1>  -0.1600 
  8 C       -5.7850     0.3370    -0.5310 C.3   1 <1>   0.4230 
  9 C       -3.9420    -1.1690    -1.2710 C.3   1 <1>   0.3430 
 10 C       -0.5800     4.5420     0.7380 C.3   1 <1>   0.0210 
 11 N       -4.9460    -0.8770    -0.1880 N.4   1 <1>  -0.9590 
 12 C       -6.8990    -0.0300    -1.5370 C.3   1 <1>   0.1200 
 13 C        0.8260     4.8200     0.2320 C.2   1 <1>  -0.1810 
 14 C       -5.8180    -2.0170     0.2400 C.3   1 <1>   0.4230 
 15 O       -7.6520    -1.1120    -1.0690 O.3   1 <1>  -0.5600 
 16 C        1.4930     6.0470     0.4500 C.ar  1 <1>   0.0000 
 17 C        1.6660     4.0220    -0.4730 C.2   1 <1>  -0.3020 
 18 C       -6.9270    -2.2840    -0.8070 C.3   1 <1>   0.1200 
 19 C       -4.9710    -3.2610     0.5520 C.3   1 <1>  -0.1600 
 20 C        2.7420     5.9320    -0.1520 C.ar  1 <1>  -0.1520 
 21 C        1.1510     7.2390     1.1000 C.ar  1 <1>  -0.1500 
 22 N        2.8350     4.6860    -0.7130 N.pl3 1 <1>   0.0330 
 23 C       -5.7600    -4.3300     1.3250 C.3   1 <1>  -0.1600 
 24 C        3.6580     6.9860    -0.1170 C.ar  1 <1>  -0.1500 
 25 C        2.0530     8.2770     1.1340 C.ar  1 <1>  -0.1500 
 26 C       -4.8610    -5.5150     1.6870 C.3   1 <1>  -0.2400 
 27 C        3.3070     8.1510     0.5250 C.ar  1 <1>  -0.1500 
 28 H       -3.1810     3.6300     0.4250 H     1 <1>   0.0800 
 29 H       -2.5430     2.9850     1.9110 H     1 <1>   0.0800 
 30 H       -5.2260     2.4270    -0.5620 H     1 <1>   0.0800 
 31 H       -5.0700     1.6610    -2.1080 H     1 <1>   0.0800 
 32 H       -2.8660     0.2160    -2.5410 H     1 <1>   0.0800 
 33 H       -2.0110    -0.2330    -1.1020 H     1 <1>   0.0800 
 34 H       -0.4250     2.4050     0.7520 H     1 <1>   0.0800 
 35 H       -1.0600     3.0620    -0.7350 H     1 <1>   0.0800 
 36 H       -6.2750     0.6730     0.3680 H     1 <1>   0.0800 
 37 H       -3.3530    -2.0330    -1.0120 H     1 <1>   0.0800 
 38 H       -4.4540    -1.3860    -2.1930 H     1 <1>   0.0800 
 39 H       -0.5800     4.6320     1.8100 H     1 <1>   0.0800 
 40 H       -1.2390     5.2930     0.3390 H     1 <1>   0.0800 
 41 H       -4.3630    -0.5740     0.6220 H     1 <1>   0.4500 
 42 H       -6.4920    -0.2870    -2.5000 H     1 <1>   0.0800 
 43 H       -7.5740     0.8000    -1.6630 H     1 <1>   0.0800 
 44 H       -6.3140    -1.7330     1.1540 H     1 <1>   0.0800 
 45 H        1.5110     3.0170    -0.8220 H     1 <1>   0.1500 
 46 H       -7.6250    -3.0110    -0.4330 H     1 <1>   0.0800 
 47 H       -6.5140    -2.6510    -1.7300 H     1 <1>   0.0800 
 48 H       -4.6020    -3.7000    -0.3580 H     1 <1>   0.0800 
 49 H       -4.1320    -2.9660     1.1580 H     1 <1>   0.0800 
 50 H        0.1860     7.3250     1.5640 H     1 <1>   0.1500 
 51 H        3.6480     4.3270    -1.2210 H     1 <1>   0.2700 
 52 H       -6.1600    -3.9080     2.2330 H     1 <1>   0.0800 
 53 H       -6.5850    -4.6950     0.7360 H     1 <1>   0.0800 
 54 H        4.6190     6.8800    -0.5870 H     1 <1>   0.1500 
 55 H        1.8020     9.1980     1.6300 H     1 <1>   0.1500 
 56 H       -4.0420    -5.1970     2.3090 H     1 <1>   0.0800 
 57 H       -4.4640    -5.9790     0.8010 H     1 <1>   0.0800 
 58 H       -5.4270    -6.2540     2.2290 H     1 <1>   0.0800 
 59 H        3.9950     8.9780     0.5660 H     1 <1>   0.1500 
@<TRIPOS>BOND
  1   1   2  2   
  2   2   3  am  
  3   2   4  1   
  4   3   5  1   
  5   3   6  1   
  6   4   7  1   
  7   4  28  1   
  8   4  29  1   
  9   5   8  1   
 10   5  30  1   
 11   5  31  1   
 12   6   9  1   
 13   6  32  1   
 14   6  33  1   
 15   7  10  1   
 16   7  34  1   
 17   7  35  1   
 18   8  11  1   
 19   8  12  1   
 20   8  36  1   
 21   9  11  1   
 22   9  37  1   
 23   9  38  1   
 24  10  13  1   
 25  10  39  1   
 26  10  40  1   
 27  11  14  1   
 28  11  41  1   
 29  12  15  1   
 30  12  42  1   
 31  12  43  1   
 32  13  16  1   
 33  13  17  2   
 34  14  18  1   
 35  14  19  1   
 36  14  44  1   
 37  15  18  1   
 38  16  20  ar  
 39  16  21  ar  
 40  17  22  1   
 41  17  45  1   
 42  18  46  1   
 43  18  47  1   
 44  19  23  1   
 45  19  48  1   
 46  19  49  1   
 47  20  22  1   
 48  20  24  ar  
 49  21  25  ar  
 50  21  50  1   
 51  22  51  1   
 52  23  26  1   
 53  23  52  1   
 54  23  53  1   
 55  24  27  ar  
 56  24  54  1   
 57  25  27  ar  
 58  25  55  1   
 59  26  56  1   
 60  26  57  1   
 61  26  58  1   
 62  27  59  1   
@<TRIPOS>SUBSTRUCTURE
  1 ****   2 GROUP 4 **** **** 0

# MOE 2024.06 (io_trps.svl 2023.06)
