@<TRIPOS>MOLECULE
NONAME
49 51 1 0 0 
SMALL
USER_CHARGES


@<TRIPOS>ATOM
  1 O       -2.1150     0.9730    -1.9820 O.2   1 <1>  -0.5700 
  2 C       -1.8110     0.8300    -0.8220 C.2   1 <1>   0.5690 
  3 N       -2.0690    -0.3360    -0.1690 N.am  1 <1>  -0.7300 
  4 C       -1.0990     1.9890    -0.0680 C.3   1 <1>   0.3410 
  5 C       -2.6700    -1.5480    -0.7740 C.3   1 <1>   0.2200 
  6 O       -1.3720     1.9170     1.3060 O.3   1 <1>  -0.6800 
  7 C        0.4250     1.8780    -0.2290 C.3   1 <1>  -0.1600 
  8 C       -1.5630     3.3880    -0.5330 C.3   1 <1>  -0.1600 
  9 C       -3.9590    -1.8840    -0.0390 C.3   1 <1>  -0.0800 
 10 C       -1.8030    -2.7510    -0.4300 C.3   1 <1>   0.1200 
 11 C        1.2120     2.9770     0.4970 C.3   1 <1>   0.3430 
 12 C       -0.5880     4.5230    -0.1940 C.3   1 <1>   0.3430 
 13 C       -3.4660    -2.7290     1.1470 C.3   1 <1>   0.1200 
 14 C       -4.9360    -2.6630    -0.9420 C.3   1 <1>  -0.0170 
 15 O       -2.1330    -3.0630     0.8870 O.3   1 <1>  -0.5600 
 16 N        0.3260     4.1080     0.9020 N.4   1 <1>  -0.9590 
 17 C       -6.2310    -2.9840    -0.2110 C.ar  1 <1>  -0.1440 
 18 C        1.0950     5.2500     1.4770 C.3   1 <1>   0.2630 
 19 C       -6.5150    -4.2510     0.2580 C.ar  1 <1>  -0.1500 
 20 C       -7.1920    -2.0210     0.0190 C.ar  1 <1>  -0.1500 
 21 C       -7.7080    -4.4840     0.9220 C.ar  1 <1>   0.1600 
 22 C       -8.3530    -2.3580     0.6940 C.ar  1 <1>   0.1600 
 23 N       -8.6330    -3.5670     1.1540 N.ar  1 <1>  -0.6200 
 24 H       -1.7180    -0.4910     0.7820 H     1 <1>   0.3700 
 25 H       -2.7990    -1.4240    -1.8370 H     1 <1>   0.0800 
 26 H       -2.3130     1.6680     1.4350 H     1 <1>   0.4000 
 27 H        0.7600     0.9140     0.1110 H     1 <1>   0.0800 
 28 H        0.6610     1.9290    -1.2770 H     1 <1>   0.0800 
 29 H       -1.6730     3.3940    -1.6030 H     1 <1>   0.0800 
 30 H       -2.5360     3.6040    -0.1310 H     1 <1>   0.0800 
 31 H       -4.4520    -0.9930     0.3060 H     1 <1>   0.0800 
 32 H       -0.7500    -2.5440    -0.5030 H     1 <1>   0.0800 
 33 H       -2.0540    -3.5980    -1.0440 H     1 <1>   0.0800 
 34 H        2.0000     3.3340    -0.1460 H     1 <1>   0.0800 
 35 H        1.6660     2.5560     1.3800 H     1 <1>   0.0800 
 36 H       -1.1470     5.3990     0.0950 H     1 <1>   0.0800 
 37 H       -0.0060     4.7700    -1.0680 H     1 <1>   0.0800 
 38 H       -4.0260    -3.6380     1.2730 H     1 <1>   0.0800 
 39 H       -3.4910    -2.1660     2.0630 H     1 <1>   0.0800 
 40 H       -4.4800    -3.5750    -1.2870 H     1 <1>   0.0800 
 41 H       -5.1700    -2.0700    -1.8100 H     1 <1>   0.0800 
 42 H       -0.2900     3.7000     1.6310 H     1 <1>   0.4500 
 43 H        1.7450     5.6780     0.7310 H     1 <1>   0.0800 
 44 H        1.6950     4.9160     2.3080 H     1 <1>   0.0800 
 45 H        0.4210     6.0150     1.8280 H     1 <1>   0.0800 
 46 H       -5.8230    -5.0610     0.1150 H     1 <1>   0.1500 
 47 H       -7.0510    -1.0110    -0.3200 H     1 <1>   0.1500 
 48 H       -7.9130    -5.4780     1.2810 H     1 <1>   0.1500 
 49 H       -9.0910    -1.5930     0.8650 H     1 <1>   0.1500 
@<TRIPOS>BOND
  1   1   2  2   
  2   2   3  am  
  3   2   4  1   
  4   3   5  1   
  5   3  24  1   
  6   4   6  1   
  7   4   7  1   
  8   4   8  1   
  9   5   9  1   
 10   5  10  1   
 11   5  25  1   
 12   6  26  1   
 13   7  11  1   
 14   7  27  1   
 15   7  28  1   
 16   8  12  1   
 17   8  29  1   
 18   8  30  1   
 19   9  13  1   
 20   9  14  1   
 21   9  31  1   
 22  10  15  1   
 23  10  32  1   
 24  10  33  1   
 25  11  16  1   
 26  11  34  1   
 27  11  35  1   
 28  12  16  1   
 29  12  36  1   
 30  12  37  1   
 31  13  15  1   
 32  13  38  1   
 33  13  39  1   
 34  14  17  1   
 35  14  40  1   
 36  14  41  1   
 37  16  18  1   
 38  16  42  1   
 39  17  19  ar  
 40  17  20  ar  
 41  18  43  1   
 42  18  44  1   
 43  18  45  1   
 44  19  21  ar  
 45  19  46  1   
 46  20  22  ar  
 47  20  47  1   
 48  21  23  ar  
 49  21  48  1   
 50  22  23  ar  
 51  22  49  1   
@<TRIPOS>SUBSTRUCTURE
  1 ****   3 GROUP 4 **** **** 0

# MOE 2024.06 (io_trps.svl 2023.06)
