@<TRIPOS>MOLECULE
NONAME
56 58 1 0 0 
SMALL
USER_CHARGES


@<TRIPOS>ATOM
  1 O        1.4090    -0.8130     1.7210 O.2   1 <1>  -0.5700 
  2 C        2.0440    -0.9710     0.6910 C.2   1 <1>   0.7150 
  3 N        3.2040    -0.2320     0.5220 N.am  1 <1>  -0.6600 
  4 C        1.5560    -1.9090    -0.3050 C.2   1 <1>   0.0550 
  5 C        4.2590    -0.5830    -0.4740 C.3   1 <1>   0.1400 
  6 C        3.4410     1.0220     1.2830 C.3   1 <1>   0.1400 
  7 O        1.7110    -1.6670    -1.6080 O.3   1 <1>  -0.2800 
  8 C        0.8820    -3.0910    -0.1730 C.2   1 <1>  -0.1810 
  9 C        4.3380     0.4620    -1.5940 C.3   1 <1>   0.1400 
 10 C        3.0490     2.2210     0.4110 C.3   1 <1>  -0.1600 
 11 C        1.1670    -2.6440    -2.2940 C.2   1 <1>  -0.0100 
 12 C        0.6350    -3.5630    -1.4630 C.2   1 <1>  -0.1500 
 13 C        0.4470    -3.8150     1.0880 C.3   1 <1>  -0.0590 
 14 N        5.0280     1.7080    -1.1220 N.am  1 <1>  -0.6600 
 15 C        4.1650     2.7590    -0.4980 C.3   1 <1>   0.1400 
 16 C        6.3900     1.7990    -1.2720 C.2   1 <1>   0.5690 
 17 O        7.0580     0.8250    -1.5290 O.2   1 <1>  -0.5700 
 18 C        7.1500     3.1250    -1.1270 C.3   1 <1>  -0.0190 
 19 C        8.1030     3.3490    -2.3210 C.3   1 <1>  -0.1600 
 20 C        7.9430     3.1490     0.1940 C.3   1 <1>  -0.1600 
 21 C        8.9870     4.5780    -2.1360 C.3   1 <1>   0.3430 
 22 C        8.8490     4.3750     0.3120 C.3   1 <1>   0.3430 
 23 N        9.7590     4.4420    -0.8680 N.4   1 <1>  -0.9590 
 24 C       10.7600     5.5540    -0.7570 C.3   1 <1>   0.3430 
 25 C       11.8000     5.3170     0.3490 C.3   1 <1>   0.1200 
 26 O       12.6730     6.3900     0.3370 O.3   1 <1>  -0.6800 
 27 H        4.0570    -1.5460    -0.9050 H     1 <1>   0.0800 
 28 H        5.2130    -0.6550     0.0170 H     1 <1>   0.0800 
 29 H        4.4730     1.0840     1.5840 H     1 <1>   0.0800 
 30 H        2.8410     1.0250     2.1780 H     1 <1>   0.0800 
 31 H        3.3530     0.6870    -1.9620 H     1 <1>   0.0800 
 32 H        4.8960     0.0400    -2.4120 H     1 <1>   0.0800 
 33 H        2.7500     3.0230     1.0610 H     1 <1>   0.0800 
 34 H        2.1830     1.9710    -0.1770 H     1 <1>   0.0800 
 35 H        1.1990    -2.6120    -3.3700 H     1 <1>   0.1500 
 36 H        0.1210    -4.4740    -1.7130 H     1 <1>   0.1500 
 37 H        0.8370    -3.3300     1.9640 H     1 <1>   0.0800 
 38 H        0.8040    -4.8290     1.0710 H     1 <1>   0.0800 
 39 H       -0.6260    -3.8240     1.1510 H     1 <1>   0.0800 
 40 H        4.7780     3.4010     0.1070 H     1 <1>   0.0800 
 41 H        3.7250     3.3580    -1.2770 H     1 <1>   0.0800 
 42 H        6.4530     3.9410    -1.1290 H     1 <1>   0.0800 
 43 H        7.5210     3.4650    -3.2200 H     1 <1>   0.0800 
 44 H        8.7340     2.4890    -2.4640 H     1 <1>   0.0800 
 45 H        8.5460     2.2590     0.2710 H     1 <1>   0.0800 
 46 H        7.2560     3.1370     1.0220 H     1 <1>   0.0800 
 47 H        8.3770     5.4670    -2.1020 H     1 <1>   0.0800 
 48 H        9.6620     4.6610    -2.9730 H     1 <1>   0.0800 
 49 H        9.4230     4.3040     1.2230 H     1 <1>   0.0800 
 50 H        8.2470     5.2680     0.3610 H     1 <1>   0.0800 
 51 H       10.2670     3.5470    -0.9270 H     1 <1>   0.4500 
 52 H       10.2510     6.4830    -0.5610 H     1 <1>   0.0800 
 53 H       11.2900     5.6510    -1.6900 H     1 <1>   0.0800 
 54 H       12.3700     4.4230     0.1600 H     1 <1>   0.0800 
 55 H       11.3430     5.2750     1.3220 H     1 <1>   0.0800 
 56 H       13.3830     6.2930     1.0080 H     1 <1>   0.4000 
@<TRIPOS>BOND
  1   1   2  2   
  2   2   3  am  
  3   2   4  1   
  4   3   5  1   
  5   3   6  1   
  6   4   7  1   
  7   4   8  2   
  8   5   9  1   
  9   5  27  1   
 10   5  28  1   
 11   6  10  1   
 12   6  29  1   
 13   6  30  1   
 14   7  11  1   
 15   8  12  1   
 16   8  13  1   
 17   9  14  1   
 18   9  31  1   
 19   9  32  1   
 20  10  15  1   
 21  10  33  1   
 22  10  34  1   
 23  11  12  2   
 24  11  35  1   
 25  12  36  1   
 26  13  37  1   
 27  13  38  1   
 28  13  39  1   
 29  14  15  1   
 30  14  16  am  
 31  15  40  1   
 32  15  41  1   
 33  16  17  2   
 34  16  18  1   
 35  18  19  1   
 36  18  20  1   
 37  18  42  1   
 38  19  21  1   
 39  19  43  1   
 40  19  44  1   
 41  20  22  1   
 42  20  45  1   
 43  20  46  1   
 44  21  23  1   
 45  21  47  1   
 46  21  48  1   
 47  22  23  1   
 48  22  49  1   
 49  22  50  1   
 50  23  24  1   
 51  23  51  1   
 52  24  25  1   
 53  24  52  1   
 54  24  53  1   
 55  25  26  1   
 56  25  54  1   
 57  25  55  1   
 58  26  56  1   
@<TRIPOS>SUBSTRUCTURE
  1 ****  14 GROUP 4 **** **** 0

# MOE 2024.06 (io_trps.svl 2023.06)
