@<TRIPOS>MOLECULE
NONAME
16 16 1 0 0 
SMALL
USER_CHARGES


@<TRIPOS>ATOM
  1 O        0.2620    -0.7910     1.5330 O.co2 1 <1>  -0.9000 
  2 C        0.3750    -1.6080     0.5950 C.2   1 <1>   1.0320 
  3 O       -0.6720    -2.0330     0.0740 O.co2 1 <1>  -0.9000 
  4 C        1.6940    -1.9800     0.1060 C.2   1 <1>  -0.0460 
  5 N        2.1410    -3.1410    -0.3130 N.2   1 <1>  -0.5650 
  6 N        2.6830    -1.0710     0.0210 N.pl3 1 <1>   0.3140 
  7 C        3.3990    -2.8620    -0.6350 C.2   1 <1>   0.3660 
  8 N        3.7830    -1.6440    -0.4590 N.2   1 <1>  -0.7070 
  9 C        2.6690     0.3800     0.3320 C.3   1 <1>   0.0960 
 10 C        1.9130     1.1770    -0.7400 C.3   1 <1>  -0.2400 
 11 H        4.0470    -3.6310    -1.0220 H     1 <1>   0.1500 
 12 H        3.6880     0.7180     0.3800 H     1 <1>   0.0800 
 13 H        2.2260     0.5300     1.2990 H     1 <1>   0.0800 
 14 H        2.3550     1.0130    -1.7060 H     1 <1>   0.0800 
 15 H        1.9560     2.2260    -0.5100 H     1 <1>   0.0800 
 16 H        0.8790     0.8780    -0.7620 H     1 <1>   0.0800 
@<TRIPOS>BOND
  1   1   2  ar  
  2   2   3  ar  
  3   2   4  1   
  4   4   5  2   
  5   4   6  1   
  6   5   7  1   
  7   6   8  1   
  8   6   9  1   
  9   7   8  2   
 10   7  11  1   
 11   9  10  1   
 12   9  12  1   
 13   9  13  1   
 14  10  14  1   
 15  10  15  1   
 16  10  16  1   
@<TRIPOS>SUBSTRUCTURE
  1 ****   4 GROUP 4 **** **** 0

# MOE 2024.06 (io_trps.svl 2023.06)
