@<TRIPOS>MOLECULE
NONAME
48 50 1 0 0 
SMALL
USER_CHARGES


@<TRIPOS>ATOM
  1 F       -1.7680    -0.5650     1.5400 F     1 <1>  -0.1900 
  2 C       -1.4880    -1.7620     1.1090 C.ar  1 <1>   0.1900 
  3 C       -1.4770    -2.8110     2.0060 C.ar  1 <1>  -0.1500 
  4 C       -1.2150    -1.9420    -0.2330 C.ar  1 <1>  -0.1500 
  5 C       -1.2110    -4.0840     1.5330 C.ar  1 <1>  -0.1500 
  6 C       -0.9520    -3.2230    -0.6870 C.ar  1 <1>  -0.1500 
  7 C       -0.9740    -4.3230     0.1760 C.ar  1 <1>   0.0860 
  8 C       -0.7200    -5.6620    -0.3230 C.2   1 <1>   0.5440 
  9 O        0.3730    -5.8960    -0.8010 O.2   1 <1>  -0.5700 
 10 N       -1.6530    -6.6870    -0.2760 N.am  1 <1>  -0.6600 
 11 C       -3.1310    -6.5640    -0.4670 C.3   1 <1>   0.2200 
 12 C       -1.1740    -8.0990    -0.3190 C.3   1 <1>   0.0600 
 13 C       -3.5550    -5.5490    -1.5340 C.3   1 <1>  -0.1600 
 14 C       -3.8640    -6.2090     0.8260 C.3   1 <1>  -0.1600 
 15 C       -4.8540    -4.9060    -1.0320 C.3   1 <1>  -0.0800 
 16 C       -5.0560    -5.3300     0.4260 C.3   1 <1>  -0.0800 
 17 C       -4.8460    -3.3690    -1.0190 C.3   1 <1>  -0.1600 
 18 C       -5.1880    -4.0250     1.2290 C.3   1 <1>  -0.1600 
 19 C       -5.6420    -2.9630     0.2240 C.3   1 <1>   0.4230 
 20 N       -7.1170    -3.0650    -0.0270 N.4   1 <1>  -0.9590 
 21 C       -7.5830    -2.1460    -1.1150 C.3   1 <1>   0.2630 
 22 C       -7.9300    -2.7910     1.2020 C.3   1 <1>   0.2630 
 23 H       -1.6650    -2.6300     3.0500 H     1 <1>   0.1500 
 24 H       -1.2020    -1.0990    -0.9010 H     1 <1>   0.1500 
 25 H       -1.1760    -4.9140     2.2170 H     1 <1>   0.1500 
 26 H       -0.7180    -3.3880    -1.7260 H     1 <1>   0.1500 
 27 H       -3.5150    -7.5180    -0.7910 H     1 <1>   0.0800 
 28 H       -1.7630    -8.7110     0.3410 H     1 <1>   0.0800 
 29 H       -0.1450    -8.1580    -0.0070 H     1 <1>   0.0800 
 30 H       -1.2510    -8.4770    -1.3240 H     1 <1>   0.0800 
 31 H       -2.8010    -4.8120    -1.7110 H     1 <1>   0.0800 
 32 H       -3.7290    -6.0610    -2.4640 H     1 <1>   0.0800 
 33 H       -4.2040    -7.1060     1.3120 H     1 <1>   0.0800 
 34 H       -3.2130    -5.6970     1.5020 H     1 <1>   0.0800 
 35 H       -5.6820    -5.2650    -1.6200 H     1 <1>   0.0800 
 36 H       -5.9650    -5.9050     0.4990 H     1 <1>   0.0800 
 37 H       -5.1950    -2.9480    -1.9420 H     1 <1>   0.0800 
 38 H       -3.8400    -3.0190    -0.8710 H     1 <1>   0.0800 
 39 H       -4.2180    -3.7220     1.5820 H     1 <1>   0.0800 
 40 H       -5.8180    -4.1360     2.0900 H     1 <1>   0.0800 
 41 H       -5.3810    -1.9700     0.5530 H     1 <1>   0.0800 
 42 H       -7.2890    -4.0360    -0.3230 H     1 <1>   0.4500 
 43 H       -7.3290    -1.1250    -0.8780 H     1 <1>   0.0800 
 44 H       -8.6520    -2.2160    -1.2300 H     1 <1>   0.0800 
 45 H       -7.1280    -2.4060    -2.0570 H     1 <1>   0.0800 
 46 H       -7.7040    -1.8110     1.5910 H     1 <1>   0.0800 
 47 H       -7.7260    -3.5220     1.9670 H     1 <1>   0.0800 
 48 H       -8.9820    -2.8350     0.9700 H     1 <1>   0.0800 
@<TRIPOS>BOND
  1   1   2  1   
  2   2   3  ar  
  3   2   4  ar  
  4   3   5  ar  
  5   3  23  1   
  6   4   6  ar  
  7   4  24  1   
  8   5   7  ar  
  9   5  25  1   
 10   6   7  ar  
 11   6  26  1   
 12   7   8  1   
 13   8   9  2   
 14   8  10  am  
 15  10  11  1   
 16  10  12  1   
 17  11  13  1   
 18  11  14  1   
 19  11  27  1   
 20  12  28  1   
 21  12  29  1   
 22  12  30  1   
 23  13  15  1   
 24  13  31  1   
 25  13  32  1   
 26  14  16  1   
 27  14  33  1   
 28  14  34  1   
 29  15  16  1   
 30  15  17  1   
 31  15  35  1   
 32  16  18  1   
 33  16  36  1   
 34  17  19  1   
 35  17  37  1   
 36  17  38  1   
 37  18  19  1   
 38  18  39  1   
 39  18  40  1   
 40  19  20  1   
 41  19  41  1   
 42  20  21  1   
 43  20  22  1   
 44  20  42  1   
 45  21  43  1   
 46  21  44  1   
 47  21  45  1   
 48  22  46  1   
 49  22  47  1   
 50  22  48  1   
@<TRIPOS>SUBSTRUCTURE
  1 ****  15 GROUP 4 **** **** 0

# MOE 2024.06 (io_trps.svl 2023.06)
