@<TRIPOS>MOLECULE
NONAME
50 52 1 0 0 
SMALL
USER_CHARGES


@<TRIPOS>ATOM
  1 N        0.8410     0.7510     0.5240 N.2   1 <1>  -0.5650 
  2 C        0.7840     1.9990     0.8450 C.2   1 <1>   0.0060 
  3 C        0.6200     0.7380    -0.8010 C.2   1 <1>   0.0770 
  4 N        0.5470     2.8150    -0.2120 N.pl3 1 <1>   0.0480 
  5 C        0.9700     2.4720     2.2730 C.3   1 <1>  -0.0600 
  6 C        0.4420     1.9910    -1.2690 C.2   1 <1>  -0.3020 
  7 C        0.5290     4.2820    -0.2590 C.3   1 <1>   0.0960 
  8 C        1.9520     4.7470    -0.5860 C.3   1 <1>   0.3430 
  9 N        2.0650     6.2350    -0.7410 N.4   1 <1>  -0.9590 
 10 C        3.3930     6.5970    -1.3040 C.3   1 <1>   0.5230 
 11 C        1.7960     6.9900     0.5300 C.3   1 <1>   0.2630 
 12 C        3.3620     8.0670    -1.6380 C.2   1 <1>  -0.3320 
 13 N        4.2660     8.9930    -1.2270 N.pl3 1 <1>   0.0480 
 14 C        2.4540     8.7250    -2.3960 C.2   1 <1>   0.0770 
 15 C        3.8130    10.1520    -1.7570 C.2   1 <1>   0.0360 
 16 C        5.5090     8.8890    -0.4120 C.3   1 <1>   0.1760 
 17 N        2.7320    10.0310    -2.4540 N.2   1 <1>  -0.5650 
 18 C        6.5390     7.9560    -1.0750 C.3   1 <1>  -0.1600 
 19 C        5.1960     8.4670     1.0350 C.3   1 <1>  -0.1600 
 20 C        7.8150     7.8570    -0.2270 C.3   1 <1>  -0.1600 
 21 C        6.4820     8.3680     1.8680 C.3   1 <1>  -0.1600 
 22 C        7.4990     7.4260     1.2110 C.3   1 <1>  -0.1600 
 23 H        0.6010    -0.1890    -1.3530 H     1 <1>   0.1500 
 24 H        1.1260     1.6220     2.9150 H     1 <1>   0.0800 
 25 H        0.0900     2.9890     2.6110 H     1 <1>   0.0800 
 26 H        1.8250     3.1170     2.3510 H     1 <1>   0.0800 
 27 H        0.2460     2.3130    -2.2760 H     1 <1>   0.1500 
 28 H        0.2020     4.6560     0.6930 H     1 <1>   0.0800 
 29 H       -0.1600     4.5890    -1.0250 H     1 <1>   0.0800 
 30 H        2.2540     4.2710    -1.5060 H     1 <1>   0.0800 
 31 H        2.6160     4.4140     0.1950 H     1 <1>   0.0800 
 32 H        1.3870     6.5620    -1.4440 H     1 <1>   0.4500 
 33 H        3.5880     6.0320    -2.2020 H     1 <1>   0.0800 
 34 H        4.1710     6.3840    -0.5900 H     1 <1>   0.0800 
 35 H        2.5010     6.7060     1.2940 H     1 <1>   0.0800 
 36 H        0.7980     6.7900     0.8860 H     1 <1>   0.0800 
 37 H        1.8850     8.0520     0.3600 H     1 <1>   0.0800 
 38 H        1.5940     8.3390    -2.9200 H     1 <1>   0.1500 
 39 H        4.3230    11.0890    -1.6060 H     1 <1>   0.1500 
 40 H        5.9470     9.8720    -0.3720 H     1 <1>   0.0800 
 41 H        6.7950     8.3400    -2.0480 H     1 <1>   0.0800 
 42 H        6.1380     6.9680    -1.1950 H     1 <1>   0.0800 
 43 H        4.7120     7.5110     1.0540 H     1 <1>   0.0800 
 44 H        4.5440     9.1950     1.4880 H     1 <1>   0.0800 
 45 H        8.3090     8.8150    -0.2090 H     1 <1>   0.0800 
 46 H        8.4950     7.1520    -0.6750 H     1 <1>   0.0800 
 47 H        6.2500     8.0140     2.8580 H     1 <1>   0.0800 
 48 H        6.9210     9.3470     1.9690 H     1 <1>   0.0800 
 49 H        8.4090     7.4240     1.7890 H     1 <1>   0.0800 
 50 H        7.1150     6.4200     1.2100 H     1 <1>   0.0800 
@<TRIPOS>BOND
  1   1   2  2   
  2   1   3  1   
  3   2   4  1   
  4   2   5  1   
  5   3   6  2   
  6   3  23  1   
  7   4   6  1   
  8   4   7  1   
  9   5  24  1   
 10   5  25  1   
 11   5  26  1   
 12   6  27  1   
 13   7   8  1   
 14   7  28  1   
 15   7  29  1   
 16   8   9  1   
 17   8  30  1   
 18   8  31  1   
 19   9  10  1   
 20   9  11  1   
 21   9  32  1   
 22  10  12  1   
 23  10  33  1   
 24  10  34  1   
 25  11  35  1   
 26  11  36  1   
 27  11  37  1   
 28  12  13  1   
 29  12  14  2   
 30  13  15  1   
 31  13  16  1   
 32  14  17  1   
 33  14  38  1   
 34  15  17  2   
 35  15  39  1   
 36  16  18  1   
 37  16  19  1   
 38  16  40  1   
 39  18  20  1   
 40  18  41  1   
 41  18  42  1   
 42  19  21  1   
 43  19  43  1   
 44  19  44  1   
 45  20  22  1   
 46  20  45  1   
 47  20  46  1   
 48  21  22  1   
 49  21  47  1   
 50  21  48  1   
 51  22  49  1   
 52  22  50  1   
@<TRIPOS>SUBSTRUCTURE
  1 ****  10 GROUP 4 **** **** 0

# MOE 2024.06 (io_trps.svl 2023.06)
