@<TRIPOS>MOLECULE
NONAME
44 46 1 0 0 
SMALL
USER_CHARGES


@<TRIPOS>ATOM
  1 O        0.5010    -0.4250    -0.1280 O.2   1 <1>  -0.5700 
  2 C        1.1540    -1.4210     0.0380 C.2   1 <1>   0.5690 
  3 N        0.6900    -2.4580     0.7640 N.am  1 <1>  -0.7300 
  4 C        2.5390    -1.5440    -0.5540 C.3   1 <1>  -0.0990 
  5 C        1.4780    -3.6640     1.0820 C.3   1 <1>   0.1400 
  6 C        2.7560    -2.9630    -1.1120 C.3   1 <1>  -0.0800 
  7 C        2.3500    -4.0860    -0.1250 C.3   1 <1>  -0.0800 
  8 C        4.2190    -3.2230    -1.5090 C.3   1 <1>  -0.1600 
  9 C        3.6630    -4.7590     0.2900 C.3   1 <1>  -0.1600 
 10 C        4.5610    -4.5940    -0.9330 C.3   1 <1>   0.4230 
 11 N        6.0280    -4.7970    -0.7020 N.4   1 <1>  -0.9590 
 12 C        6.6280    -4.2880     0.5780 C.3   1 <1>   0.4860 
 13 C        6.3650    -6.2430    -0.8740 C.3   1 <1>   0.2630 
 14 C        6.7260    -2.7760     0.5720 C.ar  1 <1>  -0.1440 
 15 C        7.5950    -2.0890    -0.2750 C.ar  1 <1>   0.1670 
 16 C        5.9210    -2.0510     1.4330 C.ar  1 <1>  -0.1500 
 17 N        7.6600    -0.7740    -0.3450 N.ar  1 <1>  -0.6200 
 18 C        8.5670    -2.7850    -1.2160 C.3   1 <1>  -0.0970 
 19 C        6.0030    -0.6780     1.3720 C.ar  1 <1>  -0.1500 
 20 C        6.8740    -0.0950     0.4720 C.ar  1 <1>   0.1600 
 21 H       -0.2350    -2.3480     1.1890 H     1 <1>   0.3700 
 22 H        2.6560    -0.8150    -1.3360 H     1 <1>   0.0800 
 23 H        3.2480    -1.3230     0.2220 H     1 <1>   0.0800 
 24 H        2.0950    -3.4390     1.9360 H     1 <1>   0.0800 
 25 H        0.8140    -4.4680     1.3530 H     1 <1>   0.0800 
 26 H        2.1320    -3.0580    -1.9870 H     1 <1>   0.0800 
 27 H        1.7780    -4.8060    -0.6880 H     1 <1>   0.0800 
 28 H        4.8440    -2.4480    -1.1110 H     1 <1>   0.0800 
 29 H        4.3190    -3.2260    -2.5800 H     1 <1>   0.0800 
 30 H        3.5080    -5.7940     0.5370 H     1 <1>   0.0800 
 31 H        4.0560    -4.2360     1.1390 H     1 <1>   0.0800 
 32 H        4.2280    -5.3130    -1.6650 H     1 <1>   0.0800 
 33 H        6.4920    -4.2660    -1.4500 H     1 <1>   0.4500 
 34 H        6.0470    -4.6180     1.4230 H     1 <1>   0.0800 
 35 H        7.6220    -4.6870     0.6960 H     1 <1>   0.0800 
 36 H        5.8880    -6.8340    -0.1080 H     1 <1>   0.0800 
 37 H        7.4310    -6.3920    -0.8120 H     1 <1>   0.0800 
 38 H        6.0290    -6.5940    -1.8370 H     1 <1>   0.0800 
 39 H        5.2470    -2.5140     2.1330 H     1 <1>   0.1500 
 40 H        8.7540    -3.8050    -0.9480 H     1 <1>   0.0800 
 41 H        9.5100    -2.2660    -1.1920 H     1 <1>   0.0800 
 42 H        8.1930    -2.7350    -2.2230 H     1 <1>   0.0800 
 43 H        5.4010    -0.0580     2.0130 H     1 <1>   0.1500 
 44 H        6.9310     0.9800     0.4230 H     1 <1>   0.1500 
@<TRIPOS>BOND
  1   1   2  2   
  2   2   3  am  
  3   2   4  1   
  4   3   5  1   
  5   3  21  1   
  6   4   6  1   
  7   4  22  1   
  8   4  23  1   
  9   5   7  1   
 10   5  24  1   
 11   5  25  1   
 12   6   7  1   
 13   6   8  1   
 14   6  26  1   
 15   7   9  1   
 16   7  27  1   
 17   8  10  1   
 18   8  28  1   
 19   8  29  1   
 20   9  10  1   
 21   9  30  1   
 22   9  31  1   
 23  10  11  1   
 24  10  32  1   
 25  11  12  1   
 26  11  13  1   
 27  11  33  1   
 28  12  14  1   
 29  12  34  1   
 30  12  35  1   
 31  13  36  1   
 32  13  37  1   
 33  13  38  1   
 34  14  15  ar  
 35  14  16  ar  
 36  15  17  ar  
 37  15  18  1   
 38  16  19  ar  
 39  16  39  1   
 40  17  20  ar  
 41  18  40  1   
 42  18  41  1   
 43  18  42  1   
 44  19  20  ar  
 45  19  43  1   
 46  20  44  1   
@<TRIPOS>SUBSTRUCTURE
  1 ****   8 GROUP 4 **** **** 0

# MOE 2024.06 (io_trps.svl 2023.06)
