@<TRIPOS>MOLECULE
NONAME
49 50 1 0 0 
SMALL
USER_CHARGES


@<TRIPOS>ATOM
  1 S        0.3800     0.6700    -1.3020 S.o2  1 <1>   1.3330 
  2 O        0.5070    -0.5020    -2.1390 O.2   1 <1>  -0.6500 
  3 O       -0.5450     1.7180    -1.6740 O.2   1 <1>  -0.6500 
  4 N       -0.0730     0.1440     0.2500 N.am  1 <1>  -0.8490 
  5 C        2.0120     1.3730    -1.0640 C.3   1 <1>  -0.0550 
  6 C       -0.5410     1.2320     1.1160 C.3   1 <1>   0.1160 
  7 C       -1.0810    -0.9180     0.1980 C.3   1 <1>   0.1160 
  8 C        3.1140     0.3650    -0.6710 C.3   1 <1>  -0.0800 
  9 C        4.5220     0.9460    -0.6590 C.3   1 <1>   0.2200 
 10 C        2.9740    -0.2190     0.7410 C.3   1 <1>   0.1200 
 11 N        4.5210     2.3160    -0.0960 N.am  1 <1>  -0.7300 
 12 C        5.2160     0.0040     0.3130 C.3   1 <1>   0.1200 
 13 O        4.2600    -0.2870     1.2870 O.3   1 <1>  -0.5600 
 14 C        4.5000     3.4660    -0.8340 C.2   1 <1>   0.5440 
 15 O        4.6130     3.3770    -2.0430 O.2   1 <1>  -0.5700 
 16 C        4.2910     4.7400    -0.1940 C.ar  1 <1>   0.0860 
 17 C        3.0090     5.3040    -0.1490 C.ar  1 <1>   0.0820 
 18 C        5.3530     5.4420     0.3870 C.ar  1 <1>   0.0820 
 19 O        1.9860     4.5890    -0.6790 O.3   1 <1>  -0.3630 
 20 C        2.8090     6.5520     0.4340 C.ar  1 <1>  -0.1500 
 21 O        6.5790     4.8610     0.3610 O.3   1 <1>  -0.3620 
 22 C        5.1380     6.6880     0.9680 C.ar  1 <1>  -0.1500 
 23 C        0.7230     5.1510    -0.9630 C.3   1 <1>   0.0400 
 24 C        3.8710     7.2400     0.9870 C.ar  1 <1>  -0.1500 
 25 C        7.7500     5.5340     0.7700 C.3   1 <1>   0.0400 
 26 H        2.3080     1.8500    -1.9790 H     1 <1>   0.0800 
 27 H        1.9500     2.1350    -0.3160 H     1 <1>   0.0800 
 28 H       -0.7260     0.8590     2.1090 H     1 <1>   0.0800 
 29 H       -1.4500     1.6600     0.7260 H     1 <1>   0.0800 
 30 H        0.2050     2.0060     1.1790 H     1 <1>   0.0800 
 31 H       -1.3380    -1.2390     1.1930 H     1 <1>   0.0800 
 32 H       -0.6950    -1.7680    -0.3400 H     1 <1>   0.0800 
 33 H       -1.9690    -0.5670    -0.3030 H     1 <1>   0.0800 
 34 H        3.0970    -0.4540    -1.3700 H     1 <1>   0.0800 
 35 H        4.9840     0.9370    -1.6330 H     1 <1>   0.0800 
 36 H        2.5470    -1.2080     0.7230 H     1 <1>   0.0800 
 37 H        2.3880     0.4170     1.3800 H     1 <1>   0.0800 
 38 H        4.4550     2.3620     0.9220 H     1 <1>   0.3700 
 39 H        6.0830     0.4450     0.7730 H     1 <1>   0.0800 
 40 H        5.4830    -0.9170    -0.1740 H     1 <1>   0.0800 
 41 H        1.8340     7.0000     0.4690 H     1 <1>   0.1500 
 42 H        5.9420     7.2440     1.4130 H     1 <1>   0.1500 
 43 H        0.1370     4.4110    -1.4800 H     1 <1>   0.0800 
 44 H        0.8580     6.0130    -1.5920 H     1 <1>   0.0800 
 45 H        0.2400     5.4170    -0.0400 H     1 <1>   0.0800 
 46 H        3.7120     8.2060     1.4360 H     1 <1>   0.1500 
 47 H        8.5870     4.8840     0.5890 H     1 <1>   0.0800 
 48 H        7.6790     5.7540     1.8200 H     1 <1>   0.0800 
 49 H        7.8550     6.4340     0.1910 H     1 <1>   0.0800 
@<TRIPOS>BOND
  1   1   2  2   
  2   1   3  2   
  3   1   4  am  
  4   1   5  1   
  5   4   6  1   
  6   4   7  1   
  7   5   8  1   
  8   5  26  1   
  9   5  27  1   
 10   6  28  1   
 11   6  29  1   
 12   6  30  1   
 13   7  31  1   
 14   7  32  1   
 15   7  33  1   
 16   8   9  1   
 17   8  10  1   
 18   8  34  1   
 19   9  11  1   
 20   9  12  1   
 21   9  35  1   
 22  10  13  1   
 23  10  36  1   
 24  10  37  1   
 25  11  14  am  
 26  11  38  1   
 27  12  13  1   
 28  12  39  1   
 29  12  40  1   
 30  14  15  2   
 31  14  16  1   
 32  16  17  ar  
 33  16  18  ar  
 34  17  19  1   
 35  17  20  ar  
 36  18  21  1   
 37  18  22  ar  
 38  19  23  1   
 39  20  24  ar  
 40  20  41  1   
 41  21  25  1   
 42  22  24  ar  
 43  22  42  1   
 44  23  43  1   
 45  23  44  1   
 46  23  45  1   
 47  24  46  1   
 48  25  47  1   
 49  25  48  1   
 50  25  49  1   
@<TRIPOS>SUBSTRUCTURE
  1 ****  11 GROUP 4 **** **** 0

# MOE 2024.06 (io_trps.svl 2023.06)
