@<TRIPOS>MOLECULE
NONAME
48 50 1 0 0 
SMALL
USER_CHARGES


@<TRIPOS>ATOM
  1 O        0.9820     0.1390    -1.9220 O.3   1 <1>  -0.6800 
  2 C        0.5310    -1.1580    -1.6130 C.3   1 <1>   0.1200 
  3 C        1.4330    -1.8190    -0.4600 C.3   1 <1>   0.0000 
  4 C        2.2660    -2.4860     0.7670 C.3   1 <1>   0.4230 
  5 C        0.6830    -0.8920     0.6340 C.3   1 <1>  -0.1600 
  6 C        2.2050    -2.6660    -1.5990 C.3   1 <1>  -0.1600 
  7 N        2.6890    -3.9390     0.6610 N.4   1 <1>  -0.9590 
  8 C        3.3780    -1.5270     1.2910 C.3   1 <1>   0.2090 
  9 C        1.6200     0.2060     1.1880 C.3   1 <1>   0.2090 
 10 C        3.6560    -3.1710    -1.4210 C.3   1 <1>  -0.1600 
 11 C        3.8190    -4.1440    -0.2700 C.3   1 <1>   0.3430 
 12 C        2.9790    -4.5690     1.9890 C.3   1 <1>   0.2630 
 13 N        3.0370    -0.1370     0.8700 N.pl3 1 <1>  -0.8380 
 14 C        3.8620     0.5590     0.0480 C.ar  1 <1>   0.7710 
 15 N        5.1690     0.4120     0.1960 N.ar  1 <1>  -0.6200 
 16 N        3.3290     1.3220    -0.9230 N.ar  1 <1>  -0.1790 
 17 C        5.9540     1.1090    -0.5930 C.ar  1 <1>   0.4100 
 18 C        4.1080     2.0600    -1.7490 C.ar  1 <1>   0.2110 
 19 N        7.2670     0.9340    -0.3810 N.pl3 1 <1>  -0.8690 
 20 C        5.4490     1.9710    -1.5860 C.ar  1 <1>  -0.1500 
 21 C        8.4360     1.4890    -1.1120 C.3   1 <1>   0.1290 
 22 H        0.4140     0.4970    -2.6440 H     1 <1>   0.4000 
 23 H       -0.5160    -1.1050    -1.3600 H     1 <1>   0.0800 
 24 H        0.4570    -1.6910    -2.5500 H     1 <1>   0.0800 
 25 H        1.6030    -2.5440     1.6080 H     1 <1>   0.0800 
 26 H        0.2470    -1.4460     1.4490 H     1 <1>   0.0800 
 27 H       -0.1870    -0.3200     0.3510 H     1 <1>   0.0800 
 28 H        1.5940    -3.5140    -1.8710 H     1 <1>   0.0800 
 29 H        2.3610    -2.0950    -2.5050 H     1 <1>   0.0800 
 30 H        1.8860    -4.4350     0.2470 H     1 <1>   0.4500 
 31 H        4.3410    -1.8100     0.9080 H     1 <1>   0.0800 
 32 H        3.4220    -1.5680     2.3650 H     1 <1>   0.0800 
 33 H        1.5010     0.2880     2.2580 H     1 <1>   0.0800 
 34 H        1.3580     1.1630     0.7680 H     1 <1>   0.0800 
 35 H        4.3210    -2.3360    -1.2840 H     1 <1>   0.0800 
 36 H        3.9810    -3.6650    -2.3220 H     1 <1>   0.0800 
 37 H        4.7630    -3.9680     0.2220 H     1 <1>   0.0800 
 38 H        3.8090    -5.1590    -0.6380 H     1 <1>   0.0800 
 39 H        3.8270    -4.0950     2.4550 H     1 <1>   0.0800 
 40 H        3.1990    -5.6180     1.8650 H     1 <1>   0.0800 
 41 H        2.1270    -4.4760     2.6440 H     1 <1>   0.0800 
 42 H        2.3250     1.1830    -1.0880 H     1 <1>   0.4570 
 43 H        3.6450     2.6780    -2.5020 H     1 <1>   0.1500 
 44 H        7.5140     0.3690     0.4390 H     1 <1>   0.4000 
 45 H        6.1310     2.5330    -2.1950 H     1 <1>   0.1500 
 46 H        8.1840     1.7090    -2.1340 H     1 <1>   0.0800 
 47 H        9.2380     0.7700    -1.1090 H     1 <1>   0.0800 
 48 H        8.7760     2.3890    -0.6270 H     1 <1>   0.0800 
@<TRIPOS>BOND
  1   1   2  1   
  2   1  22  1   
  3   2   3  1   
  4   2  23  1   
  5   2  24  1   
  6   3   4  1   
  7   3   5  1   
  8   3   6  1   
  9   4   7  1   
 10   4   8  1   
 11   4  25  1   
 12   5   9  1   
 13   5  26  1   
 14   5  27  1   
 15   6  10  1   
 16   6  28  1   
 17   6  29  1   
 18   7  11  1   
 19   7  12  1   
 20   7  30  1   
 21   8  13  1   
 22   8  31  1   
 23   8  32  1   
 24   9  13  1   
 25   9  33  1   
 26   9  34  1   
 27  10  11  1   
 28  10  35  1   
 29  10  36  1   
 30  11  37  1   
 31  11  38  1   
 32  12  39  1   
 33  12  40  1   
 34  12  41  1   
 35  13  14  1   
 36  14  15  ar  
 37  14  16  ar  
 38  15  17  ar  
 39  16  18  ar  
 40  16  42  1   
 41  17  19  1   
 42  17  20  ar  
 43  18  20  ar  
 44  18  43  1   
 45  19  21  1   
 46  19  44  1   
 47  20  45  1   
 48  21  46  1   
 49  21  47  1   
 50  21  48  1   
@<TRIPOS>SUBSTRUCTURE
  1 ****  13 GROUP 4 **** **** 0

# MOE 2024.06 (io_trps.svl 2023.06)
