@<TRIPOS>MOLECULE
NONAME
51 54 1 0 0 
SMALL
USER_CHARGES


@<TRIPOS>ATOM
  1 O       -0.5420     0.1900     0.5970 O.2   1 <1>  -0.5700 
  2 C       -1.4870     0.7770     0.1280 C.2   1 <1>   0.5690 
  3 N       -2.5950     0.0990    -0.2960 N.am  1 <1>  -0.6600 
  4 C       -1.4480     2.2970     0.0150 C.3   1 <1>  -0.0990 
  5 C       -3.8560     0.6770    -0.8250 C.3   1 <1>   0.1400 
  6 C       -2.7040    -1.3790    -0.2070 C.3   1 <1>   0.1400 
  7 C       -0.0760     2.9180     0.3440 C.3   1 <1>  -0.1600 
  8 C       -4.8900    -0.4250    -0.6090 C.3   1 <1>   0.2000 
  9 C       -4.0850    -1.7190    -0.7880 C.3   1 <1>  -0.0800 
 10 C       -0.0830     4.4460     0.2030 C.3   1 <1>   0.0210 
 11 O       -5.3440    -0.3330     0.6990 O.3   1 <1>  -0.6800 
 12 C       -4.7410    -2.9720    -0.1690 C.3   1 <1>  -0.0170 
 13 C        1.2690     5.0600     0.5290 C.2   1 <1>  -0.1810 
 14 C       -4.0620    -4.3190    -0.4510 C.ar  1 <1>  -0.1440 
 15 C        1.5760     6.4170     0.4670 C.2   1 <1>   0.1390 
 16 C        2.4170     4.4730     0.9300 C.2   1 <1>  -0.3020 
 17 C       -4.5050    -5.4810     0.2300 C.ar  1 <1>   0.0000 
 18 C       -3.0400    -4.4800    -1.3450 C.ar  1 <1>  -0.1500 
 19 N        2.8060     6.6630     0.7990 N.2   1 <1>  -0.7070 
 20 N        3.3260     5.4550     1.0860 N.pl3 1 <1>   0.3000 
 21 C       -3.8480    -6.7060    -0.0450 C.ar  1 <1>   0.3100 
 22 C       -5.5690    -5.5030     1.1640 C.ar  1 <1>  -0.1500 
 23 C       -2.4620    -5.7390    -1.5450 C.ar  1 <1>   0.1600 
 24 N       -2.8300    -6.8180    -0.9330 N.ar  1 <1>  -0.6200 
 25 C       -4.2640    -7.8700     0.6220 C.ar  1 <1>  -0.1500 
 26 C       -5.9510    -6.6550     1.7960 C.ar  1 <1>  -0.1500 
 27 C       -5.2920    -7.8550     1.5250 C.ar  1 <1>  -0.1500 
 28 H       -1.7190     2.5670    -0.9890 H     1 <1>   0.0800 
 29 H       -2.1850     2.6990     0.6860 H     1 <1>   0.0800 
 30 H       -4.1340     1.5850    -0.3190 H     1 <1>   0.0800 
 31 H       -3.7390     0.8680    -1.8780 H     1 <1>   0.0800 
 32 H       -1.9060    -1.8470    -0.7570 H     1 <1>   0.0800 
 33 H       -2.6360    -1.6730     0.8270 H     1 <1>   0.0800 
 34 H        0.1960     2.6570     1.3530 H     1 <1>   0.0800 
 35 H        0.6670     2.5030    -0.3160 H     1 <1>   0.0800 
 36 H       -5.7360    -0.3500    -1.2710 H     1 <1>   0.0800 
 37 H       -3.9760    -1.8710    -1.8460 H     1 <1>   0.0800 
 38 H       -0.8200     4.8650     0.8650 H     1 <1>   0.0800 
 39 H       -0.3470     4.7130    -0.8060 H     1 <1>   0.0800 
 40 H       -4.5710    -0.2750     1.2960 H     1 <1>   0.4000 
 41 H       -5.7560    -3.0320    -0.5220 H     1 <1>   0.0800 
 42 H       -4.7790    -2.8360     0.8980 H     1 <1>   0.0800 
 43 H        0.8800     7.1860     0.1770 H     1 <1>   0.1500 
 44 H        2.6380     3.4370     1.1110 H     1 <1>   0.1500 
 45 H       -2.6390    -3.6740    -1.9250 H     1 <1>   0.1500 
 46 H        4.3010     5.3350     1.3850 H     1 <1>   0.2700 
 47 H       -6.0980    -4.5960     1.3880 H     1 <1>   0.1500 
 48 H       -1.6560    -5.8140    -2.2560 H     1 <1>   0.1500 
 49 H       -3.7430    -8.7810     0.3950 H     1 <1>   0.1500 
 50 H       -6.7620    -6.6520     2.5050 H     1 <1>   0.1500 
 51 H       -5.6000    -8.7550     2.0290 H     1 <1>   0.1500 
@<TRIPOS>BOND
  1   1   2  2   
  2   2   3  am  
  3   2   4  1   
  4   3   5  1   
  5   3   6  1   
  6   4   7  1   
  7   4  28  1   
  8   4  29  1   
  9   5   8  1   
 10   5  30  1   
 11   5  31  1   
 12   6   9  1   
 13   6  32  1   
 14   6  33  1   
 15   7  10  1   
 16   7  34  1   
 17   7  35  1   
 18   8   9  1   
 19   8  11  1   
 20   8  36  1   
 21   9  12  1   
 22   9  37  1   
 23  10  13  1   
 24  10  38  1   
 25  10  39  1   
 26  11  40  1   
 27  12  14  1   
 28  12  41  1   
 29  12  42  1   
 30  13  15  1   
 31  13  16  2   
 32  14  17  ar  
 33  14  18  ar  
 34  15  19  2   
 35  15  43  1   
 36  16  20  1   
 37  16  44  1   
 38  17  21  ar  
 39  17  22  ar  
 40  18  23  ar  
 41  18  45  1   
 42  19  20  1   
 43  20  46  1   
 44  21  24  ar  
 45  21  25  ar  
 46  22  26  ar  
 47  22  47  1   
 48  23  24  ar  
 49  23  48  1   
 50  25  27  ar  
 51  25  49  1   
 52  26  27  ar  
 53  26  50  1   
 54  27  51  1   
@<TRIPOS>SUBSTRUCTURE
  1 ****   6 GROUP 4 **** **** 0

# MOE 2024.06 (io_trps.svl 2023.06)
