@<TRIPOS>MOLECULE
NONAME
47 49 1 0 0 
SMALL
USER_CHARGES


@<TRIPOS>ATOM
  1 O        1.2080    -1.1830     0.4060 O.co2 1 <1>  -0.9000 
  2 C        2.4310    -1.0060     0.4350 C.2   1 <1>   0.9060 
  3 O        3.1870    -1.7780     1.0370 O.co2 1 <1>  -0.9000 
  4 C        3.0510     0.2490    -0.2010 C.3   1 <1>  -0.1060 
  5 C        3.6260     1.0070     1.0110 C.3   1 <1>   0.2090 
  6 C        2.0230     1.1330    -0.9720 C.3   1 <1>  -0.1600 
  7 C        4.1790    -0.1440    -1.1870 C.3   1 <1>  -0.2400 
  8 N        3.7990     2.4690     0.6930 N.pl3 1 <1>  -0.8380 
  9 C        1.3930     2.1840    -0.0470 C.3   1 <1>  -0.1600 
 10 C        5.0030     3.0410     0.4860 C.ar  1 <1>   0.4610 
 11 C        2.4530     3.1330     0.5420 C.3   1 <1>   0.2090 
 12 N        5.0720     4.3630     0.3450 N.ar  1 <1>  -0.1790 
 13 C        6.2350     2.3410     0.4070 C.ar  1 <1>  -0.1500 
 14 C        6.2240     5.0970     0.1370 C.ar  1 <1>   0.3610 
 15 C        7.4220     2.9790     0.2090 C.ar  1 <1>  -0.1430 
 16 C        7.4450     4.4010     0.0700 C.ar  1 <1>   0.0000 
 17 C        6.1760     6.4980     0.0000 C.ar  1 <1>  -0.1430 
 18 C        8.7150     2.1760     0.1300 C.3   1 <1>  -0.0970 
 19 C        8.6110     5.1510    -0.1300 C.ar  1 <1>  -0.1500 
 20 C        7.3510     7.2040    -0.1930 C.ar  1 <1>  -0.1430 
 21 C        4.8180     7.2110     0.0700 C.3   1 <1>  -0.0970 
 22 C        8.5620     6.5150    -0.2570 C.ar  1 <1>  -0.1500 
 23 C        7.4070     8.7210    -0.3440 C.3   1 <1>  -0.0970 
 24 H        4.5310     0.5360     1.3490 H     1 <1>   0.0800 
 25 H        2.9340     0.9230     1.8340 H     1 <1>   0.0800 
 26 H        1.2570     0.5150    -1.4100 H     1 <1>   0.0800 
 27 H        2.5110     1.6500    -1.7790 H     1 <1>   0.0800 
 28 H        4.9100    -0.7590    -0.6900 H     1 <1>   0.0800 
 29 H        4.6690     0.7240    -1.5870 H     1 <1>   0.0800 
 30 H        3.7650    -0.7170    -1.9980 H     1 <1>   0.0800 
 31 H        0.8810     1.6750     0.7530 H     1 <1>   0.0800 
 32 H        0.6540     2.7510    -0.5830 H     1 <1>   0.0800 
 33 H        2.5350     3.9740    -0.1230 H     1 <1>   0.0800 
 34 H        2.1140     3.4840     1.5020 H     1 <1>   0.0800 
 35 H        4.1990     4.8620     0.4270 H     1 <1>   0.4570 
 36 H        6.2180     1.2720     0.4950 H     1 <1>   0.1500 
 37 H        8.5260     1.1240     0.2490 H     1 <1>   0.0800 
 38 H        9.3920     2.4830     0.9080 H     1 <1>   0.0800 
 39 H        9.1880     2.3240    -0.8250 H     1 <1>   0.0800 
 40 H        9.5660     4.6590    -0.1860 H     1 <1>   0.1500 
 41 H        4.1440     6.8090    -0.6650 H     1 <1>   0.0800 
 42 H        4.8940     8.2640    -0.1250 H     1 <1>   0.0800 
 43 H        4.3890     7.1000     1.0510 H     1 <1>   0.0800 
 44 H        9.4790     7.0600    -0.4090 H     1 <1>   0.1500 
 45 H        6.9760     9.1970     0.5190 H     1 <1>   0.0800 
 46 H        6.8690     9.0270    -1.2230 H     1 <1>   0.0800 
 47 H        8.4200     9.0680    -0.4380 H     1 <1>   0.0800 
@<TRIPOS>BOND
  1   1   2  ar  
  2   2   3  ar  
  3   2   4  1   
  4   4   5  1   
  5   4   6  1   
  6   4   7  1   
  7   5   8  1   
  8   5  24  1   
  9   5  25  1   
 10   6   9  1   
 11   6  26  1   
 12   6  27  1   
 13   7  28  1   
 14   7  29  1   
 15   7  30  1   
 16   8  10  1   
 17   8  11  1   
 18   9  11  1   
 19   9  31  1   
 20   9  32  1   
 21  10  12  ar  
 22  10  13  ar  
 23  11  33  1   
 24  11  34  1   
 25  12  14  ar  
 26  12  35  1   
 27  13  15  ar  
 28  13  36  1   
 29  14  16  ar  
 30  14  17  ar  
 31  15  16  ar  
 32  15  18  1   
 33  16  19  ar  
 34  17  20  ar  
 35  17  21  1   
 36  18  37  1   
 37  18  38  1   
 38  18  39  1   
 39  19  22  ar  
 40  19  40  1   
 41  20  22  ar  
 42  20  23  1   
 43  21  41  1   
 44  21  42  1   
 45  21  43  1   
 46  22  44  1   
 47  23  45  1   
 48  23  46  1   
 49  23  47  1   
@<TRIPOS>SUBSTRUCTURE
  1 ****  10 GROUP 4 **** **** 0

# MOE 2024.06 (io_trps.svl 2023.06)
