@<TRIPOS>MOLECULE
NONAME
41 43 1 0 0 
SMALL
USER_CHARGES


@<TRIPOS>ATOM
  1 CL       2.4500    -1.4520     2.7700 Cl    1 <1>  -0.1770 
  2 C        1.9680    -2.0220     1.1830 C.ar  1 <1>   0.1770 
  3 C        0.6280    -2.1600     0.8400 C.ar  1 <1>   0.4100 
  4 C        2.9130    -2.3540     0.2530 C.ar  1 <1>   0.1600 
  5 N        0.2830    -2.6230    -0.3570 N.ar  1 <1>  -0.6200 
  6 N       -0.3860    -1.8400     1.7290 N.3   1 <1>  -0.5900 
  7 N        2.5780    -2.7980    -0.9460 N.ar  1 <1>  -0.6200 
  8 C        1.2830    -2.8940    -1.1840 C.ar  1 <1>   0.4770 
  9 C       -1.7970    -1.5010     1.3190 C.3   1 <1>   0.2450 
 10 C       -0.9670    -2.8800     2.6460 C.3   1 <1>   0.2450 
 11 C        0.9050    -3.3830    -2.5620 C.3   1 <1>  -0.0960 
 12 C       -2.2070    -2.9610     1.6950 C.3   1 <1>   0.4720 
 13 N       -2.1170    -3.9460     0.5440 N.4   1 <1>  -0.9280 
 14 C       -3.3500    -4.0550    -0.2970 C.3   1 <1>   0.4230 
 15 C       -1.6680    -5.2970     1.0010 C.3   1 <1>   0.3430 
 16 C       -3.0500    -4.9230    -1.5270 C.3   1 <1>  -0.1600 
 17 C       -3.8710    -2.6960    -0.7650 C.3   1 <1>  -0.2400 
 18 C       -1.3320    -6.1780    -0.2010 C.3   1 <1>  -0.1600 
 19 C       -2.5260    -6.3110    -1.1480 C.3   1 <1>  -0.1600 
 20 H        3.9590    -2.2570     0.4890 H     1 <1>   0.1500 
 21 H       -1.8720    -1.2460     0.2790 H     1 <1>   0.0000 
 22 H       -2.2160    -0.7560     1.9730 H     1 <1>   0.0000 
 23 H       -1.1930    -2.4540     3.6080 H     1 <1>   0.0000 
 24 H       -0.3530    -3.7590     2.7080 H     1 <1>   0.0000 
 25 H       -0.0770    -3.0390    -2.8300 H     1 <1>   0.0800 
 26 H        0.9270    -4.4560    -2.5830 H     1 <1>   0.0800 
 27 H        1.6070    -3.0090    -3.2860 H     1 <1>   0.0800 
 28 H       -3.1430    -3.0380     2.2170 H     1 <1>   0.0000 
 29 H       -1.3590    -3.5670    -0.0540 H     1 <1>   0.4500 
 30 H       -4.1240    -4.5370     0.2800 H     1 <1>   0.0800 
 31 H       -2.4460    -5.7630     1.5840 H     1 <1>   0.0800 
 32 H       -0.7860    -5.2180     1.6110 H     1 <1>   0.0800 
 33 H       -2.3300    -4.4250    -2.1540 H     1 <1>   0.0800 
 34 H       -3.9500    -5.0430    -2.1070 H     1 <1>   0.0800 
 35 H       -3.1220    -2.1660    -1.3260 H     1 <1>   0.0800 
 36 H       -4.2130    -2.0990     0.0600 H     1 <1>   0.0800 
 37 H       -4.7180    -2.8430    -1.4110 H     1 <1>   0.0800 
 38 H       -1.0430    -7.1550     0.1480 H     1 <1>   0.0800 
 39 H       -0.4880    -5.7610    -0.7240 H     1 <1>   0.0800 
 40 H       -2.2340    -6.8500    -2.0350 H     1 <1>   0.0800 
 41 H       -3.3090    -6.8740    -0.6660 H     1 <1>   0.0800 
@<TRIPOS>BOND
  1   1   2  1   
  2   2   3  ar  
  3   2   4  ar  
  4   3   5  ar  
  5   3   6  1   
  6   4   7  ar  
  7   4  20  1   
  8   5   8  ar  
  9   6   9  1   
 10   6  10  1   
 11   7   8  ar  
 12   8  11  1   
 13   9  12  1   
 14   9  21  1   
 15   9  22  1   
 16  10  12  1   
 17  10  23  1   
 18  10  24  1   
 19  11  25  1   
 20  11  26  1   
 21  11  27  1   
 22  12  13  1   
 23  12  28  1   
 24  13  14  1   
 25  13  15  1   
 26  13  29  1   
 27  14  16  1   
 28  14  17  1   
 29  14  30  1   
 30  15  18  1   
 31  15  31  1   
 32  15  32  1   
 33  16  19  1   
 34  16  33  1   
 35  16  34  1   
 36  17  35  1   
 37  17  36  1   
 38  17  37  1   
 39  18  19  1   
 40  18  38  1   
 41  18  39  1   
 42  19  40  1   
 43  19  41  1   
@<TRIPOS>SUBSTRUCTURE
  1 ****   5 GROUP 4 **** **** 0

# MOE 2024.06 (io_trps.svl 2023.06)
