@<TRIPOS>MOLECULE
NONAME
45 47 1 0 0 
SMALL
USER_CHARGES


@<TRIPOS>ATOM
  1 S        1.7090    -0.0120     1.1030 S.3   1 <1>  -0.0800 
  2 C        0.4730    -0.5610     0.0000 C.2   1 <1>   0.1980 
  3 C        1.6960    -1.5770     1.8480 C.2   1 <1>  -0.1100 
  4 N        0.1040    -1.7620     0.1820 N.2   1 <1>  -0.5650 
  5 C       -0.0200     0.4230    -1.0350 C.3   1 <1>  -0.0600 
  6 C        0.7880    -2.3800     1.2490 C.2   1 <1>   0.1410 
  7 C        0.5490    -3.7710     1.6310 C.2   1 <1>   0.7160 
  8 O        1.4790    -4.4230     2.0750 O.2   1 <1>  -0.5700 
  9 N       -0.6760    -4.4010     1.5200 N.am  1 <1>  -0.6600 
 10 C       -0.7900    -5.8800     1.3350 C.3   1 <1>   0.1400 
 11 C       -1.9760    -3.7130     1.2760 C.3   1 <1>   0.1400 
 12 C       -1.4260    -6.2050    -0.0320 C.3   1 <1>   0.3440 
 13 C       -2.5080    -4.0980    -0.1200 C.3   1 <1>   0.2000 
 14 O       -2.6290    -5.4950    -0.2010 O.3   1 <1>  -0.5600 
 15 C       -1.6980    -7.7020    -0.1550 C.ar  1 <1>  -0.1430 
 16 C       -3.8750    -3.4720    -0.4780 C.3   1 <1>  -0.0800 
 17 C       -0.7470    -8.5280    -0.7360 C.ar  1 <1>  -0.1500 
 18 C       -2.8780    -8.2620     0.3180 C.ar  1 <1>  -0.1500 
 19 C       -3.7920    -1.9410    -0.5700 C.3   1 <1>  -0.2400 
 20 C       -5.0080    -3.8740     0.4810 C.3   1 <1>  -0.2400 
 21 C       -0.9690    -9.8910    -0.8420 C.ar  1 <1>  -0.1500 
 22 C       -3.1020    -9.6240     0.2130 C.ar  1 <1>  -0.1500 
 23 C       -2.1470   -10.4400    -0.3670 C.ar  1 <1>  -0.1500 
 24 H        2.3710    -1.7610     2.6630 H     1 <1>   0.1500 
 25 H       -0.7660    -0.0410    -1.6530 H     1 <1>   0.0800 
 26 H        0.7990     0.7410    -1.6540 H     1 <1>   0.0800 
 27 H       -0.4500     1.2790    -0.5490 H     1 <1>   0.0800 
 28 H        0.1770    -6.3480     1.3910 H     1 <1>   0.0800 
 29 H       -1.4000    -6.2930     2.1180 H     1 <1>   0.0800 
 30 H       -2.6800    -4.0290     2.0250 H     1 <1>   0.0800 
 31 H       -1.8720    -2.6490     1.3650 H     1 <1>   0.0800 
 32 H       -0.7570    -5.9020    -0.8180 H     1 <1>   0.0800 
 33 H       -1.7910    -3.7870    -0.8620 H     1 <1>   0.0800 
 34 H       -4.1300    -3.8360    -1.4600 H     1 <1>   0.0800 
 35 H        0.1740    -8.1160    -1.1100 H     1 <1>   0.1500 
 36 H       -3.6280    -7.6340     0.7660 H     1 <1>   0.1500 
 37 H       -3.6120    -1.5010     0.3940 H     1 <1>   0.0800 
 38 H       -4.7160    -1.5440    -0.9540 H     1 <1>   0.0800 
 39 H       -2.9980    -1.6490    -1.2360 H     1 <1>   0.0800 
 40 H       -4.8440    -3.4800     1.4670 H     1 <1>   0.0800 
 41 H       -5.0790    -4.9460     0.5450 H     1 <1>   0.0800 
 42 H       -5.9490    -3.5000     0.1180 H     1 <1>   0.0800 
 43 H       -0.2260   -10.5240    -1.2940 H     1 <1>   0.1500 
 44 H       -4.0200   -10.0470     0.5810 H     1 <1>   0.1500 
 45 H       -2.3200   -11.4980    -0.4490 H     1 <1>   0.1500 
@<TRIPOS>BOND
  1   1   2  1   
  2   1   3  1   
  3   2   4  2   
  4   2   5  1   
  5   3   6  2   
  6   3  24  1   
  7   4   6  1   
  8   5  25  1   
  9   5  26  1   
 10   5  27  1   
 11   6   7  1   
 12   7   8  2   
 13   7   9  am  
 14   9  10  1   
 15   9  11  1   
 16  10  12  1   
 17  10  28  1   
 18  10  29  1   
 19  11  13  1   
 20  11  30  1   
 21  11  31  1   
 22  12  14  1   
 23  12  15  1   
 24  12  32  1   
 25  13  14  1   
 26  13  16  1   
 27  13  33  1   
 28  15  17  ar  
 29  15  18  ar  
 30  16  19  1   
 31  16  20  1   
 32  16  34  1   
 33  17  21  ar  
 34  17  35  1   
 35  18  22  ar  
 36  18  36  1   
 37  19  37  1   
 38  19  38  1   
 39  19  39  1   
 40  20  40  1   
 41  20  41  1   
 42  20  42  1   
 43  21  23  ar  
 44  21  43  1   
 45  22  23  ar  
 46  22  44  1   
 47  23  45  1   
@<TRIPOS>SUBSTRUCTURE
  1 ****   9 GROUP 4 **** **** 0

# MOE 2024.06 (io_trps.svl 2023.06)
