@<TRIPOS>MOLECULE
NONAME
28 29 1 0 0 
SMALL
USER_CHARGES


@<TRIPOS>ATOM
  1 O        6.3530     6.8580    -0.5650 O.3   1 <1>  -0.3570 
  2 C        7.4840     6.8090     0.0780 C.2   1 <1>   0.1770 
  3 C        5.6220     8.0410    -0.3130 C.3   1 <1>   0.1200 
  4 N        7.6460     7.9120     0.7960 N.pl3 1 <1>  -0.8690 
  5 C        8.3530     5.7170    -0.0280 C.2   1 <1>   0.0000 
  6 C        6.5310     8.8460     0.6320 C.3   1 <1>   0.2890 
  7 C        9.5970     5.5400     0.6040 C.2   1 <1>  -0.1500 
  8 C        8.1690     4.5550    -0.7970 C.2   1 <1>  -0.1500 
  9 C        7.0240    10.2100     0.0890 C.3   1 <1>  -0.0800 
 10 C       10.1320     4.3400     0.2370 C.2   1 <1>  -0.1500 
 11 C        9.2390     3.7240    -0.6380 C.2   1 <1>  -0.1500 
 12 C        5.8590    11.2010    -0.0660 C.3   1 <1>  -0.2400 
 13 C        7.8030    10.1210    -1.2370 C.3   1 <1>  -0.2400 
 14 H        5.4370     8.5380    -1.2460 H     1 <1>   0.0800 
 15 H        4.6960     7.7780     0.1620 H     1 <1>   0.0800 
 16 H        8.4490     8.1450     1.3840 H     1 <1>   0.4000 
 17 H        6.0370     8.9850     1.5790 H     1 <1>   0.0800 
 18 H       10.0340     6.2600     1.2700 H     1 <1>   0.1500 
 19 H        7.3000     4.3840    -1.4060 H     1 <1>   0.1500 
 20 H        7.6890    10.6170     0.8320 H     1 <1>   0.0800 
 21 H       11.0720     3.9240     0.5550 H     1 <1>   0.1500 
 22 H        9.3850     2.7620    -1.0980 H     1 <1>   0.1500 
 23 H        5.1720    10.8750    -0.8270 H     1 <1>   0.0800 
 24 H        6.2340    12.1710    -0.3440 H     1 <1>   0.0800 
 25 H        5.3250    11.3020     0.8620 H     1 <1>   0.0800 
 26 H        7.1820     9.7490    -2.0320 H     1 <1>   0.0800 
 27 H        8.6470     9.4620    -1.1340 H     1 <1>   0.0800 
 28 H        8.1710    11.0910    -1.5190 H     1 <1>   0.0800 
@<TRIPOS>BOND
  1   1   2  1   
  2   1   3  1   
  3   2   4  1   
  4   2   5  2   
  5   3   6  1   
  6   3  14  1   
  7   3  15  1   
  8   4   6  1   
  9   4  16  1   
 10   5   7  1   
 11   5   8  1   
 12   6   9  1   
 13   6  17  1   
 14   7  10  2   
 15   7  18  1   
 16   8  11  2   
 17   8  19  1   
 18   9  12  1   
 19   9  13  1   
 20   9  20  1   
 21  10  11  1   
 22  10  21  1   
 23  11  22  1   
 24  12  23  1   
 25  12  24  1   
 26  12  25  1   
 27  13  26  1   
 28  13  27  1   
 29  13  28  1   
@<TRIPOS>SUBSTRUCTURE
  1 ****   2 GROUP 4 **** **** 0

# MOE 2024.06 (io_trps.svl 2023.06)
