@<TRIPOS>MOLECULE
NONAME
49 51 1 0 0 
SMALL
USER_CHARGES


@<TRIPOS>ATOM
  1 S        0.3190     0.3850    -0.8170 S.o2  1 <1>   1.3330 
  2 O        1.5690     0.8330    -1.3880 O.2   1 <1>  -0.6500 
  3 O       -0.8020     0.1170    -1.6900 O.2   1 <1>  -0.6500 
  4 N        0.6320    -1.0090     0.0970 N.am  1 <1>  -0.8490 
  5 C       -0.2280     1.5700     0.4090 C.3   1 <1>  -0.0550 
  6 C        1.9310    -0.9780     0.7780 C.3   1 <1>   0.1160 
  7 C        0.5180    -2.2310    -0.7050 C.3   1 <1>   0.1160 
  8 C       -0.5970     2.9400    -0.1950 C.3   1 <1>  -0.0800 
  9 C       -1.2340     3.9130     0.7990 C.3   1 <1>   0.2000 
 10 C        0.6050     3.7040    -0.7740 C.3   1 <1>   0.1400 
 11 O       -0.5720     3.8300     2.0160 O.3   1 <1>  -0.6800 
 12 C       -0.9360     5.2780     0.1890 C.3   1 <1>   0.1400 
 13 N        0.4280     5.1310    -0.3770 N.am  1 <1>  -0.6600 
 14 C        1.4490     5.7500     0.3080 C.2   1 <1>   0.7160 
 15 O        1.8430     5.1790     1.3150 O.2   1 <1>  -0.5700 
 16 C        1.9790     7.0350    -0.1400 C.2   1 <1>   0.2030 
 17 N        2.8600     7.7900     0.4930 N.2   1 <1>  -0.7070 
 18 C        1.5970     7.6460    -1.3440 C.2   1 <1>  -0.1500 
 19 N        3.0510     8.8890    -0.2740 N.pl3 1 <1>   0.5930 
 20 C        2.2870     8.7960    -1.3990 C.2   1 <1>  -0.0890 
 21 C        3.9280     9.9530     0.0710 C.ar  1 <1>  -0.0230 
 22 O        2.2590     9.7110    -2.4050 O.3   1 <1>  -0.5130 
 23 C        3.4790    11.2710     0.0910 C.ar  1 <1>  -0.1500 
 24 C        5.2580     9.6950     0.3880 C.ar  1 <1>  -0.1500 
 25 C        4.3430    12.3060     0.4010 C.ar  1 <1>  -0.1500 
 26 C        6.1230    10.7290     0.6990 C.ar  1 <1>  -0.1500 
 27 C        5.6670    12.0360     0.7020 C.ar  1 <1>  -0.1500 
 28 H       -1.0890     1.1720     0.9110 H     1 <1>   0.0800 
 29 H        0.5410     1.7020     1.1450 H     1 <1>   0.0800 
 30 H        2.0410    -1.8480     1.4030 H     1 <1>   0.0800 
 31 H        2.0040    -0.1040     1.4010 H     1 <1>   0.0800 
 32 H        2.7340    -0.9590     0.0590 H     1 <1>   0.0800 
 33 H        0.7020    -3.0980    -0.0930 H     1 <1>   0.0800 
 34 H        1.2250    -2.2130    -1.5180 H     1 <1>   0.0800 
 35 H       -0.4750    -2.3130    -1.1130 H     1 <1>   0.0800 
 36 H       -1.3000     2.7820    -0.9960 H     1 <1>   0.0800 
 37 H       -2.2830     3.7350     0.9630 H     1 <1>   0.0800 
 38 H        0.6330     3.6180    -1.8470 H     1 <1>   0.0800 
 39 H        1.5310     3.3230    -0.3750 H     1 <1>   0.0800 
 40 H        0.3370     4.2150     1.9200 H     1 <1>   0.4000 
 41 H       -0.9900     6.0600     0.9280 H     1 <1>   0.0800 
 42 H       -1.6280     5.4900    -0.6080 H     1 <1>   0.0800 
 43 H        0.9010     7.2530    -2.0630 H     1 <1>   0.1500 
 44 H        2.9330    10.4150    -2.3200 H     1 <1>   0.4500 
 45 H        2.4470    11.4910    -0.1280 H     1 <1>   0.1500 
 46 H        5.6120     8.6780     0.3950 H     1 <1>   0.1500 
 47 H        3.9880    13.3220     0.4130 H     1 <1>   0.1500 
 48 H        7.1490    10.5160     0.9410 H     1 <1>   0.1500 
 49 H        6.3400    12.8400     0.9440 H     1 <1>   0.1500 
@<TRIPOS>BOND
  1   1   2  2   
  2   1   3  2   
  3   1   4  am  
  4   1   5  1   
  5   4   6  1   
  6   4   7  1   
  7   5   8  1   
  8   5  28  1   
  9   5  29  1   
 10   6  30  1   
 11   6  31  1   
 12   6  32  1   
 13   7  33  1   
 14   7  34  1   
 15   7  35  1   
 16   8   9  1   
 17   8  10  1   
 18   8  36  1   
 19   9  11  1   
 20   9  12  1   
 21   9  37  1   
 22  10  13  1   
 23  10  38  1   
 24  10  39  1   
 25  11  40  1   
 26  12  13  1   
 27  12  41  1   
 28  12  42  1   
 29  13  14  am  
 30  14  15  2   
 31  14  16  1   
 32  16  17  2   
 33  16  18  1   
 34  17  19  1   
 35  18  20  2   
 36  18  43  1   
 37  19  20  1   
 38  19  21  1   
 39  20  22  1   
 40  21  23  ar  
 41  21  24  ar  
 42  22  44  1   
 43  23  25  ar  
 44  23  45  1   
 45  24  26  ar  
 46  24  46  1   
 47  25  27  ar  
 48  25  47  1   
 49  26  27  ar  
 50  26  48  1   
 51  27  49  1   
@<TRIPOS>SUBSTRUCTURE
  1 ****  14 GROUP 4 **** **** 0

# MOE 2024.06 (io_trps.svl 2023.06)
