@<TRIPOS>MOLECULE
NONAME
55 57 1 0 0 
SMALL
USER_CHARGES


@<TRIPOS>ATOM
  1 S       -0.6500     0.0220     1.5180 S.o2  1 <1>   1.4470 
  2 O        0.5810    -0.4420     2.1150 O.2   1 <1>  -0.6500 
  3 O       -1.7590     0.4210     2.3550 O.2   1 <1>  -0.6500 
  4 N       -1.1630    -1.3000     0.6230 N.am  1 <1>  -0.9140 
  5 C       -0.3230     1.2790     0.2540 C.ar  1 <1>  -0.0090 
  6 C       -1.9260    -2.2500     1.4090 C.3   1 <1>   0.1960 
  7 C        0.9300     1.8690     0.1270 C.ar  1 <1>  -0.1500 
  8 C       -1.3210     1.6850    -0.6230 C.ar  1 <1>  -0.1500 
  9 C       -2.2320    -3.4690     0.5440 C.3   1 <1>  -0.1600 
 10 C        1.1780     2.8260    -0.8420 C.ar  1 <1>  -0.1500 
 11 C       -1.0810     2.6420    -1.5940 C.ar  1 <1>  -0.1500 
 12 C       -3.0680    -4.4800     1.3240 C.3   1 <1>   0.2090 
 13 C        0.1730     3.2170    -1.7100 C.ar  1 <1>  -0.1430 
 14 N       -3.3710    -5.6330     0.4510 N.pl3 1 <1>  -0.8690 
 15 C        0.4400     4.2680    -2.7720 C.3   1 <1>  -0.0970 
 16 C       -4.1560    -6.6780     0.8810 C.ar  1 <1>   0.4100 
 17 N       -4.7970    -6.5290     2.0310 N.ar  1 <1>  -0.6200 
 18 C       -4.2400    -7.8250     0.1050 C.ar  1 <1>  -0.1500 
 19 C       -5.5290    -7.5560     2.4220 C.ar  1 <1>   0.1600 
 20 C       -5.0180    -8.8960     0.5010 C.ar  1 <1>   0.0860 
 21 C       -5.6700    -8.7330     1.7160 C.ar  1 <1>  -0.1500 
 22 C       -5.1300   -10.1020    -0.2920 C.2   1 <1>   0.5440 
 23 O       -4.1200   -10.7160    -0.5760 O.2   1 <1>  -0.5700 
 24 N       -6.3460   -10.5720    -0.7390 N.am  1 <1>  -0.6600 
 25 C       -6.4820   -11.9060    -1.3960 C.3   1 <1>   0.1400 
 26 C       -7.6050    -9.7710    -0.7870 C.3   1 <1>   0.1400 
 27 C       -7.7420   -12.6300    -0.8940 C.3   1 <1>   0.1200 
 28 C       -8.7990   -10.6150    -0.3090 C.3   1 <1>   0.1200 
 29 O       -8.8740   -11.8150    -1.0240 O.3   1 <1>  -0.5600 
 30 H       -0.2910    -1.7540     0.3610 H     1 <1>   0.4200 
 31 H       -2.8480    -1.7920     1.7330 H     1 <1>   0.0800 
 32 H       -1.3630    -2.5430     2.2820 H     1 <1>   0.0800 
 33 H        1.7230     1.5770     0.7940 H     1 <1>   0.1500 
 34 H       -2.3010     1.2450    -0.5420 H     1 <1>   0.1500 
 35 H       -1.3130    -3.9320     0.2370 H     1 <1>   0.0800 
 36 H       -2.7880    -3.1550    -0.3220 H     1 <1>   0.0800 
 37 H        2.1570     3.2660    -0.9160 H     1 <1>   0.1500 
 38 H       -1.8750     2.9370    -2.2570 H     1 <1>   0.1500 
 39 H       -3.9920    -4.0280     1.6460 H     1 <1>   0.0800 
 40 H       -2.5330    -4.8240     2.1950 H     1 <1>   0.0800 
 41 H       -2.6180    -5.8840    -0.1920 H     1 <1>   0.4000 
 42 H        1.4700     4.2390    -3.0800 H     1 <1>   0.0800 
 43 H        0.2220     5.2450    -2.3800 H     1 <1>   0.0800 
 44 H       -0.1760     4.0950    -3.6360 H     1 <1>   0.0800 
 45 H       -3.6940    -7.8830    -0.8170 H     1 <1>   0.1500 
 46 H       -6.0450    -7.4500     3.3620 H     1 <1>   0.1500 
 47 H       -6.2790    -9.5300     2.1030 H     1 <1>   0.1500 
 48 H       -5.6190   -12.5160    -1.1900 H     1 <1>   0.0800 
 49 H       -6.5470   -11.7720    -2.4610 H     1 <1>   0.0800 
 50 H       -7.7840    -9.4610    -1.8020 H     1 <1>   0.0800 
 51 H       -7.5270    -8.8850    -0.1840 H     1 <1>   0.0800 
 52 H       -7.6310   -12.9040     0.1410 H     1 <1>   0.0800 
 53 H       -7.9110   -13.5220    -1.4700 H     1 <1>   0.0800 
 54 H       -9.7190   -10.0810    -0.4680 H     1 <1>   0.0800 
 55 H       -8.7080   -10.8440     0.7390 H     1 <1>   0.0800 
@<TRIPOS>BOND
  1   1   2  2   
  2   1   3  2   
  3   1   4  am  
  4   1   5  1   
  5   4   6  1   
  6   4  30  1   
  7   5   7  ar  
  8   5   8  ar  
  9   6   9  1   
 10   6  31  1   
 11   6  32  1   
 12   7  10  ar  
 13   7  33  1   
 14   8  11  ar  
 15   8  34  1   
 16   9  12  1   
 17   9  35  1   
 18   9  36  1   
 19  10  13  ar  
 20  10  37  1   
 21  11  13  ar  
 22  11  38  1   
 23  12  14  1   
 24  12  39  1   
 25  12  40  1   
 26  13  15  1   
 27  14  16  1   
 28  14  41  1   
 29  15  42  1   
 30  15  43  1   
 31  15  44  1   
 32  16  17  ar  
 33  16  18  ar  
 34  17  19  ar  
 35  18  20  ar  
 36  18  45  1   
 37  19  21  ar  
 38  19  46  1   
 39  20  21  ar  
 40  20  22  1   
 41  21  47  1   
 42  22  23  2   
 43  22  24  am  
 44  24  25  1   
 45  24  26  1   
 46  25  27  1   
 47  25  48  1   
 48  25  49  1   
 49  26  28  1   
 50  26  50  1   
 51  26  51  1   
 52  27  29  1   
 53  27  52  1   
 54  27  53  1   
 55  28  29  1   
 56  28  54  1   
 57  28  55  1   
@<TRIPOS>SUBSTRUCTURE
  1 ****  14 GROUP 4 **** **** 0

# MOE 2024.06 (io_trps.svl 2023.06)
