@<TRIPOS>MOLECULE
NONAME
53 55 1 0 0 
SMALL
USER_CHARGES


@<TRIPOS>ATOM
  1 O        0.5610    -0.0380     0.0770 O.2   1 <1>  -0.5700 
  2 C       -0.3740     0.6820    -0.1730 C.2   1 <1>   0.5690 
  3 N       -1.6630     0.2370    -0.1020 N.am  1 <1>  -0.6600 
  4 C       -0.0810     2.1150    -0.5480 C.3   1 <1>  -0.0990 
  5 C       -2.9010     1.0330    -0.3320 C.3   1 <1>   0.1400 
  6 C       -2.0050    -1.1740     0.1980 C.3   1 <1>   0.1400 
  7 C       -0.1050     2.9860     0.7100 C.3   1 <1>   0.0960 
  8 C       -4.0200     0.1620     0.2380 C.3   1 <1>   0.2000 
  9 C       -3.5230    -1.2690     0.0000 C.3   1 <1>  -0.0800 
 10 N       -0.2640     4.4040     0.3400 N.pl3 1 <1>   0.3140 
 11 O       -4.1050     0.4010     1.6010 O.3   1 <1>  -0.6800 
 12 C       -4.2020    -2.3440     0.8690 C.3   1 <1>   0.0200 
 13 N       -1.4810     4.8660     0.0260 N.2   1 <1>  -0.7070 
 14 C        0.6740     5.3630     0.2310 C.2   1 <1>  -0.3320 
 15 C       -3.7860    -3.7590     0.5020 C.2   1 <1>  -0.0400 
 16 C       -1.3010     6.1110    -0.2670 C.2   1 <1>   0.1080 
 17 C        0.0380     6.5180    -0.1490 C.2   1 <1>  -0.0860 
 18 C        2.1550     5.0960     0.4790 C.3   1 <1>  -0.0600 
 19 O       -4.1900    -4.7460     1.2570 O.3   1 <1>  -0.0190 
 20 C       -3.0480    -4.2830    -0.4920 C.2   1 <1>  -0.1500 
 21 C       -2.4620     6.9920    -0.6790 C.3   1 <1>  -0.0590 
 22 C        0.5140     7.8590    -0.3860 C.2   1 <1>   0.5950 
 23 N       -3.7610    -5.8970     0.8270 N.2   1 <1>  -0.4100 
 24 C       -3.0690    -5.6490    -0.2260 C.2   1 <1>   0.1080 
 25 O       -0.0140     8.6370    -1.1390 O.2   1 <1>  -0.5700 
 26 C        1.7280     8.3700     0.3590 C.3   1 <1>  -0.1790 
 27 C       -2.3750    -6.7050    -1.0560 C.3   1 <1>  -0.0590 
 28 H        0.8870     2.1680    -1.0100 H     1 <1>   0.0800 
 29 H       -0.8110     2.4550    -1.2600 H     1 <1>   0.0800 
 30 H       -2.8660     1.9980     0.1440 H     1 <1>   0.0800 
 31 H       -3.0430     1.1610    -1.3910 H     1 <1>   0.0800 
 32 H       -1.4710    -1.8390    -0.4590 H     1 <1>   0.0800 
 33 H       -1.7320    -1.3910     1.2170 H     1 <1>   0.0800 
 34 H        0.7940     2.8530     1.2810 H     1 <1>   0.0800 
 35 H       -0.9410     2.7190     1.3290 H     1 <1>   0.0800 
 36 H       -4.9810     0.3640    -0.2050 H     1 <1>   0.0800 
 37 H       -3.7050    -1.5030    -1.0340 H     1 <1>   0.0800 
 38 H       -3.2070     0.3620     1.9880 H     1 <1>   0.4000 
 39 H       -5.2690    -2.2670     0.7640 H     1 <1>   0.0800 
 40 H       -3.9660    -2.1820     1.9070 H     1 <1>   0.0800 
 41 H        2.7660     5.8770     0.0690 H     1 <1>   0.0800 
 42 H        2.4520     4.1770     0.0060 H     1 <1>   0.0800 
 43 H        2.3470     5.0210     1.5340 H     1 <1>   0.0800 
 44 H       -2.5460    -3.8100    -1.3140 H     1 <1>   0.1500 
 45 H       -2.4940     7.8710    -0.0620 H     1 <1>   0.0800 
 46 H       -3.3880     6.4570    -0.5720 H     1 <1>   0.0800 
 47 H       -2.3470     7.2860    -1.7060 H     1 <1>   0.0800 
 48 H        1.8450     7.8480     1.2890 H     1 <1>   0.0800 
 49 H        1.6030     9.4170     0.5670 H     1 <1>   0.0800 
 50 H        2.6030     8.2410    -0.2480 H     1 <1>   0.0800 
 51 H       -1.3190    -6.5140    -1.0810 H     1 <1>   0.0800 
 52 H       -2.7630    -6.6940    -2.0580 H     1 <1>   0.0800 
 53 H       -2.5430    -7.6770    -0.6280 H     1 <1>   0.0800 
@<TRIPOS>BOND
  1   1   2  2   
  2   2   3  am  
  3   2   4  1   
  4   3   5  1   
  5   3   6  1   
  6   4   7  1   
  7   4  28  1   
  8   4  29  1   
  9   5   8  1   
 10   5  30  1   
 11   5  31  1   
 12   6   9  1   
 13   6  32  1   
 14   6  33  1   
 15   7  10  1   
 16   7  34  1   
 17   7  35  1   
 18   8   9  1   
 19   8  11  1   
 20   8  36  1   
 21   9  12  1   
 22   9  37  1   
 23  10  13  1   
 24  10  14  1   
 25  11  38  1   
 26  12  15  1   
 27  12  39  1   
 28  12  40  1   
 29  13  16  2   
 30  14  17  2   
 31  14  18  1   
 32  15  19  1   
 33  15  20  2   
 34  16  17  1   
 35  16  21  1   
 36  17  22  1   
 37  18  41  1   
 38  18  42  1   
 39  18  43  1   
 40  19  23  1   
 41  20  24  1   
 42  20  44  1   
 43  21  45  1   
 44  21  46  1   
 45  21  47  1   
 46  22  25  2   
 47  22  26  1   
 48  23  24  2   
 49  24  27  1   
 50  26  48  1   
 51  26  49  1   
 52  26  50  1   
 53  27  51  1   
 54  27  52  1   
 55  27  53  1   
@<TRIPOS>SUBSTRUCTURE
  1 ****   3 GROUP 4 **** **** 0

# MOE 2024.06 (io_trps.svl 2023.06)
