@<TRIPOS>MOLECULE
NONAME
41 43 1 0 0 
SMALL
USER_CHARGES


@<TRIPOS>ATOM
  1 O       -0.1190     1.5810     0.8080 O.co2 1 <1>  -0.9000 
  2 C        0.9230     1.6400     1.4750 C.2   1 <1>   0.9470 
  3 O        0.9410     2.2090     2.5760 O.co2 1 <1>  -0.9000 
  4 C        2.2540     1.2200     0.8440 C.3   1 <1>  -0.2420 
  5 C        3.0170    -0.0840     0.8160 C.3   1 <1>  -0.2420 
  6 C        3.2700     2.3370     0.9780 C.3   1 <1>   0.2350 
  7 C        2.2210     0.3490    -0.3880 C.3   1 <1>  -0.2000 
  8 C        2.7130    -1.4300     1.4740 C.2   1 <1>   0.9470 
  9 C        4.5000     0.2350     0.9020 C.3   1 <1>   0.2350 
 10 N        4.5940     1.7080     0.7080 N.am  1 <1>  -0.6600 
 11 O        2.2560    -2.3540     0.7870 O.co2 1 <1>  -0.9000 
 12 O        3.0770    -1.6200     2.6430 O.co2 1 <1>  -0.9000 
 13 C        5.7110     2.3410     0.2580 C.2   1 <1>   0.5690 
 14 O        6.7260     1.7410    -0.0140 O.2   1 <1>  -0.5700 
 15 C        5.6740     3.8530     0.0900 C.3   1 <1>  -0.0990 
 16 C        7.0500     4.4910    -0.1590 C.3   1 <1>  -0.0160 
 17 C        7.0570     6.0200    -0.2890 C.ar  1 <1>  -0.1430 
 18 C        8.2800     6.6700    -0.4590 C.ar  1 <1>   0.0830 
 19 C        5.8940     6.7820    -0.2460 C.ar  1 <1>  -0.1500 
 20 O        9.4020     5.9020    -0.5000 O.3   1 <1>  -0.3630 
 21 C        8.3220     8.0570    -0.5800 C.ar  1 <1>  -0.1500 
 22 C        5.9420     8.1590    -0.3670 C.ar  1 <1>  -0.1500 
 23 C       10.6840     6.4590    -0.6820 C.3   1 <1>   0.0400 
 24 C        7.1560     8.7980    -0.5340 C.ar  1 <1>  -0.1500 
 25 H        3.2630     2.7260     1.9830 H     1 <1>   0.0800 
 26 H        3.0490     3.1230     0.2790 H     1 <1>   0.0800 
 27 H        2.7330     0.6640    -1.2770 H     1 <1>   0.1000 
 28 H        1.3120    -0.1890    -0.6020 H     1 <1>   0.1000 
 29 H        5.0530    -0.2940     0.1470 H     1 <1>   0.0800 
 30 H        4.8810    -0.0190     1.8770 H     1 <1>   0.0800 
 31 H        5.0260     4.0730    -0.7370 H     1 <1>   0.0800 
 32 H        5.2570     4.2750     0.9850 H     1 <1>   0.0800 
 33 H        7.4670     4.0730    -1.0600 H     1 <1>   0.0800 
 34 H        7.7030     4.2160     0.6510 H     1 <1>   0.0800 
 35 H        4.9290     6.3260    -0.1190 H     1 <1>   0.1500 
 36 H        9.2500     8.5780    -0.7100 H     1 <1>   0.1500 
 37 H        5.0330     8.7340    -0.3310 H     1 <1>   0.1500 
 38 H       11.3990     5.6560    -0.6850 H     1 <1>   0.0800 
 39 H       10.8920     7.1300     0.1320 H     1 <1>   0.0800 
 40 H       10.7090     6.9740    -1.6260 H     1 <1>   0.0800 
 41 H        7.1920     9.8690    -0.6280 H     1 <1>   0.1500 
@<TRIPOS>BOND
  1   1   2  ar  
  2   2   3  ar  
  3   2   4  1   
  4   4   5  1   
  5   4   6  1   
  6   4   7  1   
  7   5   7  1   
  8   5   8  1   
  9   5   9  1   
 10   6  10  1   
 11   6  25  1   
 12   6  26  1   
 13   7  27  1   
 14   7  28  1   
 15   8  11  ar  
 16   8  12  ar  
 17   9  10  1   
 18   9  29  1   
 19   9  30  1   
 20  10  13  am  
 21  13  14  2   
 22  13  15  1   
 23  15  16  1   
 24  15  31  1   
 25  15  32  1   
 26  16  17  1   
 27  16  33  1   
 28  16  34  1   
 29  17  18  ar  
 30  17  19  ar  
 31  18  20  1   
 32  18  21  ar  
 33  19  22  ar  
 34  19  35  1   
 35  20  23  1   
 36  21  24  ar  
 37  21  36  1   
 38  22  24  ar  
 39  22  37  1   
 40  23  38  1   
 41  23  39  1   
 42  23  40  1   
 43  24  41  1   
@<TRIPOS>SUBSTRUCTURE
  1 ****  15 GROUP 4 **** **** 0

# MOE 2024.06 (io_trps.svl 2023.06)
