@<TRIPOS>MOLECULE
NONAME
45 47 1 0 0 
SMALL
USER_CHARGES


@<TRIPOS>ATOM
  1 S       -0.6430     0.7330     1.1630 S.o2  1 <1>   1.4470 
  2 O       -0.3800    -0.2360     2.2050 O.2   1 <1>  -0.6500 
  3 O       -1.2490     1.9900     1.5530 O.2   1 <1>  -0.6500 
  4 N       -1.6740     0.0370     0.0050 N.am  1 <1>  -0.8490 
  5 C        0.8970     1.0560     0.2390 C.ar  1 <1>  -0.0090 
  6 C       -1.1710    -1.1750    -0.6740 C.3   1 <1>   0.1960 
  7 C       -3.0740    -0.0830     0.4240 C.3   1 <1>   0.1960 
  8 C        1.0230     2.0530    -0.7330 C.ar  1 <1>  -0.1440 
  9 C        2.0050     0.2530     0.4900 C.ar  1 <1>  -0.1500 
 10 C       -1.3790    -2.4560     0.1420 C.3   1 <1>  -0.1860 
 11 C       -3.3210    -1.3270     1.2830 C.3   1 <1>  -0.1600 
 12 C        2.2300     2.2300    -1.3920 C.ar  1 <1>  -0.1500 
 13 C       -0.1380     2.9670    -1.1020 C.3   1 <1>  -0.0970 
 14 C        3.2230     0.4090    -0.1650 C.ar  1 <1>   0.0530 
 15 C       -0.9560    -3.6630    -0.6640 C.2   1 <1>   0.9060 
 16 C       -2.8460    -2.5740     0.5450 C.3   1 <1>   0.2000 
 17 C        3.3120     1.4220    -1.1110 C.ar  1 <1>  -0.1500 
 18 C        4.3450    -0.4520     0.1310 C.2   1 <1>   0.0870 
 19 O       -0.4090    -3.5030    -1.7580 O.co2 1 <1>  -0.9000 
 20 O       -1.1850    -4.7860    -0.1980 O.co2 1 <1>  -0.9000 
 21 O       -2.9930    -3.6600     1.3770 O.3   1 <1>  -0.6800 
 22 O        5.5710    -0.1040    -0.1810 O.3   1 <1>  -0.2800 
 23 C        4.4460    -1.6620     0.7230 C.2   1 <1>   0.0770 
 24 C        6.3470    -1.0770     0.2240 C.2   1 <1>   0.2980 
 25 N        5.7330    -2.0530     0.7840 N.2   1 <1>  -0.5650 
 26 C        7.8360    -0.9650     0.0050 C.3   1 <1>  -0.0600 
 27 H       -1.6970    -1.2810    -1.6090 H     1 <1>   0.0800 
 28 H       -0.1280    -1.0690    -0.9190 H     1 <1>   0.0800 
 29 H       -3.3770     0.8000     0.9630 H     1 <1>   0.0800 
 30 H       -3.6870    -0.1470    -0.4590 H     1 <1>   0.0800 
 31 H        1.9180    -0.5270     1.2260 H     1 <1>   0.1500 
 32 H       -0.7610    -2.4290     1.0160 H     1 <1>   0.0800 
 33 H       -4.3720    -1.4140     1.4870 H     1 <1>   0.0800 
 34 H       -2.8000    -1.2320     2.2190 H     1 <1>   0.0800 
 35 H        2.3330     3.0010    -2.1360 H     1 <1>   0.1500 
 36 H        0.0900     3.5500    -1.9760 H     1 <1>   0.0800 
 37 H       -0.3490     3.6420    -0.2920 H     1 <1>   0.0800 
 38 H       -1.0200     2.3900    -1.3140 H     1 <1>   0.0800 
 39 H       -3.4510    -2.7500    -0.3290 H     1 <1>   0.0800 
 40 H        4.2400     1.5730    -1.6350 H     1 <1>   0.1500 
 41 H       -2.4120    -4.3770     0.9850 H     1 <1>   0.4000 
 42 H        3.6530    -2.2800     1.1080 H     1 <1>   0.1500 
 43 H        8.3270    -1.8370     0.3930 H     1 <1>   0.0800 
 44 H        8.2100    -0.0940     0.5100 H     1 <1>   0.0800 
 45 H        8.0390    -0.8820    -1.0460 H     1 <1>   0.0800 
@<TRIPOS>BOND
  1   1   2  2   
  2   1   3  2   
  3   1   4  am  
  4   1   5  1   
  5   4   6  1   
  6   4   7  1   
  7   5   8  ar  
  8   5   9  ar  
  9   6  10  1   
 10   6  27  1   
 11   6  28  1   
 12   7  11  1   
 13   7  29  1   
 14   7  30  1   
 15   8  12  ar  
 16   8  13  1   
 17   9  14  ar  
 18   9  31  1   
 19  10  15  1   
 20  10  16  1   
 21  10  32  1   
 22  11  16  1   
 23  11  33  1   
 24  11  34  1   
 25  12  17  ar  
 26  12  35  1   
 27  13  36  1   
 28  13  37  1   
 29  13  38  1   
 30  14  17  ar  
 31  14  18  1   
 32  15  19  ar  
 33  15  20  ar  
 34  16  21  1   
 35  16  39  1   
 36  17  40  1   
 37  18  22  1   
 38  18  23  2   
 39  21  41  1   
 40  22  24  1   
 41  23  25  1   
 42  23  42  1   
 43  24  25  2   
 44  24  26  1   
 45  26  43  1   
 46  26  44  1   
 47  26  45  1   
@<TRIPOS>SUBSTRUCTURE
  1 ****   9 GROUP 4 **** **** 0

# MOE 2024.06 (io_trps.svl 2023.06)
