@<TRIPOS>MOLECULE
NONAME
48 50 1 0 0 
SMALL
USER_CHARGES


@<TRIPOS>ATOM
  1 O       -4.1930     2.6570    -2.3830 O.2   1 <1>  -0.5700 
  2 C       -3.0420     2.3840    -2.1430 C.2   1 <1>   0.5690 
  3 N       -2.5300     1.1560    -2.4000 N.am  1 <1>  -0.7300 
  4 C       -2.1390     3.4260    -1.5090 C.3   1 <1>   0.0440 
  5 C       -3.3020    -0.0350    -2.8130 C.3   1 <1>   0.2200 
  6 C       -1.3210     2.8320    -0.3650 C.ar  1 <1>  -0.1440 
  7 C       -3.4440    -1.0080    -1.6490 C.3   1 <1>  -0.0800 
  8 C       -2.4500    -0.8640    -3.7630 C.3   1 <1>   0.1200 
  9 C       -0.0410     2.3500    -0.5850 C.ar  1 <1>  -0.1500 
 10 C       -1.8640     2.7540     0.9080 C.ar  1 <1>  -0.1500 
 11 C       -2.1090    -1.7600    -1.6750 C.3   1 <1>   0.1200 
 12 C       -3.7910    -0.3820    -0.2840 C.3   1 <1>  -0.0160 
 13 O       -1.5590    -1.5650    -2.9470 O.3   1 <1>  -0.5600 
 14 C        0.6860     1.7950     0.4540 C.ar  1 <1>  -0.1500 
 15 C       -1.1350     2.2020     1.9470 C.ar  1 <1>  -0.1500 
 16 C       -3.8380    -1.4360     0.8090 C.ar  1 <1>  -0.1440 
 17 C        0.1460     1.7210     1.7280 C.ar  1 <1>  -0.1440 
 18 C       -2.7840    -1.6120     1.6820 C.ar  1 <1>  -0.1500 
 19 C       -4.9240    -2.2670     0.9870 C.ar  1 <1>  -0.1500 
 20 C        0.9530     1.1330     2.8760 C.3   1 <1>  -0.0170 
 21 C       -2.8610    -2.5880     2.6610 C.ar  1 <1>   0.1600 
 22 C       -4.9020    -3.2120     2.0000 C.ar  1 <1>   0.1600 
 23 C        0.5270    -0.3070     3.1690 C.3   1 <1>  -0.2400 
 24 N       -3.8950    -3.3940     2.8400 N.ar  1 <1>  -0.6200 
 25 H       -1.5750     0.9420    -2.0990 H     1 <1>   0.3700 
 26 H       -1.4880     3.8230    -2.2660 H     1 <1>   0.0800 
 27 H       -2.7440     4.2340    -1.1410 H     1 <1>   0.0800 
 28 H       -4.2470     0.2500    -3.2440 H     1 <1>   0.0800 
 29 H       -4.2140    -1.7160    -1.8980 H     1 <1>   0.0800 
 30 H       -1.9020    -0.2610    -4.4660 H     1 <1>   0.0800 
 31 H       -3.0530    -1.5840    -4.2870 H     1 <1>   0.0800 
 32 H        0.4020     2.4020    -1.5650 H     1 <1>   0.1500 
 33 H       -2.8580     3.1210     1.0970 H     1 <1>   0.1500 
 34 H       -2.2380    -2.8150    -1.5040 H     1 <1>   0.0800 
 35 H       -1.4140    -1.3570    -0.9580 H     1 <1>   0.0800 
 36 H       -4.7420     0.1170    -0.3490 H     1 <1>   0.0800 
 37 H       -3.0600     0.3560    -0.0110 H     1 <1>   0.0800 
 38 H        1.6790     1.4240     0.2670 H     1 <1>   0.1500 
 39 H       -1.5690     2.1510     2.9300 H     1 <1>   0.1500 
 40 H       -1.9050    -0.9970     1.6060 H     1 <1>   0.1500 
 41 H       -5.7860    -2.1890     0.3500 H     1 <1>   0.1500 
 42 H        2.0000     1.1540     2.6320 H     1 <1>   0.0800 
 43 H        0.8140     1.7370     3.7560 H     1 <1>   0.0800 
 44 H       -2.0290    -2.7110     3.3320 H     1 <1>   0.1500 
 45 H       -5.7580    -3.8530     2.1250 H     1 <1>   0.1500 
 46 H        0.6400    -0.9140     2.2880 H     1 <1>   0.0800 
 47 H       -0.5010    -0.3320     3.4840 H     1 <1>   0.0800 
 48 H        1.1360    -0.7190     3.9540 H     1 <1>   0.0800 
@<TRIPOS>BOND
  1   1   2  2   
  2   2   3  am  
  3   2   4  1   
  4   3   5  1   
  5   3  25  1   
  6   4   6  1   
  7   4  26  1   
  8   4  27  1   
  9   5   7  1   
 10   5   8  1   
 11   5  28  1   
 12   6   9  ar  
 13   6  10  ar  
 14   7  11  1   
 15   7  12  1   
 16   7  29  1   
 17   8  13  1   
 18   8  30  1   
 19   8  31  1   
 20   9  14  ar  
 21   9  32  1   
 22  10  15  ar  
 23  10  33  1   
 24  11  13  1   
 25  11  34  1   
 26  11  35  1   
 27  12  16  1   
 28  12  36  1   
 29  12  37  1   
 30  14  17  ar  
 31  14  38  1   
 32  15  17  ar  
 33  15  39  1   
 34  16  18  ar  
 35  16  19  ar  
 36  17  20  1   
 37  18  21  ar  
 38  18  40  1   
 39  19  22  ar  
 40  19  41  1   
 41  20  23  1   
 42  20  42  1   
 43  20  43  1   
 44  21  24  ar  
 45  21  44  1   
 46  22  24  ar  
 47  22  45  1   
 48  23  46  1   
 49  23  47  1   
 50  23  48  1   
@<TRIPOS>SUBSTRUCTURE
  1 ****  12 GROUP 4 **** **** 0

# MOE 2024.06 (io_trps.svl 2023.06)
