@<TRIPOS>MOLECULE
NONAME
46 48 1 0 0 
SMALL
USER_CHARGES


@<TRIPOS>ATOM
  1 S        0.1260    -0.0190    -1.4630 S.o2  1 <1>   1.4470 
  2 O        0.5310     1.2850    -1.9460 O.2   1 <1>  -0.6500 
  3 O        0.0740    -1.1330    -2.3840 O.2   1 <1>  -0.6500 
  4 N       -1.4260     0.1580    -0.8000 N.am  1 <1>  -0.8490 
  5 C        1.1310    -0.4900    -0.0260 C.ar  1 <1>  -0.0090 
  6 C       -1.5290     1.3510     0.0420 C.3   1 <1>   0.1960 
  7 C       -2.4460     0.2040    -1.8500 C.3   1 <1>   0.1960 
  8 C        2.2670     0.2300     0.3310 C.ar  1 <1>  -0.1500 
  9 C        0.7850    -1.5860     0.7560 C.ar  1 <1>  -0.1500 
 10 C       -2.8820     1.3640     0.7560 C.3   1 <1>  -0.1600 
 11 C       -3.8390     0.1800    -1.2170 C.3   1 <1>  -0.1600 
 12 C        3.0280    -0.1280     1.4300 C.ar  1 <1>  -0.1500 
 13 C        1.5400    -1.9520     1.8570 C.ar  1 <1>  -0.1500 
 14 C       -4.0520     1.3490    -0.2450 C.3   1 <1>   0.2800 
 15 C        2.6630    -1.2210     2.1960 C.ar  1 <1>  -0.1500 
 16 O       -3.9770     2.5020    -1.0320 O.3   1 <1>  -0.5600 
 17 C       -5.4410     1.2140     0.4390 C.3   1 <1>  -0.1600 
 18 C       -4.3360     3.7620    -0.5160 C.3   1 <1>   0.1200 
 19 C       -6.3560     2.4430     0.3160 C.3   1 <1>   0.2800 
 20 C       -5.5190     3.7320     0.4730 C.3   1 <1>   0.2000 
 21 O       -6.9300     2.4360    -0.9420 O.3   1 <1>  -0.6800 
 22 C       -7.5310     2.3680     1.2970 C.3   1 <1>  -0.2400 
 23 O       -5.0150     3.8310     1.7740 O.3   1 <1>  -0.6800 
 24 H       -0.7440     1.3470     0.7800 H     1 <1>   0.0800 
 25 H       -1.4200     2.2410    -0.5590 H     1 <1>   0.0800 
 26 H       -2.3210     1.0910    -2.4510 H     1 <1>   0.0800 
 27 H       -2.3480    -0.6540    -2.4960 H     1 <1>   0.0800 
 28 H        2.5600     1.0820    -0.2600 H     1 <1>   0.1500 
 29 H       -0.0890    -2.1590     0.4940 H     1 <1>   0.1500 
 30 H       -2.9320     2.2250     1.3920 H     1 <1>   0.0800 
 31 H       -2.9340     0.4930     1.3850 H     1 <1>   0.0800 
 32 H       -3.9570    -0.7540    -0.7000 H     1 <1>   0.0800 
 33 H       -4.5820     0.2230    -1.9940 H     1 <1>   0.0800 
 34 H        3.9040     0.4420     1.6890 H     1 <1>   0.1500 
 35 H        1.2530    -2.8050     2.4480 H     1 <1>   0.1500 
 36 H        3.2540    -1.5030     3.0500 H     1 <1>   0.1500 
 37 H       -5.9640     0.3490     0.0720 H     1 <1>   0.0800 
 38 H       -5.2760     1.0200     1.4830 H     1 <1>   0.0800 
 39 H       -3.4680     4.2120    -0.0670 H     1 <1>   0.0800 
 40 H       -4.6190     4.3560    -1.3660 H     1 <1>   0.0800 
 41 H       -6.1420     4.5960     0.3220 H     1 <1>   0.0800 
 42 H       -7.4400     1.6170    -1.0700 H     1 <1>   0.4000 
 43 H       -7.1740     2.3690     2.3110 H     1 <1>   0.0800 
 44 H       -8.1040     1.4710     1.1440 H     1 <1>   0.0800 
 45 H       -8.1700     3.2240     1.1720 H     1 <1>   0.0800 
 46 H       -4.4550     3.0580     1.9680 H     1 <1>   0.4000 
@<TRIPOS>BOND
  1   1   2  2   
  2   1   3  2   
  3   1   4  am  
  4   1   5  1   
  5   4   6  1   
  6   4   7  1   
  7   5   8  ar  
  8   5   9  ar  
  9   6  10  1   
 10   6  24  1   
 11   6  25  1   
 12   7  11  1   
 13   7  26  1   
 14   7  27  1   
 15   8  12  ar  
 16   8  28  1   
 17   9  13  ar  
 18   9  29  1   
 19  10  14  1   
 20  10  30  1   
 21  10  31  1   
 22  11  14  1   
 23  11  32  1   
 24  11  33  1   
 25  12  15  ar  
 26  12  34  1   
 27  13  15  ar  
 28  13  35  1   
 29  14  16  1   
 30  14  17  1   
 31  15  36  1   
 32  16  18  1   
 33  17  19  1   
 34  17  37  1   
 35  17  38  1   
 36  18  20  1   
 37  18  39  1   
 38  18  40  1   
 39  19  20  1   
 40  19  21  1   
 41  19  22  1   
 42  20  23  1   
 43  20  41  1   
 44  21  42  1   
 45  22  43  1   
 46  22  44  1   
 47  22  45  1   
 48  23  46  1   
@<TRIPOS>SUBSTRUCTURE
  1 ****   6 GROUP 4 **** **** 0

# MOE 2024.06 (io_trps.svl 2023.06)
