@<TRIPOS>MOLECULE
NONAME
42 43 1 0 0 
SMALL
USER_CHARGES


@<TRIPOS>ATOM
  1 CL      -1.2610    -1.0580     2.8700 Cl    1 <1>  -0.1770 
  2 C       -2.4280    -1.4140     1.6250 C.ar  1 <1>   0.1770 
  3 C       -3.5850    -0.6650     1.5420 C.ar  1 <1>  -0.1500 
  4 C       -2.1810    -2.4410     0.7360 C.ar  1 <1>  -0.1500 
  5 C       -4.5100    -0.9570     0.5530 C.ar  1 <1>  -0.1500 
  6 C       -3.1140    -2.7200    -0.2490 C.ar  1 <1>  -0.1500 
  7 C       -4.2950    -1.9890    -0.3580 C.ar  1 <1>  -0.0090 
  8 S       -5.5300    -2.3920    -1.6340 S.o2  1 <1>   1.4470 
  9 O       -4.8330    -3.0330    -2.7270 O.2   1 <1>  -0.6500 
 10 O       -6.3130    -1.1980    -1.8760 O.2   1 <1>  -0.6500 
 11 N       -6.5320    -3.5270    -0.8660 N.am  1 <1>  -0.8490 
 12 C       -5.8490    -4.7950    -0.5280 C.3   1 <1>   0.1960 
 13 C       -7.3730    -2.9600     0.1830 C.3   1 <1>   0.1960 
 14 C       -6.7340    -5.8810     0.1300 C.3   1 <1>  -0.1060 
 15 C       -8.3630    -3.9980     0.6910 C.3   1 <1>  -0.1600 
 16 C       -7.6030    -6.5640    -0.9440 C.2   1 <1>   0.9060 
 17 C       -7.5930    -5.1980     1.2230 C.3   1 <1>   0.2000 
 18 C       -5.8260    -6.9380     0.8320 C.3   1 <1>  -0.1600 
 19 O       -8.7370    -6.9740    -0.6420 O.co2 1 <1>  -0.9000 
 20 O       -7.1370    -6.7700    -2.0700 O.co2 1 <1>  -0.9000 
 21 O       -8.5040    -6.0810     1.7580 O.3   1 <1>  -0.6800 
 22 C       -4.7940    -7.6340    -0.0740 C.3   1 <1>  -0.1600 
 23 C       -3.9630    -8.6450     0.7210 C.3   1 <1>  -0.2400 
 24 H       -3.7540     0.1350     2.2420 H     1 <1>   0.1500 
 25 H       -1.2710    -3.0100     0.8140 H     1 <1>   0.1500 
 26 H       -5.4120    -0.3710     0.4810 H     1 <1>   0.1500 
 27 H       -2.9230    -3.5190    -0.9490 H     1 <1>   0.1500 
 28 H       -5.4080    -5.1980    -1.4260 H     1 <1>   0.0800 
 29 H       -5.0470    -4.5760     0.1520 H     1 <1>   0.0800 
 30 H       -6.7610    -2.6140     0.9990 H     1 <1>   0.0800 
 31 H       -7.9270    -2.1240    -0.2120 H     1 <1>   0.0800 
 32 H       -9.0170    -4.2910    -0.1120 H     1 <1>   0.0800 
 33 H       -8.9540    -3.5700     1.4800 H     1 <1>   0.0800 
 34 H       -6.9630    -4.8740     2.0330 H     1 <1>   0.0800 
 35 H       -5.3050    -6.4720     1.6500 H     1 <1>   0.0800 
 36 H       -6.4640    -7.6980     1.2540 H     1 <1>   0.0800 
 37 H       -8.8670    -6.5830     0.9630 H     1 <1>   0.4000 
 38 H       -5.3040    -8.1510    -0.8710 H     1 <1>   0.0800 
 39 H       -4.1330    -6.9140    -0.5200 H     1 <1>   0.0800 
 40 H       -4.6030    -9.3970     1.1480 H     1 <1>   0.0800 
 41 H       -3.4250    -8.1540     1.5120 H     1 <1>   0.0800 
 42 H       -3.2560    -9.1280     0.0700 H     1 <1>   0.0800 
@<TRIPOS>BOND
  1   1   2  1   
  2   2   3  ar  
  3   2   4  ar  
  4   3   5  ar  
  5   3  24  1   
  6   4   6  ar  
  7   4  25  1   
  8   5   7  ar  
  9   5  26  1   
 10   6   7  ar  
 11   6  27  1   
 12   7   8  1   
 13   8   9  2   
 14   8  10  2   
 15   8  11  am  
 16  11  12  1   
 17  11  13  1   
 18  12  14  1   
 19  12  28  1   
 20  12  29  1   
 21  13  15  1   
 22  13  30  1   
 23  13  31  1   
 24  14  16  1   
 25  14  17  1   
 26  14  18  1   
 27  15  17  1   
 28  15  32  1   
 29  15  33  1   
 30  16  19  ar  
 31  16  20  ar  
 32  17  21  1   
 33  17  34  1   
 34  18  22  1   
 35  18  35  1   
 36  18  36  1   
 37  21  37  1   
 38  22  23  1   
 39  22  38  1   
 40  22  39  1   
 41  23  40  1   
 42  23  41  1   
 43  23  42  1   
@<TRIPOS>SUBSTRUCTURE
  1 ****  12 GROUP 4 **** **** 0

# MOE 2024.06 (io_trps.svl 2023.06)
