@<TRIPOS>MOLECULE
NONAME
19 19 1 0 0 
SMALL
USER_CHARGES


@<TRIPOS>ATOM
  1 O       -5.4910    -0.0090     0.6660 O.2   1 <1>  -0.5700 
  2 C       -6.5580    -0.5560     0.5650 C.2   1 <1>   0.5690 
  3 N       -6.6380    -1.8850     0.2870 N.am  1 <1>  -0.5100 
  4 C       -7.8210     0.2490     0.7560 C.3   1 <1>  -0.1790 
  5 C       -5.6020    -2.6590    -0.4750 C.3   1 <1>   0.2250 
  6 C       -7.7030    -2.6580    -0.4270 C.3   1 <1>   0.2250 
  7 C       -6.6500    -3.8030    -0.5330 C.3   1 <1>   0.4720 
  8 N       -6.6040    -4.6820     0.6760 N.4   1 <1>  -0.8220 
  9 H       -8.5110    -0.2810     1.3840 H     1 <1>   0.0800 
 10 H       -8.2750     0.4450    -0.1970 H     1 <1>   0.0800 
 11 H       -7.5810     1.1880     1.2220 H     1 <1>   0.0800 
 12 H       -4.7320    -2.8830     0.1170 H     1 <1>   0.0000 
 13 H       -5.3920    -2.2050    -1.4280 H     1 <1>   0.0000 
 14 H       -7.9570    -2.2030    -1.3690 H     1 <1>   0.0000 
 15 H       -8.5440    -2.8870     0.2030 H     1 <1>   0.0000 
 16 H       -6.6700    -4.3580    -1.4540 H     1 <1>   0.0000 
 17 H       -6.5550    -4.0810     1.5090 H     1 <1>   0.4500 
 18 H       -5.7700    -5.2780     0.6620 H     1 <1>   0.4500 
 19 H       -7.4370    -5.2740     0.7410 H     1 <1>   0.4500 
@<TRIPOS>BOND
  1   1   2  2   
  2   2   3  am  
  3   2   4  1   
  4   3   5  1   
  5   3   6  1   
  6   4   9  1   
  7   4  10  1   
  8   4  11  1   
  9   5   7  1   
 10   5  12  1   
 11   5  13  1   
 12   6   7  1   
 13   6  14  1   
 14   6  15  1   
 15   7   8  1   
 16   7  16  1   
 17   8  17  1   
 18   8  18  1   
 19   8  19  1   
@<TRIPOS>SUBSTRUCTURE
  1 ****   3 GROUP 4 **** **** 0

# MOE 2024.06 (io_trps.svl 2023.06)
