@<TRIPOS>MOLECULE
NONAME
55 59 1 0 0 
SMALL
USER_CHARGES


@<TRIPOS>ATOM
  1 F        0.8100    -0.1960     1.6270 F     1 <1>  -0.1900 
  2 C        1.6500     0.3180     0.7590 C.ar  1 <1>   0.1900 
  3 C        2.6050    -0.4890     0.1110 C.ar  1 <1>   0.4100 
  4 C        1.5600     1.6690     0.5270 C.ar  1 <1>  -0.1500 
  5 N        3.4790     0.0370    -0.7490 N.ar  1 <1>  -0.6200 
  6 N        2.7080    -1.8660     0.3250 N.pl3 1 <1>  -0.8380 
  7 C        2.4690     2.1880    -0.3740 C.ar  1 <1>  -0.1500 
  8 C        3.3890     1.3410    -0.9690 C.ar  1 <1>   0.1600 
  9 C        3.8260    -2.6630    -0.2640 C.3   1 <1>   0.2090 
 10 C        1.4770    -2.7200     0.3350 C.3   1 <1>   0.2090 
 11 C        3.3540    -4.1110    -0.1950 C.3   1 <1>   0.2000 
 12 C        1.8480    -4.0070    -0.4100 C.3   1 <1>   0.2200 
 13 O        3.9500    -4.9130    -1.1860 O.3   1 <1>  -0.5600 
 14 N        1.1150    -5.2230     0.0480 N.am  1 <1>  -0.7300 
 15 C        4.8990    -5.8320    -0.7220 C.3   1 <1>   0.3010 
 16 C       -0.2310    -5.3980    -0.0950 C.2   1 <1>   0.5440 
 17 C        4.2250    -7.0650    -0.1260 C.2   1 <1>   0.0460 
 18 O       -0.9230    -4.4120    -0.2630 O.2   1 <1>  -0.5700 
 19 C       -0.8300    -6.7220    -0.0860 C.ar  1 <1>   0.0860 
 20 N        3.5100    -7.0080     1.0040 N.2   1 <1>  -0.2270 
 21 C        4.2420    -8.3310    -0.5740 C.2   1 <1>  -0.3020 
 22 C       -0.1600    -7.8330    -0.5970 C.ar  1 <1>  -0.1500 
 23 C       -2.1250    -6.9140     0.3980 C.ar  1 <1>  -0.1500 
 24 N        3.0810    -8.1900     1.2640 N.2   1 <1>  -0.4180 
 25 N        3.5240    -9.0210     0.3160 N.pl3 1 <1>   0.3140 
 26 C       -0.7680    -9.0840    -0.6500 C.ar  1 <1>   0.0830 
 27 C       -2.7340    -8.1550     0.3630 C.ar  1 <1>  -0.1500 
 28 C        3.2320   -10.4700     0.3340 C.3   1 <1>   0.0960 
 29 O       -0.1810   -10.1930    -1.1690 O.3   1 <1>  -0.3630 
 30 C       -2.0560    -9.2370    -0.1660 C.ar  1 <1>  -0.1500 
 31 C        1.7290   -10.7350     0.1680 C.3   1 <1>  -0.1600 
 32 C        1.2190   -10.3470    -1.2250 C.3   1 <1>   0.1200 
 33 H        0.8260     2.2770     1.0240 H     1 <1>   0.1500 
 34 H        2.4640     3.2360    -0.6120 H     1 <1>   0.1500 
 35 H        4.0940     1.7600    -1.6670 H     1 <1>   0.1500 
 36 H        3.9780    -2.3790    -1.2910 H     1 <1>   0.0800 
 37 H        4.7270    -2.5130     0.3030 H     1 <1>   0.0800 
 38 H        1.2110    -2.9440     1.3530 H     1 <1>   0.0800 
 39 H        0.6560    -2.2260    -0.1550 H     1 <1>   0.0800 
 40 H        3.5560    -4.4900     0.7910 H     1 <1>   0.0800 
 41 H        1.6530    -3.8500    -1.4570 H     1 <1>   0.0800 
 42 H        1.7140    -6.0230     0.2930 H     1 <1>   0.3700 
 43 H        5.4950    -6.1250    -1.5670 H     1 <1>   0.0800 
 44 H        5.5360    -5.3530     0.0010 H     1 <1>   0.0800 
 45 H        4.7090    -8.7650    -1.4370 H     1 <1>   0.1500 
 46 H        0.8320    -7.6860    -0.9720 H     1 <1>   0.1500 
 47 H       -2.6590    -6.0680     0.7980 H     1 <1>   0.1500 
 48 H       -3.7340    -8.2760     0.7410 H     1 <1>   0.1500 
 49 H        3.7900   -10.9520    -0.4480 H     1 <1>   0.0800 
 50 H        3.5630   -10.8590     1.2800 H     1 <1>   0.0800 
 51 H       -2.5230   -10.2050    -0.2080 H     1 <1>   0.1500 
 52 H        1.1980   -10.1880     0.9280 H     1 <1>   0.0800 
 53 H        1.5370   -11.7820     0.3230 H     1 <1>   0.0800 
 54 H        1.4270   -11.1360    -1.9270 H     1 <1>   0.0800 
 55 H        1.6620    -9.4450    -1.6010 H     1 <1>   0.0800 
@<TRIPOS>BOND
  1   1   2  1   
  2   2   3  ar  
  3   2   4  ar  
  4   3   5  ar  
  5   3   6  1   
  6   4   7  ar  
  7   4  33  1   
  8   5   8  ar  
  9   6   9  1   
 10   6  10  1   
 11   7   8  ar  
 12   7  34  1   
 13   8  35  1   
 14   9  11  1   
 15   9  36  1   
 16   9  37  1   
 17  10  12  1   
 18  10  38  1   
 19  10  39  1   
 20  11  12  1   
 21  11  13  1   
 22  11  40  1   
 23  12  14  1   
 24  12  41  1   
 25  13  15  1   
 26  14  16  am  
 27  14  42  1   
 28  15  17  1   
 29  15  43  1   
 30  15  44  1   
 31  16  18  2   
 32  16  19  1   
 33  17  20  1   
 34  17  21  2   
 35  19  22  ar  
 36  19  23  ar  
 37  20  24  2   
 38  21  25  1   
 39  21  45  1   
 40  22  26  ar  
 41  22  46  1   
 42  23  27  ar  
 43  23  47  1   
 44  24  25  1   
 45  25  28  1   
 46  26  29  1   
 47  26  30  ar  
 48  27  30  ar  
 49  27  48  1   
 50  28  31  1   
 51  28  49  1   
 52  28  50  1   
 53  29  32  1   
 54  30  51  1   
 55  31  32  1   
 56  31  52  1   
 57  31  53  1   
 58  32  54  1   
 59  32  55  1   
@<TRIPOS>SUBSTRUCTURE
  1 ****  14 GROUP 4 **** **** 0

# MOE 2024.06 (io_trps.svl 2023.06)
