@<TRIPOS>MOLECULE
NONAME
44 47 1 0 0 
SMALL
USER_CHARGES


@<TRIPOS>ATOM
  1 CL       0.0770     0.6570     0.3120 Cl    1 <1>  -0.1770 
  2 C        0.0760     2.3990     0.2480 C.ar  1 <1>   0.1770 
  3 C       -0.5600     3.0420    -0.7950 C.ar  1 <1>  -0.1500 
  4 C        0.7100     3.1180     1.2420 C.ar  1 <1>  -0.1500 
  5 C       -0.5580     4.4250    -0.8400 C.ar  1 <1>  -0.1500 
  6 C        0.7060     4.5010     1.1850 C.ar  1 <1>  -0.1500 
  7 C        0.0730     5.1940     0.1460 C.ar  1 <1>   0.0000 
  8 C        0.0700     6.6510     0.0940 C.ar  1 <1>   0.6200 
  9 N        0.1340     7.3120     1.2540 N.ar  1 <1>  -0.6200 
 10 N        0.0010     7.2280    -1.1090 N.ar  1 <1>  -0.6200 
 11 C        0.1330     8.6220     1.1910 C.ar  1 <1>   0.1600 
 12 C        0.0050     8.5390    -1.1390 C.ar  1 <1>   0.1600 
 13 C        0.0740     9.3030     0.0000 C.ar  1 <1>  -0.1430 
 14 C        0.0680    10.8230    -0.0520 C.3   1 <1>   0.2530 
 15 N        1.4200    11.3950    -0.1630 N.3   1 <1>  -0.8100 
 16 C        2.2620    11.1450     1.0370 C.3   1 <1>   0.1100 
 17 C        2.0770    11.0820    -1.4520 C.3   1 <1>   0.1100 
 18 C        3.5570    11.9970     1.1480 C.3   1 <1>   0.2200 
 19 C        3.3110    11.9560    -1.7660 C.3   1 <1>  -0.0190 
 20 N        3.4970    13.2450     0.3430 N.am  1 <1>  -0.7300 
 21 C        4.8180    11.1850     0.7820 C.3   1 <1>   0.1200 
 22 C        3.3290    13.2620    -0.9950 C.2   1 <1>   0.5690 
 23 C        4.6410    11.2060    -1.5880 C.3   1 <1>   0.1200 
 24 O        4.6790    10.4610    -0.4080 O.3   1 <1>  -0.5600 
 25 O        3.2230    14.3090    -1.5840 O.2   1 <1>  -0.5700 
 26 H       -1.0480     2.4650    -1.5600 H     1 <1>   0.1500 
 27 H        1.2000     2.6000     2.0460 H     1 <1>   0.1500 
 28 H       -1.0550     4.9220    -1.6560 H     1 <1>   0.1500 
 29 H        1.2030     5.0570     1.9620 H     1 <1>   0.1500 
 30 H        0.1800     9.1650     2.1190 H     1 <1>   0.1500 
 31 H       -0.0490     9.0160    -2.1030 H     1 <1>   0.1500 
 32 H       -0.4050    11.2130     0.8330 H     1 <1>   0.0800 
 33 H       -0.5210    11.1530    -0.8910 H     1 <1>   0.0800 
 34 H        1.6720    11.3600     1.9100 H     1 <1>   0.0800 
 35 H        2.5220    10.1010     1.0830 H     1 <1>   0.0800 
 36 H        2.3520    10.0410    -1.4790 H     1 <1>   0.0800 
 37 H        1.3610    11.2500    -2.2380 H     1 <1>   0.0800 
 38 H        3.6710    12.2850     2.1780 H     1 <1>   0.0800 
 39 H        3.2580    12.2170    -2.8070 H     1 <1>   0.0800 
 40 H        3.3690    14.1320     0.8300 H     1 <1>   0.3700 
 41 H        5.0020    10.4610     1.5550 H     1 <1>   0.0800 
 42 H        5.6800    11.8240     0.7080 H     1 <1>   0.0800 
 43 H        5.4770    11.8850    -1.6050 H     1 <1>   0.0800 
 44 H        4.7610    10.5040    -2.3950 H     1 <1>   0.0800 
@<TRIPOS>BOND
  1   1   2  1   
  2   2   3  ar  
  3   2   4  ar  
  4   3   5  ar  
  5   3  26  1   
  6   4   6  ar  
  7   4  27  1   
  8   5   7  ar  
  9   5  28  1   
 10   6   7  ar  
 11   6  29  1   
 12   7   8  1   
 13   8   9  ar  
 14   8  10  ar  
 15   9  11  ar  
 16  10  12  ar  
 17  11  13  ar  
 18  11  30  1   
 19  12  13  ar  
 20  12  31  1   
 21  13  14  1   
 22  14  15  1   
 23  14  32  1   
 24  14  33  1   
 25  15  16  1   
 26  15  17  1   
 27  16  18  1   
 28  16  34  1   
 29  16  35  1   
 30  17  19  1   
 31  17  36  1   
 32  17  37  1   
 33  18  20  1   
 34  18  21  1   
 35  18  38  1   
 36  19  22  1   
 37  19  23  1   
 38  19  39  1   
 39  20  22  am  
 40  20  40  1   
 41  21  24  1   
 42  21  41  1   
 43  21  42  1   
 44  22  25  2   
 45  23  24  1   
 46  23  43  1   
 47  23  44  1   
@<TRIPOS>SUBSTRUCTURE
  1 ****  13 GROUP 4 **** **** 0

# MOE 2024.06 (io_trps.svl 2023.06)
