@<TRIPOS>MOLECULE
NONAME
44 46 1 0 0 
SMALL
USER_CHARGES


@<TRIPOS>ATOM
  1 O       -0.7080     0.0280    -2.7190 O.2   1 <1>  -0.5700 
  2 C       -1.2890     0.7440    -1.9370 C.2   1 <1>   0.5690 
  3 N       -2.1450     0.2280    -1.0010 N.am  1 <1>  -0.6600 
  4 C       -1.0510     2.2460    -2.0380 C.3   1 <1>   0.0440 
  5 C       -2.8620     0.9880     0.0530 C.3   1 <1>   0.1400 
  6 C       -2.3600    -1.2300    -0.8350 C.3   1 <1>   0.1400 
  7 C       -0.4060     2.8380    -0.7880 C.ar  1 <1>  -0.1440 
  8 C       -3.7320    -0.0520     0.7560 C.3   1 <1>   0.2000 
  9 C       -3.0190    -1.3830     0.5370 C.3   1 <1>  -0.0800 
 10 C       -0.9630     3.9470    -0.1650 C.ar  1 <1>  -0.1500 
 11 C        0.7440     2.2660    -0.2620 C.ar  1 <1>  -0.1500 
 12 O       -3.8550     0.2130     2.1100 O.3   1 <1>  -0.6800 
 13 C       -3.9540    -2.5980     0.6390 C.3   1 <1>   0.0210 
 14 C       -0.3820     4.4710     0.9760 C.ar  1 <1>  -0.1500 
 15 C        1.3300     2.7870     0.8780 C.ar  1 <1>  -0.1500 
 16 C       -3.2230    -3.8790     0.2890 C.2   1 <1>   0.1080 
 17 C        0.7610     3.8890     1.4950 C.ar  1 <1>   0.0830 
 18 N       -2.1970    -4.3090     0.9560 N.2   1 <1>  -0.7070 
 19 C       -3.5500    -4.7190    -0.7710 C.2   1 <1>  -0.1500 
 20 O        1.3140     4.4050     2.6020 O.3   1 <1>  -0.5330 
 21 N       -1.8390    -5.4470     0.3330 N.pl3 1 <1>   0.3000 
 22 C       -2.6430    -5.7160    -0.7180 C.2   1 <1>  -0.3320 
 23 C       -2.4910    -6.9260    -1.6200 C.3   1 <1>  -0.0600 
 24 H       -0.4070     2.4350    -2.8770 H     1 <1>   0.0800 
 25 H       -1.9910     2.7220    -2.2390 H     1 <1>   0.0800 
 26 H       -2.1450     1.4050     0.7400 H     1 <1>   0.0800 
 27 H       -3.4660     1.7650    -0.3790 H     1 <1>   0.0800 
 28 H       -3.0090    -1.5790    -1.6190 H     1 <1>   0.0800 
 29 H       -1.4260    -1.7670    -0.8820 H     1 <1>   0.0800 
 30 H       -4.7170    -0.0570     0.3200 H     1 <1>   0.0800 
 31 H       -2.2250    -1.4910     1.2550 H     1 <1>   0.0800 
 32 H       -1.8500     4.4100    -0.5610 H     1 <1>   0.1500 
 33 H        1.1870     1.4080    -0.7410 H     1 <1>   0.1500 
 34 H       -2.9880     0.1210     2.5520 H     1 <1>   0.4000 
 35 H       -4.7940    -2.4760    -0.0200 H     1 <1>   0.0800 
 36 H       -4.3270    -2.6780     1.6450 H     1 <1>   0.0800 
 37 H       -0.8060     5.3290     1.4670 H     1 <1>   0.1500 
 38 H        2.2190     2.3350     1.2760 H     1 <1>   0.1500 
 39 H       -4.3570    -4.5780    -1.4680 H     1 <1>   0.1500 
 40 H        2.1260     3.9440     2.8730 H     1 <1>   0.4500 
 41 H       -1.0420    -6.0140     0.6470 H     1 <1>   0.2700 
 42 H       -3.2500    -6.9170    -2.3820 H     1 <1>   0.0800 
 43 H       -2.5910    -7.8320    -1.0480 H     1 <1>   0.0800 
 44 H       -1.5270    -6.9160    -2.0970 H     1 <1>   0.0800 
@<TRIPOS>BOND
  1   1   2  2   
  2   2   3  am  
  3   2   4  1   
  4   3   5  1   
  5   3   6  1   
  6   4   7  1   
  7   4  24  1   
  8   4  25  1   
  9   5   8  1   
 10   5  26  1   
 11   5  27  1   
 12   6   9  1   
 13   6  28  1   
 14   6  29  1   
 15   7  10  ar  
 16   7  11  ar  
 17   8   9  1   
 18   8  12  1   
 19   8  30  1   
 20   9  13  1   
 21   9  31  1   
 22  10  14  ar  
 23  10  32  1   
 24  11  15  ar  
 25  11  33  1   
 26  12  34  1   
 27  13  16  1   
 28  13  35  1   
 29  13  36  1   
 30  14  17  ar  
 31  14  37  1   
 32  15  17  ar  
 33  15  38  1   
 34  16  18  2   
 35  16  19  1   
 36  17  20  1   
 37  18  21  1   
 38  19  22  2   
 39  19  39  1   
 40  20  40  1   
 41  21  22  1   
 42  21  41  1   
 43  22  23  1   
 44  23  42  1   
 45  23  43  1   
 46  23  44  1   
@<TRIPOS>SUBSTRUCTURE
  1 ****   3 GROUP 4 **** **** 0

# MOE 2024.06 (io_trps.svl 2023.06)
