@<TRIPOS>MOLECULE
NONAME
44 47 1 0 0 
SMALL
USER_CHARGES


@<TRIPOS>ATOM
  1 O       -0.6360     5.5000     0.9150 O.2   1 <1>  -0.5700 
  2 C       -0.4710     4.3080     0.7010 C.2   1 <1>   0.5440 
  3 N       -1.6080     3.5160     0.6240 N.am  1 <1>  -0.6600 
  4 C        0.9000     3.8070     0.5110 C.ar  1 <1>   0.3960 
  5 C       -2.9550     4.0260     1.0230 C.3   1 <1>   0.1400 
  6 C       -1.6160     2.1360     0.0470 C.3   1 <1>   0.1400 
  7 N        1.2140     2.5350     0.8150 N.ar  1 <1>  -0.6200 
  8 C        1.8690     4.6850     0.0160 C.ar  1 <1>  -0.1500 
  9 C       -3.8880     4.1300    -0.2040 C.3   1 <1>   0.1440 
 10 C       -2.9940     1.7530    -0.5230 C.3   1 <1>  -0.1600 
 11 C        2.4600     2.1650     0.6210 C.ar  1 <1>   0.3920 
 12 C        3.1730     4.2830    -0.1810 C.ar  1 <1>  -0.1500 
 13 C       -5.3140     4.2030     0.3160 C.ar  1 <1>   0.1660 
 14 C       -3.6710     2.9570    -1.1990 C.3   1 <1>  -0.1600 
 15 C       -3.7330     5.5010    -0.9120 C.3   1 <1>  -0.1600 
 16 O        2.7350     0.9010     0.9250 O.3   1 <1>  -0.5330 
 17 C        3.4700     2.9790     0.1340 C.ar  1 <1>  -0.1500 
 18 N       -6.0120     3.1910     0.7860 N.ar  1 <1>  -0.6200 
 19 C       -5.8020     5.4740     0.2600 C.ar  1 <1>  -0.1440 
 20 C       -4.7900     6.4390    -0.3050 C.3   1 <1>  -0.0170 
 21 C       -7.2330     3.5090     1.1900 C.ar  1 <1>   0.4770 
 22 C       -7.0810     5.6900     0.7090 C.ar  1 <1>   0.1600 
 23 N       -7.8130     4.7020     1.1810 N.ar  1 <1>  -0.6200 
 24 C       -8.0670     2.3750     1.7350 C.3   1 <1>  -0.0970 
 25 H       -2.8830     4.9790     1.5180 H     1 <1>   0.0800 
 26 H       -3.3760     3.3350     1.7320 H     1 <1>   0.0800 
 27 H       -1.3240     1.4290     0.8050 H     1 <1>   0.0800 
 28 H       -0.8910     2.0890    -0.7480 H     1 <1>   0.0800 
 29 H        1.5870     5.6980    -0.2120 H     1 <1>   0.1500 
 30 H       -3.6210     1.3890     0.2720 H     1 <1>   0.0800 
 31 H       -2.8750     0.9510    -1.2290 H     1 <1>   0.0800 
 32 H        3.9200     4.9610    -0.5610 H     1 <1>   0.1500 
 33 H       -3.0320     3.2790    -2.0020 H     1 <1>   0.0800 
 34 H       -4.6120     2.6600    -1.6290 H     1 <1>   0.0800 
 35 H       -3.9530     5.3920    -1.9590 H     1 <1>   0.0800 
 36 H       -2.7380     5.8990    -0.8120 H     1 <1>   0.0800 
 37 H        3.6670     0.6700     0.8050 H     1 <1>   0.4500 
 38 H        4.4670     2.6020     0.0040 H     1 <1>   0.1500 
 39 H       -5.2210     7.0850    -1.0500 H     1 <1>   0.0800 
 40 H       -4.3640     7.0260     0.4900 H     1 <1>   0.0800 
 41 H       -7.5100     6.6770     0.6840 H     1 <1>   0.1500 
 42 H       -7.7130     1.4360     1.3540 H     1 <1>   0.0800 
 43 H       -9.0930     2.5050     1.4450 H     1 <1>   0.0800 
 44 H       -8.0000     2.3710     2.8060 H     1 <1>   0.0800 
@<TRIPOS>BOND
  1   1   2  2   
  2   2   3  am  
  3   2   4  1   
  4   3   5  1   
  5   3   6  1   
  6   4   7  ar  
  7   4   8  ar  
  8   5   9  1   
  9   5  25  1   
 10   5  26  1   
 11   6  10  1   
 12   6  27  1   
 13   6  28  1   
 14   7  11  ar  
 15   8  12  ar  
 16   8  29  1   
 17   9  13  1   
 18   9  14  1   
 19   9  15  1   
 20  10  14  1   
 21  10  30  1   
 22  10  31  1   
 23  11  16  1   
 24  11  17  ar  
 25  12  17  ar  
 26  12  32  1   
 27  13  18  ar  
 28  13  19  ar  
 29  14  33  1   
 30  14  34  1   
 31  15  20  1   
 32  15  35  1   
 33  15  36  1   
 34  16  37  1   
 35  17  38  1   
 36  18  21  ar  
 37  19  20  1   
 38  19  22  ar  
 39  20  39  1   
 40  20  40  1   
 41  21  23  ar  
 42  21  24  1   
 43  22  23  ar  
 44  22  41  1   
 45  24  42  1   
 46  24  43  1   
 47  24  44  1   
@<TRIPOS>SUBSTRUCTURE
  1 ****   5 GROUP 4 **** **** 0

# MOE 2024.06 (io_trps.svl 2023.06)
