@<TRIPOS>MOLECULE
NONAME
57 60 1 0 0 
SMALL
USER_CHARGES


@<TRIPOS>ATOM
  1 O       -0.5650     0.2750     0.4290 O.2   1 <1>  -0.5700 
  2 C       -1.6390     0.7980     0.2380 C.2   1 <1>   0.5690 
  3 N       -2.7490     0.0770    -0.1030 N.am  1 <1>  -0.6600 
  4 C       -1.6900     2.3290     0.3770 C.3   1 <1>   0.4040 
  5 C       -4.1340     0.5850    -0.2950 C.3   1 <1>   0.1400 
  6 C       -2.7200    -1.4030    -0.2470 C.3   1 <1>   0.1400 
  7 N       -0.3440     2.9780     0.1410 N.4   1 <1>  -0.9590 
  8 C       -4.9790    -0.6540    -0.6040 C.3   1 <1>   0.2000 
  9 C       -4.1750    -1.8480    -0.0950 C.3   1 <1>  -0.0800 
 10 C       -0.2370     4.3140     0.7980 C.3   1 <1>   0.4230 
 11 C        0.0370     2.9120    -1.3060 C.3   1 <1>   0.2630 
 12 O       -6.2060    -0.5940     0.0350 O.3   1 <1>  -0.6800 
 13 C       -4.5060    -3.1530    -0.8390 C.3   1 <1>  -0.0170 
 14 C       -1.0410     5.3970     0.0760 C.3   1 <1>  -0.1600 
 15 C        1.2010     4.8290     0.7680 C.3   1 <1>  -0.1600 
 16 C       -3.6510    -4.3040    -0.3380 C.ar  1 <1>   0.1670 
 17 C       -0.0900     6.0900    -0.9070 C.3   1 <1>  -0.1600 
 18 C        1.3330     5.7580    -0.4460 C.3   1 <1>  -0.1600 
 19 N       -2.4750    -4.4460    -0.8660 N.ar  1 <1>  -0.6200 
 20 C       -4.1580    -5.1410     0.6690 C.ar  1 <1>  -0.1500 
 21 C       -1.6950    -5.4610    -0.4130 C.ar  1 <1>   0.3100 
 22 C       -3.3980    -6.1670     1.1430 C.ar  1 <1>  -0.1500 
 23 C       -2.1170    -6.3520     0.5990 C.ar  1 <1>   0.0000 
 24 C       -0.4160    -5.6340    -0.9650 C.ar  1 <1>  -0.1500 
 25 C       -1.2440    -7.3760     1.0170 C.ar  1 <1>  -0.1500 
 26 C        0.4180    -6.6360    -0.5440 C.ar  1 <1>  -0.1500 
 27 C       -0.0020    -7.5160     0.4590 C.ar  1 <1>  -0.1500 
 28 H       -2.0240     2.5490     1.3760 H     1 <1>   0.0800 
 29 H       -2.4120     2.7220    -0.3150 H     1 <1>   0.0800 
 30 H       -4.4760     1.0580     0.6090 H     1 <1>   0.0800 
 31 H       -4.1750     1.2740    -1.1210 H     1 <1>   0.0800 
 32 H       -2.3430    -1.6550    -1.2240 H     1 <1>   0.0800 
 33 H       -2.0890    -1.8600     0.4990 H     1 <1>   0.0800 
 34 H        0.3150     2.3420     0.6260 H     1 <1>   0.4500 
 35 H       -5.1530    -0.7200    -1.6650 H     1 <1>   0.0800 
 36 H       -4.3550    -1.9850     0.9580 H     1 <1>   0.0800 
 37 H       -0.5670     4.2300     1.8220 H     1 <1>   0.0800 
 38 H       -0.6320     3.5120    -1.9000 H     1 <1>   0.0800 
 39 H       -0.0040     1.8930    -1.6560 H     1 <1>   0.0800 
 40 H        1.0420     3.2750    -1.4440 H     1 <1>   0.0800 
 41 H       -6.1060    -0.7200     0.9990 H     1 <1>   0.4000 
 42 H       -4.3340    -3.0290    -1.8940 H     1 <1>   0.0800 
 43 H       -5.5470    -3.3890    -0.7080 H     1 <1>   0.0800 
 44 H       -1.9280     5.0270    -0.4060 H     1 <1>   0.0800 
 45 H       -1.3420     6.1240     0.8100 H     1 <1>   0.0800 
 46 H        1.3560     5.4200     1.6550 H     1 <1>   0.0800 
 47 H        1.9310     4.0400     0.7640 H     1 <1>   0.0800 
 48 H       -0.2460     5.7250    -1.9080 H     1 <1>   0.0800 
 49 H       -0.2550     7.1550    -0.9100 H     1 <1>   0.0800 
 50 H        1.8660     6.6560    -0.1750 H     1 <1>   0.0800 
 51 H        1.8780     5.2750    -1.2390 H     1 <1>   0.0800 
 52 H       -5.1450    -4.9630     1.0570 H     1 <1>   0.1500 
 53 H       -3.7510    -6.8290     1.9130 H     1 <1>   0.1500 
 54 H       -0.1120    -4.9480    -1.7330 H     1 <1>   0.1500 
 55 H       -1.5720    -8.0490     1.7880 H     1 <1>   0.1500 
 56 H        1.3970    -6.7570    -0.9750 H     1 <1>   0.1500 
 57 H        0.6640    -8.2990     0.7800 H     1 <1>   0.1500 
@<TRIPOS>BOND
  1   1   2  2   
  2   2   3  am  
  3   2   4  1   
  4   3   5  1   
  5   3   6  1   
  6   4   7  1   
  7   4  28  1   
  8   4  29  1   
  9   5   8  1   
 10   5  30  1   
 11   5  31  1   
 12   6   9  1   
 13   6  32  1   
 14   6  33  1   
 15   7  10  1   
 16   7  11  1   
 17   7  34  1   
 18   8   9  1   
 19   8  12  1   
 20   8  35  1   
 21   9  13  1   
 22   9  36  1   
 23  10  14  1   
 24  10  15  1   
 25  10  37  1   
 26  11  38  1   
 27  11  39  1   
 28  11  40  1   
 29  12  41  1   
 30  13  16  1   
 31  13  42  1   
 32  13  43  1   
 33  14  17  1   
 34  14  44  1   
 35  14  45  1   
 36  15  18  1   
 37  15  46  1   
 38  15  47  1   
 39  16  19  ar  
 40  16  20  ar  
 41  17  18  1   
 42  17  48  1   
 43  17  49  1   
 44  18  50  1   
 45  18  51  1   
 46  19  21  ar  
 47  20  22  ar  
 48  20  52  1   
 49  21  23  ar  
 50  21  24  ar  
 51  22  23  ar  
 52  22  53  1   
 53  23  25  ar  
 54  24  26  ar  
 55  24  54  1   
 56  25  27  ar  
 57  25  55  1   
 58  26  27  ar  
 59  26  56  1   
 60  27  57  1   
@<TRIPOS>SUBSTRUCTURE
  1 ****   6 GROUP 4 **** **** 0

# MOE 2024.06 (io_trps.svl 2023.06)
