@<TRIPOS>MOLECULE
NONAME
55 57 1 0 0 
SMALL
USER_CHARGES


@<TRIPOS>ATOM
  1 O       -1.1670     0.5710    -1.0410 O.2   1 <1>  -0.5700 
  2 C       -2.1870     0.9720    -0.5320 C.2   1 <1>   0.5690 
  3 N       -3.2100     0.1180    -0.2280 N.am  1 <1>  -0.6600 
  4 C       -2.2790     2.4760    -0.2520 C.3   1 <1>  -0.0190 
  5 C       -4.5550     0.4510     0.3090 C.3   1 <1>   0.1400 
  6 C       -3.0990    -1.3430    -0.4710 C.3   1 <1>   0.1400 
  7 C       -2.2530     3.2700    -1.5730 C.3   1 <1>  -0.1600 
  8 C       -1.1240     2.9260     0.6660 C.3   1 <1>  -0.1600 
  9 C       -5.3420    -0.8590     0.2550 C.3   1 <1>   0.2000 
 10 C       -4.2930    -1.9680     0.2510 C.3   1 <1>  -0.0800 
 11 C       -2.1640     4.7770    -1.3460 C.3   1 <1>   0.3430 
 12 C       -1.0680     4.4430     0.8310 C.3   1 <1>   0.3430 
 13 O       -6.1790    -0.9930     1.3510 O.3   1 <1>  -0.6800 
 14 C       -4.7970    -3.2680    -0.3950 C.3   1 <1>  -0.0160 
 15 N       -0.9670     5.0820    -0.5130 N.4   1 <1>  -0.9590 
 16 C       -3.7210    -4.3420    -0.3760 C.ar  1 <1>  -0.1440 
 17 C       -0.7640     6.5670    -0.4250 C.3   1 <1>   0.3430 
 18 C       -3.4950    -5.1190     0.7430 C.ar  1 <1>  -0.1500 
 19 C       -2.9150    -4.5970    -1.4670 C.ar  1 <1>  -0.1500 
 20 C        0.6050     6.9520     0.1490 C.3   1 <1>   0.1200 
 21 C       -2.5010    -6.0830     0.7180 C.ar  1 <1>   0.1600 
 22 C       -1.9470    -5.5840    -1.3870 C.ar  1 <1>   0.1600 
 23 O        0.6690     8.3370     0.1480 O.3   1 <1>  -0.5600 
 24 N       -1.7200    -6.3330    -0.3200 N.ar  1 <1>  -0.6200 
 25 C        1.8710     8.8610     0.6230 C.3   1 <1>   0.0400 
 26 H       -3.2020     2.6930     0.2510 H     1 <1>   0.0800 
 27 H       -4.4580     0.7930     1.3250 H     1 <1>   0.0800 
 28 H       -5.0330     1.1990    -0.2980 H     1 <1>   0.0800 
 29 H       -3.1530    -1.5230    -1.5310 H     1 <1>   0.0800 
 30 H       -2.1650    -1.7280    -0.0950 H     1 <1>   0.0800 
 31 H       -3.1440     3.0500    -2.1370 H     1 <1>   0.0800 
 32 H       -1.4150     2.9570    -2.1740 H     1 <1>   0.0800 
 33 H       -0.1830     2.5860     0.2700 H     1 <1>   0.0800 
 34 H       -1.2430     2.4690     1.6330 H     1 <1>   0.0800 
 35 H       -5.9450    -0.8850    -0.6370 H     1 <1>   0.0800 
 36 H       -3.9810    -2.1710     1.2610 H     1 <1>   0.0800 
 37 H       -3.0550     5.1250    -0.8490 H     1 <1>   0.0800 
 38 H       -2.0890     5.2780    -2.2990 H     1 <1>   0.0800 
 39 H       -0.2130     4.7010     1.4340 H     1 <1>   0.0800 
 40 H       -1.9560     4.7880     1.3360 H     1 <1>   0.0800 
 41 H       -5.6610    -1.0930     2.1720 H     1 <1>   0.4000 
 42 H       -5.1040    -3.0810    -1.4100 H     1 <1>   0.0800 
 43 H       -5.6600    -3.6220     0.1420 H     1 <1>   0.0800 
 44 H       -0.1560     4.6690    -0.9960 H     1 <1>   0.4500 
 45 H       -0.8380     6.9960    -1.4110 H     1 <1>   0.0800 
 46 H       -1.5330     7.0030     0.1900 H     1 <1>   0.0800 
 47 H       -4.0820    -4.9850     1.6320 H     1 <1>   0.1500 
 48 H       -3.0260    -4.0390    -2.3790 H     1 <1>   0.1500 
 49 H        1.4000     6.5740    -0.4700 H     1 <1>   0.0800 
 50 H        0.7150     6.6120     1.1640 H     1 <1>   0.0800 
 51 H       -2.3390    -6.6790     1.5990 H     1 <1>   0.1500 
 52 H       -1.3250    -5.7670    -2.2470 H     1 <1>   0.1500 
 53 H        1.8100     9.9350     0.5770 H     1 <1>   0.0800 
 54 H        2.6820     8.5210     0.0010 H     1 <1>   0.0800 
 55 H        2.0200     8.5530     1.6440 H     1 <1>   0.0800 
@<TRIPOS>BOND
  1   1   2  2   
  2   2   3  am  
  3   2   4  1   
  4   3   5  1   
  5   3   6  1   
  6   4   7  1   
  7   4   8  1   
  8   4  26  1   
  9   5   9  1   
 10   5  27  1   
 11   5  28  1   
 12   6  10  1   
 13   6  29  1   
 14   6  30  1   
 15   7  11  1   
 16   7  31  1   
 17   7  32  1   
 18   8  12  1   
 19   8  33  1   
 20   8  34  1   
 21   9  10  1   
 22   9  13  1   
 23   9  35  1   
 24  10  14  1   
 25  10  36  1   
 26  11  15  1   
 27  11  37  1   
 28  11  38  1   
 29  12  15  1   
 30  12  39  1   
 31  12  40  1   
 32  13  41  1   
 33  14  16  1   
 34  14  42  1   
 35  14  43  1   
 36  15  17  1   
 37  15  44  1   
 38  16  18  ar  
 39  16  19  ar  
 40  17  20  1   
 41  17  45  1   
 42  17  46  1   
 43  18  21  ar  
 44  18  47  1   
 45  19  22  ar  
 46  19  48  1   
 47  20  23  1   
 48  20  49  1   
 49  20  50  1   
 50  21  24  ar  
 51  21  51  1   
 52  22  24  ar  
 53  22  52  1   
 54  23  25  1   
 55  25  53  1   
 56  25  54  1   
 57  25  55  1   
@<TRIPOS>SUBSTRUCTURE
  1 ****   2 GROUP 4 **** **** 0

# MOE 2024.06 (io_trps.svl 2023.06)
