@<TRIPOS>MOLECULE
NONAME
53 57 1 0 0 
SMALL
USER_CHARGES


@<TRIPOS>ATOM
  1 O        0.3850    -0.2760     1.2540 O.3   1 <1>  -0.3630 
  2 C        1.0220    -1.4500     1.2810 C.ar  1 <1>   0.0820 
  3 C        1.3820     0.7330     1.4160 C.3   1 <1>   0.4000 
  4 C        2.3610    -1.2570     1.4320 C.ar  1 <1>   0.0820 
  5 C        0.4860    -2.7150     1.1750 C.ar  1 <1>  -0.1500 
  6 O        2.6320     0.0500     1.5090 O.3   1 <1>  -0.3630 
  7 C        3.2370    -2.3200     1.4910 C.ar  1 <1>  -0.1500 
  8 C        1.3500    -3.8060     1.2160 C.ar  1 <1>  -0.1440 
  9 C        2.7280    -3.6110     1.3860 C.ar  1 <1>  -0.1440 
 10 C        0.7520    -5.1930     1.0670 C.3   1 <1>   0.4870 
 11 C        3.7100    -4.7740     1.4760 C.3   1 <1>  -0.0960 
 12 N        0.9870    -5.6560    -0.3280 N.4   1 <1>  -0.9590 
 13 C        0.1320    -4.8950    -1.2960 C.3   1 <1>   0.3430 
 14 C        0.6240    -7.0990    -0.4720 C.3   1 <1>   0.3430 
 15 C       -1.0780    -5.7910    -1.5710 C.3   1 <1>   0.2000 
 16 C       -0.4510    -7.1840    -1.5630 C.3   1 <1>  -0.0800 
 17 O       -1.9640    -5.6680    -0.5020 O.3   1 <1>  -0.6800 
 18 C       -1.4210    -8.3730    -1.4020 C.3   1 <1>  -0.0170 
 19 C       -0.6340    -9.6590    -1.1700 C.ar  1 <1>  -0.1440 
 20 C       -0.3290   -10.1600     0.1210 C.ar  1 <1>   0.0000 
 21 C       -0.1720   -10.3600    -2.2460 C.ar  1 <1>  -0.1500 
 22 C        0.4800   -11.3210     0.1960 C.ar  1 <1>   0.3100 
 23 C       -0.7710    -9.5860     1.3380 C.ar  1 <1>  -0.1500 
 24 C        0.6030   -11.5100    -2.0590 C.ar  1 <1>   0.1600 
 25 N        0.9380   -11.9750    -0.8990 N.ar  1 <1>  -0.6200 
 26 C        0.8360   -11.8250     1.4570 C.ar  1 <1>  -0.1500 
 27 C       -0.4090   -10.1060     2.5520 C.ar  1 <1>  -0.1500 
 28 C        0.4090   -11.2360     2.6150 C.ar  1 <1>  -0.1500 
 29 H        1.3870     1.3800     0.5580 H     1 <1>   0.0800 
 30 H        1.2010     1.2770     2.3260 H     1 <1>   0.0800 
 31 H       -0.5800    -2.8210     1.0650 H     1 <1>   0.1500 
 32 H        4.2880    -2.1260     1.6200 H     1 <1>   0.1500 
 33 H       -0.3060    -5.1660     1.2770 H     1 <1>   0.0800 
 34 H        1.2220    -5.8620     1.7670 H     1 <1>   0.0800 
 35 H        4.6710    -4.4290     1.8180 H     1 <1>   0.0800 
 36 H        3.8480    -5.2290     0.5130 H     1 <1>   0.0800 
 37 H        3.3650    -5.5120     2.1770 H     1 <1>   0.0800 
 38 H        1.9780    -5.4830    -0.5350 H     1 <1>   0.4500 
 39 H       -0.1710    -3.9340    -0.9160 H     1 <1>   0.0800 
 40 H        0.6770    -4.7500    -2.2150 H     1 <1>   0.0800 
 41 H        1.4810    -7.7000    -0.7330 H     1 <1>   0.0800 
 42 H        0.2170    -7.4640     0.4560 H     1 <1>   0.0800 
 43 H       -1.5850    -5.5360    -2.4870 H     1 <1>   0.0800 
 44 H        0.0700    -7.3180    -2.4950 H     1 <1>   0.0800 
 45 H       -2.8670    -5.9550    -0.7570 H     1 <1>   0.4000 
 46 H       -2.0040    -8.4730    -2.3020 H     1 <1>   0.0800 
 47 H       -2.1230    -8.2160    -0.6050 H     1 <1>   0.0800 
 48 H       -0.3780   -10.0560    -3.2560 H     1 <1>   0.1500 
 49 H       -1.4150    -8.7290     1.3290 H     1 <1>   0.1500 
 50 H        0.9470   -12.0380    -2.9330 H     1 <1>   0.1500 
 51 H        1.4580   -12.7010     1.4810 H     1 <1>   0.1500 
 52 H       -0.7530    -9.6640     3.4720 H     1 <1>   0.1500 
 53 H        0.6870   -11.6370     3.5750 H     1 <1>   0.1500 
@<TRIPOS>BOND
  1   1   2  1   
  2   1   3  1   
  3   2   4  ar  
  4   2   5  ar  
  5   3   6  1   
  6   3  29  1   
  7   3  30  1   
  8   4   6  1   
  9   4   7  ar  
 10   5   8  ar  
 11   5  31  1   
 12   7   9  ar  
 13   7  32  1   
 14   8   9  ar  
 15   8  10  1   
 16   9  11  1   
 17  10  12  1   
 18  10  33  1   
 19  10  34  1   
 20  11  35  1   
 21  11  36  1   
 22  11  37  1   
 23  12  13  1   
 24  12  14  1   
 25  12  38  1   
 26  13  15  1   
 27  13  39  1   
 28  13  40  1   
 29  14  16  1   
 30  14  41  1   
 31  14  42  1   
 32  15  16  1   
 33  15  17  1   
 34  15  43  1   
 35  16  18  1   
 36  16  44  1   
 37  17  45  1   
 38  18  19  1   
 39  18  46  1   
 40  18  47  1   
 41  19  20  ar  
 42  19  21  ar  
 43  20  22  ar  
 44  20  23  ar  
 45  21  24  ar  
 46  21  48  1   
 47  22  25  ar  
 48  22  26  ar  
 49  23  27  ar  
 50  23  49  1   
 51  24  25  ar  
 52  24  50  1   
 53  26  28  ar  
 54  26  51  1   
 55  27  28  ar  
 56  27  52  1   
 57  28  53  1   
@<TRIPOS>SUBSTRUCTURE
  1 ****  12 GROUP 4 **** **** 0

# MOE 2024.06 (io_trps.svl 2023.06)
