@<TRIPOS>MOLECULE
NONAME
51 53 1 0 0 
SMALL
USER_CHARGES


@<TRIPOS>ATOM
  1 F        2.7680     0.0620     2.4610 F     1 <1>  -0.1900 
  2 C        2.9500    -0.7820     1.4810 C.ar  1 <1>   0.1900 
  3 C        2.5150    -2.0800     1.6330 C.ar  1 <1>  -0.1500 
  4 C        3.5660    -0.3390     0.3290 C.ar  1 <1>  -0.1500 
  5 C        2.6880    -2.9940     0.5960 C.ar  1 <1>   0.0860 
  6 C        3.7510    -1.2400    -0.7040 C.ar  1 <1>  -0.1500 
  7 C        3.3190    -2.5540    -0.5780 C.ar  1 <1>  -0.1440 
  8 C        2.2030    -4.3520     0.7570 C.2   1 <1>   0.5440 
  9 C        3.5420    -3.5230    -1.7320 C.3   1 <1>  -0.0960 
 10 O        3.0010    -5.2430     0.9760 O.2   1 <1>  -0.5700 
 11 N        0.8560    -4.6560     0.6720 N.am  1 <1>  -0.6600 
 12 C       -0.1500    -3.6590     0.1950 C.3   1 <1>   0.2200 
 13 C        0.3910    -6.0370     1.0140 C.3   1 <1>   0.0600 
 14 C       -1.0590    -3.1660     1.3180 C.3   1 <1>  -0.1600 
 15 C       -1.1050    -4.1880    -0.8760 C.3   1 <1>  -0.1600 
 16 C       -2.3010    -2.6210     0.5990 C.3   1 <1>  -0.0800 
 17 C       -2.3210    -3.2540    -0.7970 C.3   1 <1>  -0.0800 
 18 C       -3.6460    -2.9870     1.2440 C.3   1 <1>  -0.1600 
 19 C       -3.6880    -3.9430    -0.9270 C.3   1 <1>  -0.1600 
 20 C       -4.6060    -3.2340     0.0750 C.3   1 <1>   0.4230 
 21 N       -5.1130    -1.9390    -0.4870 N.4   1 <1>  -0.9590 
 22 C       -5.9010    -1.1440     0.5100 C.3   1 <1>   0.2630 
 23 C       -5.9580    -2.1310    -1.7100 C.3   1 <1>   0.2630 
 24 H        2.0480    -2.3880     2.5500 H     1 <1>   0.1500 
 25 H        3.8950     0.6820     0.2470 H     1 <1>   0.1500 
 26 H        4.2360    -0.9110    -1.6080 H     1 <1>   0.1500 
 27 H        4.0070    -3.0340    -2.5690 H     1 <1>   0.0800 
 28 H        2.6040    -3.9370    -2.0570 H     1 <1>   0.0800 
 29 H        4.1800    -4.3290    -1.4130 H     1 <1>   0.0800 
 30 H        0.3490    -2.8020    -0.2250 H     1 <1>   0.0800 
 31 H       -0.6020    -6.0190     1.4210 H     1 <1>   0.0800 
 32 H        1.0460    -6.4800     1.7450 H     1 <1>   0.0800 
 33 H        0.4050    -6.6490     0.1300 H     1 <1>   0.0800 
 34 H       -1.3190    -3.9830     1.9650 H     1 <1>   0.0800 
 35 H       -0.5750    -2.4000     1.8980 H     1 <1>   0.0800 
 36 H       -0.6460    -4.1590    -1.8480 H     1 <1>   0.0800 
 37 H       -1.4000    -5.1970    -0.6580 H     1 <1>   0.0800 
 38 H       -2.2150    -1.5520     0.4960 H     1 <1>   0.0800 
 39 H       -2.2220    -2.4740    -1.5340 H     1 <1>   0.0800 
 40 H       -3.9730    -2.2530     1.9550 H     1 <1>   0.0800 
 41 H       -3.5470    -3.9200     1.7720 H     1 <1>   0.0800 
 42 H       -3.6060    -4.9670    -0.6070 H     1 <1>   0.0800 
 43 H       -4.0440    -3.9560    -1.9400 H     1 <1>   0.0800 
 44 H       -5.4310    -3.8640     0.3690 H     1 <1>   0.0800 
 45 H       -4.2780    -1.3960    -0.7490 H     1 <1>   0.4500 
 46 H       -6.7340    -1.7230     0.8770 H     1 <1>   0.0800 
 47 H       -6.2830    -0.2460     0.0520 H     1 <1>   0.0800 
 48 H       -5.2850    -0.8570     1.3450 H     1 <1>   0.0800 
 49 H       -6.7950    -2.7730    -1.4910 H     1 <1>   0.0800 
 50 H       -5.3840    -2.5710    -2.5080 H     1 <1>   0.0800 
 51 H       -6.3350    -1.1810    -2.0550 H     1 <1>   0.0800 
@<TRIPOS>BOND
  1   1   2  1   
  2   2   3  ar  
  3   2   4  ar  
  4   3   5  ar  
  5   3  24  1   
  6   4   6  ar  
  7   4  25  1   
  8   5   7  ar  
  9   5   8  1   
 10   6   7  ar  
 11   6  26  1   
 12   7   9  1   
 13   8  10  2   
 14   8  11  am  
 15   9  27  1   
 16   9  28  1   
 17   9  29  1   
 18  11  12  1   
 19  11  13  1   
 20  12  14  1   
 21  12  15  1   
 22  12  30  1   
 23  13  31  1   
 24  13  32  1   
 25  13  33  1   
 26  14  16  1   
 27  14  34  1   
 28  14  35  1   
 29  15  17  1   
 30  15  36  1   
 31  15  37  1   
 32  16  17  1   
 33  16  18  1   
 34  16  38  1   
 35  17  19  1   
 36  17  39  1   
 37  18  20  1   
 38  18  40  1   
 39  18  41  1   
 40  19  20  1   
 41  19  42  1   
 42  19  43  1   
 43  20  21  1   
 44  20  44  1   
 45  21  22  1   
 46  21  23  1   
 47  21  45  1   
 48  22  46  1   
 49  22  47  1   
 50  22  48  1   
 51  23  49  1   
 52  23  50  1   
 53  23  51  1   
@<TRIPOS>SUBSTRUCTURE
  1 ****  12 GROUP 4 **** **** 0

# MOE 2024.06 (io_trps.svl 2023.06)
