@<TRIPOS>MOLECULE
NONAME
60 63 1 0 0 
SMALL
USER_CHARGES


@<TRIPOS>ATOM
  1 O       -0.4980     0.6750    -0.5390 O.2   1 <1>  -0.5700 
  2 C       -1.5180     1.1270    -0.0660 C.2   1 <1>   0.5690 
  3 N       -2.5680     0.2530     0.1510 N.am  1 <1>  -0.6600 
  4 C       -1.5540     2.6670     0.2080 C.3   1 <1>   0.2040 
  5 C       -4.0260     0.5400     0.2110 C.3   1 <1>   0.1400 
  6 C       -2.3650    -1.2070    -0.0640 C.3   1 <1>   0.1400 
  7 C       -0.1300     3.1850     0.5720 C.ar  1 <1>  -0.1440 
  8 C       -2.4590     3.1660     1.3580 C.3   1 <1>  -0.1600 
  9 C       -2.1720     3.3810    -1.0160 C.3   1 <1>  -0.1600 
 10 C       -4.7000    -0.7170    -0.3340 C.3   1 <1>   0.2000 
 11 C       -3.7490    -1.8530     0.0200 C.3   1 <1>  -0.0800 
 12 C        0.4730     4.3000    -0.0090 C.ar  1 <1>  -0.1500 
 13 C        0.5790     2.5140     1.5620 C.ar  1 <1>  -0.1500 
 14 C       -2.7750     4.6220     1.0150 C.3   1 <1>  -0.1600 
 15 C       -2.8340     4.6740    -0.5140 C.3   1 <1>  -0.1600 
 16 O       -5.9400    -0.9250     0.2480 O.3   1 <1>  -0.6800 
 17 C       -3.9120    -3.0790    -0.8930 C.3   1 <1>  -0.0170 
 18 C        1.7420     4.7360     0.3710 C.ar  1 <1>   0.0830 
 19 C        1.8410     2.9260     1.9480 C.ar  1 <1>  -0.1500 
 20 C       -2.9410    -4.1820    -0.5020 C.ar  1 <1>  -0.1430 
 21 O        2.3140     5.8500    -0.1760 O.3   1 <1>  -0.3630 
 22 C        2.4370     4.0230     1.3570 C.ar  1 <1>   0.0830 
 23 C       -3.2370    -5.0880     0.4960 C.ar  1 <1>  -0.1500 
 24 C       -1.7140    -4.3330    -1.1180 C.ar  1 <1>  -0.1500 
 25 C        1.6080     6.7100    -1.0420 C.3   1 <1>   0.0400 
 26 O        3.6860     4.3310     1.8040 O.3   1 <1>  -0.3630 
 27 C       -2.3180    -6.0710     0.8230 C.ar  1 <1>   0.1600 
 28 C       -0.8660    -5.3510    -0.7130 C.ar  1 <1>   0.1600 
 29 C        4.6930     4.6550     0.8710 C.3   1 <1>   0.0400 
 30 N       -1.1380    -6.2230     0.2440 N.ar  1 <1>  -0.6200 
 31 H       -4.3120     0.6870     1.2370 H     1 <1>   0.0800 
 32 H       -4.2880     1.3970    -0.3820 H     1 <1>   0.0800 
 33 H       -1.9350    -1.3570    -1.0400 H     1 <1>   0.0800 
 34 H       -1.6970    -1.6100     0.6780 H     1 <1>   0.0800 
 35 H       -3.3870     2.6440     1.4010 H     1 <1>   0.0800 
 36 H       -1.9860     3.0820     2.3210 H     1 <1>   0.0800 
 37 H       -1.4480     3.5530    -1.7920 H     1 <1>   0.0800 
 38 H       -2.9360     2.7590    -1.4440 H     1 <1>   0.0800 
 39 H       -4.8310    -0.6290    -1.3990 H     1 <1>   0.0800 
 40 H       -3.9030    -2.1460     1.0440 H     1 <1>   0.0800 
 41 H       -0.0500     4.8430    -0.7630 H     1 <1>   0.1500 
 42 H        0.1540     1.6490     2.0410 H     1 <1>   0.1500 
 43 H       -3.6950     4.9520     1.4670 H     1 <1>   0.0800 
 44 H       -1.9730     5.2520     1.3640 H     1 <1>   0.0800 
 45 H       -2.3210     5.5460    -0.8800 H     1 <1>   0.0800 
 46 H       -3.8580     4.7140    -0.8460 H     1 <1>   0.0800 
 47 H       -5.8500    -1.0760     1.2080 H     1 <1>   0.4000 
 48 H       -3.7490    -2.7990    -1.9190 H     1 <1>   0.0800 
 49 H       -4.9200    -3.4490    -0.8160 H     1 <1>   0.0800 
 50 H        2.3740     2.3910     2.7120 H     1 <1>   0.1500 
 51 H       -4.1730    -5.0400     1.0210 H     1 <1>   0.1500 
 52 H       -1.4070    -3.6720    -1.9070 H     1 <1>   0.1500 
 53 H        2.2440     7.5440    -1.2750 H     1 <1>   0.0800 
 54 H        0.7200     7.0550    -0.5430 H     1 <1>   0.0800 
 55 H        1.3650     6.1750    -1.9430 H     1 <1>   0.0800 
 56 H       -2.5670    -6.7700     1.6040 H     1 <1>   0.1500 
 57 H        0.0870    -5.4520    -1.2030 H     1 <1>   0.1500 
 58 H        5.6460     4.4400     1.3190 H     1 <1>   0.0800 
 59 H        4.6280     5.7030     0.6420 H     1 <1>   0.0800 
 60 H        4.5570     4.0620    -0.0160 H     1 <1>   0.0800 
@<TRIPOS>BOND
  1   1   2  2   
  2   2   3  am  
  3   2   4  1   
  4   3   5  1   
  5   3   6  1   
  6   4   7  1   
  7   4   8  1   
  8   4   9  1   
  9   5  10  1   
 10   5  31  1   
 11   5  32  1   
 12   6  11  1   
 13   6  33  1   
 14   6  34  1   
 15   7  12  ar  
 16   7  13  ar  
 17   8  14  1   
 18   8  35  1   
 19   8  36  1   
 20   9  15  1   
 21   9  37  1   
 22   9  38  1   
 23  10  11  1   
 24  10  16  1   
 25  10  39  1   
 26  11  17  1   
 27  11  40  1   
 28  12  18  ar  
 29  12  41  1   
 30  13  19  ar  
 31  13  42  1   
 32  14  15  1   
 33  14  43  1   
 34  14  44  1   
 35  15  45  1   
 36  15  46  1   
 37  16  47  1   
 38  17  20  1   
 39  17  48  1   
 40  17  49  1   
 41  18  21  1   
 42  18  22  ar  
 43  19  22  ar  
 44  19  50  1   
 45  20  23  ar  
 46  20  24  ar  
 47  21  25  1   
 48  22  26  1   
 49  23  27  ar  
 50  23  51  1   
 51  24  28  ar  
 52  24  52  1   
 53  25  53  1   
 54  25  54  1   
 55  25  55  1   
 56  26  29  1   
 57  27  30  ar  
 58  27  56  1   
 59  28  30  ar  
 60  28  57  1   
 61  29  58  1   
 62  29  59  1   
 63  29  60  1   
@<TRIPOS>SUBSTRUCTURE
  1 ****   2 GROUP 4 **** **** 0

# MOE 2024.06 (io_trps.svl 2023.06)
