@<TRIPOS>MOLECULE
NONAME
52 55 1 0 0 
SMALL
USER_CHARGES


@<TRIPOS>ATOM
  1 O        1.1330    -0.5620    -0.8400 O.3   1 <1>  -0.5600 
  2 C        2.0370    -1.2670    -0.0200 C.3   1 <1>   0.4240 
  3 C       -0.2220    -0.6470    -0.5280 C.3   1 <1>   0.1200 
  4 C        1.4770    -2.6500     0.3850 C.ar  1 <1>  -0.1440 
  5 C        3.3050    -1.4310    -0.8690 C.3   1 <1>  -0.1600 
  6 C        2.3380    -0.4070     1.2200 C.3   1 <1>  -0.1600 
  7 C       -0.6880    -2.0820    -0.7540 C.3   1 <1>  -0.0160 
  8 C        0.1870    -3.0370     0.0330 C.ar  1 <1>  -0.1440 
  9 C        2.2560    -3.5360     1.1210 C.ar  1 <1>  -0.1500 
 10 C        3.9290    -0.0800    -1.2160 C.3   1 <1>   0.2090 
 11 C        2.9860     0.9240     0.8430 C.3   1 <1>   0.2090 
 12 C       -0.3030    -4.2810     0.3960 C.ar  1 <1>  -0.1500 
 13 C        1.7670    -4.7770     1.4860 C.ar  1 <1>  -0.1500 
 14 N        4.2110     0.6530     0.0450 N.pl3 1 <1>  -0.8380 
 15 C        0.4880    -5.1610     1.1270 C.ar  1 <1>   0.0820 
 16 C        5.2730     1.5350     0.0920 C.ar  1 <1>   0.4100 
 17 O        0.0850    -6.3950     1.5220 O.3   1 <1>  -0.3630 
 18 N        5.0290     2.7830     0.4310 N.ar  1 <1>  -0.6200 
 19 C        6.5500     1.1200    -0.2060 C.ar  1 <1>  -0.1500 
 20 C       -1.1920    -6.8900     1.1880 C.3   1 <1>   0.0400 
 21 C        6.0710     3.5910     0.4530 C.ar  1 <1>   0.7030 
 22 C        7.5530     2.0470    -0.1510 C.ar  1 <1>   0.3930 
 23 O        5.7770     4.8580     0.8030 O.3   1 <1>  -0.3630 
 24 N        7.3380     3.3060     0.1780 N.ar  1 <1>  -0.6200 
 25 O        8.8060     1.6440    -0.4460 O.3   1 <1>  -0.3630 
 26 C        6.7660     5.8650     0.8770 C.3   1 <1>   0.0400 
 27 C        9.8930     2.5470    -0.4000 C.3   1 <1>   0.0400 
 28 H       -0.7520     0.0290    -1.1760 H     1 <1>   0.0800 
 29 H       -0.3720    -0.3460     0.4940 H     1 <1>   0.0800 
 30 H        3.0590    -1.9630    -1.7700 H     1 <1>   0.0800 
 31 H        4.0380    -2.0080    -0.3390 H     1 <1>   0.0800 
 32 H        3.0180    -0.9310     1.8640 H     1 <1>   0.0800 
 33 H        1.4410    -0.2340     1.7820 H     1 <1>   0.0800 
 34 H       -0.6280    -2.3150    -1.8020 H     1 <1>   0.0800 
 35 H       -1.7130    -2.1730    -0.4440 H     1 <1>   0.0800 
 36 H        3.2540    -3.2690     1.4190 H     1 <1>   0.1500 
 37 H        3.2480     0.4990    -1.8180 H     1 <1>   0.0800 
 38 H        4.8330    -0.2270    -1.7800 H     1 <1>   0.0800 
 39 H        3.2410     1.4670     1.7380 H     1 <1>   0.0800 
 40 H        2.3060     1.5250     0.2630 H     1 <1>   0.0800 
 41 H       -1.2990    -4.5520     0.1050 H     1 <1>   0.1500 
 42 H        2.3760    -5.4570     2.0540 H     1 <1>   0.1500 
 43 H        6.7530     0.1020    -0.4650 H     1 <1>   0.1500 
 44 H       -1.2820    -7.8810     1.5970 H     1 <1>   0.0800 
 45 H       -1.2840    -6.9270     0.1170 H     1 <1>   0.0800 
 46 H       -1.9390    -6.2480     1.6190 H     1 <1>   0.0800 
 47 H        6.2900     6.7820     1.1730 H     1 <1>   0.0800 
 48 H        7.2190     5.9800    -0.0920 H     1 <1>   0.0800 
 49 H        7.5020     5.5770     1.6070 H     1 <1>   0.0800 
 50 H       10.7870     2.0140    -0.6680 H     1 <1>   0.0800 
 51 H        9.9790     2.9370     0.5990 H     1 <1>   0.0800 
 52 H        9.7130     3.3440    -1.1000 H     1 <1>   0.0800 
@<TRIPOS>BOND
  1   1   2  1   
  2   1   3  1   
  3   2   4  1   
  4   2   5  1   
  5   2   6  1   
  6   3   7  1   
  7   3  28  1   
  8   3  29  1   
  9   4   8  ar  
 10   4   9  ar  
 11   5  10  1   
 12   5  30  1   
 13   5  31  1   
 14   6  11  1   
 15   6  32  1   
 16   6  33  1   
 17   7   8  1   
 18   7  34  1   
 19   7  35  1   
 20   8  12  ar  
 21   9  13  ar  
 22   9  36  1   
 23  10  14  1   
 24  10  37  1   
 25  10  38  1   
 26  11  14  1   
 27  11  39  1   
 28  11  40  1   
 29  12  15  ar  
 30  12  41  1   
 31  13  15  ar  
 32  13  42  1   
 33  14  16  1   
 34  15  17  1   
 35  16  18  ar  
 36  16  19  ar  
 37  17  20  1   
 38  18  21  ar  
 39  19  22  ar  
 40  19  43  1   
 41  20  44  1   
 42  20  45  1   
 43  20  46  1   
 44  21  23  1   
 45  21  24  ar  
 46  22  24  ar  
 47  22  25  1   
 48  23  26  1   
 49  25  27  1   
 50  26  47  1   
 51  26  48  1   
 52  26  49  1   
 53  27  50  1   
 54  27  51  1   
 55  27  52  1   
@<TRIPOS>SUBSTRUCTURE
  1 ****  14 GROUP 4 **** **** 0

# MOE 2024.06 (io_trps.svl 2023.06)
