@<TRIPOS>MOLECULE
NONAME
47 49 1 0 0 
SMALL
USER_CHARGES


@<TRIPOS>ATOM
  1 O       -0.8250     1.0830    -0.2270 O.2   1 <1>  -0.5700 
  2 C       -1.9930     1.3020     0.0530 C.2   1 <1>   0.7160 
  3 N       -2.8640     0.2190    -0.0060 N.am  1 <1>  -0.6600 
  4 C       -2.3530     2.6650     0.4360 C.2   1 <1>   0.2030 
  5 C       -4.2820     0.2090    -0.4720 C.3   1 <1>   0.2200 
  6 C       -2.3150    -1.1570     0.1860 C.3   1 <1>   0.0600 
  7 N       -3.4320     3.1020     1.0230 N.2   1 <1>  -0.4100 
  8 C       -1.5240     3.7580     0.2220 C.2   1 <1>  -0.1500 
  9 C       -4.6920     1.3040    -1.4620 C.3   1 <1>  -0.1600 
 10 C       -5.2590     0.2850     0.6920 C.3   1 <1>  -0.1600 
 11 O       -3.3710     4.4000     1.2010 O.3   1 <1>  -0.0190 
 12 C       -2.2120     4.7880     0.7180 C.2   1 <1>  -0.0400 
 13 C       -6.1480     1.6720    -1.1220 C.3   1 <1>  -0.0800 
 14 C       -6.5630     0.8140     0.0820 C.3   1 <1>  -0.0800 
 15 C       -1.8360     6.2530     0.7900 C.3   1 <1>  -0.0600 
 16 C       -6.3570     3.1390    -0.6950 C.3   1 <1>  -0.1600 
 17 C       -7.3220     1.7460     1.0280 C.3   1 <1>  -0.1600 
 18 C       -6.6400     3.0880     0.8090 C.3   1 <1>   0.4230 
 19 N       -7.4170     4.2410     1.3500 N.4   1 <1>  -0.9590 
 20 C       -8.7400     4.4910     0.6940 C.3   1 <1>   0.2630 
 21 C       -6.5660     5.4700     1.3210 C.3   1 <1>   0.2630 
 22 H       -4.4640    -0.7280    -0.9740 H     1 <1>   0.0800 
 23 H       -3.0030    -1.7550     0.7580 H     1 <1>   0.0800 
 24 H       -1.3780    -1.1210     0.7160 H     1 <1>   0.0800 
 25 H       -2.1510    -1.6190    -0.7720 H     1 <1>   0.0800 
 26 H       -0.5520     3.7250    -0.2380 H     1 <1>   0.1500 
 27 H       -4.0540     2.1620    -1.4300 H     1 <1>   0.0800 
 28 H       -4.6430     0.9050    -2.4600 H     1 <1>   0.0800 
 29 H       -5.4050    -0.6830     1.1370 H     1 <1>   0.0800 
 30 H       -4.8790     0.9550     1.4410 H     1 <1>   0.0800 
 31 H       -6.7830     1.4500    -1.9650 H     1 <1>   0.0800 
 32 H       -7.1760    -0.0140    -0.2350 H     1 <1>   0.0800 
 33 H       -0.8600     6.4060     0.3650 H     1 <1>   0.0800 
 34 H       -1.8200     6.5770     1.8150 H     1 <1>   0.0800 
 35 H       -2.5470     6.8450     0.2450 H     1 <1>   0.0800 
 36 H       -7.1990     3.5230    -1.2390 H     1 <1>   0.0800 
 37 H       -5.4990     3.7520    -0.9030 H     1 <1>   0.0800 
 38 H       -7.2530     1.4180     2.0500 H     1 <1>   0.0800 
 39 H       -8.3510     1.7770     0.7220 H     1 <1>   0.0800 
 40 H       -5.6950     3.0410     1.3220 H     1 <1>   0.0800 
 41 H       -7.5930     4.0130     2.3390 H     1 <1>   0.4500 
 42 H       -8.6030     4.7660    -0.3390 H     1 <1>   0.0800 
 43 H       -9.2570     5.2940     1.1940 H     1 <1>   0.0800 
 44 H       -9.3570     3.6090     0.7380 H     1 <1>   0.0800 
 45 H       -6.3370     5.7420     0.3040 H     1 <1>   0.0800 
 46 H       -5.6400     5.2940     1.8450 H     1 <1>   0.0800 
 47 H       -7.0780     6.2930     1.7940 H     1 <1>   0.0800 
@<TRIPOS>BOND
  1   1   2  2   
  2   2   3  am  
  3   2   4  1   
  4   3   5  1   
  5   3   6  1   
  6   4   7  2   
  7   4   8  1   
  8   5   9  1   
  9   5  10  1   
 10   5  22  1   
 11   6  23  1   
 12   6  24  1   
 13   6  25  1   
 14   7  11  1   
 15   8  12  2   
 16   8  26  1   
 17   9  13  1   
 18   9  27  1   
 19   9  28  1   
 20  10  14  1   
 21  10  29  1   
 22  10  30  1   
 23  11  12  1   
 24  12  15  1   
 25  13  14  1   
 26  13  16  1   
 27  13  31  1   
 28  14  17  1   
 29  14  32  1   
 30  15  33  1   
 31  15  34  1   
 32  15  35  1   
 33  16  18  1   
 34  16  36  1   
 35  16  37  1   
 36  17  18  1   
 37  17  38  1   
 38  17  39  1   
 39  18  19  1   
 40  18  40  1   
 41  19  20  1   
 42  19  21  1   
 43  19  41  1   
 44  20  42  1   
 45  20  43  1   
 46  20  44  1   
 47  21  45  1   
 48  21  46  1   
 49  21  47  1   
@<TRIPOS>SUBSTRUCTURE
  1 ****   7 GROUP 4 **** **** 0

# MOE 2024.06 (io_trps.svl 2023.06)
