@<TRIPOS>MOLECULE
NONAME
52 56 1 0 0 
SMALL
USER_CHARGES


@<TRIPOS>ATOM
  1 O       -0.5030     5.3930     1.2500 O.2   1 <1>  -0.5700 
  2 C       -0.3170     4.2740     0.8030 C.2   1 <1>   0.7160 
  3 N       -1.4020     3.6080     0.2620 N.am  1 <1>  -0.6600 
  4 C        1.0290     3.7180     0.8650 C.2   1 <1>   0.1410 
  5 C       -2.8030     3.9410     0.6630 C.3   1 <1>   0.1400 
  6 C       -1.3070     2.5570    -0.7870 C.3   1 <1>   0.1400 
  7 N        1.3790     2.3970     0.7490 N.2   1 <1>  -0.5650 
  8 C        2.1700     4.4080     1.0800 C.2   1 <1>  -0.0100 
  9 C       -3.6190     4.4320    -0.5460 C.3   1 <1>   0.1430 
 10 C       -2.1070     2.9820    -2.0250 C.3   1 <1>  -0.1600 
 11 C        2.6560     2.3970     0.8950 C.2   1 <1>   0.2980 
 12 O        3.1740     3.5840     1.0920 O.3   1 <1>  -0.2800 
 13 C       -5.0640     4.6650    -0.1470 C.ar  1 <1>   0.1660 
 14 C       -3.5530     3.3880    -1.6830 C.3   1 <1>  -0.1600 
 15 C       -3.1710     5.8420    -1.0180 C.3   1 <1>  -0.1600 
 16 C        3.5950     1.1890     0.8650 C.3   1 <1>   0.2900 
 17 N       -5.8130     3.8150     0.5130 N.ar  1 <1>  -0.6200 
 18 C       -5.5120     5.8810    -0.5610 C.ar  1 <1>  -0.1440 
 19 C       -4.4490     6.6510    -1.3020 C.3   1 <1>  -0.0170 
 20 N        2.8790    -0.0760     0.6580 N.3   1 <1>  -0.9900 
 21 C       -7.0660     4.2150     0.7670 C.ar  1 <1>   0.6200 
 22 C       -6.8060     6.2180    -0.2630 C.ar  1 <1>   0.1600 
 23 N       -7.5880     5.3950     0.4000 N.ar  1 <1>  -0.6200 
 24 C       -7.9280     3.2960     1.5000 C.ar  1 <1>   0.0000 
 25 C       -8.9880     3.7550     2.2890 C.ar  1 <1>  -0.1500 
 26 C       -7.7380     1.9120     1.4490 C.ar  1 <1>  -0.1500 
 27 C       -9.8090     2.8870     2.9850 C.ar  1 <1>  -0.1500 
 28 C       -8.5550     1.0370     2.1430 C.ar  1 <1>  -0.1500 
 29 C       -9.5940     1.5230     2.9140 C.ar  1 <1>  -0.1500 
 30 H       -2.8140     4.6870     1.4400 H     1 <1>   0.0800 
 31 H       -3.2630     3.0540     1.0640 H     1 <1>   0.0800 
 32 H       -1.6960     1.6330    -0.3930 H     1 <1>   0.0800 
 33 H       -0.2860     2.3950    -1.0820 H     1 <1>   0.0800 
 34 H        2.3270     5.4610     1.2330 H     1 <1>   0.1500 
 35 H       -2.1230     2.1670    -2.7270 H     1 <1>   0.0800 
 36 H       -1.5960     3.8000    -2.5000 H     1 <1>   0.0800 
 37 H       -4.0460     3.7680    -2.5600 H     1 <1>   0.0800 
 38 H       -4.0890     2.5080    -1.3690 H     1 <1>   0.0800 
 39 H       -2.5260     5.8110    -1.8770 H     1 <1>   0.0800 
 40 H       -2.6370     6.3310    -0.2210 H     1 <1>   0.0800 
 41 H        4.1320     1.1430     1.7960 H     1 <1>   0.0800 
 42 H        4.3100     1.3240     0.0720 H     1 <1>   0.0800 
 43 H       -4.6710     6.6540    -2.3550 H     1 <1>   0.0800 
 44 H       -4.3630     7.6620    -0.9420 H     1 <1>   0.0800 
 45 H        2.3320     0.0270    -0.2040 H     1 <1>   0.3600 
 46 H        2.1740    -0.1430     1.4030 H     1 <1>   0.3600 
 47 H       -7.2070     7.1690    -0.5690 H     1 <1>   0.1500 
 48 H       -9.1710     4.8140     2.3590 H     1 <1>   0.1500 
 49 H       -6.9350     1.5130     0.8540 H     1 <1>   0.1500 
 50 H      -10.6170     3.2730     3.5830 H     1 <1>   0.1500 
 51 H       -8.3810    -0.0230     2.0830 H     1 <1>   0.1500 
 52 H      -10.2320     0.8450     3.4540 H     1 <1>   0.1500 
@<TRIPOS>BOND
  1   1   2  2   
  2   2   3  am  
  3   2   4  1   
  4   3   5  1   
  5   3   6  1   
  6   4   7  1   
  7   4   8  2   
  8   5   9  1   
  9   5  30  1   
 10   5  31  1   
 11   6  10  1   
 12   6  32  1   
 13   6  33  1   
 14   7  11  2   
 15   8  12  1   
 16   8  34  1   
 17   9  13  1   
 18   9  14  1   
 19   9  15  1   
 20  10  14  1   
 21  10  35  1   
 22  10  36  1   
 23  11  12  1   
 24  11  16  1   
 25  13  17  ar  
 26  13  18  ar  
 27  14  37  1   
 28  14  38  1   
 29  15  19  1   
 30  15  39  1   
 31  15  40  1   
 32  16  20  1   
 33  16  41  1   
 34  16  42  1   
 35  17  21  ar  
 36  18  19  1   
 37  18  22  ar  
 38  19  43  1   
 39  19  44  1   
 40  20  45  1   
 41  20  46  1   
 42  21  23  ar  
 43  21  24  1   
 44  22  23  ar  
 45  22  47  1   
 46  24  25  ar  
 47  24  26  ar  
 48  25  27  ar  
 49  25  48  1   
 50  26  28  ar  
 51  26  49  1   
 52  27  29  ar  
 53  27  50  1   
 54  28  29  ar  
 55  28  51  1   
 56  29  52  1   
@<TRIPOS>SUBSTRUCTURE
  1 ****   5 GROUP 4 **** **** 0

# MOE 2024.06 (io_trps.svl 2023.06)
