@<TRIPOS>MOLECULE
NONAME
54 56 1 0 0 
SMALL
USER_CHARGES


@<TRIPOS>ATOM
  1 O        3.7980     1.5740     2.1680 O.co2 1 <1>  -0.9000 
  2 C        3.2560     0.5310     1.8000 C.2   1 <1>   0.9060 
  3 O        3.6330    -0.5640     2.2280 O.co2 1 <1>  -0.9000 
  4 C        2.3980     0.5540     0.5180 C.3   1 <1>  -0.1060 
  5 C        3.2070    -0.2770    -0.4970 C.3   1 <1>   0.4230 
  6 C        2.2510     1.9990    -0.0660 C.3   1 <1>  -0.1600 
  7 C        0.9770    -0.0300     0.7370 C.3   1 <1>  -0.1600 
  8 N        3.1930    -1.7340    -0.0990 N.4   1 <1>  -0.9590 
  9 C        4.6450     0.3420    -0.6310 C.3   1 <1>   0.3430 
 10 C        3.5040     2.5790    -0.7530 C.3   1 <1>   0.3430 
 11 C        0.9880    -1.5440     0.9910 C.3   1 <1>  -0.1600 
 12 C        1.8180    -2.3010    -0.0460 C.3   1 <1>   0.3430 
 13 C        4.1310    -2.6430    -0.8170 C.3   1 <1>   0.2630 
 14 N        4.7130     1.8200    -0.3310 N.4   1 <1>  -0.9590 
 15 C        6.0170     2.4550    -0.6560 C.3   1 <1>   0.4860 
 16 C        5.9720     3.9390    -0.3440 C.ar  1 <1>  -0.1430 
 17 C        5.8200     4.3900     0.9590 C.ar  1 <1>  -0.1500 
 18 C        6.0700     4.8620    -1.3720 C.ar  1 <1>  -0.1500 
 19 C        5.7700     5.7470     1.2340 C.ar  1 <1>   0.0830 
 20 C        6.0150     6.2210    -1.1110 C.ar  1 <1>   0.0830 
 21 O        5.6250     6.0920     2.5370 O.3   1 <1>  -0.3620 
 22 C        5.8660     6.6680     0.1970 C.ar  1 <1>  -0.1500 
 23 O        6.1100     7.0400    -2.1870 O.3   1 <1>  -0.3630 
 24 C        5.5290     7.4390     2.9440 C.3   1 <1>   0.0400 
 25 C        6.1210     8.4440    -2.0450 C.3   1 <1>   0.0400 
 26 H        2.7230    -0.1890    -1.4540 H     1 <1>   0.0800 
 27 H        1.9680     2.6670     0.7320 H     1 <1>   0.0800 
 28 H        1.4510     2.0410    -0.7830 H     1 <1>   0.0800 
 29 H        0.5110     0.4670     1.5730 H     1 <1>   0.0800 
 30 H        0.3650     0.1550    -0.1290 H     1 <1>   0.0800 
 31 H        3.4820    -1.6800     0.9190 H     1 <1>   0.4500 
 32 H        5.0060     0.1600    -1.6290 H     1 <1>   0.0800 
 33 H        5.2910    -0.1660     0.0670 H     1 <1>   0.0800 
 34 H        3.5970     3.6180    -0.4780 H     1 <1>   0.0800 
 35 H        3.3980     2.5240    -1.8240 H     1 <1>   0.0800 
 36 H       -0.0220    -1.9160     0.9740 H     1 <1>   0.0800 
 37 H        1.3780    -1.7500     1.9740 H     1 <1>   0.0800 
 38 H        1.3500    -2.2260    -1.0140 H     1 <1>   0.0800 
 39 H        1.8600    -3.3410     0.2340 H     1 <1>   0.0800 
 40 H        3.8820    -2.6940    -1.8640 H     1 <1>   0.0800 
 41 H        4.0700    -3.6360    -0.4000 H     1 <1>   0.0800 
 42 H        5.1470    -2.3000    -0.7100 H     1 <1>   0.0800 
 43 H        4.6440     1.8970     0.7230 H     1 <1>   0.4500 
 44 H        6.8010     1.9970    -0.0740 H     1 <1>   0.0800 
 45 H        6.2430     2.3200    -1.7000 H     1 <1>   0.0800 
 46 H        5.7320     3.7000     1.7840 H     1 <1>   0.1500 
 47 H        6.1920     4.5520    -2.3950 H     1 <1>   0.1500 
 48 H        5.8260     7.7170     0.4060 H     1 <1>   0.1500 
 49 H        5.4080     7.4550     4.0120 H     1 <1>   0.0800 
 50 H        4.6720     7.8860     2.4730 H     1 <1>   0.0800 
 51 H        6.4350     7.9520     2.6710 H     1 <1>   0.0800 
 52 H        6.2280     8.8780    -3.0230 H     1 <1>   0.0800 
 53 H        6.9560     8.7260    -1.4280 H     1 <1>   0.0800 
 54 H        5.1910     8.7590    -1.6060 H     1 <1>   0.0800 
@<TRIPOS>BOND
  1   1   2  ar  
  2   2   3  ar  
  3   2   4  1   
  4   4   5  1   
  5   4   6  1   
  6   4   7  1   
  7   5   8  1   
  8   5   9  1   
  9   5  26  1   
 10   6  10  1   
 11   6  27  1   
 12   6  28  1   
 13   7  11  1   
 14   7  29  1   
 15   7  30  1   
 16   8  12  1   
 17   8  13  1   
 18   8  31  1   
 19   9  14  1   
 20   9  32  1   
 21   9  33  1   
 22  10  14  1   
 23  10  34  1   
 24  10  35  1   
 25  11  12  1   
 26  11  36  1   
 27  11  37  1   
 28  12  38  1   
 29  12  39  1   
 30  13  40  1   
 31  13  41  1   
 32  13  42  1   
 33  14  15  1   
 34  14  43  1   
 35  15  16  1   
 36  15  44  1   
 37  15  45  1   
 38  16  17  ar  
 39  16  18  ar  
 40  17  19  ar  
 41  17  46  1   
 42  18  20  ar  
 43  18  47  1   
 44  19  21  1   
 45  19  22  ar  
 46  20  22  ar  
 47  20  23  1   
 48  21  24  1   
 49  22  48  1   
 50  23  25  1   
 51  24  49  1   
 52  24  50  1   
 53  24  51  1   
 54  25  52  1   
 55  25  53  1   
 56  25  54  1   
@<TRIPOS>SUBSTRUCTURE
  1 ****  14 GROUP 4 **** **** 0

# MOE 2024.06 (io_trps.svl 2023.06)
