@<TRIPOS>MOLECULE
NONAME
42 44 1 0 0 
SMALL
USER_CHARGES


@<TRIPOS>ATOM
  1 O        1.2830     0.2890    -2.0360 O.2   1 <1>  -0.5700 
  2 C        1.8190     0.7220    -1.0290 C.2   1 <1>   0.5440 
  3 N        1.4610     1.9760    -0.5870 N.am  1 <1>  -0.6600 
  4 C        2.7940    -0.0750    -0.3240 C.ar  1 <1>   0.0860 
  5 C        0.4680     2.8090    -1.3020 C.3   1 <1>   0.1400 
  6 C        1.6600     2.4660     0.7960 C.3   1 <1>   0.1400 
  7 C        2.5080    -1.4000     0.0580 C.ar  1 <1>   0.4100 
  8 C        4.0410     0.4430     0.0030 C.ar  1 <1>  -0.1500 
  9 C        0.1940     3.9850    -0.3710 C.3   1 <1>  -0.1600 
 10 C        0.5250     3.4570     1.0220 C.3   1 <1>  -0.1600 
 11 N        3.3520    -2.1640     0.7500 N.ar  1 <1>  -0.6200 
 12 N        1.2940    -1.9620    -0.2790 N.pl3 1 <1>  -0.8690 
 13 C        4.9150    -0.3560     0.7020 C.ar  1 <1>  -0.1500 
 14 C        4.5220    -1.6350     1.0500 C.ar  1 <1>   0.1600 
 15 C        0.9160    -3.3960    -0.3190 C.3   1 <1>   0.2890 
 16 C        0.9340    -4.0140     1.0850 C.3   1 <1>   0.0960 
 17 C        1.8060    -4.1160    -1.3360 C.3   1 <1>  -0.2400 
 18 N        0.4110    -5.3870     1.0510 N.pl3 1 <1>   0.3140 
 19 N       -0.8620    -5.6780     0.8160 N.2   1 <1>  -0.7070 
 20 C        1.0810    -6.5290     1.2290 C.2   1 <1>   0.0360 
 21 C       -0.8670    -6.9690     0.8710 C.2   1 <1>   0.3660 
 22 N        0.3120    -7.5520     1.1230 N.2   1 <1>  -0.5650 
 23 H       -0.4290     2.2330    -1.4580 H     1 <1>   0.0800 
 24 H        0.8570     3.1320    -2.2530 H     1 <1>   0.0800 
 25 H        2.6100     2.9690     0.8580 H     1 <1>   0.0800 
 26 H        1.6240     1.6590     1.5090 H     1 <1>   0.0800 
 27 H        4.3090     1.4430    -0.2900 H     1 <1>   0.1500 
 28 H       -0.8220     4.3280    -0.4510 H     1 <1>   0.0800 
 29 H        0.8580     4.7920    -0.6250 H     1 <1>   0.0800 
 30 H        0.8060     4.2410     1.7030 H     1 <1>   0.0800 
 31 H       -0.3230     2.9310     1.4240 H     1 <1>   0.0800 
 32 H        0.8040    -1.4190    -1.0090 H     1 <1>   0.4000 
 33 H        5.8910     0.0030     0.9770 H     1 <1>   0.1500 
 34 H        5.2100    -2.2530     1.6020 H     1 <1>   0.1500 
 35 H       -0.1010    -3.4410    -0.6750 H     1 <1>   0.0800 
 36 H        0.3110    -3.4330     1.7390 H     1 <1>   0.0800 
 37 H        1.9290    -4.0440     1.4790 H     1 <1>   0.0800 
 38 H        2.8220    -4.1630    -0.9890 H     1 <1>   0.0800 
 39 H        1.7790    -3.5980    -2.2770 H     1 <1>   0.0800 
 40 H        1.4520    -5.1180    -1.4970 H     1 <1>   0.0800 
 41 H        2.1360    -6.5630     1.4330 H     1 <1>   0.1500 
 42 H       -1.7540    -7.5640     0.7260 H     1 <1>   0.1500 
@<TRIPOS>BOND
  1   1   2  2   
  2   2   3  am  
  3   2   4  1   
  4   3   5  1   
  5   3   6  1   
  6   4   7  ar  
  7   4   8  ar  
  8   5   9  1   
  9   5  23  1   
 10   5  24  1   
 11   6  10  1   
 12   6  25  1   
 13   6  26  1   
 14   7  11  ar  
 15   7  12  1   
 16   8  13  ar  
 17   8  27  1   
 18   9  10  1   
 19   9  28  1   
 20   9  29  1   
 21  10  30  1   
 22  10  31  1   
 23  11  14  ar  
 24  12  15  1   
 25  12  32  1   
 26  13  14  ar  
 27  13  33  1   
 28  14  34  1   
 29  15  16  1   
 30  15  17  1   
 31  15  35  1   
 32  16  18  1   
 33  16  36  1   
 34  16  37  1   
 35  17  38  1   
 36  17  39  1   
 37  17  40  1   
 38  18  19  1   
 39  18  20  1   
 40  19  21  2   
 41  20  22  2   
 42  20  41  1   
 43  21  22  1   
 44  21  42  1   
@<TRIPOS>SUBSTRUCTURE
  1 ****  12 GROUP 4 **** **** 0

# MOE 2024.06 (io_trps.svl 2023.06)
