@<TRIPOS>MOLECULE
NONAME
48 50 1 0 0 
SMALL
USER_CHARGES


@<TRIPOS>ATOM
  1 O        1.3290    -0.4540    -1.8470 O.2   1 <1>  -0.5700 
  2 C        2.1170    -0.8990    -1.0330 C.2   1 <1>   0.5440 
  3 N        1.8770    -2.1450    -0.4970 N.am  1 <1>  -0.6600 
  4 C        3.2580    -0.1050    -0.6470 C.ar  1 <1>   0.0860 
  5 C        2.4340    -2.6400     0.7820 C.3   1 <1>   0.1400 
  6 C        0.7170    -2.9650    -0.9160 C.3   1 <1>   0.1400 
  7 C        3.1100     1.2550    -0.3880 C.ar  1 <1>   0.1600 
  8 C        4.5420    -0.6270    -0.5240 C.ar  1 <1>  -0.1500 
  9 C        1.3860    -3.6110     1.3110 C.3   1 <1>  -0.1600 
 10 C        0.6860    -4.1350     0.0610 C.3   1 <1>  -0.1600 
 11 N        4.0660     2.0840    -0.0090 N.ar  1 <1>  -0.6200 
 12 C        5.5500     0.2220    -0.1370 C.ar  1 <1>  -0.1500 
 13 C        5.2830     1.5660     0.1230 C.ar  1 <1>   0.4100 
 14 N        6.2900     2.4160     0.5230 N.pl3 1 <1>  -0.8380 
 15 C        6.1610     3.8990     0.3240 C.3   1 <1>   0.3530 
 16 C        7.3070     2.0150     1.5340 C.3   1 <1>   0.1290 
 17 C        7.4960     4.5390    -0.0510 C.ar  1 <1>   0.1670 
 18 N        8.0190     5.4120     0.8030 N.ar  1 <1>  -0.6200 
 19 C        8.0920     4.1800    -1.2500 C.ar  1 <1>  -0.1500 
 20 C        9.1730     5.9480     0.4460 C.ar  1 <1>   0.1670 
 21 C        9.2970     4.7410    -1.6160 C.ar  1 <1>  -0.1430 
 22 C        9.8390     5.6500    -0.7330 C.ar  1 <1>  -0.1500 
 23 C        9.7630     6.9440     1.4210 C.3   1 <1>  -0.0970 
 24 C        9.9850     4.3800    -2.9190 C.3   1 <1>  -0.0970 
 25 H        2.6080    -1.8340     1.4750 H     1 <1>   0.0800 
 26 H        3.3550    -3.1620     0.5870 H     1 <1>   0.0800 
 27 H        0.8340    -3.2950    -1.9340 H     1 <1>   0.0800 
 28 H       -0.1800    -2.3750    -0.8300 H     1 <1>   0.0800 
 29 H        2.1250     1.6740    -0.5050 H     1 <1>   0.1500 
 30 H        4.7320    -1.6630    -0.7400 H     1 <1>   0.1500 
 31 H        0.6840    -3.0700     1.9220 H     1 <1>   0.0800 
 32 H        1.8270    -4.3980     1.8960 H     1 <1>   0.0800 
 33 H        1.2450    -4.9540    -0.3580 H     1 <1>   0.0800 
 34 H       -0.3200    -4.4630     0.2580 H     1 <1>   0.0800 
 35 H        6.5570    -0.1350    -0.0410 H     1 <1>   0.1500 
 36 H        5.7870     4.3450     1.2290 H     1 <1>   0.0800 
 37 H        5.4570     4.1090    -0.4620 H     1 <1>   0.0800 
 38 H        7.0680     1.0530     1.9530 H     1 <1>   0.0800 
 39 H        7.3360     2.7370     2.3320 H     1 <1>   0.0800 
 40 H        8.2780     1.9710     1.0720 H     1 <1>   0.0800 
 41 H        7.6060     3.4600    -1.8830 H     1 <1>   0.1500 
 42 H       10.7750     6.1260    -0.9580 H     1 <1>   0.1500 
 43 H        9.0750     7.7580     1.5600 H     1 <1>   0.0800 
 44 H       10.6970     7.3330     1.0630 H     1 <1>   0.0800 
 45 H        9.9250     6.4630     2.3690 H     1 <1>   0.0800 
 46 H        9.7080     3.3880    -3.2270 H     1 <1>   0.0800 
 47 H       11.0530     4.4130    -2.8000 H     1 <1>   0.0800 
 48 H        9.6980     5.0750    -3.6870 H     1 <1>   0.0800 
@<TRIPOS>BOND
  1   1   2  2   
  2   2   3  am  
  3   2   4  1   
  4   3   5  1   
  5   3   6  1   
  6   4   7  ar  
  7   4   8  ar  
  8   5   9  1   
  9   5  25  1   
 10   5  26  1   
 11   6  10  1   
 12   6  27  1   
 13   6  28  1   
 14   7  11  ar  
 15   7  29  1   
 16   8  12  ar  
 17   8  30  1   
 18   9  10  1   
 19   9  31  1   
 20   9  32  1   
 21  10  33  1   
 22  10  34  1   
 23  11  13  ar  
 24  12  13  ar  
 25  12  35  1   
 26  13  14  1   
 27  14  15  1   
 28  14  16  1   
 29  15  17  1   
 30  15  36  1   
 31  15  37  1   
 32  16  38  1   
 33  16  39  1   
 34  16  40  1   
 35  17  18  ar  
 36  17  19  ar  
 37  18  20  ar  
 38  19  21  ar  
 39  19  41  1   
 40  20  22  ar  
 41  20  23  1   
 42  21  22  ar  
 43  21  24  1   
 44  22  42  1   
 45  23  43  1   
 46  23  44  1   
 47  23  45  1   
 48  24  46  1   
 49  24  47  1   
 50  24  48  1   
@<TRIPOS>SUBSTRUCTURE
  1 ****  13 GROUP 4 **** **** 0

# MOE 2024.06 (io_trps.svl 2023.06)
