@<TRIPOS>MOLECULE
NONAME
57 60 1 0 0 
SMALL
USER_CHARGES


@<TRIPOS>ATOM
  1 O        2.0730    -0.1430    -0.7200 O.3   1 <1>  -0.5600 
  2 C        2.8060    -1.1360    -0.0400 C.3   1 <1>   0.4240 
  3 C        0.7100    -0.0330    -0.4340 C.3   1 <1>   0.1200 
  4 C        2.0020    -2.4420     0.1150 C.ar  1 <1>  -0.1440 
  5 C        3.2440    -0.5590     1.3230 C.3   1 <1>  -0.1600 
  6 C        4.0490    -1.3670    -0.9080 C.3   1 <1>  -0.1600 
  7 C        0.0030    -1.3020    -0.8980 C.3   1 <1>  -0.0160 
  8 C        0.6740    -2.5190    -0.2930 C.ar  1 <1>  -0.1440 
  9 C        2.5920    -3.5740     0.6690 C.ar  1 <1>  -0.1500 
 10 C        4.4450     0.3910     1.2410 C.3   1 <1>   0.3430 
 11 C        4.8070    -0.0650    -1.1920 C.3   1 <1>   0.3430 
 12 C       -0.0420    -3.6980    -0.1540 C.ar  1 <1>  -0.1500 
 13 C        1.8780    -4.7490     0.8100 C.ar  1 <1>  -0.1500 
 14 N        4.5600     0.9460    -0.1280 N.4   1 <1>  -0.9590 
 15 C        0.5590    -4.8220     0.4010 C.ar  1 <1>   0.0820 
 16 C        5.4120     2.1600    -0.2150 C.3   1 <1>   0.5230 
 17 O       -0.0700    -6.0120     0.5730 O.3   1 <1>  -0.3620 
 18 C        4.6730     3.3200     0.4400 C.2   1 <1>   0.0060 
 19 C       -1.4090    -6.2000     0.1740 C.3   1 <1>   0.0400 
 20 N        3.3870     3.3220     0.6340 N.2   1 <1>  -0.5650 
 21 N        5.2910     4.4520     0.8680 N.pl3 1 <1>   0.0480 
 22 C        3.1500     4.5120     1.2130 C.2   1 <1>   0.0770 
 23 C        4.2950     5.2090     1.3640 C.2   1 <1>  -0.3020 
 24 C        6.7260     4.8320     0.8740 C.3   1 <1>   0.0960 
 25 C        7.2470     5.1520    -0.5300 C.3   1 <1>   0.1200 
 26 O        7.2690     3.9870    -1.2980 O.3   1 <1>  -0.5600 
 27 C        7.7490     4.1910    -2.5920 C.3   1 <1>   0.0400 
 28 H        0.3280     0.8240    -0.9620 H     1 <1>   0.0800 
 29 H        0.5740     0.1170     0.6220 H     1 <1>   0.0800 
 30 H        3.5190    -1.3590     1.9830 H     1 <1>   0.0800 
 31 H        2.4220    -0.0550     1.7930 H     1 <1>   0.0800 
 32 H        3.7580    -1.8240    -1.8370 H     1 <1>   0.0800 
 33 H        4.7130    -2.0530    -0.4160 H     1 <1>   0.0800 
 34 H        0.0420    -1.3620    -1.9710 H     1 <1>   0.0800 
 35 H       -1.0300    -1.2590    -0.6010 H     1 <1>   0.0800 
 36 H        3.6150    -3.5610     0.9990 H     1 <1>   0.1500 
 37 H        5.3480    -0.1430     1.4870 H     1 <1>   0.0800 
 38 H        4.3130     1.1890     1.9550 H     1 <1>   0.0800 
 39 H        4.4660     0.3350    -2.1340 H     1 <1>   0.0800 
 40 H        5.8600    -0.2750    -1.2750 H     1 <1>   0.0800 
 41 H       -1.0630    -3.7280    -0.4810 H     1 <1>   0.1500 
 42 H        2.3370    -5.6220     1.2380 H     1 <1>   0.1500 
 43 H        3.6060     1.3240    -0.3070 H     1 <1>   0.4500 
 44 H        5.5860     2.4100    -1.2480 H     1 <1>   0.0800 
 45 H        6.3610     1.9950     0.2650 H     1 <1>   0.0800 
 46 H       -1.6860    -7.2130     0.4010 H     1 <1>   0.0800 
 47 H       -1.4850    -6.0290    -0.8860 H     1 <1>   0.0800 
 48 H       -2.0360    -5.5180     0.7220 H     1 <1>   0.0800 
 49 H        2.1540     4.8130     1.4960 H     1 <1>   0.1500 
 50 H        4.4420     6.1850     1.7910 H     1 <1>   0.1500 
 51 H        7.3070     4.0400     1.3090 H     1 <1>   0.0800 
 52 H        6.8390     5.7030     1.4930 H     1 <1>   0.0800 
 53 H        8.2520     5.5340    -0.4660 H     1 <1>   0.0800 
 54 H        6.6170     5.8830    -1.0090 H     1 <1>   0.0800 
 55 H        7.7370     3.2490    -3.1120 H     1 <1>   0.0800 
 56 H        8.7590     4.5620    -2.5450 H     1 <1>   0.0800 
 57 H        7.1140     4.8940    -3.1040 H     1 <1>   0.0800 
@<TRIPOS>BOND
  1   1   2  1   
  2   1   3  1   
  3   2   4  1   
  4   2   5  1   
  5   2   6  1   
  6   3   7  1   
  7   3  28  1   
  8   3  29  1   
  9   4   8  ar  
 10   4   9  ar  
 11   5  10  1   
 12   5  30  1   
 13   5  31  1   
 14   6  11  1   
 15   6  32  1   
 16   6  33  1   
 17   7   8  1   
 18   7  34  1   
 19   7  35  1   
 20   8  12  ar  
 21   9  13  ar  
 22   9  36  1   
 23  10  14  1   
 24  10  37  1   
 25  10  38  1   
 26  11  14  1   
 27  11  39  1   
 28  11  40  1   
 29  12  15  ar  
 30  12  41  1   
 31  13  15  ar  
 32  13  42  1   
 33  14  16  1   
 34  14  43  1   
 35  15  17  1   
 36  16  18  1   
 37  16  44  1   
 38  16  45  1   
 39  17  19  1   
 40  18  20  2   
 41  18  21  1   
 42  19  46  1   
 43  19  47  1   
 44  19  48  1   
 45  20  22  1   
 46  21  23  1   
 47  21  24  1   
 48  22  23  2   
 49  22  49  1   
 50  23  50  1   
 51  24  25  1   
 52  24  51  1   
 53  24  52  1   
 54  25  26  1   
 55  25  53  1   
 56  25  54  1   
 57  26  27  1   
 58  27  55  1   
 59  27  56  1   
 60  27  57  1   
@<TRIPOS>SUBSTRUCTURE
  1 ****   2 GROUP 4 **** **** 0

# MOE 2024.06 (io_trps.svl 2023.06)
