@<TRIPOS>MOLECULE
NONAME
47 49 1 0 0 
SMALL
USER_CHARGES


@<TRIPOS>ATOM
  1 O       -0.7150    -1.3450    -0.1060 O.2   1 <1>  -0.5700 
  2 C        0.2040    -2.1020     0.0600 C.2   1 <1>   0.5690 
  3 N        0.0090    -3.3740     0.4650 N.am  1 <1>  -0.7300 
  4 C        1.6310    -1.6560    -0.1690 C.3   1 <1>  -0.0990 
  5 C        1.1040    -4.3370     0.6860 C.3   1 <1>   0.1400 
  6 C        2.4290    -2.7450    -0.9170 C.3   1 <1>  -0.0800 
  7 C        2.1500    -4.1940    -0.4410 C.3   1 <1>  -0.0800 
  8 C        3.9470    -2.5450    -0.8270 C.3   1 <1>  -0.1600 
  9 C        3.5180    -4.7940    -0.0800 C.3   1 <1>  -0.1600 
 10 C        4.5140    -3.9570    -0.8800 C.3   1 <1>   0.4230 
 11 N        5.9270    -4.0550    -0.4150 N.4   1 <1>  -0.9590 
 12 C        6.2130    -3.6570     0.9940 C.3   1 <1>   0.4860 
 13 C        6.5280    -5.3820    -0.7400 C.3   1 <1>   0.2630 
 14 C        6.8700    -2.3000     0.9170 C.ar  1 <1>  -0.1440 
 15 C        6.2700    -1.1980     1.5080 C.ar  1 <1>  -0.1500 
 16 C        8.0510    -2.1370     0.2060 C.ar  1 <1>  -0.1500 
 17 C        6.8100     0.0630     1.3330 C.ar  1 <1>  -0.1500 
 18 C        8.5840    -0.8750     0.0320 C.ar  1 <1>  -0.1500 
 19 C        7.9570     0.2300     0.5790 C.ar  1 <1>  -0.1440 
 20 C        8.5180     1.6180     0.2960 C.3   1 <1>  -0.1230 
 21 C        8.3340     2.0020    -1.1570 C.2   1 <1>   0.9060 
 22 O        9.2040     1.6690    -1.9710 O.co2 1 <1>  -0.9000 
 23 O        7.3200     2.6300    -1.4820 O.co2 1 <1>  -0.9000 
 24 H       -0.9550    -3.6630     0.6540 H     1 <1>   0.3700 
 25 H        1.6340    -0.7400    -0.7330 H     1 <1>   0.0800 
 26 H        2.0620    -1.4560     0.7940 H     1 <1>   0.0800 
 27 H        1.5470    -4.1290     1.6450 H     1 <1>   0.0800 
 28 H        0.7090    -5.3400     0.7010 H     1 <1>   0.0800 
 29 H        2.1410    -2.6920    -1.9550 H     1 <1>   0.0800 
 30 H        1.7660    -4.7360    -1.2900 H     1 <1>   0.0800 
 31 H        4.1790    -2.0740     0.1070 H     1 <1>   0.0800 
 32 H        4.3110    -1.9340    -1.6350 H     1 <1>   0.0800 
 33 H        3.5630    -5.8350    -0.3490 H     1 <1>   0.0800 
 34 H        3.6860    -4.6850     0.9750 H     1 <1>   0.0800 
 35 H        4.4630    -4.2800    -1.9090 H     1 <1>   0.0800 
 36 H        6.4350    -3.3310    -0.9530 H     1 <1>   0.4500 
 37 H        5.3090    -3.6000     1.5750 H     1 <1>   0.0800 
 38 H        6.8890    -4.3550     1.4610 H     1 <1>   0.0800 
 39 H        6.0400    -6.1630    -0.1790 H     1 <1>   0.0800 
 40 H        7.5790    -5.3870    -0.4990 H     1 <1>   0.0800 
 41 H        6.4190    -5.5930    -1.7920 H     1 <1>   0.0800 
 42 H        5.3700    -1.2930     2.0900 H     1 <1>   0.1500 
 43 H        8.5680    -2.9690    -0.2380 H     1 <1>   0.1500 
 44 H        6.3290     0.9250     1.7640 H     1 <1>   0.1500 
 45 H        9.4810    -0.7310    -0.5510 H     1 <1>   0.1500 
 46 H        9.5670     1.6420     0.5160 H     1 <1>   0.0800 
 47 H        8.0300     2.3590     0.8980 H     1 <1>   0.0800 
@<TRIPOS>BOND
  1   1   2  2   
  2   2   3  am  
  3   2   4  1   
  4   3   5  1   
  5   3  24  1   
  6   4   6  1   
  7   4  25  1   
  8   4  26  1   
  9   5   7  1   
 10   5  27  1   
 11   5  28  1   
 12   6   7  1   
 13   6   8  1   
 14   6  29  1   
 15   7   9  1   
 16   7  30  1   
 17   8  10  1   
 18   8  31  1   
 19   8  32  1   
 20   9  10  1   
 21   9  33  1   
 22   9  34  1   
 23  10  11  1   
 24  10  35  1   
 25  11  12  1   
 26  11  13  1   
 27  11  36  1   
 28  12  14  1   
 29  12  37  1   
 30  12  38  1   
 31  13  39  1   
 32  13  40  1   
 33  13  41  1   
 34  14  15  ar  
 35  14  16  ar  
 36  15  17  ar  
 37  15  42  1   
 38  16  18  ar  
 39  16  43  1   
 40  17  19  ar  
 41  17  44  1   
 42  18  19  ar  
 43  18  45  1   
 44  19  20  1   
 45  20  21  1   
 46  20  46  1   
 47  20  47  1   
 48  21  22  ar  
 49  21  23  ar  
@<TRIPOS>SUBSTRUCTURE
  1 ****   8 GROUP 4 **** **** 0

# MOE 2024.06 (io_trps.svl 2023.06)
