@<TRIPOS>MOLECULE
NONAME
47 49 1 0 0 
SMALL
USER_CHARGES


@<TRIPOS>ATOM
  1 O       -0.8770     0.3690     1.9620 O.2   1 <1>  -0.5700 
  2 C       -0.6900     1.5210     1.6050 C.2   1 <1>   0.5440 
  3 N       -1.6790     2.4440     1.9140 N.am  1 <1>  -0.6600 
  4 C        0.5400     1.8560     0.8790 C.ar  1 <1>   0.3960 
  5 C       -1.4550     3.9130     1.9900 C.3   1 <1>   0.1400 
  6 C       -3.0270     1.9900     2.3610 C.3   1 <1>   0.1400 
  7 N        0.5080     2.7720    -0.1060 N.ar  1 <1>  -0.6200 
  8 C        1.7260     1.2020     1.2150 C.ar  1 <1>  -0.1500 
  9 C       -2.4210     4.6310     1.0400 C.3   1 <1>  -0.1600 
 10 C       -4.0720     3.1070     2.2150 C.3   1 <1>  -0.1600 
 11 C        1.6350     3.0270    -0.7400 C.ar  1 <1>   0.1670 
 12 C        2.9020     1.4760     0.5540 C.ar  1 <1>  -0.1500 
 13 C       -3.8300     3.9810     0.9640 C.3   1 <1>   0.2800 
 14 C        2.8440     2.4160    -0.4500 C.ar  1 <1>  -0.1500 
 15 C        1.5470     4.0580    -1.8450 C.3   1 <1>  -0.0970 
 16 O       -4.7410     5.0540     1.0410 O.3   1 <1>  -0.5600 
 17 C       -4.0670     3.1590    -0.3480 C.3   1 <1>   0.2000 
 18 C       -6.0280     4.8490     0.5330 C.3   1 <1>   0.1200 
 19 O       -2.9210     2.4840    -0.7970 O.3   1 <1>  -0.6800 
 20 C       -4.6810     4.0220    -1.4800 C.3   1 <1>   0.2800 
 21 C       -5.9770     4.6950    -0.9940 C.3   1 <1>  -0.1600 
 22 O       -5.0030     3.1720    -2.5150 O.3   1 <1>  -0.6800 
 23 C       -3.7180     5.0560    -2.0800 C.3   1 <1>  -0.2400 
 24 H       -1.6450     4.2330     3.0010 H     1 <1>   0.0800 
 25 H       -0.4380     4.1750     1.7580 H     1 <1>   0.0800 
 26 H       -3.3200     1.1430     1.7620 H     1 <1>   0.0800 
 27 H       -2.9720     1.6640     3.3860 H     1 <1>   0.0800 
 28 H        1.7100     0.4690     2.0020 H     1 <1>   0.1500 
 29 H       -1.9630     4.6650     0.0690 H     1 <1>   0.0800 
 30 H       -2.5050     5.6490     1.3760 H     1 <1>   0.0800 
 31 H       -4.0290     3.7300     3.0900 H     1 <1>   0.0800 
 32 H       -5.0470     2.6570     2.1870 H     1 <1>   0.0800 
 33 H        3.8220     0.9770     0.8070 H     1 <1>   0.1500 
 34 H        3.7310     2.6690    -1.0030 H     1 <1>   0.1500 
 35 H        2.4970     4.1960    -2.3260 H     1 <1>   0.0800 
 36 H        1.2220     4.9970    -1.4360 H     1 <1>   0.0800 
 37 H        0.8300     3.7350    -2.5780 H     1 <1>   0.0800 
 38 H       -4.7840     2.3910    -0.1170 H     1 <1>   0.0800 
 39 H       -6.4480     3.9720     0.9950 H     1 <1>   0.0800 
 40 H       -6.6300     5.6990     0.8040 H     1 <1>   0.0800 
 41 H       -2.3020     2.3560    -0.0400 H     1 <1>   0.4000 
 42 H       -6.0780     5.6680    -1.4410 H     1 <1>   0.0800 
 43 H       -6.8340     4.1180    -1.2960 H     1 <1>   0.0800 
 44 H       -4.2220     2.5940    -2.6490 H     1 <1>   0.4000 
 45 H       -3.4950     5.8190    -1.3580 H     1 <1>   0.0800 
 46 H       -4.1660     5.5290    -2.9360 H     1 <1>   0.0800 
 47 H       -2.7970     4.5910    -2.3810 H     1 <1>   0.0800 
@<TRIPOS>BOND
  1   1   2  2   
  2   2   3  am  
  3   2   4  1   
  4   3   5  1   
  5   3   6  1   
  6   4   7  ar  
  7   4   8  ar  
  8   5   9  1   
  9   5  24  1   
 10   5  25  1   
 11   6  10  1   
 12   6  26  1   
 13   6  27  1   
 14   7  11  ar  
 15   8  12  ar  
 16   8  28  1   
 17   9  13  1   
 18   9  29  1   
 19   9  30  1   
 20  10  13  1   
 21  10  31  1   
 22  10  32  1   
 23  11  14  ar  
 24  11  15  1   
 25  12  14  ar  
 26  12  33  1   
 27  13  16  1   
 28  13  17  1   
 29  14  34  1   
 30  15  35  1   
 31  15  36  1   
 32  15  37  1   
 33  16  18  1   
 34  17  19  1   
 35  17  20  1   
 36  17  38  1   
 37  18  21  1   
 38  18  39  1   
 39  18  40  1   
 40  19  41  1   
 41  20  21  1   
 42  20  22  1   
 43  20  23  1   
 44  21  42  1   
 45  21  43  1   
 46  22  44  1   
 47  23  45  1   
 48  23  46  1   
 49  23  47  1   
@<TRIPOS>SUBSTRUCTURE
  1 ****  19 GROUP 4 **** **** 0

# MOE 2024.06 (io_trps.svl 2023.06)
