@<TRIPOS>MOLECULE
NONAME
59 61 1 0 0 
SMALL
USER_CHARGES


@<TRIPOS>ATOM
  1 O        0.4450     1.3160     0.6440 O.2   1 <1>  -0.5700 
  2 C        0.2590     2.4660     0.3410 C.2   1 <1>   0.5690 
  3 N       -0.8290     3.1320     0.7850 N.am  1 <1>  -0.7300 
  4 C        1.2540     3.1910    -0.5690 C.3   1 <1>   0.1810 
  5 C       -1.1230     4.5470     0.4560 C.3   1 <1>   0.3640 
  6 O        1.1780     4.5980    -0.4410 O.3   1 <1>  -0.5600 
  7 C       -2.5670     4.6680    -0.0150 C.ar  1 <1>  -0.1440 
  8 C       -0.1420     5.1110    -0.6030 C.3   1 <1>   0.2610 
  9 C       -3.3650     5.6940     0.4710 C.ar  1 <1>  -0.1500 
 10 C       -3.1020     3.7740    -0.9350 C.ar  1 <1>  -0.1500 
 11 C       -0.1450     6.6450    -0.5610 C.2   1 <1>   0.5690 
 12 C       -4.6760     5.8250     0.0460 C.ar  1 <1>  -0.1500 
 13 C       -4.4130     3.9050    -1.3600 C.ar  1 <1>  -0.1500 
 14 O       -0.5800     7.2210    -1.5290 O.2   1 <1>  -0.5700 
 15 N        0.3700     7.3730     0.4950 N.am  1 <1>  -0.6600 
 16 C       -5.2000     4.9300    -0.8700 C.ar  1 <1>  -0.1500 
 17 C        1.3380     6.8340     1.4940 C.3   1 <1>   0.1400 
 18 C        0.4760     8.8550     0.3780 C.3   1 <1>   0.1400 
 19 C        2.7670     7.1470     1.0070 C.3   1 <1>   0.3430 
 20 C        1.8890     9.2080    -0.1260 C.3   1 <1>   0.3430 
 21 N        2.9880     8.6300     0.7540 N.4   1 <1>  -0.9590 
 22 C        4.3510     8.8440     0.1830 C.3   1 <1>   0.3430 
 23 C        4.7640    10.3220     0.2400 C.3   1 <1>  -0.1600 
 24 C        6.2000    10.5010    -0.2750 C.3   1 <1>   0.3430 
 25 N        6.5950    11.9430    -0.3030 N.4   1 <1>  -0.9590 
 26 C        7.8520    12.1230    -1.1030 C.3   1 <1>   0.2630 
 27 C        6.7990    12.5310     1.0630 C.3   1 <1>   0.2630 
 28 H       -1.5270     2.6240     1.3330 H     1 <1>   0.3700 
 29 H        1.0610     2.9290    -1.5940 H     1 <1>   0.0800 
 30 H        2.2540     2.8870    -0.3170 H     1 <1>   0.0800 
 31 H       -1.0170     5.1150     1.3620 H     1 <1>   0.0800 
 32 H       -0.4800     4.8130    -1.5800 H     1 <1>   0.0800 
 33 H       -2.9790     6.4040     1.1810 H     1 <1>   0.1500 
 34 H       -2.5060     2.9690    -1.3290 H     1 <1>   0.1500 
 35 H       -5.2890     6.6240     0.4250 H     1 <1>   0.1500 
 36 H       -4.8200     3.2090    -2.0720 H     1 <1>   0.1500 
 37 H       -6.2190     5.0330    -1.2010 H     1 <1>   0.1500 
 38 H        1.1640     7.2950     2.4510 H     1 <1>   0.0800 
 39 H        1.2200     5.7750     1.6290 H     1 <1>   0.0800 
 40 H       -0.2600     9.2370    -0.3100 H     1 <1>   0.0800 
 41 H        0.2910     9.3130     1.3340 H     1 <1>   0.0800 
 42 H        2.9320     6.5930     0.0960 H     1 <1>   0.0800 
 43 H        3.4720     6.7900     1.7400 H     1 <1>   0.0800 
 44 H        1.9790    10.2800    -0.1780 H     1 <1>   0.0800 
 45 H        1.9840     8.8200    -1.1280 H     1 <1>   0.0800 
 46 H        2.9210     9.0940     1.6700 H     1 <1>   0.4500 
 47 H        5.0630     8.2610     0.7460 H     1 <1>   0.0800 
 48 H        4.3720     8.4930    -0.8380 H     1 <1>   0.0800 
 49 H        4.1020    10.9050    -0.3750 H     1 <1>   0.0800 
 50 H        4.7050    10.6600     1.2590 H     1 <1>   0.0800 
 51 H        6.2650    10.1010    -1.2750 H     1 <1>   0.0800 
 52 H        6.8890     9.9510     0.3470 H     1 <1>   0.0800 
 53 H        5.8580    12.4870    -0.7800 H     1 <1>   0.4500 
 54 H        8.6700    11.5870    -0.6490 H     1 <1>   0.0800 
 55 H        8.1160    13.1670    -1.1570 H     1 <1>   0.0800 
 56 H        7.7160    11.7560    -2.1080 H     1 <1>   0.0800 
 57 H        7.5670    11.9920     1.5950 H     1 <1>   0.0800 
 58 H        5.8870    12.4890     1.6360 H     1 <1>   0.0800 
 59 H        7.1000    13.5640     0.9840 H     1 <1>   0.0800 
@<TRIPOS>BOND
  1   1   2  2   
  2   2   3  am  
  3   2   4  1   
  4   3   5  1   
  5   3  28  1   
  6   4   6  1   
  7   4  29  1   
  8   4  30  1   
  9   5   7  1   
 10   5   8  1   
 11   5  31  1   
 12   6   8  1   
 13   7   9  ar  
 14   7  10  ar  
 15   8  11  1   
 16   8  32  1   
 17   9  12  ar  
 18   9  33  1   
 19  10  13  ar  
 20  10  34  1   
 21  11  14  2   
 22  11  15  am  
 23  12  16  ar  
 24  12  35  1   
 25  13  16  ar  
 26  13  36  1   
 27  15  17  1   
 28  15  18  1   
 29  16  37  1   
 30  17  19  1   
 31  17  38  1   
 32  17  39  1   
 33  18  20  1   
 34  18  40  1   
 35  18  41  1   
 36  19  21  1   
 37  19  42  1   
 38  19  43  1   
 39  20  21  1   
 40  20  44  1   
 41  20  45  1   
 42  21  22  1   
 43  21  46  1   
 44  22  23  1   
 45  22  47  1   
 46  22  48  1   
 47  23  24  1   
 48  23  49  1   
 49  23  50  1   
 50  24  25  1   
 51  24  51  1   
 52  24  52  1   
 53  25  26  1   
 54  25  27  1   
 55  25  53  1   
 56  26  54  1   
 57  26  55  1   
 58  26  56  1   
 59  27  57  1   
 60  27  58  1   
 61  27  59  1   
@<TRIPOS>SUBSTRUCTURE
  1 ****  15 GROUP 4 **** **** 0

# MOE 2024.06 (io_trps.svl 2023.06)
