@<TRIPOS>MOLECULE
NONAME
52 55 1 0 0 
SMALL
USER_CHARGES


@<TRIPOS>ATOM
  1 O       -1.2920    -0.5860    -0.6270 O.3   1 <1>  -0.3630 
  2 C       -2.0140     0.4040    -0.0340 C.ar  1 <1>   0.0820 
  3 C       -0.0890    -0.2930    -1.3110 C.3   1 <1>   0.0400 
  4 C       -3.0390     0.0230     0.8340 C.ar  1 <1>  -0.1440 
  5 C       -1.7730     1.7560    -0.2680 C.ar  1 <1>  -0.1500 
  6 C       -3.8150     0.9850     1.4660 C.ar  1 <1>  -0.1500 
  7 C       -3.3110    -1.4440     1.0870 C.3   1 <1>   0.4870 
  8 C       -2.5570     2.6990     0.3670 C.ar  1 <1>  -0.1440 
  9 C       -3.5620     2.3200     1.2200 C.ar  1 <1>  -0.1440 
 10 N       -3.6790    -2.0730    -0.2070 N.4   1 <1>  -0.9590 
 11 C       -2.4670     4.2010     0.2580 C.3   1 <1>  -0.0170 
 12 C       -4.2740     3.5210     1.7950 C.3   1 <1>  -0.0170 
 13 C       -4.9370    -1.5040    -0.7930 C.3   1 <1>   0.3430 
 14 C       -3.8130    -3.5540    -0.1370 C.3   1 <1>   0.3430 
 15 C       -3.3620     4.6970     1.4060 C.3   1 <1>  -0.1600 
 16 C       -5.8180    -2.7050    -1.1470 C.3   1 <1>   0.2000 
 17 C       -5.3050    -3.8470    -0.2770 C.3   1 <1>  -0.0800 
 18 O       -7.1570    -2.4640    -0.8860 O.3   1 <1>  -0.6800 
 19 C       -5.5950    -5.2400    -0.8580 C.3   1 <1>  -0.0170 
 20 C       -4.8680    -6.3030    -0.0520 C.ar  1 <1>  -0.1440 
 21 C       -5.2920    -6.6740     1.2080 C.ar  1 <1>  -0.1500 
 22 C       -3.7450    -6.9480    -0.5330 C.ar  1 <1>  -0.1500 
 23 C       -4.5790    -7.6270     1.9170 C.ar  1 <1>   0.1600 
 24 C       -3.1050    -7.8880     0.2570 C.ar  1 <1>   0.1600 
 25 N       -3.4900    -8.2310     1.4750 N.ar  1 <1>  -0.6200 
 26 H        0.3700    -1.2200    -1.6040 H     1 <1>   0.0800 
 27 H        0.5690     0.2450    -0.6500 H     1 <1>   0.0800 
 28 H       -0.3140     0.2940    -2.1850 H     1 <1>   0.0800 
 29 H       -0.9970     2.0940    -0.9300 H     1 <1>   0.1500 
 30 H       -4.6070     0.7190     2.1450 H     1 <1>   0.1500 
 31 H       -4.1060    -1.5600     1.8040 H     1 <1>   0.0800 
 32 H       -2.4180    -1.9020     1.4790 H     1 <1>   0.0800 
 33 H       -2.8860    -1.8130    -0.8210 H     1 <1>   0.4500 
 34 H       -1.4540     4.5480     0.3700 H     1 <1>   0.0800 
 35 H       -2.8590     4.5170    -0.6930 H     1 <1>   0.0800 
 36 H       -5.2400     3.6230     1.3330 H     1 <1>   0.0800 
 37 H       -4.3840     3.4460     2.8630 H     1 <1>   0.0800 
 38 H       -5.4390    -0.8850    -0.0680 H     1 <1>   0.0800 
 39 H       -4.7190    -0.9190    -1.6710 H     1 <1>   0.0800 
 40 H       -3.2840    -4.0010    -0.9630 H     1 <1>   0.0800 
 41 H       -3.4200    -3.9550     0.7840 H     1 <1>   0.0800 
 42 H       -2.7390     4.9450     2.2470 H     1 <1>   0.0800 
 43 H       -3.9290     5.5670     1.1230 H     1 <1>   0.0800 
 44 H       -5.7180    -2.9270    -2.1970 H     1 <1>   0.0800 
 45 H       -5.7360    -3.7770     0.7060 H     1 <1>   0.0800 
 46 H       -7.3640    -2.4480     0.0700 H     1 <1>   0.4000 
 47 H       -5.2820    -5.2900    -1.8870 H     1 <1>   0.0800 
 48 H       -6.6550    -5.4310    -0.8340 H     1 <1>   0.0800 
 49 H       -6.1700    -6.2380     1.6490 H     1 <1>   0.1500 
 50 H       -3.3580    -6.7390    -1.5140 H     1 <1>   0.1500 
 51 H       -4.9220    -7.9070     2.8990 H     1 <1>   0.1500 
 52 H       -2.2320    -8.3860    -0.1310 H     1 <1>   0.1500 
@<TRIPOS>BOND
  1   1   2  1   
  2   1   3  1   
  3   2   4  ar  
  4   2   5  ar  
  5   3  26  1   
  6   3  27  1   
  7   3  28  1   
  8   4   6  ar  
  9   4   7  1   
 10   5   8  ar  
 11   5  29  1   
 12   6   9  ar  
 13   6  30  1   
 14   7  10  1   
 15   7  31  1   
 16   7  32  1   
 17   8   9  ar  
 18   8  11  1   
 19   9  12  1   
 20  10  13  1   
 21  10  14  1   
 22  10  33  1   
 23  11  15  1   
 24  11  34  1   
 25  11  35  1   
 26  12  15  1   
 27  12  36  1   
 28  12  37  1   
 29  13  16  1   
 30  13  38  1   
 31  13  39  1   
 32  14  17  1   
 33  14  40  1   
 34  14  41  1   
 35  15  42  1   
 36  15  43  1   
 37  16  17  1   
 38  16  18  1   
 39  16  44  1   
 40  17  19  1   
 41  17  45  1   
 42  18  46  1   
 43  19  20  1   
 44  19  47  1   
 45  19  48  1   
 46  20  21  ar  
 47  20  22  ar  
 48  21  23  ar  
 49  21  49  1   
 50  22  24  ar  
 51  22  50  1   
 52  23  25  ar  
 53  23  51  1   
 54  24  25  ar  
 55  24  52  1   
@<TRIPOS>SUBSTRUCTURE
  1 ****  10 GROUP 4 **** **** 0

# MOE 2024.06 (io_trps.svl 2023.06)
