@<TRIPOS>MOLECULE
NONAME
52 54 1 0 0 
SMALL
USER_CHARGES


@<TRIPOS>ATOM
  1 O        0.8320    -0.3880    -2.0700 O.2   1 <1>  -0.5700 
  2 C        1.5130    -0.7610    -1.1350 C.2   1 <1>   0.5440 
  3 N        2.2800     0.1590    -0.4440 N.am  1 <1>  -0.6600 
  4 C        1.5090    -2.1660    -0.7710 C.ar  1 <1>   0.0860 
  5 C        3.1060    -0.2250     0.7440 C.3   1 <1>   0.1400 
  6 C        2.2910     1.6000    -0.8360 C.3   1 <1>   0.1400 
  7 C        0.6190    -2.6930     0.1760 C.ar  1 <1>  -0.1440 
  8 C        2.4300    -3.0220    -1.3720 C.ar  1 <1>  -0.1500 
  9 C        4.5300    -0.6210     0.3310 C.3   1 <1>   0.1400 
 10 C        3.6890     2.2350    -0.8180 C.3   1 <1>  -0.1600 
 11 C        0.6950    -4.0410     0.5070 C.ar  1 <1>  -0.1500 
 12 C       -0.4180    -1.7520     0.8040 C.3   1 <1>  -0.0160 
 13 C        2.4960    -4.3590    -1.0370 C.ar  1 <1>  -0.1500 
 14 N        5.3520     0.5570    -0.0940 N.am  1 <1>  -0.6600 
 15 C        4.8160     1.3000    -1.2710 C.3   1 <1>   0.1400 
 16 C        1.6280    -4.8690    -0.0920 C.ar  1 <1>  -0.1500 
 17 C       -1.3580    -2.3850     1.8360 C.3   1 <1>  -0.2400 
 18 C        6.4790     0.9090     0.6190 C.2   1 <1>   0.5690 
 19 O        6.7690     0.3310     1.6410 O.2   1 <1>  -0.5700 
 20 C        7.4030     2.0460     0.1480 C.3   1 <1>  -0.0190 
 21 C        8.7990     2.0670     0.7820 C.3   1 <1>  -0.1600 
 22 C        6.8690     3.4520     0.4470 C.3   1 <1>  -0.1600 
 23 C        9.3270     3.4700     0.4950 C.3   1 <1>  -0.1600 
 24 C        8.0920     4.3770     0.4630 C.3   1 <1>  -0.1600 
 25 H        2.6510    -1.0590     1.2470 H     1 <1>   0.0800 
 26 H        3.1460     0.5870     1.4490 H     1 <1>   0.0800 
 27 H        1.6370     2.1460    -0.1780 H     1 <1>   0.0800 
 28 H        1.8970     1.6990    -1.8330 H     1 <1>   0.0800 
 29 H        3.0980    -2.6240    -2.1150 H     1 <1>   0.1500 
 30 H        4.4900    -1.3340    -0.4710 H     1 <1>   0.0800 
 31 H        4.9930    -1.1140     1.1670 H     1 <1>   0.0800 
 32 H        3.9010     2.6170     0.1650 H     1 <1>   0.0800 
 33 H        3.6610     3.0820    -1.4790 H     1 <1>   0.0800 
 34 H        0.0310    -4.4770     1.2300 H     1 <1>   0.1500 
 35 H       -1.0180    -1.3350     0.0130 H     1 <1>   0.0800 
 36 H        0.0970    -0.9340     1.2780 H     1 <1>   0.0800 
 37 H        3.2170    -5.0030    -1.5110 H     1 <1>   0.1500 
 38 H        5.5920     1.8810    -1.7340 H     1 <1>   0.0800 
 39 H        4.4550     0.6060    -2.0110 H     1 <1>   0.0800 
 40 H        1.6740    -5.9100     0.1760 H     1 <1>   0.1500 
 41 H       -1.9330    -3.1740     1.3850 H     1 <1>   0.0800 
 42 H       -2.0400    -1.6420     2.2100 H     1 <1>   0.0800 
 43 H       -0.7980    -2.7790     2.6660 H     1 <1>   0.0800 
 44 H        7.5540     1.9470    -0.9110 H     1 <1>   0.0800 
 45 H        9.4370     1.2990     0.3810 H     1 <1>   0.0800 
 46 H        8.7200     1.9350     1.8490 H     1 <1>   0.0800 
 47 H        6.4120     3.4540     1.4220 H     1 <1>   0.0800 
 48 H        6.1460     3.7720    -0.2800 H     1 <1>   0.0800 
 49 H        9.8050     3.4820    -0.4700 H     1 <1>   0.0800 
 50 H       10.0370     3.7850     1.2410 H     1 <1>   0.0800 
 51 H        8.0640     5.0100     1.3340 H     1 <1>   0.0800 
 52 H        8.1140     4.9980    -0.4160 H     1 <1>   0.0800 
@<TRIPOS>BOND
  1   1   2  2   
  2   2   3  am  
  3   2   4  1   
  4   3   5  1   
  5   3   6  1   
  6   4   7  ar  
  7   4   8  ar  
  8   5   9  1   
  9   5  25  1   
 10   5  26  1   
 11   6  10  1   
 12   6  27  1   
 13   6  28  1   
 14   7  11  ar  
 15   7  12  1   
 16   8  13  ar  
 17   8  29  1   
 18   9  14  1   
 19   9  30  1   
 20   9  31  1   
 21  10  15  1   
 22  10  32  1   
 23  10  33  1   
 24  11  16  ar  
 25  11  34  1   
 26  12  17  1   
 27  12  35  1   
 28  12  36  1   
 29  13  16  ar  
 30  13  37  1   
 31  14  15  1   
 32  14  18  am  
 33  15  38  1   
 34  15  39  1   
 35  16  40  1   
 36  17  41  1   
 37  17  42  1   
 38  17  43  1   
 39  18  19  2   
 40  18  20  1   
 41  20  21  1   
 42  20  22  1   
 43  20  44  1   
 44  21  23  1   
 45  21  45  1   
 46  21  46  1   
 47  22  24  1   
 48  22  47  1   
 49  22  48  1   
 50  23  24  1   
 51  23  49  1   
 52  23  50  1   
 53  24  51  1   
 54  24  52  1   
@<TRIPOS>SUBSTRUCTURE
  1 ****   9 GROUP 4 **** **** 0

# MOE 2024.06 (io_trps.svl 2023.06)
