@<TRIPOS>MOLECULE
NONAME
35 36 1 0 0 
SMALL
USER_CHARGES


@<TRIPOS>ATOM
  1 O        0.1580    -0.5280    -1.5500 O.2   1 <1>  -0.5700 
  2 C       -0.0110    -1.4650    -0.8000 C.2   1 <1>   0.5440 
  3 N       -1.2670    -1.6090    -0.3130 N.am  1 <1>  -0.8000 
  4 C        1.0770    -2.3370    -0.4250 C.ar  1 <1>   0.0860 
  5 C        0.9240    -3.7300    -0.2900 C.ar  1 <1>   0.4100 
  6 C        2.3350    -1.8060    -0.1840 C.ar  1 <1>  -0.1500 
  7 N        1.9020    -4.5410     0.1040 N.ar  1 <1>  -0.6200 
  8 N       -0.2760    -4.3540    -0.5760 N.pl3 1 <1>  -0.8690 
  9 C        3.3570    -2.6450     0.2030 C.ar  1 <1>  -0.1430 
 10 C        3.0810    -4.0020     0.3400 C.ar  1 <1>   0.1670 
 11 C       -0.3890    -5.8150    -0.8440 C.3   1 <1>   0.2090 
 12 C        4.7390    -2.0590     0.4650 C.3   1 <1>  -0.0970 
 13 C        4.1610    -4.9760     0.7760 C.3   1 <1>  -0.0970 
 14 C       -0.5060    -6.5820     0.4710 C.3   1 <1>   0.0960 
 15 N       -0.4570    -8.0230     0.1990 N.pl3 1 <1>   0.3140 
 16 N       -1.4750    -8.6960    -0.3200 N.2   1 <1>  -0.7070 
 17 C        0.5600    -8.8680     0.3890 C.2   1 <1>   0.0360 
 18 C       -1.0010    -9.8970    -0.3990 C.2   1 <1>   0.3660 
 19 N        0.2580   -10.0620     0.0260 N.2   1 <1>  -0.5650 
 20 H       -1.9610    -0.8910    -0.5280 H     1 <1>   0.3700 
 21 H       -1.4890    -2.2590     0.4440 H     1 <1>   0.3700 
 22 H        2.4940    -0.7470    -0.3030 H     1 <1>   0.1500 
 23 H       -0.9420    -3.7850    -1.1120 H     1 <1>   0.4000 
 24 H        0.4830    -6.1450    -1.3860 H     1 <1>   0.0800 
 25 H       -1.2600    -6.0010    -1.4500 H     1 <1>   0.0800 
 26 H        4.7750    -1.0200     0.1880 H     1 <1>   0.0800 
 27 H        5.4810    -2.5830    -0.1110 H     1 <1>   0.0800 
 28 H        4.9830    -2.1380     1.5090 H     1 <1>   0.0800 
 29 H        3.7300    -5.9290     1.0240 H     1 <1>   0.0800 
 30 H        4.6750    -4.6050     1.6430 H     1 <1>   0.0800 
 31 H        4.8640    -5.1170    -0.0240 H     1 <1>   0.0800 
 32 H       -1.4400    -6.3530     0.9490 H     1 <1>   0.0800 
 33 H        0.3050    -6.3270     1.1260 H     1 <1>   0.0800 
 34 H        1.5070    -8.5620     0.7960 H     1 <1>   0.1500 
 35 H       -1.5660   -10.7330    -0.7810 H     1 <1>   0.1500 
@<TRIPOS>BOND
  1   1   2  2   
  2   2   3  am  
  3   2   4  1   
  4   3  20  1   
  5   3  21  1   
  6   4   5  ar  
  7   4   6  ar  
  8   5   7  ar  
  9   5   8  1   
 10   6   9  ar  
 11   6  22  1   
 12   7  10  ar  
 13   8  11  1   
 14   8  23  1   
 15   9  10  ar  
 16   9  12  1   
 17  10  13  1   
 18  11  14  1   
 19  11  24  1   
 20  11  25  1   
 21  12  26  1   
 22  12  27  1   
 23  12  28  1   
 24  13  29  1   
 25  13  30  1   
 26  13  31  1   
 27  14  15  1   
 28  14  32  1   
 29  14  33  1   
 30  15  16  1   
 31  15  17  1   
 32  16  18  2   
 33  17  19  2   
 34  17  34  1   
 35  18  19  1   
 36  18  35  1   
@<TRIPOS>SUBSTRUCTURE
  1 ****   7 GROUP 4 **** **** 0

# MOE 2024.06 (io_trps.svl 2023.06)
