@<TRIPOS>MOLECULE
NONAME
38 40 1 0 0 
SMALL
USER_CHARGES


@<TRIPOS>ATOM
  1 O        0.5150    -0.0260     0.5970 O.3   1 <1>  -0.6800 
  2 C        1.6520    -0.1480    -0.1860 C.3   1 <1>   0.2000 
  3 C        2.3990    -1.4330     0.1620 C.3   1 <1>  -0.0800 
  4 C        2.6450     0.9750     0.1170 C.3   1 <1>   0.2090 
  5 C        3.8560    -1.1160    -0.1750 C.3   1 <1>   0.2090 
  6 C        1.8650    -2.6790    -0.5680 C.3   1 <1>  -0.0170 
  7 N        4.0020     0.3570    -0.0130 N.pl3 1 <1>  -0.8380 
  8 C        2.6630    -3.9280    -0.2210 C.ar  1 <1>   0.1660 
  9 C        5.1390     1.0870     0.0500 C.ar  1 <1>   0.7710 
 10 N        3.8460    -4.0600    -0.8080 N.ar  1 <1>  -0.6200 
 11 C        2.1300    -4.8530     0.6650 C.ar  1 <1>  -0.1500 
 12 N        5.0570     2.3980     0.2310 N.ar  1 <1>  -0.6200 
 13 N        6.3200     0.4530    -0.0770 N.ar  1 <1>  -0.1790 
 14 C        4.5070    -5.1720    -0.5160 C.ar  1 <1>   0.1600 
 15 C        2.8360    -5.9960     0.9680 C.ar  1 <1>  -0.1500 
 16 C        6.1790     3.0740     0.2890 C.ar  1 <1>   0.4100 
 17 C        7.4950     1.1270    -0.0210 C.ar  1 <1>   0.2110 
 18 C        4.0570    -6.1520     0.3510 C.ar  1 <1>  -0.1500 
 19 N        6.0610     4.3890     0.4750 N.pl3 1 <1>  -0.9000 
 20 C        7.4390     2.4670     0.1660 C.ar  1 <1>  -0.1500 
 21 H       -0.1630    -0.6810     0.3410 H     1 <1>   0.4000 
 22 H        1.3680    -0.1140    -1.2250 H     1 <1>   0.0800 
 23 H        2.3430    -1.5930     1.2260 H     1 <1>   0.0800 
 24 H        2.5100     1.3300     1.1250 H     1 <1>   0.0800 
 25 H        2.5250     1.7890    -0.5770 H     1 <1>   0.0800 
 26 H        4.0620    -1.3830    -1.1990 H     1 <1>   0.0800 
 27 H        4.5130    -1.6610     0.4830 H     1 <1>   0.0800 
 28 H        1.9070    -2.5300    -1.6330 H     1 <1>   0.0800 
 29 H        0.8340    -2.8300    -0.3050 H     1 <1>   0.0800 
 30 H        1.1670    -4.6880     1.1160 H     1 <1>   0.1500 
 31 H        6.2600    -0.5500    -0.2200 H     1 <1>   0.4570 
 32 H        5.4600    -5.3150    -0.9950 H     1 <1>   0.1500 
 33 H        2.4510    -6.7350     1.6510 H     1 <1>   0.1500 
 34 H        8.4220     0.5850    -0.1260 H     1 <1>   0.1500 
 35 H        4.6550    -7.0270     0.5370 H     1 <1>   0.1500 
 36 H        5.1310     4.8080     0.5680 H     1 <1>   0.4000 
 37 H        6.8340     5.0550     0.5460 H     1 <1>   0.4000 
 38 H        8.3200     3.0800     0.2230 H     1 <1>   0.1500 
@<TRIPOS>BOND
  1   1   2  1   
  2   1  21  1   
  3   2   3  1   
  4   2   4  1   
  5   2  22  1   
  6   3   5  1   
  7   3   6  1   
  8   3  23  1   
  9   4   7  1   
 10   4  24  1   
 11   4  25  1   
 12   5   7  1   
 13   5  26  1   
 14   5  27  1   
 15   6   8  1   
 16   6  28  1   
 17   6  29  1   
 18   7   9  1   
 19   8  10  ar  
 20   8  11  ar  
 21   9  12  ar  
 22   9  13  ar  
 23  10  14  ar  
 24  11  15  ar  
 25  11  30  1   
 26  12  16  ar  
 27  13  17  ar  
 28  13  31  1   
 29  14  18  ar  
 30  14  32  1   
 31  15  18  ar  
 32  15  33  1   
 33  16  19  1   
 34  16  20  ar  
 35  17  20  ar  
 36  17  34  1   
 37  18  35  1   
 38  19  36  1   
 39  19  37  1   
 40  20  38  1   
@<TRIPOS>SUBSTRUCTURE
  1 ****   5 GROUP 4 **** **** 0

# MOE 2024.06 (io_trps.svl 2023.06)
