@<TRIPOS>MOLECULE
NONAME
39 41 1 0 0 
SMALL
USER_CHARGES


@<TRIPOS>ATOM
  1 S        0.6900    -1.3720    -0.9820 S.3   1 <1>  -0.0800 
  2 C       -0.7950    -1.0570    -1.8510 C.2   1 <1>   0.4620 
  3 C       -0.2500    -1.6910     0.4420 C.2   1 <1>  -0.1100 
  4 N       -1.8540    -1.1760    -1.1490 N.2   1 <1>  -0.5650 
  5 N       -0.7270    -0.7240    -3.1610 N.pl3 1 <1>  -0.8840 
  6 C       -1.5670    -1.5350     0.1800 C.2   1 <1>   0.1410 
  7 C       -2.6170    -1.7510     1.1760 C.2   1 <1>   0.7160 
  8 O       -2.4100    -2.5610     2.0640 O.2   1 <1>  -0.5700 
  9 N       -3.8270    -1.0790     1.1810 N.am  1 <1>  -0.6600 
 10 C       -5.0160    -1.5940     1.9130 C.3   1 <1>   0.1400 
 11 C       -4.0840     0.2060     0.4780 C.3   1 <1>   0.1400 
 12 C       -6.1530    -1.8200     0.9130 C.3   1 <1>  -0.1600 
 13 C       -5.1930    -0.0100    -0.5520 C.3   1 <1>  -0.1600 
 14 C       -6.4690    -0.5530     0.1080 C.3   1 <1>   0.4180 
 15 O       -6.9500     0.3880     1.0380 O.3   1 <1>  -0.5600 
 16 C       -7.5380    -0.8630    -0.9370 C.2   1 <1>  -0.2880 
 17 C       -7.7080     1.4560     0.5420 C.3   1 <1>   0.1200 
 18 C       -8.6970    -0.2080    -1.0420 C.2   1 <1>  -0.2760 
 19 C       -9.0020     0.9450    -0.1050 C.3   1 <1>  -0.0220 
 20 C       -9.7820    -0.5360    -2.0520 C.3   1 <1>  -0.1020 
 21 H        0.2650    -1.9700     1.3430 H     1 <1>   0.1500 
 22 H       -1.5890    -0.6420    -3.7010 H     1 <1>   0.4000 
 23 H        0.1490    -0.7630    -3.6820 H     1 <1>   0.4000 
 24 H       -5.3140    -0.8740     2.6560 H     1 <1>   0.0800 
 25 H       -4.7880    -2.5200     2.4140 H     1 <1>   0.0800 
 26 H       -3.1950     0.5790     0.0030 H     1 <1>   0.0800 
 27 H       -4.3990     0.9410     1.2000 H     1 <1>   0.0800 
 28 H       -7.0390    -2.1370     1.4320 H     1 <1>   0.0800 
 29 H       -5.8660    -2.6090     0.2430 H     1 <1>   0.0800 
 30 H       -4.8430    -0.7150    -1.2840 H     1 <1>   0.0800 
 31 H       -5.4010     0.9060    -1.0700 H     1 <1>   0.0800 
 32 H       -7.2620    -1.6780    -1.5820 H     1 <1>   0.1500 
 33 H       -7.1160     1.9960    -0.1740 H     1 <1>   0.0800 
 34 H       -7.9350     2.1090     1.3660 H     1 <1>   0.0800 
 35 H       -9.4570     1.7560    -0.6460 H     1 <1>   0.0800 
 36 H       -9.6880     0.6230     0.6580 H     1 <1>   0.0800 
 37 H       -9.9620     0.3090    -2.6930 H     1 <1>   0.0800 
 38 H      -10.6950    -0.7900    -1.5440 H     1 <1>   0.0800 
 39 H       -9.4870    -1.3700    -2.6630 H     1 <1>   0.0800 
@<TRIPOS>BOND
  1   1   2  1   
  2   1   3  1   
  3   2   4  2   
  4   2   5  1   
  5   3   6  2   
  6   3  21  1   
  7   4   6  1   
  8   5  22  1   
  9   5  23  1   
 10   6   7  1   
 11   7   8  2   
 12   7   9  am  
 13   9  10  1   
 14   9  11  1   
 15  10  12  1   
 16  10  24  1   
 17  10  25  1   
 18  11  13  1   
 19  11  26  1   
 20  11  27  1   
 21  12  14  1   
 22  12  28  1   
 23  12  29  1   
 24  13  14  1   
 25  13  30  1   
 26  13  31  1   
 27  14  15  1   
 28  14  16  1   
 29  15  17  1   
 30  16  18  2   
 31  16  32  1   
 32  17  19  1   
 33  17  33  1   
 34  17  34  1   
 35  18  19  1   
 36  18  20  1   
 37  19  35  1   
 38  19  36  1   
 39  20  37  1   
 40  20  38  1   
 41  20  39  1   
@<TRIPOS>SUBSTRUCTURE
  1 ****  13 GROUP 4 **** **** 0

# MOE 2024.06 (io_trps.svl 2023.06)
