@<TRIPOS>MOLECULE
NONAME
42 43 1 0 0 
SMALL
USER_CHARGES


@<TRIPOS>ATOM
  1 S        1.5370     1.4720     0.1700 S.3   1 <1>  -0.4600 
  2 C        0.6230     1.9940    -1.3300 C.3   1 <1>   0.1310 
  3 C        1.2170    -0.3090     0.2510 C.3   1 <1>   0.0700 
  4 C        0.7670     3.4870    -1.6070 C.2   1 <1>   0.5690 
  5 C        1.9400    -0.8580     1.4810 C.3   1 <1>  -0.1600 
  6 O        0.2810     3.9360    -2.6160 O.2   1 <1>  -0.5700 
  7 N        1.4310     4.2740    -0.7270 N.am  1 <1>  -0.7300 
  8 C        1.7200    -2.3670     1.6270 C.3   1 <1>  -0.2400 
  9 C        1.7080     5.7080    -0.9000 C.3   1 <1>   0.2840 
 10 C        3.1060     5.9900    -0.3780 C.ar  1 <1>  -0.1440 
 11 C        4.2130     5.6430    -1.1370 C.ar  1 <1>  -0.1500 
 12 C        3.2930     6.5870     0.8600 C.ar  1 <1>  -0.1500 
 13 C        5.4900     5.8940    -0.6690 C.ar  1 <1>  -0.1500 
 14 C        4.5700     6.8380     1.3280 C.ar  1 <1>  -0.1500 
 15 C        5.6820     6.4970     0.5680 C.ar  1 <1>  -0.0230 
 16 N        6.9880     6.7600     1.0470 N.pl3 1 <1>   0.3260 
 17 C        7.8870     7.6980     0.6290 C.2   1 <1>   0.0070 
 18 C        7.6320     6.1270     2.0510 C.2   1 <1>  -0.3020 
 19 N        9.0050     7.6900     1.2780 N.2   1 <1>  -0.5650 
 20 C        7.5910     8.6710    -0.4950 C.3   1 <1>  -0.0600 
 21 C        8.8470     6.7000     2.1750 C.2   1 <1>   0.0770 
 22 H       -0.4110     1.7490    -1.1780 H     1 <1>   0.0800 
 23 H        1.0150     1.4300    -2.1560 H     1 <1>   0.0800 
 24 H        1.5910    -0.7480    -0.6580 H     1 <1>   0.0800 
 25 H        0.1520    -0.4450     0.3240 H     1 <1>   0.0800 
 26 H        1.5740    -0.3570     2.3610 H     1 <1>   0.0800 
 27 H        2.9940    -0.6580     1.3920 H     1 <1>   0.0800 
 28 H        1.8750     3.8300     0.0840 H     1 <1>   0.3700 
 29 H        0.6720    -2.5870     1.7370 H     1 <1>   0.0800 
 30 H        2.2370    -2.7300     2.4980 H     1 <1>   0.0800 
 31 H        2.0970    -2.8890     0.7640 H     1 <1>   0.0800 
 32 H        0.9780     6.2790    -0.3540 H     1 <1>   0.0800 
 33 H        1.6400     5.9740    -1.9410 H     1 <1>   0.0800 
 34 H        4.0770     5.1710    -2.0960 H     1 <1>   0.1500 
 35 H        2.4440     6.8570     1.4640 H     1 <1>   0.1500 
 36 H        6.3410     5.6160    -1.2670 H     1 <1>   0.1500 
 37 H        4.7050     7.3030     2.2900 H     1 <1>   0.1500 
 38 H        7.1870     5.3200     2.6010 H     1 <1>   0.1500 
 39 H        6.7020     9.2320    -0.2740 H     1 <1>   0.0800 
 40 H        7.4530     8.1380    -1.4180 H     1 <1>   0.0800 
 41 H        8.4120     9.3550    -0.6110 H     1 <1>   0.0800 
 42 H        9.6300     6.4510     2.8730 H     1 <1>   0.1500 
@<TRIPOS>BOND
  1   1   2  1   
  2   1   3  1   
  3   2   4  1   
  4   2  22  1   
  5   2  23  1   
  6   3   5  1   
  7   3  24  1   
  8   3  25  1   
  9   4   6  2   
 10   4   7  am  
 11   5   8  1   
 12   5  26  1   
 13   5  27  1   
 14   7   9  1   
 15   7  28  1   
 16   8  29  1   
 17   8  30  1   
 18   8  31  1   
 19   9  10  1   
 20   9  32  1   
 21   9  33  1   
 22  10  11  ar  
 23  10  12  ar  
 24  11  13  ar  
 25  11  34  1   
 26  12  14  ar  
 27  12  35  1   
 28  13  15  ar  
 29  13  36  1   
 30  14  15  ar  
 31  14  37  1   
 32  15  16  1   
 33  16  17  1   
 34  16  18  1   
 35  17  19  2   
 36  17  20  1   
 37  18  21  2   
 38  18  38  1   
 39  19  21  1   
 40  20  39  1   
 41  20  40  1   
 42  20  41  1   
 43  21  42  1   
@<TRIPOS>SUBSTRUCTURE
  1 ****  11 GROUP 4 **** **** 0

# MOE 2024.06 (io_trps.svl 2023.06)
