@<TRIPOS>MOLECULE
NONAME
52 55 1 0 0 
SMALL
USER_CHARGES


@<TRIPOS>ATOM
  1 O        0.0220    -0.0030    -1.3270 O.2   1 <1>  -0.5700 
  2 C       -0.9190     0.7250    -1.1200 C.2   1 <1>   0.5690 
  3 N       -2.1840     0.2410    -0.9310 N.am  1 <1>  -0.6600 
  4 C       -0.6560     2.2120    -1.0460 C.3   1 <1>  -0.0990 
  5 C       -3.3950     1.0410    -0.6080 C.3   1 <1>   0.1400 
  6 C       -2.4900    -1.2070    -0.8770 C.3   1 <1>   0.1400 
  7 C       -0.3410     2.6240     0.3950 C.3   1 <1>   0.0210 
  8 C       -4.4830     0.0120    -0.2900 C.3   1 <1>   0.2000 
  9 C       -3.7520    -1.3020    -0.0190 C.3   1 <1>  -0.0800 
 10 C       -0.4470     4.1260     0.5430 C.2   1 <1>   0.1080 
 11 O       -5.2220     0.3790     0.8240 O.3   1 <1>  -0.6800 
 12 C       -4.6230    -2.5350    -0.3120 C.3   1 <1>  -0.0160 
 13 N       -1.5860     4.7220     0.7220 N.2   1 <1>  -0.7070 
 14 C        0.6140     5.0250     0.4980 C.2   1 <1>  -0.1810 
 15 C       -3.8820    -3.8280    -0.0230 C.ar  1 <1>   0.1670 
 16 N       -1.2750     6.0330     0.8040 N.pl3 1 <1>   0.3000 
 17 C        0.0510     6.2330     0.6730 C.2   1 <1>  -0.3320 
 18 C        2.1020     4.8050     0.3040 C.3   1 <1>   0.0210 
 19 N       -3.1030    -4.2880    -0.9900 N.ar  1 <1>  -0.6200 
 20 C       -4.0440    -4.4520     1.2060 C.ar  1 <1>  -0.1500 
 21 C        0.7950     7.5550     0.6990 C.3   1 <1>   0.0200 
 22 C        2.7900     6.1370    -0.0520 C.3   1 <1>  -0.1600 
 23 C       -2.4570    -5.4120    -0.7210 C.ar  1 <1>   0.1600 
 24 C       -3.3660    -5.6230     1.4710 C.ar  1 <1>  -0.1500 
 25 C        2.3060     7.2950     0.8460 C.3   1 <1>  -0.1600 
 26 C       -2.5510    -6.1080     0.4720 C.ar  1 <1>  -0.1500 
 27 H        0.1770     2.4580    -1.6790 H     1 <1>   0.0800 
 28 H       -1.5080     2.7550    -1.4080 H     1 <1>   0.0800 
 29 H       -3.2010     1.6760     0.2390 H     1 <1>   0.0800 
 30 H       -3.6800     1.6370    -1.4580 H     1 <1>   0.0800 
 31 H       -2.6750    -1.5650    -1.8760 H     1 <1>   0.0800 
 32 H       -1.6750    -1.7650    -0.4470 H     1 <1>   0.0800 
 33 H        0.6420     2.2880     0.6670 H     1 <1>   0.0800 
 34 H       -1.0430     2.1720     1.0720 H     1 <1>   0.0800 
 35 H       -5.1540    -0.0780    -1.1270 H     1 <1>   0.0800 
 36 H       -3.4320    -1.3300     1.0080 H     1 <1>   0.0800 
 37 H       -4.6310     0.5220     1.5890 H     1 <1>   0.4000 
 38 H       -4.9310    -2.5320    -1.3430 H     1 <1>   0.0800 
 39 H       -5.5130    -2.4890     0.2900 H     1 <1>   0.0800 
 40 H       -1.9870     6.7580     0.9490 H     1 <1>   0.2700 
 41 H        2.5130     4.4160     1.2190 H     1 <1>   0.0800 
 42 H        2.2700     4.0870    -0.4790 H     1 <1>   0.0800 
 43 H       -4.6930    -4.0280     1.9500 H     1 <1>   0.1500 
 44 H        0.6060     8.0790    -0.2220 H     1 <1>   0.0800 
 45 H        0.4510     8.1630     1.5170 H     1 <1>   0.0800 
 46 H        3.8560     6.0230     0.0390 H     1 <1>   0.0800 
 47 H        2.5690     6.3780    -1.0770 H     1 <1>   0.0800 
 48 H       -1.8170    -5.8000    -1.4960 H     1 <1>   0.1500 
 49 H       -3.4680    -6.1330     2.4130 H     1 <1>   0.1500 
 50 H        2.8480     8.1940     0.6090 H     1 <1>   0.0800 
 51 H        2.5160     7.0460     1.8720 H     1 <1>   0.0800 
 52 H       -1.9930    -7.0150     0.6120 H     1 <1>   0.1500 
@<TRIPOS>BOND
  1   1   2  2   
  2   2   3  am  
  3   2   4  1   
  4   3   5  1   
  5   3   6  1   
  6   4   7  1   
  7   4  27  1   
  8   4  28  1   
  9   5   8  1   
 10   5  29  1   
 11   5  30  1   
 12   6   9  1   
 13   6  31  1   
 14   6  32  1   
 15   7  10  1   
 16   7  33  1   
 17   7  34  1   
 18   8   9  1   
 19   8  11  1   
 20   8  35  1   
 21   9  12  1   
 22   9  36  1   
 23  10  13  2   
 24  10  14  1   
 25  11  37  1   
 26  12  15  1   
 27  12  38  1   
 28  12  39  1   
 29  13  16  1   
 30  14  17  2   
 31  14  18  1   
 32  15  19  ar  
 33  15  20  ar  
 34  16  17  1   
 35  16  40  1   
 36  17  21  1   
 37  18  22  1   
 38  18  41  1   
 39  18  42  1   
 40  19  23  ar  
 41  20  24  ar  
 42  20  43  1   
 43  21  25  1   
 44  21  44  1   
 45  21  45  1   
 46  22  25  1   
 47  22  46  1   
 48  22  47  1   
 49  23  26  ar  
 50  23  48  1   
 51  24  26  ar  
 52  24  49  1   
 53  25  50  1   
 54  25  51  1   
 55  26  52  1   
@<TRIPOS>SUBSTRUCTURE
  1 ****   3 GROUP 4 **** **** 0

# MOE 2024.06 (io_trps.svl 2023.06)
