@<TRIPOS>MOLECULE
NONAME
51 54 1 0 0 
SMALL
USER_CHARGES


@<TRIPOS>ATOM
  1 O       -0.7880     0.6070    -1.1990 O.2   1 <1>  -0.5700 
  2 C       -1.8450     0.9790    -0.7220 C.2   1 <1>   0.5440 
  3 N       -2.8580     0.0410    -0.5840 N.am  1 <1>  -0.6600 
  4 C       -1.9690     2.3690    -0.3200 C.ar  1 <1>   0.0860 
  5 C       -4.3190     0.2080    -0.8750 C.3   1 <1>   0.2200 
  6 C       -2.4690    -1.3910    -0.4240 C.3   1 <1>   0.0600 
  7 C       -2.6420     2.7490     0.8300 C.ar  1 <1>  -0.1500 
  8 C       -1.3920     3.3880    -1.1100 C.ar  1 <1>  -0.1500 
  9 C       -4.7290     1.4190    -1.7260 C.3   1 <1>  -0.1600 
 10 C       -5.1380     0.2410     0.4180 C.3   1 <1>  -0.1600 
 11 C       -2.8120     4.0930     1.1420 C.ar  1 <1>   0.2270 
 12 C       -1.5070     4.7210    -0.7900 C.ar  1 <1>  -0.1500 
 13 C       -5.9760     2.0360    -1.0720 C.3   1 <1>  -0.0800 
 14 C       -6.2250     1.3110     0.2510 C.3   1 <1>  -0.0800 
 15 N       -3.5230     4.6670     2.1550 N.2   1 <1>  -0.5650 
 16 C       -2.2320     5.0650     0.3510 C.ar  1 <1>  -0.1520 
 17 C       -5.8400     3.5250    -0.7210 C.3   1 <1>  -0.1600 
 18 C       -6.2210     2.3920     1.3420 C.3   1 <1>  -0.1600 
 19 C       -3.3200     5.9300     2.0050 C.2   1 <1>   0.0360 
 20 N       -2.5450     6.2450     0.9360 N.pl3 1 <1>   0.0330 
 21 C       -6.5260     3.7160     0.6370 C.3   1 <1>   0.4230 
 22 N       -8.0060     3.8930     0.4780 N.4   1 <1>  -0.9590 
 23 C       -8.3650     5.0820    -0.3590 C.3   1 <1>   0.2630 
 24 C       -8.7020     4.0220     1.7990 C.3   1 <1>   0.2630 
 25 H       -4.6400    -0.6600    -1.4270 H     1 <1>   0.0800 
 26 H       -3.1410    -1.8860     0.2550 H     1 <1>   0.0800 
 27 H       -1.4700    -1.4660    -0.0280 H     1 <1>   0.0800 
 28 H       -2.4970    -1.8830    -1.3800 H     1 <1>   0.0800 
 29 H       -3.0360     2.0120     1.4980 H     1 <1>   0.1500 
 30 H       -0.8410     3.0910    -1.9880 H     1 <1>   0.1500 
 31 H       -3.9490     2.1400    -1.8430 H     1 <1>   0.0800 
 32 H       -4.9820     1.0740    -2.7130 H     1 <1>   0.0800 
 33 H       -5.5970    -0.7200     0.5700 H     1 <1>   0.0800 
 34 H       -4.5090     0.4360     1.2650 H     1 <1>   0.0800 
 35 H       -1.0520     5.4820    -1.4010 H     1 <1>   0.1500 
 36 H       -6.8270     1.8910    -1.7160 H     1 <1>   0.0800 
 37 H       -7.1920     0.8360     0.2130 H     1 <1>   0.0800 
 38 H       -6.1970     4.1600    -1.5070 H     1 <1>   0.0800 
 39 H       -4.8030     3.7630    -0.5840 H     1 <1>   0.0800 
 40 H       -5.2380     2.4850     1.7600 H     1 <1>   0.0800 
 41 H       -6.8770     2.1470     2.1540 H     1 <1>   0.0800 
 42 H       -3.7130     6.6930     2.6570 H     1 <1>   0.1500 
 43 H       -2.2320     7.1760     0.6450 H     1 <1>   0.2700 
 44 H       -6.1000     4.5500     1.1750 H     1 <1>   0.0800 
 45 H       -8.3450     3.0430     0.0070 H     1 <1>   0.4500 
 46 H       -7.9240     5.9760     0.0530 H     1 <1>   0.0800 
 47 H       -9.4360     5.2090    -0.3870 H     1 <1>   0.0800 
 48 H       -8.0180     4.9580    -1.3700 H     1 <1>   0.0800 
 49 H       -8.2920     4.8480     2.3580 H     1 <1>   0.0800 
 50 H       -8.5920     3.1230     2.3810 H     1 <1>   0.0800 
 51 H       -9.7560     4.1970     1.6500 H     1 <1>   0.0800 
@<TRIPOS>BOND
  1   1   2  2   
  2   2   3  am  
  3   2   4  1   
  4   3   5  1   
  5   3   6  1   
  6   4   7  ar  
  7   4   8  ar  
  8   5   9  1   
  9   5  10  1   
 10   5  25  1   
 11   6  26  1   
 12   6  27  1   
 13   6  28  1   
 14   7  11  ar  
 15   7  29  1   
 16   8  12  ar  
 17   8  30  1   
 18   9  13  1   
 19   9  31  1   
 20   9  32  1   
 21  10  14  1   
 22  10  33  1   
 23  10  34  1   
 24  11  15  1   
 25  11  16  ar  
 26  12  16  ar  
 27  12  35  1   
 28  13  14  1   
 29  13  17  1   
 30  13  36  1   
 31  14  18  1   
 32  14  37  1   
 33  15  19  2   
 34  16  20  1   
 35  17  21  1   
 36  17  38  1   
 37  17  39  1   
 38  18  21  1   
 39  18  40  1   
 40  18  41  1   
 41  19  20  1   
 42  19  42  1   
 43  20  43  1   
 44  21  22  1   
 45  21  44  1   
 46  22  23  1   
 47  22  24  1   
 48  22  45  1   
 49  23  46  1   
 50  23  47  1   
 51  23  48  1   
 52  24  49  1   
 53  24  50  1   
 54  24  51  1   
@<TRIPOS>SUBSTRUCTURE
  1 ****   7 GROUP 4 **** **** 0

# MOE 2024.06 (io_trps.svl 2023.06)
