@<TRIPOS>MOLECULE
NONAME
47 49 1 0 0 
SMALL
USER_CHARGES


@<TRIPOS>ATOM
  1 F       -3.0340     1.5630    -2.3120 F     1 <1>  -0.3400 
  2 C       -2.7560     0.7960    -1.2690 C.3   1 <1>   0.6800 
  3 F       -1.4570     0.9700    -1.0610 F     1 <1>  -0.3400 
  4 C       -3.0030    -0.6660    -1.6350 C.3   1 <1>  -0.1600 
  5 C       -3.5250     1.2930    -0.0480 C.3   1 <1>  -0.1600 
  6 C       -2.7810    -1.5470    -0.4070 C.3   1 <1>   0.1400 
  7 C       -3.3060     0.3460     1.1330 C.3   1 <1>   0.1400 
  8 N       -3.6410    -1.0400     0.6990 N.am  1 <1>  -0.6600 
  9 C       -4.6500    -1.7580     1.3070 C.2   1 <1>   0.5690 
 10 O       -5.1760    -1.3430     2.3170 O.2   1 <1>  -0.5700 
 11 C       -5.1490    -3.0820     0.6990 C.3   1 <1>   0.2610 
 12 O       -4.2970    -4.1530     1.0590 O.3   1 <1>  -0.5600 
 13 C       -6.6280    -3.3640     1.0670 C.3   1 <1>   0.3640 
 14 C       -4.6290    -5.3810     0.4580 C.3   1 <1>   0.1810 
 15 N       -7.0280    -4.8010     0.9180 N.am  1 <1>  -0.6600 
 16 C       -7.5460    -2.4340     0.2520 C.ar  1 <1>  -0.1440 
 17 C       -6.1000    -5.7660     0.6290 C.2   1 <1>   0.5690 
 18 C       -8.4460    -5.1260     1.2480 C.3   1 <1>   0.0600 
 19 C       -7.8790    -2.6140    -1.0960 C.ar  1 <1>  -0.1440 
 20 C       -8.0550    -1.3290     0.9240 C.ar  1 <1>  -0.1500 
 21 O       -6.4020    -6.9260     0.4730 O.2   1 <1>  -0.5700 
 22 C       -8.7060    -1.6910    -1.7210 C.ar  1 <1>  -0.1500 
 23 C       -7.4020    -3.7890    -1.9440 C.3   1 <1>  -0.0970 
 24 C       -8.8750    -0.4160     0.2900 C.ar  1 <1>  -0.1500 
 25 C       -9.2020    -0.5980    -1.0380 C.ar  1 <1>  -0.1500 
 26 H       -4.0190    -0.7820    -1.9670 H     1 <1>   0.0800 
 27 H       -2.3420    -0.9580    -2.4290 H     1 <1>   0.0800 
 28 H       -3.2040     2.2870     0.2070 H     1 <1>   0.0800 
 29 H       -4.5750     1.3170    -0.2740 H     1 <1>   0.0800 
 30 H       -1.7490    -1.4950    -0.0980 H     1 <1>   0.0800 
 31 H       -2.9940    -2.5750    -0.6400 H     1 <1>   0.0800 
 32 H       -3.9230     0.6530     1.9610 H     1 <1>   0.0800 
 33 H       -2.2780     0.3790     1.4550 H     1 <1>   0.0800 
 34 H       -5.0930    -2.9760    -0.3650 H     1 <1>   0.0800 
 35 H       -6.7530    -3.1340     2.1110 H     1 <1>   0.0800 
 36 H       -4.3940    -5.3240    -0.5880 H     1 <1>   0.0800 
 37 H       -4.0140    -6.1380     0.9090 H     1 <1>   0.0800 
 38 H       -9.1070    -4.6510     0.5450 H     1 <1>   0.0800 
 39 H       -8.6780    -4.7780     2.2390 H     1 <1>   0.0800 
 40 H       -8.6120    -6.1890     1.2100 H     1 <1>   0.0800 
 41 H       -7.8100    -1.1620     1.9600 H     1 <1>   0.1500 
 42 H       -8.9770    -1.8180    -2.7550 H     1 <1>   0.1500 
 43 H       -7.5530    -3.5940    -2.9910 H     1 <1>   0.0800 
 44 H       -7.9580    -4.6730    -1.6900 H     1 <1>   0.0800 
 45 H       -6.3590    -3.9850    -1.8000 H     1 <1>   0.0800 
 46 H       -9.2570     0.4330     0.8300 H     1 <1>   0.1500 
 47 H       -9.8410     0.1090    -1.5390 H     1 <1>   0.1500 
@<TRIPOS>BOND
  1   1   2  1   
  2   2   3  1   
  3   2   4  1   
  4   2   5  1   
  5   4   6  1   
  6   4  26  1   
  7   4  27  1   
  8   5   7  1   
  9   5  28  1   
 10   5  29  1   
 11   6   8  1   
 12   6  30  1   
 13   6  31  1   
 14   7   8  1   
 15   7  32  1   
 16   7  33  1   
 17   8   9  am  
 18   9  10  2   
 19   9  11  1   
 20  11  12  1   
 21  11  13  1   
 22  11  34  1   
 23  12  14  1   
 24  13  15  1   
 25  13  16  1   
 26  13  35  1   
 27  14  17  1   
 28  14  36  1   
 29  14  37  1   
 30  15  17  am  
 31  15  18  1   
 32  16  19  ar  
 33  16  20  ar  
 34  17  21  2   
 35  18  38  1   
 36  18  39  1   
 37  18  40  1   
 38  19  22  ar  
 39  19  23  1   
 40  20  24  ar  
 41  20  41  1   
 42  22  25  ar  
 43  22  42  1   
 44  23  43  1   
 45  23  44  1   
 46  23  45  1   
 47  24  25  ar  
 48  24  46  1   
 49  25  47  1   
@<TRIPOS>SUBSTRUCTURE
  1 ****  11 GROUP 4 **** **** 0

# MOE 2024.06 (io_trps.svl 2023.06)
