@<TRIPOS>MOLECULE
NONAME
55 57 1 0 0 
SMALL
USER_CHARGES


@<TRIPOS>ATOM
  1 O       -0.8080     0.1970    -0.0170 O.2   1 <1>  -0.5700 
  2 C       -1.6900     0.9310    -0.3960 C.2   1 <1>   0.5690 
  3 N       -2.8250     0.4130    -0.9690 N.am  1 <1>  -0.6600 
  4 C       -1.5360     2.4330    -0.2010 C.3   1 <1>  -0.0990 
  5 C       -2.9260    -1.0440    -1.2550 C.3   1 <1>   0.1400 
  6 C       -4.1120     1.1470    -1.1210 C.3   1 <1>   0.1400 
  7 C       -0.1110     2.8710     0.1660 C.3   1 <1>  -0.0160 
  8 C       -3.9360    -1.6850    -0.2780 C.3   1 <1>   0.4230 
  9 C       -5.1280     0.5340    -0.1470 C.3   1 <1>  -0.1600 
 10 C       -0.0550     4.3830     0.3160 C.ar  1 <1>  -0.1440 
 11 N       -3.9880    -3.2060    -0.3530 N.4   1 <1>  -0.9590 
 12 C       -5.3340    -0.9970    -0.3430 C.3   1 <1>   0.0000 
 13 C       -0.3120     4.9740     1.5420 C.ar  1 <1>  -0.1500 
 14 C        0.2470     5.1850    -0.7720 C.ar  1 <1>  -0.1500 
 15 C       -5.2170    -3.8070     0.2620 C.3   1 <1>   0.3430 
 16 C       -3.7560    -3.7950    -1.7130 C.3   1 <1>   0.2630 
 17 C       -6.2230    -1.5330     0.8180 C.3   1 <1>  -0.1600 
 18 C       -6.0080    -1.2800    -1.7170 C.3   1 <1>   0.1200 
 19 C       -0.2710     6.3510     1.6780 C.ar  1 <1>  -0.1500 
 20 C        0.2890     6.5620    -0.6360 C.ar  1 <1>  -0.1500 
 21 C       -5.7780    -2.9060     1.3600 C.3   1 <1>  -0.1600 
 22 O       -7.1480    -0.5140    -1.8960 O.3   1 <1>  -0.6800 
 23 C        0.0280     7.1530     0.5900 C.ar  1 <1>  -0.1440 
 24 C        0.0770     8.6630     0.7390 C.3   1 <1>  -0.0970 
 25 H       -1.8170     2.9280    -1.1120 H     1 <1>   0.0800 
 26 H       -2.2060     2.7470     0.5770 H     1 <1>   0.0800 
 27 H       -3.2330    -1.1680    -2.2770 H     1 <1>   0.0800 
 28 H       -1.9650    -1.5130    -1.1370 H     1 <1>   0.0800 
 29 H       -3.9960     2.1940    -0.9030 H     1 <1>   0.0800 
 30 H       -4.4610     1.0630    -2.1370 H     1 <1>   0.0800 
 31 H        0.5770     2.5540    -0.5990 H     1 <1>   0.0800 
 32 H        0.1910     2.4040     1.0880 H     1 <1>   0.0800 
 33 H       -3.5540    -1.4480     0.7020 H     1 <1>   0.0800 
 34 H       -4.7730     0.7320     0.8500 H     1 <1>   0.0800 
 35 H       -6.0620     1.0600    -0.2480 H     1 <1>   0.0800 
 36 H       -3.2000    -3.5140     0.2360 H     1 <1>   0.4500 
 37 H       -0.5460     4.3650     2.3980 H     1 <1>   0.1500 
 38 H        0.4520     4.7430    -1.7310 H     1 <1>   0.1500 
 39 H       -5.9760    -3.9380    -0.4930 H     1 <1>   0.0800 
 40 H       -4.9840    -4.7790     0.6690 H     1 <1>   0.0800 
 41 H       -4.5240    -3.4780    -2.4000 H     1 <1>   0.0800 
 42 H       -3.7690    -4.8730    -1.6600 H     1 <1>   0.0800 
 43 H       -2.7980    -3.4900    -2.1010 H     1 <1>   0.0800 
 44 H       -6.2180    -0.8460     1.6480 H     1 <1>   0.0800 
 45 H       -7.2480    -1.6010     0.4970 H     1 <1>   0.0800 
 46 H       -6.2960    -2.3110    -1.8130 H     1 <1>   0.0800 
 47 H       -5.3530    -1.0350    -2.5330 H     1 <1>   0.0800 
 48 H       -0.4710     6.7940     2.6370 H     1 <1>   0.1500 
 49 H        0.5260     7.1720    -1.4900 H     1 <1>   0.1500 
 50 H       -6.6220    -3.3920     1.8200 H     1 <1>   0.0800 
 51 H       -5.0330    -2.7790     2.1270 H     1 <1>   0.0800 
 52 H       -7.8500    -0.7360    -1.2520 H     1 <1>   0.4000 
 53 H       -0.6030     8.9870     1.5070 H     1 <1>   0.0800 
 54 H       -0.2000     9.1410    -0.1830 H     1 <1>   0.0800 
 55 H        1.0730     8.9700     1.0040 H     1 <1>   0.0800 
@<TRIPOS>BOND
  1   1   2  2   
  2   2   3  am  
  3   2   4  1   
  4   3   5  1   
  5   3   6  1   
  6   4   7  1   
  7   4  25  1   
  8   4  26  1   
  9   5   8  1   
 10   5  27  1   
 11   5  28  1   
 12   6   9  1   
 13   6  29  1   
 14   6  30  1   
 15   7  10  1   
 16   7  31  1   
 17   7  32  1   
 18   8  11  1   
 19   8  12  1   
 20   8  33  1   
 21   9  12  1   
 22   9  34  1   
 23   9  35  1   
 24  10  13  ar  
 25  10  14  ar  
 26  11  15  1   
 27  11  16  1   
 28  11  36  1   
 29  12  17  1   
 30  12  18  1   
 31  13  19  ar  
 32  13  37  1   
 33  14  20  ar  
 34  14  38  1   
 35  15  21  1   
 36  15  39  1   
 37  15  40  1   
 38  16  41  1   
 39  16  42  1   
 40  16  43  1   
 41  17  21  1   
 42  17  44  1   
 43  17  45  1   
 44  18  22  1   
 45  18  46  1   
 46  18  47  1   
 47  19  23  ar  
 48  19  48  1   
 49  20  23  ar  
 50  20  49  1   
 51  21  50  1   
 52  21  51  1   
 53  22  52  1   
 54  23  24  1   
 55  24  53  1   
 56  24  54  1   
 57  24  55  1   
@<TRIPOS>SUBSTRUCTURE
  1 ****   2 GROUP 4 **** **** 0

# MOE 2024.06 (io_trps.svl 2023.06)
