@<TRIPOS>MOLECULE
NONAME
50 52 1 0 0 
SMALL
USER_CHARGES


@<TRIPOS>ATOM
  1 CL      -1.7150    -0.5880     2.6750 Cl    1 <1>  -0.1770 
  2 C       -2.2740    -0.9130     1.0480 C.ar  1 <1>   0.1770 
  3 C       -2.7150     0.0990     0.1950 C.ar  1 <1>   0.0820 
  4 C       -2.2850    -2.2350     0.6440 C.ar  1 <1>  -0.1500 
  5 O       -2.7430     1.4170     0.5070 O.3   1 <1>  -0.3630 
  6 C       -3.1790    -0.2470    -1.0630 C.ar  1 <1>  -0.1500 
  7 C       -2.7550    -2.5750    -0.6190 C.ar  1 <1>  -0.1430 
  8 C       -1.6080     2.0360     1.0780 C.3   1 <1>   0.2640 
  9 C       -3.1960    -1.5710    -1.4710 C.ar  1 <1>  -0.1500 
 10 C       -2.8000    -4.0270    -1.0590 C.3   1 <1>   0.4870 
 11 C       -1.5050     3.4500     0.5290 C.ar  1 <1>  -0.1440 
 12 N       -3.9280    -4.7020    -0.3600 N.4   1 <1>  -0.9590 
 13 C       -2.3930     4.4270     0.9590 C.ar  1 <1>  -0.1500 
 14 C       -0.5270     3.7710    -0.4040 C.ar  1 <1>  -0.1500 
 15 C       -3.8900    -6.1860    -0.5890 C.3   1 <1>   0.3430 
 16 C       -5.2450    -4.1170    -0.7520 C.3   1 <1>   0.3430 
 17 C       -2.3040     5.7180     0.4670 C.ar  1 <1>  -0.1500 
 18 C       -0.4330     5.0610    -0.9000 C.ar  1 <1>  -0.1500 
 19 C       -5.0280    -6.9230     0.1420 C.3   1 <1>   0.2000 
 20 C       -6.3670    -4.7920     0.0360 C.3   1 <1>  -0.1600 
 21 C       -1.3230     6.0210    -0.4580 C.ar  1 <1>   0.1770 
 22 O       -4.9880    -8.2430    -0.2690 O.3   1 <1>  -0.6800 
 23 C       -6.4040    -6.3200    -0.1910 C.3   1 <1>  -0.0800 
 24 CL      -1.2060     7.6470    -1.0810 Cl    1 <1>  -0.1770 
 25 C       -7.5280    -6.9900     0.6200 C.3   1 <1>   0.1200 
 26 O       -8.7280    -6.3810     0.3040 O.3   1 <1>  -0.6800 
 27 H       -1.9250    -2.9810     1.3310 H     1 <1>   0.1500 
 28 H       -3.5240     0.5320    -1.7220 H     1 <1>   0.1500 
 29 H       -1.7360     2.0570     2.1450 H     1 <1>   0.0800 
 30 H       -0.7310     1.4650     0.8270 H     1 <1>   0.0800 
 31 H       -3.5570    -1.8000    -2.4600 H     1 <1>   0.1500 
 32 H       -1.8660    -4.5040    -0.8050 H     1 <1>   0.0800 
 33 H       -2.9330    -4.0860    -2.1270 H     1 <1>   0.0800 
 34 H       -3.8060    -4.5180     0.6440 H     1 <1>   0.4500 
 35 H       -3.1580     4.1820     1.6760 H     1 <1>   0.1500 
 36 H        0.1630     3.0210    -0.7490 H     1 <1>   0.1500 
 37 H       -3.9880    -6.3860    -1.6440 H     1 <1>   0.0800 
 38 H       -2.9480    -6.5880    -0.2530 H     1 <1>   0.0800 
 39 H       -5.2570    -3.0570    -0.5490 H     1 <1>   0.0800 
 40 H       -5.4130    -4.2620    -1.8070 H     1 <1>   0.0800 
 41 H       -2.9860     6.4820     0.7930 H     1 <1>   0.1500 
 42 H        0.3190     5.3210    -1.6220 H     1 <1>   0.1500 
 43 H       -4.8470    -6.9050     1.2040 H     1 <1>   0.0800 
 44 H       -6.2620    -4.5680     1.0830 H     1 <1>   0.0800 
 45 H       -7.2990    -4.3580    -0.2870 H     1 <1>   0.0800 
 46 H       -5.6410    -8.7960     0.2060 H     1 <1>   0.4000 
 47 H       -6.6010    -6.4980    -1.2360 H     1 <1>   0.0800 
 48 H       -7.3660    -6.8810     1.6790 H     1 <1>   0.0800 
 49 H       -7.6130    -8.0350     0.3720 H     1 <1>   0.0800 
 50 H       -9.4790    -6.8170     0.7570 H     1 <1>   0.4000 
@<TRIPOS>BOND
  1   1   2  1   
  2   2   3  ar  
  3   2   4  ar  
  4   3   5  1   
  5   3   6  ar  
  6   4   7  ar  
  7   4  27  1   
  8   5   8  1   
  9   6   9  ar  
 10   6  28  1   
 11   7   9  ar  
 12   7  10  1   
 13   8  11  1   
 14   8  29  1   
 15   8  30  1   
 16   9  31  1   
 17  10  12  1   
 18  10  32  1   
 19  10  33  1   
 20  11  13  ar  
 21  11  14  ar  
 22  12  15  1   
 23  12  16  1   
 24  12  34  1   
 25  13  17  ar  
 26  13  35  1   
 27  14  18  ar  
 28  14  36  1   
 29  15  19  1   
 30  15  37  1   
 31  15  38  1   
 32  16  20  1   
 33  16  39  1   
 34  16  40  1   
 35  17  21  ar  
 36  17  41  1   
 37  18  21  ar  
 38  18  42  1   
 39  19  22  1   
 40  19  23  1   
 41  19  43  1   
 42  20  23  1   
 43  20  44  1   
 44  20  45  1   
 45  21  24  1   
 46  22  46  1   
 47  23  25  1   
 48  23  47  1   
 49  25  26  1   
 50  25  48  1   
 51  25  49  1   
 52  26  50  1   
@<TRIPOS>SUBSTRUCTURE
  1 ****   3 GROUP 4 **** **** 0

# MOE 2024.06 (io_trps.svl 2023.06)
