@<TRIPOS>MOLECULE
NONAME
51 54 1 0 0 
SMALL
USER_CHARGES


@<TRIPOS>ATOM
  1 O        0.2110     0.1470     0.6820 O.2   1 <1>  -0.5700 
  2 C       -0.6890     0.7510     0.1500 C.2   1 <1>   0.5690 
  3 N       -1.8990     0.1660    -0.0950 N.am  1 <1>  -0.6600 
  4 C       -0.4450     2.1980    -0.2300 C.3   1 <1>  -0.0990 
  5 C       -3.0810     0.7780    -0.7540 C.3   1 <1>   0.1400 
  6 C       -2.2300    -1.1980     0.3740 C.3   1 <1>   0.1400 
  7 C       -0.8300     3.1360     0.9190 C.3   1 <1>  -0.0160 
  8 C       -4.2350    -0.2100    -0.5340 C.3   1 <1>   0.2000 
  9 C       -3.5320    -1.5580    -0.3440 C.3   1 <1>  -0.0800 
 10 C       -0.7030     4.5880     0.4890 C.ar  1 <1>  -0.1440 
 11 O       -4.9150     0.1170     0.6440 O.3   1 <1>  -0.5600 
 12 C       -4.3700    -2.6170     0.3950 C.3   1 <1>   0.0200 
 13 C        0.5400     5.2120     0.5230 C.ar  1 <1>  -0.1500 
 14 C       -1.8260     5.2940     0.0590 C.ar  1 <1>  -0.1500 
 15 C       -5.9440     1.0450     0.5010 C.3   1 <1>   0.0400 
 16 C       -3.7210    -3.9920     0.4130 C.2   1 <1>  -0.0400 
 17 C        0.6200     6.5310     0.1220 C.ar  1 <1>   0.0820 
 18 C       -1.7270     6.6210    -0.3410 C.ar  1 <1>  -0.1500 
 19 O       -4.3090    -4.9530     1.0740 O.3   1 <1>  -0.0190 
 20 C       -2.6040    -4.4980    -0.1350 C.2   1 <1>  -0.1500 
 21 O        1.6980     7.3200     0.0740 O.3   1 <1>  -0.3630 
 22 C       -0.4830     7.2160    -0.2980 C.ar  1 <1>   0.0820 
 23 N       -3.6470    -6.0720     1.0020 N.2   1 <1>  -0.4100 
 24 C       -2.6130    -5.8270     0.2800 C.2   1 <1>   0.1080 
 25 C        1.2540     8.5890    -0.4040 C.3   1 <1>   0.4000 
 26 O       -0.1490     8.4680    -0.6300 O.3   1 <1>  -0.3630 
 27 C       -1.5540    -6.8490    -0.0650 C.3   1 <1>  -0.0590 
 28 H        0.5990     2.3220    -0.4540 H     1 <1>   0.0800 
 29 H       -0.9970     2.4480    -1.1160 H     1 <1>   0.0800 
 30 H       -3.3030     1.7440    -0.3400 H     1 <1>   0.0800 
 31 H       -2.8780     0.8700    -1.8070 H     1 <1>   0.0800 
 32 H       -1.4330    -1.8840     0.1450 H     1 <1>   0.0800 
 33 H       -2.3800    -1.1680     1.4410 H     1 <1>   0.0800 
 34 H       -0.1890     2.9480     1.7640 H     1 <1>   0.0800 
 35 H       -1.8400     2.9360     1.2320 H     1 <1>   0.0800 
 36 H       -4.9310    -0.2310    -1.3560 H     1 <1>   0.0800 
 37 H       -3.2770    -1.9350    -1.3190 H     1 <1>   0.0800 
 38 H       -5.3310    -2.7040    -0.0790 H     1 <1>   0.0800 
 39 H       -4.5380    -2.3050     1.4120 H     1 <1>   0.0800 
 40 H        1.4250     4.6970     0.8490 H     1 <1>   0.1500 
 41 H       -2.7880     4.8120     0.0350 H     1 <1>   0.1500 
 42 H       -6.3740     1.2180     1.4720 H     1 <1>   0.0800 
 43 H       -6.6950     0.6440    -0.1580 H     1 <1>   0.0800 
 44 H       -5.5500     1.9670     0.1120 H     1 <1>   0.0800 
 45 H       -2.5830     7.1790    -0.6740 H     1 <1>   0.1500 
 46 H       -1.8560    -4.0360    -0.7500 H     1 <1>   0.1500 
 47 H        1.4360     9.3400     0.3430 H     1 <1>   0.0800 
 48 H        1.7500     8.8190    -1.3310 H     1 <1>   0.0800 
 49 H       -0.5970    -6.5180     0.2920 H     1 <1>   0.0800 
 50 H       -1.5110    -6.9830    -1.1300 H     1 <1>   0.0800 
 51 H       -1.7910    -7.7920     0.3950 H     1 <1>   0.0800 
@<TRIPOS>BOND
  1   1   2  2   
  2   2   3  am  
  3   2   4  1   
  4   3   5  1   
  5   3   6  1   
  6   4   7  1   
  7   4  28  1   
  8   4  29  1   
  9   5   8  1   
 10   5  30  1   
 11   5  31  1   
 12   6   9  1   
 13   6  32  1   
 14   6  33  1   
 15   7  10  1   
 16   7  34  1   
 17   7  35  1   
 18   8   9  1   
 19   8  11  1   
 20   8  36  1   
 21   9  12  1   
 22   9  37  1   
 23  10  13  ar  
 24  10  14  ar  
 25  11  15  1   
 26  12  16  1   
 27  12  38  1   
 28  12  39  1   
 29  13  17  ar  
 30  13  40  1   
 31  14  18  ar  
 32  14  41  1   
 33  15  42  1   
 34  15  43  1   
 35  15  44  1   
 36  16  19  1   
 37  16  20  2   
 38  17  21  1   
 39  17  22  ar  
 40  18  22  ar  
 41  18  45  1   
 42  19  23  1   
 43  20  24  1   
 44  20  46  1   
 45  21  25  1   
 46  22  26  1   
 47  23  24  2   
 48  24  27  1   
 49  25  26  1   
 50  25  47  1   
 51  25  48  1   
 52  27  49  1   
 53  27  50  1   
 54  27  51  1   
@<TRIPOS>SUBSTRUCTURE
  1 ****   3 GROUP 4 **** **** 0

# MOE 2024.06 (io_trps.svl 2023.06)
