@<TRIPOS>MOLECULE
NONAME
47 48 1 0 0 
SMALL
USER_CHARGES


@<TRIPOS>ATOM
  1 O       -0.0360    -1.4400    -0.7050 O.3   1 <1>  -0.5600 
  2 C       -0.6640    -2.5000    -0.0320 C.3   1 <1>   0.2800 
  3 C       -0.2840    -0.1040    -0.3180 C.3   1 <1>   0.1200 
  4 C       -2.2030    -2.3040     0.0370 C.3   1 <1>  -0.1600 
  5 C        0.0000    -2.6660     1.3500 C.3   1 <1>  -0.1600 
  6 C       -0.3280    -3.7600    -0.8540 C.3   1 <1>  -0.1600 
  7 C       -1.7100     0.1670     0.1970 C.3   1 <1>   0.2000 
  8 C       -2.7040    -0.8950    -0.3220 C.3   1 <1>   0.2800 
  9 C        1.5230    -2.8370     1.2710 C.3   1 <1>   0.3430 
 10 C        1.1210    -4.2470    -0.7090 C.3   1 <1>   0.3430 
 11 O       -1.6830     0.1760     1.5960 O.3   1 <1>  -0.6800 
 12 O       -2.7670    -0.7960    -1.6980 O.3   1 <1>  -0.6800 
 13 C       -4.1380    -0.6660     0.1680 C.3   1 <1>  -0.2400 
 14 N        1.9560    -3.1730    -0.1190 N.4   1 <1>  -0.9590 
 15 C        3.4210    -3.4370    -0.2590 C.3   1 <1>   0.3430 
 16 C        4.2700    -2.1930     0.0230 C.3   1 <1>   0.1200 
 17 O        5.5990    -2.5580    -0.1320 O.3   1 <1>  -0.5600 
 18 C        6.5070    -1.5230     0.0620 C.3   1 <1>   0.1200 
 19 C        7.9030    -2.0960    -0.1450 C.3   1 <1>  -0.2400 
 20 H        0.4420     0.1840     0.4210 H     1 <1>   0.0800 
 21 H       -0.1240     0.4930    -1.1980 H     1 <1>   0.0800 
 22 H       -2.7130    -3.0210    -0.5800 H     1 <1>   0.0800 
 23 H       -2.5120    -2.5200     1.0440 H     1 <1>   0.0800 
 24 H       -0.2250    -1.8370     1.9930 H     1 <1>   0.0800 
 25 H       -0.4110    -3.5350     1.8300 H     1 <1>   0.0800 
 26 H       -0.9660    -4.5710    -0.5510 H     1 <1>   0.0800 
 27 H       -0.5420    -3.5690    -1.8910 H     1 <1>   0.0800 
 28 H       -2.0220     1.1500    -0.1130 H     1 <1>   0.0800 
 29 H        1.8360    -3.6070     1.9570 H     1 <1>   0.0800 
 30 H        1.9880    -1.9120     1.5710 H     1 <1>   0.0800 
 31 H        1.5010    -4.5250    -1.6790 H     1 <1>   0.0800 
 32 H        1.1520    -5.1160    -0.0710 H     1 <1>   0.0800 
 33 H       -2.5270     0.5260     1.9430 H     1 <1>   0.4000 
 34 H       -3.4650    -1.3820    -2.0450 H     1 <1>   0.4000 
 35 H       -4.1900    -0.7470     1.2380 H     1 <1>   0.0800 
 36 H       -4.8050    -1.3990    -0.2490 H     1 <1>   0.0800 
 37 H       -4.4750     0.3170    -0.1120 H     1 <1>   0.0800 
 38 H        1.6910    -2.3340    -0.6750 H     1 <1>   0.4500 
 39 H        3.7150    -4.2210     0.4190 H     1 <1>   0.0800 
 40 H        3.6310    -3.7610    -1.2650 H     1 <1>   0.0800 
 41 H        4.1330    -1.8460     1.0320 H     1 <1>   0.0800 
 42 H        4.0460    -1.4120    -0.6840 H     1 <1>   0.0800 
 43 H        6.3100    -0.7430    -0.6540 H     1 <1>   0.0800 
 44 H        6.4000    -1.1430     1.0640 H     1 <1>   0.0800 
 45 H        8.0010    -2.4830    -1.1430 H     1 <1>   0.0800 
 46 H        8.0910    -2.8820     0.5650 H     1 <1>   0.0800 
 47 H        8.6380    -1.3250    -0.0040 H     1 <1>   0.0800 
@<TRIPOS>BOND
  1   1   2  1   
  2   1   3  1   
  3   2   4  1   
  4   2   5  1   
  5   2   6  1   
  6   3   7  1   
  7   3  20  1   
  8   3  21  1   
  9   4   8  1   
 10   4  22  1   
 11   4  23  1   
 12   5   9  1   
 13   5  24  1   
 14   5  25  1   
 15   6  10  1   
 16   6  26  1   
 17   6  27  1   
 18   7   8  1   
 19   7  11  1   
 20   7  28  1   
 21   8  12  1   
 22   8  13  1   
 23   9  14  1   
 24   9  29  1   
 25   9  30  1   
 26  10  14  1   
 27  10  31  1   
 28  10  32  1   
 29  11  33  1   
 30  12  34  1   
 31  13  35  1   
 32  13  36  1   
 33  13  37  1   
 34  14  15  1   
 35  14  38  1   
 36  15  16  1   
 37  15  39  1   
 38  15  40  1   
 39  16  17  1   
 40  16  41  1   
 41  16  42  1   
 42  17  18  1   
 43  18  19  1   
 44  18  43  1   
 45  18  44  1   
 46  19  45  1   
 47  19  46  1   
 48  19  47  1   
@<TRIPOS>SUBSTRUCTURE
  1 ****   1 GROUP 4 **** **** 0

# MOE 2024.06 (io_trps.svl 2023.06)
