@<TRIPOS>MOLECULE
NONAME
44 46 1 0 0 
SMALL
USER_CHARGES


@<TRIPOS>ATOM
  1 CL       0.6240    -1.3200     1.3450 Cl    1 <1>  -0.1770 
  2 C        0.7570    -1.7940    -0.3400 C.ar  1 <1>   0.1770 
  3 C        0.0620    -2.9080    -0.8410 C.ar  1 <1>   0.4100 
  4 C        1.5700    -1.0450    -1.1570 C.ar  1 <1>  -0.1500 
  5 N        0.1580    -3.2910    -2.1140 N.ar  1 <1>  -0.6200 
  6 N       -0.7740    -3.6700    -0.0360 N.pl3 1 <1>  -0.8380 
  7 C        1.6590    -1.4500    -2.4740 C.ar  1 <1>  -0.1500 
  8 C        0.9450    -2.5610    -2.8890 C.ar  1 <1>   0.1600 
  9 C       -2.0780    -3.0720     0.3640 C.3   1 <1>   0.2090 
 10 C       -0.9010    -5.1330    -0.3060 C.3   1 <1>   0.2090 
 11 C       -2.6820    -3.8320     1.5610 C.3   1 <1>   0.1100 
 12 C       -1.5360    -5.8590     0.8960 C.3   1 <1>   0.1100 
 13 N       -2.8480    -5.2770     1.2810 N.3   1 <1>  -0.8100 
 14 C       -3.4120    -5.9810     2.4720 C.3   1 <1>   0.1710 
 15 C       -3.9430    -7.3900     2.1860 C.2   1 <1>   0.5690 
 16 O       -4.0350    -8.1880     3.0880 O.2   1 <1>  -0.5700 
 17 N       -4.2990    -7.6940     0.9160 N.am  1 <1>  -0.7300 
 18 C       -4.8920    -8.9640     0.4520 C.3   1 <1>   0.3200 
 19 C       -5.8880    -8.7060    -0.6630 C.2   1 <1>  -0.0400 
 20 O       -6.3370    -9.7410    -1.3390 O.3   1 <1>  -0.2800 
 21 C       -6.4390    -7.5660    -1.1360 C.2   1 <1>  -0.1500 
 22 C       -7.1880    -9.3170    -2.2750 C.2   1 <1>  -0.0920 
 23 C       -7.2790    -7.9620    -2.1790 C.2   1 <1>  -0.1500 
 24 C       -7.8610   -10.2150    -3.2030 C.2   1 <1>   1.0320 
 25 O       -8.6480    -9.7480    -4.0510 O.co2 1 <1>  -0.9000 
 26 O       -7.6780   -11.4480    -3.1870 O.co2 1 <1>  -0.9000 
 27 H        2.1050    -0.1920    -0.7820 H     1 <1>   0.1500 
 28 H        2.2760    -0.9120    -3.1710 H     1 <1>   0.1500 
 29 H        1.0240    -2.8670    -3.9190 H     1 <1>   0.1500 
 30 H       -2.7600    -3.1190    -0.4670 H     1 <1>   0.0800 
 31 H       -1.9430    -2.0380     0.6280 H     1 <1>   0.0800 
 32 H        0.0730    -5.5450    -0.5030 H     1 <1>   0.0800 
 33 H       -1.5110    -5.2840    -1.1800 H     1 <1>   0.0800 
 34 H       -3.6400    -3.4010     1.7930 H     1 <1>   0.0800 
 35 H       -2.0370    -3.6940     2.4130 H     1 <1>   0.0800 
 36 H       -0.8520    -5.8000     1.7250 H     1 <1>   0.0800 
 37 H       -1.6590    -6.8970     0.6410 H     1 <1>   0.0800 
 38 H       -4.2380    -5.4120     2.8590 H     1 <1>   0.0800 
 39 H       -2.6680    -6.0440     3.2460 H     1 <1>   0.0800 
 40 H       -4.1450    -6.9780     0.2010 H     1 <1>   0.3700 
 41 H       -5.3850    -9.4650     1.2680 H     1 <1>   0.0800 
 42 H       -4.1100    -9.6030     0.0820 H     1 <1>   0.0800 
 43 H       -6.2920    -6.5550    -0.8070 H     1 <1>   0.1500 
 44 H       -7.8870    -7.3230    -2.7950 H     1 <1>   0.1500 
@<TRIPOS>BOND
  1   1   2  1   
  2   2   3  ar  
  3   2   4  ar  
  4   3   5  ar  
  5   3   6  1   
  6   4   7  ar  
  7   4  27  1   
  8   5   8  ar  
  9   6   9  1   
 10   6  10  1   
 11   7   8  ar  
 12   7  28  1   
 13   8  29  1   
 14   9  11  1   
 15   9  30  1   
 16   9  31  1   
 17  10  12  1   
 18  10  32  1   
 19  10  33  1   
 20  11  13  1   
 21  11  34  1   
 22  11  35  1   
 23  12  13  1   
 24  12  36  1   
 25  12  37  1   
 26  13  14  1   
 27  14  15  1   
 28  14  38  1   
 29  14  39  1   
 30  15  16  2   
 31  15  17  am  
 32  17  18  1   
 33  17  40  1   
 34  18  19  1   
 35  18  41  1   
 36  18  42  1   
 37  19  20  1   
 38  19  21  2   
 39  20  22  1   
 40  21  23  1   
 41  21  43  1   
 42  22  23  2   
 43  22  24  1   
 44  23  44  1   
 45  24  25  ar  
 46  24  26  ar  
@<TRIPOS>SUBSTRUCTURE
  1 ****  13 GROUP 4 **** **** 0

# MOE 2024.06 (io_trps.svl 2023.06)
