@<TRIPOS>MOLECULE
NONAME
42 43 1 0 0 
SMALL
USER_CHARGES


@<TRIPOS>ATOM
  1 S       -0.1350     0.2210    -0.0190 S.o2  1 <1>   1.3330 
  2 O       -0.7360     1.5320    -0.1160 O.2   1 <1>  -0.6500 
  3 O       -0.3070    -0.5540     1.1890 O.2   1 <1>  -0.6500 
  4 N       -0.7020    -0.7150    -1.3160 N.am  1 <1>  -0.8490 
  5 C        1.6080     0.3900    -0.4030 C.3   1 <1>  -0.0550 
  6 C       -2.1120    -0.4510    -1.6170 C.3   1 <1>   0.1160 
  7 C       -0.4940    -2.1560    -1.1270 C.3   1 <1>   0.1160 
  8 C        2.3840     1.2560     0.6090 C.3   1 <1>  -0.0800 
  9 C        3.7800     1.5610     0.0950 C.3   1 <1>   0.2890 
 10 C        2.6960     0.4860     1.8920 C.3   1 <1>   0.1200 
 11 N        4.2650     2.8120     0.7310 N.pl3 1 <1>  -0.8690 
 12 C        4.5920     0.3630     0.5930 C.3   1 <1>   0.1200 
 13 O        3.8550    -0.2390     1.6220 O.3   1 <1>  -0.5600 
 14 C        5.2370     3.6280     0.1820 C.ar  1 <1>   0.4100 
 15 N        5.6910     3.2650    -1.0130 N.ar  1 <1>  -0.6200 
 16 C        5.7000     4.7590     0.8700 C.ar  1 <1>   0.0730 
 17 C        6.6150     4.0280    -1.5610 C.ar  1 <1>   0.1670 
 18 C        5.1780     5.0880     2.1580 C.1   1 <1>   0.4840 
 19 C        6.6700     5.5440     0.2770 C.ar  1 <1>  -0.1500 
 20 C        7.1320     5.1650    -0.9650 C.ar  1 <1>  -0.1500 
 21 C        7.1080     3.5920    -2.9250 C.3   1 <1>  -0.0970 
 22 N        4.7670     5.3310     3.1940 N.1   1 <1>  -0.5570 
 23 H        2.0590    -0.5820    -0.4620 H     1 <1>   0.0800 
 24 H        1.6850     0.8450    -1.3720 H     1 <1>   0.0800 
 25 H       -2.4360    -1.0500    -2.4500 H     1 <1>   0.0800 
 26 H       -2.2460     0.5860    -1.8770 H     1 <1>   0.0800 
 27 H       -2.7260    -0.6740    -0.7590 H     1 <1>   0.0800 
 28 H       -0.7850    -2.6910    -2.0150 H     1 <1>   0.0800 
 29 H       -1.0770    -2.5150    -0.2950 H     1 <1>   0.0800 
 30 H        0.5450    -2.3600    -0.9340 H     1 <1>   0.0800 
 31 H        1.8310     2.1590     0.8050 H     1 <1>   0.0800 
 32 H        3.8120     1.6490    -0.9780 H     1 <1>   0.0800 
 33 H        1.9200    -0.1920     2.1980 H     1 <1>   0.0800 
 34 H        2.9150     1.1630     2.7000 H     1 <1>   0.0800 
 35 H        4.1480     2.8270     1.7480 H     1 <1>   0.4000 
 36 H        5.5570     0.6570     0.9670 H     1 <1>   0.0800 
 37 H        4.7110    -0.3650    -0.1890 H     1 <1>   0.0800 
 38 H        7.0550     6.4230     0.7660 H     1 <1>   0.1500 
 39 H        7.8860     5.7480    -1.4620 H     1 <1>   0.1500 
 40 H        7.8370     4.2780    -3.3140 H     1 <1>   0.0800 
 41 H        6.2780     3.5440    -3.6070 H     1 <1>   0.0800 
 42 H        7.5520     2.6160    -2.8520 H     1 <1>   0.0800 
@<TRIPOS>BOND
  1   1   2  2   
  2   1   3  2   
  3   1   4  am  
  4   1   5  1   
  5   4   6  1   
  6   4   7  1   
  7   5   8  1   
  8   5  23  1   
  9   5  24  1   
 10   6  25  1   
 11   6  26  1   
 12   6  27  1   
 13   7  28  1   
 14   7  29  1   
 15   7  30  1   
 16   8   9  1   
 17   8  10  1   
 18   8  31  1   
 19   9  11  1   
 20   9  12  1   
 21   9  32  1   
 22  10  13  1   
 23  10  33  1   
 24  10  34  1   
 25  11  14  1   
 26  11  35  1   
 27  12  13  1   
 28  12  36  1   
 29  12  37  1   
 30  14  15  ar  
 31  14  16  ar  
 32  15  17  ar  
 33  16  18  1   
 34  16  19  ar  
 35  17  20  ar  
 36  17  21  1   
 37  18  22  3   
 38  19  20  ar  
 39  19  38  1   
 40  20  39  1   
 41  21  40  1   
 42  21  41  1   
 43  21  42  1   
@<TRIPOS>SUBSTRUCTURE
  1 ****   9 GROUP 4 **** **** 0

# MOE 2024.06 (io_trps.svl 2023.06)
