@<TRIPOS>MOLECULE
NONAME
54 56 1 0 0 
SMALL
USER_CHARGES


@<TRIPOS>ATOM
  1 O       -1.9200    -0.2160    -2.7810 O.2   1 <1>  -0.5700 
  2 C       -2.0820    -0.7250    -1.7070 C.2   1 <1>   0.5690 
  3 N       -1.9420     0.0000    -0.5830 N.am  1 <1>  -0.7300 
  4 C       -2.4840    -2.1710    -1.6210 C.3   1 <1>  -0.0190 
  5 C       -2.1210    -0.5040     0.7980 C.3   1 <1>   0.2200 
  6 C       -1.4310    -3.0120    -0.8650 C.3   1 <1>   0.1200 
  7 C       -3.9280    -2.2440    -1.1060 C.3   1 <1>   0.3430 
  8 C       -1.1190    -1.6510     1.0870 C.3   1 <1>   0.1200 
  9 C       -3.6060    -0.8940     1.0480 C.3   1 <1>   0.3430 
 10 O       -1.5150    -2.8800     0.5300 O.3   1 <1>  -0.5600 
 11 N       -4.0490    -2.1770     0.3910 N.4   1 <1>  -0.9590 
 12 C       -5.3690    -2.6520     0.8810 C.3   1 <1>   0.4860 
 13 C       -5.5530    -4.0900     0.4350 C.ar  1 <1>  -0.1430 
 14 C       -4.7190    -5.0850     0.9270 C.ar  1 <1>  -0.1500 
 15 C       -6.5400    -4.4190    -0.4840 C.ar  1 <1>  -0.1500 
 16 C       -4.8530    -6.3930     0.4970 C.ar  1 <1>   0.0830 
 17 C       -6.6900    -5.7290    -0.9050 C.ar  1 <1>  -0.1500 
 18 O       -3.9740    -7.2960     0.9940 O.3   1 <1>  -0.3630 
 19 C       -5.8640    -6.7240    -0.4110 C.ar  1 <1>   0.0830 
 20 C       -3.1060    -7.9230     0.0770 C.3   1 <1>   0.1200 
 21 O       -6.0850    -7.9900    -0.8450 O.3   1 <1>  -0.3630 
 22 C       -2.1820    -8.8480     0.8620 C.3   1 <1>  -0.2400 
 23 C       -6.5070    -8.9480     0.1030 C.3   1 <1>   0.2000 
 24 C       -6.2220   -10.3280    -0.4860 C.3   1 <1>  -0.2400 
 25 C       -8.0020    -8.7540     0.3660 C.3   1 <1>  -0.2400 
 26 H       -1.6130     0.9640    -0.7090 H     1 <1>   0.3700 
 27 H       -2.4970    -2.5310    -2.6340 H     1 <1>   0.0800 
 28 H       -1.8790     0.3110     1.4600 H     1 <1>   0.0800 
 29 H       -0.4330    -2.7500    -1.1790 H     1 <1>   0.0800 
 30 H       -1.5830    -4.0550    -1.0860 H     1 <1>   0.0800 
 31 H       -4.3390    -3.1810    -1.4450 H     1 <1>   0.0800 
 32 H       -4.5080    -1.4550    -1.5580 H     1 <1>   0.0800 
 33 H       -1.0550    -1.8040     2.1510 H     1 <1>   0.0800 
 34 H       -0.1330    -1.4030     0.7310 H     1 <1>   0.0800 
 35 H       -4.2340    -0.0810     0.7220 H     1 <1>   0.0800 
 36 H       -3.7360    -0.9960     2.1120 H     1 <1>   0.0800 
 37 H       -3.3490    -2.8790     0.7060 H     1 <1>   0.4500 
 38 H       -5.4040    -2.6110     1.9580 H     1 <1>   0.0800 
 39 H       -6.1590    -2.0360     0.4860 H     1 <1>   0.0800 
 40 H       -3.9470    -4.8710     1.6450 H     1 <1>   0.1500 
 41 H       -7.2040    -3.6690    -0.8820 H     1 <1>   0.1500 
 42 H       -7.4560    -5.9940    -1.6130 H     1 <1>   0.1500 
 43 H       -3.6850    -8.4820    -0.6350 H     1 <1>   0.0800 
 44 H       -2.5440    -7.1610    -0.4330 H     1 <1>   0.0800 
 45 H       -2.7590    -9.5950     1.3760 H     1 <1>   0.0800 
 46 H       -1.6080    -8.2830     1.5740 H     1 <1>   0.0800 
 47 H       -1.5040    -9.3420     0.1890 H     1 <1>   0.0800 
 48 H       -5.9470    -8.8180     1.0120 H     1 <1>   0.0800 
 49 H       -6.7560   -10.4590    -1.4100 H     1 <1>   0.0800 
 50 H       -6.5320   -11.0920     0.2020 H     1 <1>   0.0800 
 51 H       -5.1680   -10.4400    -0.6640 H     1 <1>   0.0800 
 52 H       -8.5570    -8.8380    -0.5510 H     1 <1>   0.0800 
 53 H       -8.1790    -7.7910     0.8070 H     1 <1>   0.0800 
 54 H       -8.3520    -9.5050     1.0510 H     1 <1>   0.0800 
@<TRIPOS>BOND
  1   1   2  2   
  2   2   3  am  
  3   2   4  1   
  4   3   5  1   
  5   3  26  1   
  6   4   6  1   
  7   4   7  1   
  8   4  27  1   
  9   5   8  1   
 10   5   9  1   
 11   5  28  1   
 12   6  10  1   
 13   6  29  1   
 14   6  30  1   
 15   7  11  1   
 16   7  31  1   
 17   7  32  1   
 18   8  10  1   
 19   8  33  1   
 20   8  34  1   
 21   9  11  1   
 22   9  35  1   
 23   9  36  1   
 24  11  12  1   
 25  11  37  1   
 26  12  13  1   
 27  12  38  1   
 28  12  39  1   
 29  13  14  ar  
 30  13  15  ar  
 31  14  16  ar  
 32  14  40  1   
 33  15  17  ar  
 34  15  41  1   
 35  16  18  1   
 36  16  19  ar  
 37  17  19  ar  
 38  17  42  1   
 39  18  20  1   
 40  19  21  1   
 41  20  22  1   
 42  20  43  1   
 43  20  44  1   
 44  21  23  1   
 45  22  45  1   
 46  22  46  1   
 47  22  47  1   
 48  23  24  1   
 49  23  25  1   
 50  23  48  1   
 51  24  49  1   
 52  24  50  1   
 53  24  51  1   
 54  25  52  1   
 55  25  53  1   
 56  25  54  1   
@<TRIPOS>SUBSTRUCTURE
  1 ****  14 GROUP 4 **** **** 0

# MOE 2024.06 (io_trps.svl 2023.06)
