@<TRIPOS>MOLECULE
NONAME
40 41 1 0 0 
SMALL
USER_CHARGES


@<TRIPOS>ATOM
  1 S       -0.2550     0.2430    -1.2930 S.3   1 <1>  -0.0800 
  2 C        0.4090     1.8450    -1.5500 C.2   1 <1>  -0.1100 
  3 C       -1.4560     0.8740    -0.1820 C.2   1 <1>  -0.1100 
  4 C       -0.2540     2.7640    -0.8200 C.2   1 <1>  -0.1810 
  5 C       -1.3230     2.2060    -0.0440 C.2   1 <1>  -0.1500 
  6 C        0.0530     4.2510    -0.7830 C.3   1 <1>   0.0210 
  7 C        0.5450     4.7060     0.6020 C.3   1 <1>   0.2890 
  8 N        0.8550     6.1580     0.5720 N.pl3 1 <1>  -0.8690 
  9 C        1.7310     3.8880     1.1250 C.3   1 <1>  -0.2400 
 10 C        1.9170     6.9130     0.2730 C.ar  1 <1>   0.7710 
 11 N        1.7240     8.2130     0.3270 N.ar  1 <1>  -0.6200 
 12 N        3.0930     6.3640    -0.0660 N.ar  1 <1>  -0.1790 
 13 C        2.7350     9.0110     0.0260 C.ar  1 <1>   0.4100 
 14 C        4.1610     7.1380    -0.3710 C.ar  1 <1>   0.2110 
 15 N        2.5160    10.3550     0.0700 N.pl3 1 <1>  -0.8380 
 16 C        3.9940     8.4810    -0.3280 C.ar  1 <1>  -0.1500 
 17 C        3.3530    11.3700    -0.6270 C.3   1 <1>   0.2090 
 18 C        1.2960    10.9380     0.7140 C.3   1 <1>   0.1290 
 19 C        4.3520    11.9660     0.3600 C.3   1 <1>  -0.2400 
 20 H        1.2370     1.9210    -2.2320 H     1 <1>   0.1500 
 21 H       -2.1440     0.1710     0.2530 H     1 <1>   0.1500 
 22 H       -1.9500     2.8210     0.5780 H     1 <1>   0.1500 
 23 H       -0.8410     4.7920    -1.0410 H     1 <1>   0.0800 
 24 H        0.8000     4.4700    -1.5240 H     1 <1>   0.0800 
 25 H       -0.2660     4.5670     1.3000 H     1 <1>   0.0800 
 26 H        0.0370     6.7320     0.8090 H     1 <1>   0.4000 
 27 H        2.4780     3.7260     0.3720 H     1 <1>   0.0800 
 28 H        1.3740     2.9150     1.4180 H     1 <1>   0.0800 
 29 H        2.1550     4.3470     2.0010 H     1 <1>   0.0800 
 30 H        3.1220     5.3510    -0.0520 H     1 <1>   0.4570 
 31 H        5.0990     6.6710    -0.6300 H     1 <1>   0.1500 
 32 H        4.8050     9.1460    -0.5470 H     1 <1>   0.1500 
 33 H        2.7220    12.1490    -1.0220 H     1 <1>   0.0800 
 34 H        3.8700    10.9250    -1.4590 H     1 <1>   0.0800 
 35 H        0.9350    10.2970     1.5000 H     1 <1>   0.0800 
 36 H        0.5200    11.0580    -0.0220 H     1 <1>   0.0800 
 37 H        1.5210    11.8970     1.1460 H     1 <1>   0.0800 
 38 H        3.8370    12.4670     1.1590 H     1 <1>   0.0800 
 39 H        4.9730    12.6850    -0.1440 H     1 <1>   0.0800 
 40 H        4.9810    11.2000     0.7740 H     1 <1>   0.0800 
@<TRIPOS>BOND
  1   1   2  1   
  2   1   3  1   
  3   2   4  2   
  4   2  20  1   
  5   3   5  2   
  6   3  21  1   
  7   4   5  1   
  8   4   6  1   
  9   5  22  1   
 10   6   7  1   
 11   6  23  1   
 12   6  24  1   
 13   7   8  1   
 14   7   9  1   
 15   7  25  1   
 16   8  10  1   
 17   8  26  1   
 18   9  27  1   
 19   9  28  1   
 20   9  29  1   
 21  10  11  ar  
 22  10  12  ar  
 23  11  13  ar  
 24  12  14  ar  
 25  12  30  1   
 26  13  15  1   
 27  13  16  ar  
 28  14  16  ar  
 29  14  31  1   
 30  15  17  1   
 31  15  18  1   
 32  16  32  1   
 33  17  19  1   
 34  17  33  1   
 35  17  34  1   
 36  18  35  1   
 37  18  36  1   
 38  18  37  1   
 39  19  38  1   
 40  19  39  1   
 41  19  40  1   
@<TRIPOS>SUBSTRUCTURE
  1 ****  10 GROUP 4 **** **** 0

# MOE 2024.06 (io_trps.svl 2023.06)
