@<TRIPOS>MOLECULE
NONAME
47 49 1 0 0 
SMALL
USER_CHARGES


@<TRIPOS>ATOM
  1 CL      -1.3320    -0.0200     1.7560 Cl    1 <1>  -0.1770 
  2 C       -0.8160    -1.4770     0.9290 C.ar  1 <1>   0.1770 
  3 C       -1.7580    -2.2380     0.2330 C.ar  1 <1>   0.1170 
  4 C        0.5170    -1.8310     0.9970 C.ar  1 <1>  -0.1500 
  5 N       -3.1010    -1.8170     0.2080 N.am  1 <1>  -0.5470 
  6 C       -1.3120    -3.4000    -0.3960 C.ar  1 <1>  -0.1500 
  7 C        0.9220    -2.9840     0.3550 C.ar  1 <1>   0.1770 
  8 C       -4.1510    -2.1300    -0.6070 C.2   1 <1>   0.6900 
  9 C        0.0220    -3.7720    -0.3390 C.ar  1 <1>  -0.1500 
 10 CL       2.6020    -3.4570     0.4240 Cl    1 <1>  -0.1770 
 11 O       -3.9980    -2.8450    -1.5790 O.2   1 <1>  -0.5700 
 12 N       -5.3830    -1.5970    -0.3200 N.am  1 <1>  -0.6600 
 13 C       -5.7220    -0.9900     1.0010 C.3   1 <1>   0.1400 
 14 C       -6.4910    -1.6940    -1.3160 C.3   1 <1>   0.1400 
 15 C       -7.2260    -1.0820     1.2600 C.3   1 <1>  -0.1600 
 16 C       -7.4100    -0.4740    -1.2070 C.3   1 <1>  -0.1600 
 17 C       -8.0330    -0.2950     0.2040 C.3   1 <1>   0.2800 
 18 O       -7.8770     1.0770     0.5020 O.3   1 <1>  -0.5600 
 19 C       -9.5420    -0.6910     0.2810 C.3   1 <1>   0.2000 
 20 C       -8.7640     1.6530     1.4180 C.3   1 <1>   0.1200 
 21 O       -9.8470    -1.8320    -0.4690 O.3   1 <1>  -0.6800 
 22 C      -10.4890     0.4860    -0.0750 C.3   1 <1>   0.2800 
 23 C      -10.1800     1.7000     0.8230 C.3   1 <1>  -0.1600 
 24 O      -11.7860     0.0780     0.1900 O.3   1 <1>  -0.6800 
 25 C      -10.4840     0.8900    -1.5560 C.3   1 <1>  -0.2400 
 26 H        1.2230    -1.2280     1.5360 H     1 <1>   0.1500 
 27 H       -3.3090    -1.0260     0.8100 H     1 <1>   0.3700 
 28 H       -2.0050    -4.0230    -0.9330 H     1 <1>   0.1500 
 29 H        0.3610    -4.6670    -0.8290 H     1 <1>   0.1500 
 30 H       -5.1980    -1.5090     1.7850 H     1 <1>   0.0800 
 31 H       -5.4200     0.0440     1.0040 H     1 <1>   0.0800 
 32 H       -6.0850    -1.7470    -2.3120 H     1 <1>   0.0800 
 33 H       -7.0530    -2.5950    -1.1350 H     1 <1>   0.0800 
 34 H       -7.4460    -0.7240     2.2480 H     1 <1>   0.0800 
 35 H       -7.5090    -2.1200     1.2320 H     1 <1>   0.0800 
 36 H       -8.1740    -0.5790    -1.9510 H     1 <1>   0.0800 
 37 H       -6.8290     0.3930    -1.4670 H     1 <1>   0.0800 
 38 H       -9.7510    -0.9550     1.3030 H     1 <1>   0.0800 
 39 H       -8.7460     1.0790     2.3270 H     1 <1>   0.0800 
 40 H       -8.4150     2.6480     1.6350 H     1 <1>   0.0800 
 41 H      -10.8250    -1.9140    -0.4830 H     1 <1>   0.4000 
 42 H      -10.2770     2.6130     0.2630 H     1 <1>   0.0800 
 43 H      -10.8740     1.7520     1.6430 H     1 <1>   0.0800 
 44 H      -12.4080     0.7780    -0.0830 H     1 <1>   0.4000 
 45 H       -9.5320     1.3140    -1.8180 H     1 <1>   0.0800 
 46 H      -11.2360     1.6310    -1.7560 H     1 <1>   0.0800 
 47 H      -10.6570     0.0350    -2.1840 H     1 <1>   0.0800 
@<TRIPOS>BOND
  1   1   2  1   
  2   2   3  ar  
  3   2   4  ar  
  4   3   5  1   
  5   3   6  ar  
  6   4   7  ar  
  7   4  26  1   
  8   5   8  am  
  9   5  27  1   
 10   6   9  ar  
 11   6  28  1   
 12   7   9  ar  
 13   7  10  1   
 14   8  11  2   
 15   8  12  am  
 16   9  29  1   
 17  12  13  1   
 18  12  14  1   
 19  13  15  1   
 20  13  30  1   
 21  13  31  1   
 22  14  16  1   
 23  14  32  1   
 24  14  33  1   
 25  15  17  1   
 26  15  34  1   
 27  15  35  1   
 28  16  17  1   
 29  16  36  1   
 30  16  37  1   
 31  17  18  1   
 32  17  19  1   
 33  18  20  1   
 34  19  21  1   
 35  19  22  1   
 36  19  38  1   
 37  20  23  1   
 38  20  39  1   
 39  20  40  1   
 40  21  41  1   
 41  22  23  1   
 42  22  24  1   
 43  22  25  1   
 44  23  42  1   
 45  23  43  1   
 46  24  44  1   
 47  25  45  1   
 48  25  46  1   
 49  25  47  1   
@<TRIPOS>SUBSTRUCTURE
  1 ****  12 GROUP 4 **** **** 0

# MOE 2024.06 (io_trps.svl 2023.06)
