@<TRIPOS>MOLECULE
NONAME
42 43 1 0 0 
SMALL
USER_CHARGES


@<TRIPOS>ATOM
  1 O        0.2030    -1.5950     1.6900 O.co2 1 <1>  -0.9000 
  2 C       -0.7160    -0.9590     1.1390 C.2   1 <1>   1.0320 
  3 O       -0.6130     0.2770     1.0330 O.co2 1 <1>  -0.9000 
  4 C       -1.8980    -1.6270     0.6180 C.2   1 <1>  -0.0920 
  5 O       -2.0960    -2.9380     0.7420 O.3   1 <1>  -0.2800 
  6 C       -2.9630    -1.1010    -0.0480 C.2   1 <1>  -0.1500 
  7 C       -3.2400    -3.2590     0.1880 C.2   1 <1>  -0.0400 
  8 C       -3.8320    -2.1570    -0.3280 C.2   1 <1>  -0.1500 
  9 C       -3.6200    -4.7240     0.2440 C.3   1 <1>   0.5230 
 10 N       -4.9860    -4.9330    -0.3000 N.4   1 <1>  -0.9590 
 11 C       -5.1850    -6.3840    -0.6330 C.3   1 <1>   0.3430 
 12 C       -5.9910    -4.4420     0.6960 C.3   1 <1>   0.3430 
 13 C       -6.6170    -6.6540    -1.1260 C.3   1 <1>   0.2000 
 14 C       -7.4220    -4.7550     0.2370 C.3   1 <1>  -0.1600 
 15 O       -6.7160    -7.9920    -1.4550 O.3   1 <1>  -0.6800 
 16 C       -7.6340    -6.2750    -0.0250 C.3   1 <1>  -0.1060 
 17 C       -7.2830    -7.1050     1.2290 C.2   1 <1>   0.9060 
 18 C       -9.0860    -6.5520    -0.5100 C.3   1 <1>  -0.1600 
 19 O       -7.0380    -8.3090     1.0920 O.co2 1 <1>  -0.9000 
 20 O       -7.0880    -6.5260     2.3020 O.co2 1 <1>  -0.9000 
 21 C      -10.1810    -6.1910     0.5080 C.3   1 <1>  -0.1600 
 22 C      -11.5620    -6.6060    -0.0060 C.3   1 <1>  -0.2400 
 23 H       -3.0960    -0.0630    -0.3020 H     1 <1>   0.1500 
 24 H       -4.7640    -2.0430    -0.8510 H     1 <1>   0.1500 
 25 H       -3.5720    -5.0670     1.2650 H     1 <1>   0.0800 
 26 H       -2.9000    -5.2820    -0.3310 H     1 <1>   0.0800 
 27 H       -5.0650    -4.3770    -1.1550 H     1 <1>   0.4500 
 28 H       -4.4930    -6.6850    -1.4010 H     1 <1>   0.0800 
 29 H       -5.0080    -6.9840     0.2460 H     1 <1>   0.0800 
 30 H       -5.8110    -4.9110     1.6500 H     1 <1>   0.0800 
 31 H       -5.8840    -3.3790     0.8380 H     1 <1>   0.0800 
 32 H       -6.8040    -6.1000    -2.0280 H     1 <1>   0.0800 
 33 H       -8.0790    -4.4330     1.0260 H     1 <1>   0.0800 
 34 H       -7.6610    -4.1800    -0.6390 H     1 <1>   0.0800 
 35 H       -6.8670    -8.4800    -0.5870 H     1 <1>   0.4000 
 36 H       -9.2680    -6.0200    -1.4270 H     1 <1>   0.0800 
 37 H       -9.1760    -7.6040    -0.7270 H     1 <1>   0.0800 
 38 H       -9.9900    -6.6940     1.4430 H     1 <1>   0.0800 
 39 H      -10.1890    -5.1320     0.6960 H     1 <1>   0.0800 
 40 H      -11.5960    -7.6700    -0.1670 H     1 <1>   0.0800 
 41 H      -11.7870    -6.1060    -0.9310 H     1 <1>   0.0800 
 42 H      -12.3150    -6.3470     0.7170 H     1 <1>   0.0800 
@<TRIPOS>BOND
  1   1   2  ar  
  2   2   3  ar  
  3   2   4  1   
  4   4   5  1   
  5   4   6  2   
  6   5   7  1   
  7   6   8  1   
  8   6  23  1   
  9   7   8  2   
 10   7   9  1   
 11   8  24  1   
 12   9  10  1   
 13   9  25  1   
 14   9  26  1   
 15  10  11  1   
 16  10  12  1   
 17  10  27  1   
 18  11  13  1   
 19  11  28  1   
 20  11  29  1   
 21  12  14  1   
 22  12  30  1   
 23  12  31  1   
 24  13  15  1   
 25  13  16  1   
 26  13  32  1   
 27  14  16  1   
 28  14  33  1   
 29  14  34  1   
 30  15  35  1   
 31  16  17  1   
 32  16  18  1   
 33  17  19  ar  
 34  17  20  ar  
 35  18  21  1   
 36  18  36  1   
 37  18  37  1   
 38  21  22  1   
 39  21  38  1   
 40  21  39  1   
 41  22  40  1   
 42  22  41  1   
 43  22  42  1   
@<TRIPOS>SUBSTRUCTURE
  1 ****  10 GROUP 4 **** **** 0

# MOE 2024.06 (io_trps.svl 2023.06)
