@<TRIPOS>MOLECULE
NONAME
47 49 1 0 0 
SMALL
USER_CHARGES


@<TRIPOS>ATOM
  1 O        4.5640     3.2270     1.8550 O.co2 1 <1>  -0.9000 
  2 C        3.8140     2.2390     1.9100 C.2   1 <1>   0.9060 
  3 O        4.0510     1.2470     2.5870 O.co2 1 <1>  -0.9000 
  4 C        2.6030     2.2210     1.0000 C.3   1 <1>  -0.1860 
  5 C        3.1570     2.3810    -0.3940 C.3   1 <1>   0.3430 
  6 C        1.6890     3.4480     1.1750 C.3   1 <1>  -0.1600 
  7 N        3.3740     3.8370    -0.4440 N.4   1 <1>  -0.9590 
  8 C        2.1950     4.4820     0.1700 C.3   1 <1>   0.3430 
  9 C        3.9190     4.4190    -1.6830 C.3   1 <1>   0.4860 
 10 C        4.2050     5.8930    -1.4500 C.ar  1 <1>  -0.1430 
 11 C        3.5870     6.8550    -2.2360 C.ar  1 <1>  -0.1500 
 12 C        5.0810     6.2910    -0.4480 C.ar  1 <1>  -0.1500 
 13 C        3.8410     8.1970    -2.0190 C.ar  1 <1>  -0.1500 
 14 C        5.3340     7.6340    -0.2300 C.ar  1 <1>  -0.1500 
 15 C        4.7120     8.5970    -1.0190 C.ar  1 <1>   0.0830 
 16 O        4.9020     9.9310    -0.8760 O.3   1 <1>  -0.3620 
 17 C        5.8060    10.4510     0.0690 C.3   1 <1>   0.1200 
 18 C        5.7930    11.9740    -0.0580 C.3   1 <1>  -0.1600 
 19 C        6.7550    12.6180     0.9460 C.3   1 <1>   0.0960 
 20 N        6.7310    14.0870     0.8100 N.pl3 1 <1>   0.0480 
 21 C        5.9660    14.9710     1.4890 C.2   1 <1>   0.0360 
 22 C        7.4720    14.8440    -0.0190 C.2   1 <1>  -0.3020 
 23 N        6.1660    16.2050     1.1580 N.2   1 <1>  -0.5650 
 24 C        7.1150    16.1270     0.2070 C.2   1 <1>   0.0770 
 25 H        2.0830     1.2900     1.1260 H     1 <1>   0.0800 
 26 H        2.4350     2.0760    -1.1310 H     1 <1>   0.0800 
 27 H        4.0800     1.8330    -0.5120 H     1 <1>   0.0800 
 28 H        1.7410     3.8320     2.1810 H     1 <1>   0.0800 
 29 H        0.6660     3.2000     0.9530 H     1 <1>   0.0800 
 30 H        4.1050     3.9480     0.3060 H     1 <1>   0.4500 
 31 H        2.4790     5.3990     0.6620 H     1 <1>   0.0800 
 32 H        1.4430     4.6840    -0.5740 H     1 <1>   0.0800 
 33 H        3.2120     4.3030    -2.4860 H     1 <1>   0.0800 
 34 H        4.8340     3.9160    -1.9500 H     1 <1>   0.0800 
 35 H        2.9060     6.5750    -3.0210 H     1 <1>   0.1500 
 36 H        5.5700     5.5600     0.1780 H     1 <1>   0.1500 
 37 H        3.3660     8.9490    -2.6250 H     1 <1>   0.1500 
 38 H        6.0140     7.9060     0.5550 H     1 <1>   0.1500 
 39 H        6.7840    10.0550    -0.1460 H     1 <1>   0.0800 
 40 H        5.4840    10.1430     1.0490 H     1 <1>   0.0800 
 41 H        4.7940    12.3310     0.1240 H     1 <1>   0.0800 
 42 H        6.0870    12.2440    -1.0580 H     1 <1>   0.0800 
 43 H        7.7600    12.2760     0.7720 H     1 <1>   0.0800 
 44 H        6.4730    12.3620     1.9510 H     1 <1>   0.0800 
 45 H        5.2580    14.6570     2.2360 H     1 <1>   0.1500 
 46 H        8.1920    14.4440    -0.7080 H     1 <1>   0.1500 
 47 H        7.4960    17.0140    -0.2730 H     1 <1>   0.1500 
@<TRIPOS>BOND
  1   1   2  ar  
  2   2   3  ar  
  3   2   4  1   
  4   4   5  1   
  5   4   6  1   
  6   4  25  1   
  7   5   7  1   
  8   5  26  1   
  9   5  27  1   
 10   6   8  1   
 11   6  28  1   
 12   6  29  1   
 13   7   8  1   
 14   7   9  1   
 15   7  30  1   
 16   8  31  1   
 17   8  32  1   
 18   9  10  1   
 19   9  33  1   
 20   9  34  1   
 21  10  11  ar  
 22  10  12  ar  
 23  11  13  ar  
 24  11  35  1   
 25  12  14  ar  
 26  12  36  1   
 27  13  15  ar  
 28  13  37  1   
 29  14  15  ar  
 30  14  38  1   
 31  15  16  1   
 32  16  17  1   
 33  17  18  1   
 34  17  39  1   
 35  17  40  1   
 36  18  19  1   
 37  18  41  1   
 38  18  42  1   
 39  19  20  1   
 40  19  43  1   
 41  19  44  1   
 42  20  21  1   
 43  20  22  1   
 44  21  23  2   
 45  21  45  1   
 46  22  24  2   
 47  22  46  1   
 48  23  24  1   
 49  24  47  1   
@<TRIPOS>SUBSTRUCTURE
  1 ****  14 GROUP 4 **** **** 0

# MOE 2024.06 (io_trps.svl 2023.06)
