@<TRIPOS>MOLECULE
NONAME
52 54 1 0 0 
SMALL
USER_CHARGES


@<TRIPOS>ATOM
  1 F       -2.5760     2.9410    -3.0130 F     1 <1>  -0.1900 
  2 C       -2.7680     2.4540    -1.8120 C.ar  1 <1>   0.1900 
  3 C       -1.8720     1.5310    -1.2830 C.ar  1 <1>   0.0830 
  4 C       -3.8750     2.8860    -1.1070 C.ar  1 <1>  -0.1500 
  5 O       -0.7940     1.1110    -1.9760 O.3   1 <1>  -0.5330 
  6 C       -2.1040     1.0360    -0.0100 C.ar  1 <1>  -0.1500 
  7 C       -4.1050     2.3810     0.1660 C.ar  1 <1>  -0.1440 
  8 C       -3.2130     1.4610     0.7060 C.ar  1 <1>  -0.1500 
  9 C       -5.3220     2.8330     0.9690 C.3   1 <1>   0.0440 
 10 C       -6.1110     1.6780     1.5740 C.2   1 <1>   0.5690 
 11 O       -6.0470     1.5370     2.7740 O.2   1 <1>  -0.5700 
 12 N       -6.8760     0.8400     0.8000 N.am  1 <1>  -0.6600 
 13 C       -7.6210    -0.3060     1.4110 C.3   1 <1>   0.1400 
 14 C       -7.0470     0.9500    -0.6770 C.3   1 <1>   0.1400 
 15 C       -9.1240    -0.0150     1.5500 C.3   1 <1>   0.1400 
 16 C       -8.2060     1.8840    -1.0490 C.3   1 <1>  -0.1600 
 17 N       -9.7420     0.4080     0.2510 N.am  1 <1>  -0.6600 
 18 C       -9.4330     1.8130    -0.1300 C.3   1 <1>   0.1400 
 19 C      -10.5080    -0.3820    -0.5650 C.2   1 <1>   0.5690 
 20 O      -10.9460     0.0320    -1.6130 O.2   1 <1>  -0.5700 
 21 C      -10.8130    -1.8200    -0.1680 C.3   1 <1>  -0.0990 
 22 C      -11.5870    -2.6100    -1.2340 C.3   1 <1>  -0.0170 
 23 C      -11.8310    -4.0340    -0.7580 C.ar  1 <1>  -0.1430 
 24 C      -12.9570    -4.3480    -0.0110 C.ar  1 <1>   0.1600 
 25 C      -10.9320    -5.0380    -1.0570 C.ar  1 <1>  -0.1500 
 26 N      -13.2480    -5.5520     0.4560 N.ar  1 <1>  -0.6200 
 27 C      -11.2210    -6.2990    -0.5830 C.ar  1 <1>  -0.1500 
 28 C      -12.3730    -6.4990     0.1570 C.ar  1 <1>   0.1600 
 29 H       -4.5360     3.6040    -1.5560 H     1 <1>   0.1500 
 30 H       -0.2430     0.4750    -1.4880 H     1 <1>   0.4500 
 31 H       -1.4300     0.3230     0.4300 H     1 <1>   0.1500 
 32 H       -3.3810     1.0700     1.6970 H     1 <1>   0.1500 
 33 H       -5.9810     3.4190     0.3590 H     1 <1>   0.0800 
 34 H       -4.9840     3.4680     1.7680 H     1 <1>   0.0800 
 35 H       -7.2210    -0.5250     2.3870 H     1 <1>   0.0800 
 36 H       -7.4810    -1.1860     0.8100 H     1 <1>   0.0800 
 37 H       -7.2530    -0.0280    -1.0770 H     1 <1>   0.0800 
 38 H       -6.1380     1.2880    -1.1410 H     1 <1>   0.0800 
 39 H       -9.2580     0.7640     2.2790 H     1 <1>   0.0800 
 40 H       -9.6140    -0.8900     1.9360 H     1 <1>   0.0800 
 41 H       -8.5200     1.6480    -2.0510 H     1 <1>   0.0800 
 42 H       -7.8560     2.8990    -1.0710 H     1 <1>   0.0800 
 43 H      -10.2830     2.2500    -0.6280 H     1 <1>   0.0800 
 44 H       -9.2470     2.3910     0.7600 H     1 <1>   0.0800 
 45 H      -11.3900    -1.8040     0.7380 H     1 <1>   0.0800 
 46 H       -9.8860    -2.3240     0.0270 H     1 <1>   0.0800 
 47 H      -11.0280    -2.6230    -2.1530 H     1 <1>   0.0800 
 48 H      -12.5280    -2.1260    -1.4340 H     1 <1>   0.0800 
 49 H      -13.6590    -3.5650     0.2190 H     1 <1>   0.1500 
 50 H      -10.0440    -4.8500    -1.6360 H     1 <1>   0.1500 
 51 H      -10.5610    -7.1230    -0.7840 H     1 <1>   0.1500 
 52 H      -12.5880    -7.4890     0.5220 H     1 <1>   0.1500 
@<TRIPOS>BOND
  1   1   2  1   
  2   2   3  ar  
  3   2   4  ar  
  4   3   5  1   
  5   3   6  ar  
  6   4   7  ar  
  7   4  29  1   
  8   5  30  1   
  9   6   8  ar  
 10   6  31  1   
 11   7   8  ar  
 12   7   9  1   
 13   8  32  1   
 14   9  10  1   
 15   9  33  1   
 16   9  34  1   
 17  10  11  2   
 18  10  12  am  
 19  12  13  1   
 20  12  14  1   
 21  13  15  1   
 22  13  35  1   
 23  13  36  1   
 24  14  16  1   
 25  14  37  1   
 26  14  38  1   
 27  15  17  1   
 28  15  39  1   
 29  15  40  1   
 30  16  18  1   
 31  16  41  1   
 32  16  42  1   
 33  17  18  1   
 34  17  19  am  
 35  18  43  1   
 36  18  44  1   
 37  19  20  2   
 38  19  21  1   
 39  21  22  1   
 40  21  45  1   
 41  21  46  1   
 42  22  23  1   
 43  22  47  1   
 44  22  48  1   
 45  23  24  ar  
 46  23  25  ar  
 47  24  26  ar  
 48  24  49  1   
 49  25  27  ar  
 50  25  50  1   
 51  26  28  ar  
 52  27  28  ar  
 53  27  51  1   
 54  28  52  1   
@<TRIPOS>SUBSTRUCTURE
  1 ****  14 GROUP 4 **** **** 0

# MOE 2024.06 (io_trps.svl 2023.06)
