@<TRIPOS>MOLECULE
NONAME
44 45 1 0 0 
SMALL
USER_CHARGES


@<TRIPOS>ATOM
  1 CL       3.5990    -2.4110     1.2410 Cl    1 <1>  -0.1770 
  2 C        2.0070    -2.9320     0.7490 C.ar  1 <1>   0.1770 
  3 C        1.8050    -3.4860    -0.5060 C.ar  1 <1>  -0.1440 
  4 C        0.9610    -2.7750     1.6390 C.ar  1 <1>  -0.1500 
  5 C        0.5250    -3.8910    -0.8520 C.ar  1 <1>  -0.1500 
  6 C        2.9550    -3.6420    -1.4900 C.3   1 <1>  -0.0960 
  7 C       -0.3090    -3.1840     1.2760 C.ar  1 <1>  -0.1500 
  8 C       -0.5510    -3.7640     0.0280 C.ar  1 <1>   0.0860 
  9 C       -1.8760    -4.2200    -0.3520 C.2   1 <1>   0.5440 
 10 O       -2.3220    -3.9410    -1.4490 O.2   1 <1>  -0.5700 
 11 N       -2.6610    -4.9970     0.4730 N.am  1 <1>  -0.6600 
 12 C       -2.0980    -5.8750     1.5360 C.3   1 <1>   0.3200 
 13 C       -4.1310    -5.1260     0.2140 C.3   1 <1>   0.1400 
 14 C       -2.4570    -7.3020     1.1810 C.2   1 <1>  -0.3320 
 15 C       -4.3870    -5.9510    -1.0640 C.3   1 <1>   0.3430 
 16 N       -1.8500    -8.0140     0.2110 N.pl3 1 <1>   0.0330 
 17 C       -3.4150    -8.1000     1.6990 C.2   1 <1>   0.0770 
 18 N       -5.7890    -6.4760    -1.1690 N.4   1 <1>  -0.9590 
 19 C       -2.5120    -9.1890     0.1770 C.2   1 <1>   0.0360 
 20 N       -3.4730    -9.2700     1.0390 N.2   1 <1>  -0.5650 
 21 C       -5.9940    -7.6530    -0.2630 C.3   1 <1>   0.2630 
 22 C       -6.0740    -6.8670    -2.5820 C.3   1 <1>   0.2630 
 23 H        1.1470    -2.3310     2.6010 H     1 <1>   0.1500 
 24 H        0.3430    -4.3120    -1.8260 H     1 <1>   0.1500 
 25 H        3.7200    -4.2690    -1.0680 H     1 <1>   0.0800 
 26 H        3.3820    -2.6790    -1.7110 H     1 <1>   0.0800 
 27 H        2.6220    -4.0840    -2.4120 H     1 <1>   0.0800 
 28 H       -1.1250    -3.0480     1.9640 H     1 <1>   0.1500 
 29 H       -2.5290    -5.6070     2.4860 H     1 <1>   0.0800 
 30 H       -1.0290    -5.7770     1.6080 H     1 <1>   0.0800 
 31 H       -4.5460    -4.1410     0.0860 H     1 <1>   0.0800 
 32 H       -4.6020    -5.5870     1.0630 H     1 <1>   0.0800 
 33 H       -3.7010    -6.7800    -1.0840 H     1 <1>   0.0800 
 34 H       -4.1710    -5.3210    -1.9120 H     1 <1>   0.0800 
 35 H       -1.0510    -7.7390    -0.3720 H     1 <1>   0.2700 
 36 H       -4.0880    -7.8890     2.5160 H     1 <1>   0.1500 
 37 H       -6.4420    -5.7220    -0.9060 H     1 <1>   0.4500 
 38 H       -2.2470    -9.9760    -0.5100 H     1 <1>   0.1500 
 39 H       -5.3000    -8.4420    -0.5080 H     1 <1>   0.0800 
 40 H       -6.9970    -8.0340    -0.3600 H     1 <1>   0.0800 
 41 H       -5.8330    -7.3730     0.7650 H     1 <1>   0.0800 
 42 H       -5.4070    -7.6540    -2.8950 H     1 <1>   0.0800 
 43 H       -5.9410    -6.0220    -3.2390 H     1 <1>   0.0800 
 44 H       -7.0890    -7.2180    -2.6760 H     1 <1>   0.0800 
@<TRIPOS>BOND
  1   1   2  1   
  2   2   3  ar  
  3   2   4  ar  
  4   3   5  ar  
  5   3   6  1   
  6   4   7  ar  
  7   4  23  1   
  8   5   8  ar  
  9   5  24  1   
 10   6  25  1   
 11   6  26  1   
 12   6  27  1   
 13   7   8  ar  
 14   7  28  1   
 15   8   9  1   
 16   9  10  2   
 17   9  11  am  
 18  11  12  1   
 19  11  13  1   
 20  12  14  1   
 21  12  29  1   
 22  12  30  1   
 23  13  15  1   
 24  13  31  1   
 25  13  32  1   
 26  14  16  1   
 27  14  17  2   
 28  15  18  1   
 29  15  33  1   
 30  15  34  1   
 31  16  19  1   
 32  16  35  1   
 33  17  20  1   
 34  17  36  1   
 35  18  21  1   
 36  18  22  1   
 37  18  37  1   
 38  19  20  2   
 39  19  38  1   
 40  21  39  1   
 41  21  40  1   
 42  21  41  1   
 43  22  42  1   
 44  22  43  1   
 45  22  44  1   
@<TRIPOS>SUBSTRUCTURE
  1 ****  11 GROUP 4 **** **** 0

# MOE 2024.06 (io_trps.svl 2023.06)
