@<TRIPOS>MOLECULE
NONAME
50 52 1 0 0 
SMALL
USER_CHARGES


@<TRIPOS>ATOM
  1 O        0.3190     0.2300     0.0970 O.3   1 <1>  -0.5600 
  2 C        0.2130     1.5990     0.3660 C.3   1 <1>   0.2950 
  3 C        1.6080    -0.2990     0.2000 C.3   1 <1>   0.2000 
  4 C       -1.2630     1.9800     0.2510 C.3   1 <1>  -0.1950 
  5 C        1.0760     2.3990    -0.6350 C.3   1 <1>   0.3430 
  6 C        2.5420     0.3930    -0.8220 C.3   1 <1>   0.3430 
  7 C        1.4900    -1.8080    -0.0380 C.3   1 <1>  -0.1600 
  8 C       -1.8180     3.1590     0.9880 C.3   1 <1>  -0.2000 
  9 C       -2.2070     1.7640     1.3910 C.3   1 <1>  -0.2000 
 10 N        2.4900     1.8880    -0.7050 N.4   1 <1>  -0.9590 
 11 C        2.8240    -2.5500     0.1500 C.3   1 <1>  -0.1600 
 12 C        3.2990     2.6110    -1.7300 C.3   1 <1>   0.4860 
 13 C        2.6380    -4.0600    -0.0310 C.3   1 <1>  -0.1600 
 14 C        3.6210     4.0080    -1.2030 C.ar  1 <1>   0.1670 
 15 C        3.9630    -4.8050     0.1530 C.3   1 <1>  -0.2400 
 16 N        3.8240     4.1050     0.1090 N.ar  1 <1>  -0.6200 
 17 C        3.6760     5.0800    -2.0800 C.ar  1 <1>  -0.1500 
 18 C        4.1020     5.3170     0.5630 C.ar  1 <1>   0.1670 
 19 C        3.9610     6.3370    -1.5930 C.ar  1 <1>  -0.1500 
 20 C        4.1790     6.4450    -0.2370 C.ar  1 <1>  -0.1500 
 21 C        4.3470     5.4310     2.0540 C.3   1 <1>  -0.0970 
 22 H        0.5520     1.7740     1.3730 H     1 <1>   0.0800 
 23 H        1.9620    -0.1290     1.2040 H     1 <1>   0.0800 
 24 H       -1.6540     1.7940    -0.7360 H     1 <1>   0.1000 
 25 H        1.0740     3.4370    -0.3460 H     1 <1>   0.0800 
 26 H        0.6120     2.3240    -1.6040 H     1 <1>   0.0800 
 27 H        2.2350     0.0930    -1.8100 H     1 <1>   0.0800 
 28 H        3.5510     0.0470    -0.6690 H     1 <1>   0.0800 
 29 H        0.7740    -2.2050     0.6620 H     1 <1>   0.0800 
 30 H        1.1150    -1.9870    -1.0320 H     1 <1>   0.0800 
 31 H       -1.2010     3.7200     1.6700 H     1 <1>   0.1000 
 32 H       -2.5630     3.7740     0.5130 H     1 <1>   0.1000 
 33 H       -3.2040     1.4190     1.1740 H     1 <1>   0.1000 
 34 H       -1.8280     1.3620     2.3150 H     1 <1>   0.1000 
 35 H        2.9450     2.1890     0.1770 H     1 <1>   0.4500 
 36 H        3.5510    -2.2050    -0.5650 H     1 <1>   0.0800 
 37 H        3.2060    -2.3610     1.1400 H     1 <1>   0.0800 
 38 H        4.2280     2.0920    -1.8920 H     1 <1>   0.0800 
 39 H        2.7660     2.6720    -2.6640 H     1 <1>   0.0800 
 40 H        1.9250    -4.4280     0.6880 H     1 <1>   0.0800 
 41 H        2.2510    -4.2670    -1.0150 H     1 <1>   0.0800 
 42 H        4.3570    -4.6360     1.1400 H     1 <1>   0.0800 
 43 H        4.6870    -4.4780    -0.5720 H     1 <1>   0.0800 
 44 H        3.8090    -5.8630     0.0260 H     1 <1>   0.0800 
 45 H        3.5030     4.9510    -3.1350 H     1 <1>   0.1500 
 46 H        4.0140     7.1970    -2.2400 H     1 <1>   0.1500 
 47 H        4.4090     7.4050     0.1920 H     1 <1>   0.1500 
 48 H        4.5750     6.4430     2.3340 H     1 <1>   0.0800 
 49 H        5.1740     4.8040     2.3330 H     1 <1>   0.0800 
 50 H        3.4730     5.1130     2.5920 H     1 <1>   0.0800 
@<TRIPOS>BOND
  1   1   2  1   
  2   1   3  1   
  3   2   4  1   
  4   2   5  1   
  5   2  22  1   
  6   3   6  1   
  7   3   7  1   
  8   3  23  1   
  9   4   8  1   
 10   4   9  1   
 11   4  24  1   
 12   5  10  1   
 13   5  25  1   
 14   5  26  1   
 15   6  10  1   
 16   6  27  1   
 17   6  28  1   
 18   7  11  1   
 19   7  29  1   
 20   7  30  1   
 21   8   9  1   
 22   8  31  1   
 23   8  32  1   
 24   9  33  1   
 25   9  34  1   
 26  10  12  1   
 27  10  35  1   
 28  11  13  1   
 29  11  36  1   
 30  11  37  1   
 31  12  14  1   
 32  12  38  1   
 33  12  39  1   
 34  13  15  1   
 35  13  40  1   
 36  13  41  1   
 37  14  16  ar  
 38  14  17  ar  
 39  15  42  1   
 40  15  43  1   
 41  15  44  1   
 42  16  18  ar  
 43  17  19  ar  
 44  17  45  1   
 45  18  20  ar  
 46  18  21  1   
 47  19  20  ar  
 48  19  46  1   
 49  20  47  1   
 50  21  48  1   
 51  21  49  1   
 52  21  50  1   
@<TRIPOS>SUBSTRUCTURE
  1 ****  10 GROUP 4 **** **** 0

# MOE 2024.06 (io_trps.svl 2023.06)
