@<TRIPOS>MOLECULE
NONAME
52 55 1 0 0 
SMALL
USER_CHARGES


@<TRIPOS>ATOM
  1 O        1.3950    -4.4570    -1.4310 O.2   1 <1>  -0.5700 
  2 C        1.6340    -3.3780    -0.9340 C.2   1 <1>   0.6900 
  3 N        2.8740    -2.8640    -0.7190 N.am  1 <1>  -0.6600 
  4 N        0.6770    -2.5530    -0.4590 N.am  1 <1>  -0.4900 
  5 C        2.7340    -1.6100     0.0840 C.3   1 <1>   0.2010 
  6 C        4.1590    -3.6310    -0.7180 C.3   1 <1>   0.2010 
  7 C        1.2210    -1.4890     0.1670 C.2   1 <1>   0.5690 
  8 C        4.1580    -4.8050     0.2720 C.2   1 <1>   0.5690 
  9 O        0.6060    -0.6050     0.7010 O.2   1 <1>  -0.5700 
 10 O        4.1610    -4.5280     1.4500 O.2   1 <1>  -0.5700 
 11 N        4.1430    -6.1260    -0.1240 N.am  1 <1>  -0.6600 
 12 C        4.2790    -7.1820     0.9350 C.3   1 <1>   0.2200 
 13 C        3.7880    -6.5700    -1.5000 C.3   1 <1>   0.1400 
 14 C        4.8700    -8.5210     0.4200 C.3   1 <1>   0.1200 
 15 C        2.9250    -7.3370     1.6700 C.3   1 <1>   0.3430 
 16 C        2.7510    -7.7000    -1.4930 C.3   1 <1>  -0.0800 
 17 O        3.8990    -9.3810    -0.1200 O.3   1 <1>  -0.5600 
 18 N        1.8550    -8.0230     0.8660 N.4   1 <1>  -0.9590 
 19 C        3.4260    -9.0860    -1.4030 C.3   1 <1>   0.1200 
 20 C        1.5990    -7.4450    -0.4930 C.3   1 <1>   0.3430 
 21 C        0.6100    -8.2410     1.6410 C.3   1 <1>   0.4860 
 22 C       -0.2640    -9.2180     0.8800 C.ar  1 <1>  -0.1440 
 23 C        0.1320   -10.5390     0.7210 C.ar  1 <1>  -0.1500 
 24 C       -1.4630    -8.7930     0.3230 C.ar  1 <1>  -0.1500 
 25 C       -0.6570   -11.4210     0.0040 C.ar  1 <1>  -0.1500 
 26 C       -2.2500    -9.6770    -0.3920 C.ar  1 <1>  -0.1500 
 27 C       -1.8470   -10.9900    -0.5530 C.ar  1 <1>  -0.1500 
 28 H       -0.3180    -2.7140    -0.5570 H     1 <1>   0.3700 
 29 H        3.1600    -1.7250     1.0650 H     1 <1>   0.0800 
 30 H        3.1590    -0.7670    -0.4310 H     1 <1>   0.0800 
 31 H        4.3700    -3.9680    -1.7140 H     1 <1>   0.0800 
 32 H        4.9560    -2.9680    -0.4350 H     1 <1>   0.0800 
 33 H        4.9860    -6.8090     1.6560 H     1 <1>   0.0800 
 34 H        3.3730    -5.7500    -2.0580 H     1 <1>   0.0800 
 35 H        4.6800    -6.8830    -2.0160 H     1 <1>   0.0800 
 36 H        5.3030    -9.0470     1.2540 H     1 <1>   0.0800 
 37 H        5.6510    -8.3560    -0.3020 H     1 <1>   0.0800 
 38 H        2.5880    -6.3570     1.9660 H     1 <1>   0.0800 
 39 H        3.1010    -7.9060     2.5680 H     1 <1>   0.0800 
 40 H        2.3020    -7.6620    -2.4710 H     1 <1>   0.0800 
 41 H        2.2560    -8.9550     0.6530 H     1 <1>   0.4500 
 42 H        4.2500    -9.1630    -2.0930 H     1 <1>   0.0800 
 43 H        2.7120    -9.8530    -1.6570 H     1 <1>   0.0800 
 44 H        0.7130    -7.9000    -0.9040 H     1 <1>   0.0800 
 45 H        1.4110    -6.3900    -0.4080 H     1 <1>   0.0800 
 46 H        0.8420    -8.6530     2.6090 H     1 <1>   0.0800 
 47 H        0.0910    -7.3070     1.7790 H     1 <1>   0.0800 
 48 H        1.0530   -10.8990     1.1490 H     1 <1>   0.1500 
 49 H       -1.7970    -7.7760     0.4370 H     1 <1>   0.1500 
 50 H       -0.3490   -12.4460    -0.1190 H     1 <1>   0.1500 
 51 H       -3.1810    -9.3480    -0.8240 H     1 <1>   0.1500 
 52 H       -2.4610   -11.6780    -1.1100 H     1 <1>   0.1500 
@<TRIPOS>BOND
  1   1   2  2   
  2   2   3  am  
  3   2   4  am  
  4   3   5  1   
  5   3   6  1   
  6   4   7  am  
  7   4  28  1   
  8   5   7  1   
  9   5  29  1   
 10   5  30  1   
 11   6   8  1   
 12   6  31  1   
 13   6  32  1   
 14   7   9  2   
 15   8  10  2   
 16   8  11  am  
 17  11  12  1   
 18  11  13  1   
 19  12  14  1   
 20  12  15  1   
 21  12  33  1   
 22  13  16  1   
 23  13  34  1   
 24  13  35  1   
 25  14  17  1   
 26  14  36  1   
 27  14  37  1   
 28  15  18  1   
 29  15  38  1   
 30  15  39  1   
 31  16  19  1   
 32  16  20  1   
 33  16  40  1   
 34  17  19  1   
 35  18  20  1   
 36  18  21  1   
 37  18  41  1   
 38  19  42  1   
 39  19  43  1   
 40  20  44  1   
 41  20  45  1   
 42  21  22  1   
 43  21  46  1   
 44  21  47  1   
 45  22  23  ar  
 46  22  24  ar  
 47  23  25  ar  
 48  23  48  1   
 49  24  26  ar  
 50  24  49  1   
 51  25  27  ar  
 52  25  50  1   
 53  26  27  ar  
 54  26  51  1   
 55  27  52  1   
@<TRIPOS>SUBSTRUCTURE
  1 ****  20 GROUP 4 **** **** 0

# MOE 2024.06 (io_trps.svl 2023.06)
