@<TRIPOS>MOLECULE
NONAME
46 47 1 0 0 
SMALL
USER_CHARGES


@<TRIPOS>ATOM
  1 O        0.1030    -0.2560     0.7590 O.2   1 <1>  -0.5700 
  2 C        1.1440    -0.8260     0.4840 C.2   1 <1>   0.5440 
  3 N        2.2970    -0.1030     0.3190 N.am  1 <1>  -0.4930 
  4 C        1.1770    -2.2670     0.3510 C.ar  1 <1>   0.0860 
  5 C        2.5020     1.3000     0.3420 C.2   1 <1>   0.0630 
  6 C        0.3300    -3.0780     1.1110 C.ar  1 <1>  -0.1500 
  7 C        2.0490    -2.9120    -0.5330 C.ar  1 <1>  -0.1500 
  8 C        3.6910     1.9390     0.2590 C.2   1 <1>  -0.3320 
  9 C        1.5580     2.3230     0.4460 C.2   1 <1>   0.1390 
 10 C        0.3620    -4.4540     1.0100 C.ar  1 <1>  -0.1500 
 11 C        2.0830    -4.2880    -0.6330 C.ar  1 <1>  -0.1500 
 12 N        3.4210     3.2700     0.3120 N.pl3 1 <1>   0.3140 
 13 C        5.0930     1.3580     0.1330 C.3   1 <1>  -0.0600 
 14 N        2.1020     3.5020     0.4280 N.2   1 <1>  -0.7070 
 15 C        1.2440    -5.0810     0.1370 C.ar  1 <1>   0.1000 
 16 C        4.3820     4.3930     0.2630 C.3   1 <1>   0.0960 
 17 N        1.2930    -6.4580     0.0190 N.pl3 1 <1>  -0.8380 
 18 C        4.6730     4.8130    -1.1830 C.3   1 <1>  -0.2400 
 19 C        1.7150    -7.2310     1.2130 C.3   1 <1>   0.2090 
 20 C        0.2660    -7.0970    -0.8410 C.3   1 <1>   0.2090 
 21 C        2.7610    -8.2590     0.7980 C.3   1 <1>  -0.2400 
 22 C        0.8700    -7.3480    -2.2170 C.3   1 <1>  -0.2400 
 23 H        3.1490    -0.6460     0.2130 H     1 <1>   0.3700 
 24 H       -0.3630    -2.6100     1.7900 H     1 <1>   0.1500 
 25 H        2.7020    -2.3320    -1.1600 H     1 <1>   0.1500 
 26 H        0.4980     2.1590     0.5310 H     1 <1>   0.1500 
 27 H       -0.2980    -5.0580     1.6030 H     1 <1>   0.1500 
 28 H        2.7570    -4.7770    -1.3120 H     1 <1>   0.1500 
 29 H        5.0620     0.2850     0.1100 H     1 <1>   0.0800 
 30 H        5.6950     1.6600     0.9710 H     1 <1>   0.0800 
 31 H        5.5570     1.7030    -0.7740 H     1 <1>   0.0800 
 32 H        5.2870     4.0980     0.7590 H     1 <1>   0.0800 
 33 H        3.9540     5.2190     0.8020 H     1 <1>   0.0800 
 34 H        5.1070     3.9990    -1.7340 H     1 <1>   0.0800 
 35 H        5.3580     5.6410    -1.1930 H     1 <1>   0.0800 
 36 H        3.7600     5.1190    -1.6640 H     1 <1>   0.0800 
 37 H        0.8640    -7.7170     1.6600 H     1 <1>   0.0800 
 38 H        2.1440    -6.5620     1.9400 H     1 <1>   0.0800 
 39 H       -0.5880    -6.4460    -0.9320 H     1 <1>   0.0800 
 40 H       -0.0610    -8.0270    -0.4080 H     1 <1>   0.0800 
 41 H        2.3370    -8.9720     0.1150 H     1 <1>   0.0800 
 42 H        3.1180    -8.7840     1.6640 H     1 <1>   0.0800 
 43 H        3.5910    -7.7630     0.3280 H     1 <1>   0.0800 
 44 H        1.1560    -6.4150    -2.6660 H     1 <1>   0.0800 
 45 H        0.1460    -7.8270    -2.8500 H     1 <1>   0.0800 
 46 H        1.7320    -7.9830    -2.1330 H     1 <1>   0.0800 
@<TRIPOS>BOND
  1   1   2  2   
  2   2   3  am  
  3   2   4  1   
  4   3   5  1   
  5   3  23  1   
  6   4   6  ar  
  7   4   7  ar  
  8   5   8  2   
  9   5   9  1   
 10   6  10  ar  
 11   6  24  1   
 12   7  11  ar  
 13   7  25  1   
 14   8  12  1   
 15   8  13  1   
 16   9  14  2   
 17   9  26  1   
 18  10  15  ar  
 19  10  27  1   
 20  11  15  ar  
 21  11  28  1   
 22  12  14  1   
 23  12  16  1   
 24  13  29  1   
 25  13  30  1   
 26  13  31  1   
 27  15  17  1   
 28  16  18  1   
 29  16  32  1   
 30  16  33  1   
 31  17  19  1   
 32  17  20  1   
 33  18  34  1   
 34  18  35  1   
 35  18  36  1   
 36  19  21  1   
 37  19  37  1   
 38  19  38  1   
 39  20  22  1   
 40  20  39  1   
 41  20  40  1   
 42  21  41  1   
 43  21  42  1   
 44  21  43  1   
 45  22  44  1   
 46  22  45  1   
 47  22  46  1   
@<TRIPOS>SUBSTRUCTURE
  1 ****   4 GROUP 4 **** **** 0

# MOE 2024.06 (io_trps.svl 2023.06)
