@<TRIPOS>MOLECULE
NONAME
47 49 1 0 0 
SMALL
USER_CHARGES


@<TRIPOS>ATOM
  1 O       -1.6070     0.3680     1.7360 O.2   1 <1>  -0.5700 
  2 C       -1.9360     0.7670     0.6280 C.2   1 <1>   0.7160 
  3 N       -2.8170    -0.0140    -0.0920 N.am  1 <1>  -0.6600 
  4 C       -1.4180     2.0400     0.1280 C.2   1 <1>   0.2030 
  5 C       -2.7680    -1.5050     0.0710 C.3   1 <1>   0.3640 
  6 C       -4.0630     0.5860    -0.6450 C.3   1 <1>   0.1400 
  7 N       -1.6080     2.5780    -1.0690 N.2   1 <1>  -0.7070 
  8 C       -0.6040     2.8830     0.8970 C.2   1 <1>  -0.1500 
  9 C       -1.3490    -1.9760    -0.2730 C.ar  1 <1>  -0.1430 
 10 C       -3.7840    -2.2960    -0.8140 C.3   1 <1>   0.2000 
 11 C       -4.7100    -0.3240    -1.6870 C.3   1 <1>   0.1200 
 12 N       -0.9260     3.7310    -1.0570 N.pl3 1 <1>   0.3000 
 13 C       -0.3110     3.9440     0.1220 C.2   1 <1>  -0.3320 
 14 C       -0.6280    -2.7450     0.6290 C.ar  1 <1>  -0.1500 
 15 C       -0.7610    -1.6390    -1.4870 C.ar  1 <1>  -0.1500 
 16 O       -4.9480    -1.5710    -1.1150 O.3   1 <1>  -0.5600 
 17 C       -4.2600    -3.6070    -0.1650 C.3   1 <1>   0.1200 
 18 C        0.5380     5.1630     0.4370 C.3   1 <1>   0.0200 
 19 C        0.6470    -3.1850     0.3200 C.ar  1 <1>  -0.1500 
 20 C        0.5140    -2.0770    -1.7980 C.ar  1 <1>  -0.1500 
 21 O       -3.2010    -4.4010     0.2650 O.3   1 <1>  -0.6800 
 22 C       -0.3250     6.4290     0.4800 C.3   1 <1>  -0.1600 
 23 C        1.2180    -2.8530    -0.8950 C.ar  1 <1>  -0.1500 
 24 C        0.5090     7.6660     0.8280 C.3   1 <1>  -0.2400 
 25 H       -2.9740    -1.7310     1.1030 H     1 <1>   0.0800 
 26 H       -4.7600     0.7480     0.1590 H     1 <1>   0.0800 
 27 H       -3.8560     1.5370    -1.0990 H     1 <1>   0.0800 
 28 H       -0.2950     2.6770     1.9080 H     1 <1>   0.1500 
 29 H       -3.3220    -2.5350    -1.7550 H     1 <1>   0.0800 
 30 H       -4.0780    -0.4390    -2.5500 H     1 <1>   0.0800 
 31 H       -5.6570     0.0820    -1.9970 H     1 <1>   0.0800 
 32 H       -0.8920     4.3610    -1.8680 H     1 <1>   0.2700 
 33 H       -1.0610    -3.0050     1.5810 H     1 <1>   0.1500 
 34 H       -1.2940    -1.0240    -2.1910 H     1 <1>   0.1500 
 35 H       -4.8350    -4.1780    -0.8730 H     1 <1>   0.0800 
 36 H       -4.8700    -3.3920     0.6950 H     1 <1>   0.0800 
 37 H        1.0130     5.0220     1.3920 H     1 <1>   0.0800 
 38 H        1.3120     5.2650    -0.3050 H     1 <1>   0.0800 
 39 H        1.1940    -3.7820     1.0290 H     1 <1>   0.1500 
 40 H        0.9590    -1.8090    -2.7400 H     1 <1>   0.1500 
 41 H       -2.5220    -4.5010    -0.4340 H     1 <1>   0.4000 
 42 H       -0.7990     6.5800    -0.4740 H     1 <1>   0.0800 
 43 H       -1.0980     6.3020     1.2180 H     1 <1>   0.0800 
 44 H        2.2110    -3.1940    -1.1350 H     1 <1>   0.1500 
 45 H        1.2780     7.8240     0.0920 H     1 <1>   0.0800 
 46 H        0.9710     7.5500     1.7930 H     1 <1>   0.0800 
 47 H       -0.1210     8.5380     0.8550 H     1 <1>   0.0800 
@<TRIPOS>BOND
  1   1   2  2   
  2   2   3  am  
  3   2   4  1   
  4   3   5  1   
  5   3   6  1   
  6   4   7  2   
  7   4   8  1   
  8   5   9  1   
  9   5  10  1   
 10   5  25  1   
 11   6  11  1   
 12   6  26  1   
 13   6  27  1   
 14   7  12  1   
 15   8  13  2   
 16   8  28  1   
 17   9  14  ar  
 18   9  15  ar  
 19  10  16  1   
 20  10  17  1   
 21  10  29  1   
 22  11  16  1   
 23  11  30  1   
 24  11  31  1   
 25  12  13  1   
 26  12  32  1   
 27  13  18  1   
 28  14  19  ar  
 29  14  33  1   
 30  15  20  ar  
 31  15  34  1   
 32  17  21  1   
 33  17  35  1   
 34  17  36  1   
 35  18  22  1   
 36  18  37  1   
 37  18  38  1   
 38  19  23  ar  
 39  19  39  1   
 40  20  23  ar  
 41  20  40  1   
 42  21  41  1   
 43  22  24  1   
 44  22  42  1   
 45  22  43  1   
 46  23  44  1   
 47  24  45  1   
 48  24  46  1   
 49  24  47  1   
@<TRIPOS>SUBSTRUCTURE
  1 ****   2 GROUP 4 **** **** 0

# MOE 2024.06 (io_trps.svl 2023.06)
