@<TRIPOS>MOLECULE
NONAME
45 46 1 0 0 
SMALL
USER_CHARGES


@<TRIPOS>ATOM
  1 F        0.7630    -1.3170     2.4350 F     1 <1>  -0.1900 
  2 C        0.4860    -2.3260     1.6550 C.ar  1 <1>   0.1900 
  3 C        0.3580    -3.5840     2.2110 C.ar  1 <1>  -0.1500 
  4 C        0.3310    -2.1000     0.3010 C.ar  1 <1>  -0.1500 
  5 C        0.0600    -4.6510     1.3810 C.ar  1 <1>  -0.1500 
  6 C        0.0330    -3.1730    -0.5220 C.ar  1 <1>  -0.1500 
  7 C       -0.1080    -4.4490     0.0140 C.ar  1 <1>  -0.1430 
  8 C       -0.4500    -5.6190    -0.8900 C.3   1 <1>   0.4870 
  9 N       -1.8320    -6.0670    -0.5890 N.4   1 <1>  -0.9590 
 10 C       -2.1900    -7.3570    -1.2500 C.3   1 <1>   0.3430 
 11 C       -2.8690    -5.0350    -0.8090 C.3   1 <1>   0.3430 
 12 C       -3.6630    -7.7600    -1.0120 C.3   1 <1>   0.2000 
 13 C       -4.1450    -5.4270    -0.0530 C.3   1 <1>  -0.1600 
 14 O       -3.7120    -9.1220    -0.7510 O.3   1 <1>  -0.6800 
 15 C       -4.4100    -6.9590     0.1040 C.3   1 <1>   0.0000 
 16 C       -3.9870    -7.4090     1.5360 C.3   1 <1>   0.1200 
 17 C       -5.9440    -7.2210     0.0400 C.3   1 <1>  -0.1600 
 18 O       -2.6210    -7.2700     1.7720 O.3   1 <1>  -0.6800 
 19 C       -6.6380    -7.0330    -1.3250 C.3   1 <1>  -0.1600 
 20 C       -8.1570    -7.1470    -1.1770 C.3   1 <1>  -0.2400 
 21 H        0.4930    -3.7150     3.2710 H     1 <1>   0.1500 
 22 H        0.4450    -1.1040    -0.0910 H     1 <1>   0.1500 
 23 H       -0.0360    -5.6330     1.8120 H     1 <1>   0.1500 
 24 H       -0.0840    -2.9980    -1.5790 H     1 <1>   0.1500 
 25 H        0.2460    -6.4220    -0.7090 H     1 <1>   0.0800 
 26 H       -0.3710    -5.3240    -1.9240 H     1 <1>   0.0800 
 27 H       -1.8740    -6.2740     0.4300 H     1 <1>   0.4500 
 28 H       -2.0260    -7.2780    -2.3120 H     1 <1>   0.0800 
 29 H       -1.5540    -8.1380    -0.8670 H     1 <1>   0.0800 
 30 H       -2.5310    -4.0730    -0.4560 H     1 <1>   0.0800 
 31 H       -3.0790    -4.9540    -1.8640 H     1 <1>   0.0800 
 32 H       -4.1640    -7.6170    -1.9520 H     1 <1>   0.0800 
 33 H       -4.1070    -4.9670     0.9190 H     1 <1>   0.0800 
 34 H       -4.9600    -4.9450    -0.5590 H     1 <1>   0.0800 
 35 H       -3.3810    -9.3230     0.1470 H     1 <1>   0.4000 
 36 H       -4.2460    -8.4410     1.7030 H     1 <1>   0.0800 
 37 H       -4.5060    -6.8200     2.2750 H     1 <1>   0.0800 
 38 H       -6.1370    -8.2360     0.3490 H     1 <1>   0.0800 
 39 H       -6.4310    -6.5820     0.7590 H     1 <1>   0.0800 
 40 H       -2.4230    -7.5310     2.7010 H     1 <1>   0.4000 
 41 H       -6.4100    -6.0760    -1.7560 H     1 <1>   0.0800 
 42 H       -6.3160    -7.7970    -2.0120 H     1 <1>   0.0800 
 43 H       -8.5360    -6.3810    -0.5230 H     1 <1>   0.0800 
 44 H       -8.4270    -8.1090    -0.7770 H     1 <1>   0.0800 
 45 H       -8.6300    -7.0370    -2.1380 H     1 <1>   0.0800 
@<TRIPOS>BOND
  1   1   2  1   
  2   2   3  ar  
  3   2   4  ar  
  4   3   5  ar  
  5   3  21  1   
  6   4   6  ar  
  7   4  22  1   
  8   5   7  ar  
  9   5  23  1   
 10   6   7  ar  
 11   6  24  1   
 12   7   8  1   
 13   8   9  1   
 14   8  25  1   
 15   8  26  1   
 16   9  10  1   
 17   9  11  1   
 18   9  27  1   
 19  10  12  1   
 20  10  28  1   
 21  10  29  1   
 22  11  13  1   
 23  11  30  1   
 24  11  31  1   
 25  12  14  1   
 26  12  15  1   
 27  12  32  1   
 28  13  15  1   
 29  13  33  1   
 30  13  34  1   
 31  14  35  1   
 32  15  16  1   
 33  15  17  1   
 34  16  18  1   
 35  16  36  1   
 36  16  37  1   
 37  17  19  1   
 38  17  38  1   
 39  17  39  1   
 40  18  40  1   
 41  19  20  1   
 42  19  41  1   
 43  19  42  1   
 44  20  43  1   
 45  20  44  1   
 46  20  45  1   
@<TRIPOS>SUBSTRUCTURE
  1 ****   9 GROUP 4 **** **** 0

# MOE 2024.06 (io_trps.svl 2023.06)
