@<TRIPOS>MOLECULE
NONAME
54 58 1 0 0 
SMALL
USER_CHARGES


@<TRIPOS>ATOM
  1 O       -1.0690     0.2830    -0.6060 O.2   1 <1>  -0.5700 
  2 C       -1.5760     0.8300     0.3590 C.2   1 <1>   0.7160 
  3 N       -2.4830     0.0670     1.0790 N.am  1 <1>  -0.6600 
  4 C       -1.2580     2.2240     0.6670 C.2   1 <1>   0.2030 
  5 C       -3.7990     0.6040     1.5380 C.3   1 <1>   0.1400 
  6 C       -2.4400    -1.4220     1.0150 C.3   1 <1>   0.1400 
  7 N       -1.7590     2.9610     1.6470 N.2   1 <1>  -0.7070 
  8 C       -0.3430     2.9800    -0.0700 C.2   1 <1>  -0.1500 
  9 C       -4.9500     0.0800     0.6480 C.3   1 <1>   0.4230 
 10 C       -3.5520    -1.9370     0.0860 C.3   1 <1>   0.3430 
 11 N       -1.1570     4.1540     1.5300 N.pl3 1 <1>   0.3000 
 12 C       -0.2900     4.2100     0.4950 C.2   1 <1>  -0.2050 
 13 N       -4.9190    -1.4320     0.4970 N.4   1 <1>  -0.9590 
 14 C       -4.9250     0.7740    -0.7360 C.3   1 <1>   0.1200 
 15 C        0.4770     5.3760     0.1360 C.ar  1 <1>   0.0530 
 16 C       -6.0070    -1.8560    -0.4450 C.3   1 <1>   0.5180 
 17 O       -5.9720     0.3020    -1.5380 O.3   1 <1>  -0.5600 
 18 C        0.6950     5.6940    -1.2000 C.ar  1 <1>  -0.1500 
 19 C        1.0200     6.2210     1.1010 C.ar  1 <1>  -0.1500 
 20 C       -5.9550    -3.3750    -0.6550 C.3   1 <1>  -0.1950 
 21 C       -5.9550    -1.0780    -1.7780 C.3   1 <1>   0.1200 
 22 C        1.4180     6.8160    -1.5630 C.ar  1 <1>  -0.1500 
 23 C        1.7420     7.3450     0.7430 C.ar  1 <1>  -0.1500 
 24 C       -7.2250    -4.1620    -0.7480 C.3   1 <1>  -0.2000 
 25 C       -6.3190    -4.3350     0.4370 C.3   1 <1>  -0.2000 
 26 C        1.9440     7.6520    -0.5920 C.ar  1 <1>  -0.1430 
 27 C        2.7370     8.8840    -0.9880 C.3   1 <1>  -0.0970 
 28 H       -3.9630     0.3090     2.5600 H     1 <1>   0.0800 
 29 H       -3.8130     1.6780     1.5130 H     1 <1>   0.0800 
 30 H       -1.4830    -1.7540     0.6490 H     1 <1>   0.0800 
 31 H       -2.5640    -1.8280     2.0040 H     1 <1>   0.0800 
 32 H        0.2090     2.6240    -0.9220 H     1 <1>   0.1500 
 33 H       -5.8770     0.3660     1.1190 H     1 <1>   0.0800 
 34 H       -3.5390    -3.0140     0.0940 H     1 <1>   0.0800 
 35 H       -3.3260    -1.6110    -0.9160 H     1 <1>   0.0800 
 36 H       -1.3510     4.9430     2.1600 H     1 <1>   0.2700 
 37 H       -5.1400    -1.8510     1.4060 H     1 <1>   0.4500 
 38 H       -3.9930     0.6040    -1.2480 H     1 <1>   0.0800 
 39 H       -5.0580     1.8360    -0.6220 H     1 <1>   0.0800 
 40 H       -6.9560    -1.6290     0.0130 H     1 <1>   0.0800 
 41 H        0.2910     5.0550    -1.9650 H     1 <1>   0.1500 
 42 H        0.8900     5.9960     2.1430 H     1 <1>   0.1500 
 43 H       -5.1900    -3.6710    -1.3530 H     1 <1>   0.1000 
 44 H       -6.8180    -1.3150    -2.3750 H     1 <1>   0.0800 
 45 H       -5.0730    -1.3210    -2.3440 H     1 <1>   0.0800 
 46 H        1.5700     7.0360    -2.6050 H     1 <1>   0.1500 
 47 H        2.1520     7.9800     1.5080 H     1 <1>   0.1500 
 48 H       -8.1780    -3.6830    -0.5920 H     1 <1>   0.1000 
 49 H       -7.2920    -4.9710    -1.4580 H     1 <1>   0.1000 
 50 H       -5.7830    -5.2660     0.5250 H     1 <1>   0.1000 
 51 H       -6.6820    -3.9840     1.3880 H     1 <1>   0.1000 
 52 H        2.3870     9.2710    -1.9270 H     1 <1>   0.0800 
 53 H        3.7780     8.6300    -1.0830 H     1 <1>   0.0800 
 54 H        2.6330     9.6530    -0.2440 H     1 <1>   0.0800 
@<TRIPOS>BOND
  1   1   2  2   
  2   2   3  am  
  3   2   4  1   
  4   3   5  1   
  5   3   6  1   
  6   4   7  2   
  7   4   8  1   
  8   5   9  1   
  9   5  28  1   
 10   5  29  1   
 11   6  10  1   
 12   6  30  1   
 13   6  31  1   
 14   7  11  1   
 15   8  12  2   
 16   8  32  1   
 17   9  13  1   
 18   9  14  1   
 19   9  33  1   
 20  10  13  1   
 21  10  34  1   
 22  10  35  1   
 23  11  12  1   
 24  11  36  1   
 25  12  15  1   
 26  13  16  1   
 27  13  37  1   
 28  14  17  1   
 29  14  38  1   
 30  14  39  1   
 31  15  18  ar  
 32  15  19  ar  
 33  16  20  1   
 34  16  21  1   
 35  16  40  1   
 36  17  21  1   
 37  18  22  ar  
 38  18  41  1   
 39  19  23  ar  
 40  19  42  1   
 41  20  24  1   
 42  20  25  1   
 43  20  43  1   
 44  21  44  1   
 45  21  45  1   
 46  22  26  ar  
 47  22  46  1   
 48  23  26  ar  
 49  23  47  1   
 50  24  25  1   
 51  24  48  1   
 52  24  49  1   
 53  25  50  1   
 54  25  51  1   
 55  26  27  1   
 56  27  52  1   
 57  27  53  1   
 58  27  54  1   
@<TRIPOS>SUBSTRUCTURE
  1 ****   2 GROUP 4 **** **** 0

# MOE 2024.06 (io_trps.svl 2023.06)
