@<TRIPOS>MOLECULE
NONAME
56 59 1 0 0 
SMALL
USER_CHARGES


@<TRIPOS>ATOM
  1 O        0.5050    -0.4350     0.5790 O.3   1 <1>  -0.2800 
  2 C       -0.0890    -0.9580    -0.4700 C.2   1 <1>   0.2980 
  3 C        0.9640    -1.4410     1.2680 C.2   1 <1>  -0.0100 
  4 N       -0.0530    -2.2440    -0.5080 N.2   1 <1>  -0.5650 
  5 C       -0.7420    -0.0370    -1.4990 C.3   1 <1>   0.1000 
  6 C        0.6330    -2.5640     0.6140 C.2   1 <1>   0.0460 
  7 C        0.2860     0.9210    -2.1160 C.3   1 <1>  -0.2400 
  8 C       -1.9010     0.7520    -0.8760 C.3   1 <1>  -0.2400 
  9 C        0.8950    -4.0200     0.9610 C.3   1 <1>   0.5240 
 10 N       -0.3520    -4.7870     0.6880 N.4   1 <1>  -0.9590 
 11 C       -1.4260    -4.4800     1.6730 C.3   1 <1>   0.3430 
 12 C       -0.1090    -6.2420     0.5040 C.3   1 <1>   0.3430 
 13 C       -2.7290    -5.1350     1.2260 C.3   1 <1>  -0.1600 
 14 C       -1.3950    -6.9200     0.0440 C.3   1 <1>  -0.1600 
 15 C       -2.5620    -6.6460     1.0040 C.3   1 <1>   0.1010 
 16 C       -3.8480    -7.2380     0.4480 C.2   1 <1>   0.1080 
 17 N       -4.3470    -6.8840    -0.6960 N.2   1 <1>  -0.7070 
 18 C       -4.6220    -8.2040     1.0830 C.2   1 <1>  -0.1500 
 19 N       -5.4690    -7.6230    -0.8220 N.pl3 1 <1>   0.3000 
 20 C       -5.6520    -8.4320     0.2410 C.2   1 <1>  -0.3320 
 21 C       -6.8330    -9.3780     0.3660 C.3   1 <1>   0.1630 
 22 C       -8.0530    -8.8070    -0.3430 C.ar  1 <1>  -0.1440 
 23 C       -8.6890    -7.6850     0.1670 C.ar  1 <1>  -0.1500 
 24 C       -8.5330    -9.3890    -1.5070 C.ar  1 <1>  -0.1500 
 25 C       -9.7900    -7.1500    -0.4780 C.ar  1 <1>  -0.1500 
 26 C       -9.6350    -8.8550    -2.1530 C.ar  1 <1>  -0.1500 
 27 C      -10.2630    -7.7350    -1.6390 C.ar  1 <1>  -0.1500 
 28 H        1.4980    -1.2510     2.1830 H     1 <1>   0.1500 
 29 H       -1.1400    -0.6550    -2.2860 H     1 <1>   0.0800 
 30 H        0.7010     1.5670    -1.3620 H     1 <1>   0.0800 
 31 H       -0.1750     1.5280    -2.8760 H     1 <1>   0.0800 
 32 H        1.0870     0.3610    -2.5660 H     1 <1>   0.0800 
 33 H       -1.5400     1.3920    -0.0890 H     1 <1>   0.0800 
 34 H       -2.6270     0.0760    -0.4620 H     1 <1>   0.0800 
 35 H       -2.3840     1.3590    -1.6200 H     1 <1>   0.0800 
 36 H        1.1950    -4.1190     1.9900 H     1 <1>   0.0800 
 37 H        1.6880    -4.3800     0.3270 H     1 <1>   0.0800 
 38 H       -0.6770    -4.3870    -0.2120 H     1 <1>   0.4500 
 39 H       -1.5730    -3.4130     1.7390 H     1 <1>   0.0800 
 40 H       -1.1500    -4.8490     2.6470 H     1 <1>   0.0800 
 41 H        0.2180    -6.6800     1.4330 H     1 <1>   0.0800 
 42 H        0.6590    -6.3990    -0.2370 H     1 <1>   0.0800 
 43 H       -3.0640    -4.6670     0.3160 H     1 <1>   0.0800 
 44 H       -3.4880    -4.9670     1.9690 H     1 <1>   0.0800 
 45 H       -1.2350    -7.9820    -0.0260 H     1 <1>   0.0800 
 46 H       -1.6450    -6.5700    -0.9430 H     1 <1>   0.0800 
 47 H       -2.3540    -7.1160     1.9490 H     1 <1>   0.0800 
 48 H       -4.4240    -8.6580     2.0380 H     1 <1>   0.1500 
 49 H       -6.1070    -7.5450    -1.6270 H     1 <1>   0.2700 
 50 H       -7.0620    -9.5400     1.4050 H     1 <1>   0.0800 
 51 H       -6.5690   -10.3290    -0.0630 H     1 <1>   0.0800 
 52 H       -8.3240    -7.2210     1.0680 H     1 <1>   0.1500 
 53 H       -8.0540   -10.2610    -1.9190 H     1 <1>   0.1500 
 54 H      -10.2770    -6.2790    -0.0770 H     1 <1>   0.1500 
 55 H      -10.0040    -9.3110    -3.0550 H     1 <1>   0.1500 
 56 H      -11.1200    -7.3200    -2.1410 H     1 <1>   0.1500 
@<TRIPOS>BOND
  1   1   2  1   
  2   1   3  1   
  3   2   4  2   
  4   2   5  1   
  5   3   6  2   
  6   3  28  1   
  7   4   6  1   
  8   5   7  1   
  9   5   8  1   
 10   5  29  1   
 11   6   9  1   
 12   7  30  1   
 13   7  31  1   
 14   7  32  1   
 15   8  33  1   
 16   8  34  1   
 17   8  35  1   
 18   9  10  1   
 19   9  36  1   
 20   9  37  1   
 21  10  11  1   
 22  10  12  1   
 23  10  38  1   
 24  11  13  1   
 25  11  39  1   
 26  11  40  1   
 27  12  14  1   
 28  12  41  1   
 29  12  42  1   
 30  13  15  1   
 31  13  43  1   
 32  13  44  1   
 33  14  15  1   
 34  14  45  1   
 35  14  46  1   
 36  15  16  1   
 37  15  47  1   
 38  16  17  2   
 39  16  18  1   
 40  17  19  1   
 41  18  20  2   
 42  18  48  1   
 43  19  20  1   
 44  19  49  1   
 45  20  21  1   
 46  21  22  1   
 47  21  50  1   
 48  21  51  1   
 49  22  23  ar  
 50  22  24  ar  
 51  23  25  ar  
 52  23  52  1   
 53  24  26  ar  
 54  24  53  1   
 55  25  27  ar  
 56  25  54  1   
 57  26  27  ar  
 58  26  55  1   
 59  27  56  1   
@<TRIPOS>SUBSTRUCTURE
  1 ****  13 GROUP 4 **** **** 0

# MOE 2024.06 (io_trps.svl 2023.06)
