@<TRIPOS>MOLECULE
NONAME
51 53 1 0 0 
SMALL
USER_CHARGES


@<TRIPOS>ATOM
  1 O       -0.6380    -1.7440    -1.0280 O.2   1 <1>  -0.5700 
  2 C       -1.1080    -0.9060    -0.2800 C.2   1 <1>   0.7150 
  3 N       -0.4060     0.2490    -0.0590 N.am  1 <1>  -0.7300 
  4 C       -2.3880    -1.1140     0.3640 C.2   1 <1>   0.0550 
  5 C        0.9120     0.5930    -0.6540 C.3   1 <1>   0.0600 
  6 O       -2.9900    -2.2990     0.3070 O.3   1 <1>  -0.2800 
  7 C       -3.1860    -0.2710     1.0810 C.2   1 <1>  -0.1500 
  8 C       -4.1330    -2.2390     0.9550 C.2   1 <1>  -0.0400 
  9 C       -4.3150    -1.0000     1.4590 C.2   1 <1>  -0.1500 
 10 C       -5.0070    -3.4780     1.0100 C.3   1 <1>   0.5230 
 11 N       -4.9660    -4.1030    -0.3440 N.4   1 <1>  -0.9590 
 12 C       -4.8370    -5.6080    -0.2600 C.3   1 <1>   0.3430 
 13 C       -6.1070    -3.6410    -1.1850 C.3   1 <1>   0.3430 
 14 C       -6.1060    -6.3870    -0.6940 C.3   1 <1>   0.2000 
 15 C       -7.4580    -4.2700    -0.7920 C.3   1 <1>  -0.1600 
 16 O       -6.1510    -6.4470    -2.0920 O.3   1 <1>  -0.6800 
 17 C       -7.3690    -5.6890    -0.1390 C.3   1 <1>  -0.1060 
 18 C       -7.1480    -5.6100     1.3820 C.2   1 <1>   0.9060 
 19 C       -8.6440    -6.5350    -0.4040 C.3   1 <1>  -0.0170 
 20 O       -7.4240    -4.5840     2.0080 O.co2 1 <1>  -0.9000 
 21 O       -6.5270    -6.5260     1.9280 O.co2 1 <1>  -0.9000 
 22 C       -9.9530    -5.7600    -0.2770 C.ar  1 <1>  -0.1440 
 23 C      -10.7080    -5.4740    -1.4060 C.ar  1 <1>  -0.1500 
 24 C      -10.4090    -5.3360     0.9620 C.ar  1 <1>  -0.1500 
 25 C      -11.8970    -4.7730    -1.2990 C.ar  1 <1>  -0.1500 
 26 C      -11.5960    -4.6340     1.0710 C.ar  1 <1>  -0.1500 
 27 C      -12.3420    -4.3510    -0.0590 C.ar  1 <1>  -0.1500 
 28 H       -0.7840     0.9260     0.6030 H     1 <1>   0.3700 
 29 H        1.2310    -0.1730    -1.3420 H     1 <1>   0.0800 
 30 H        1.6500     0.6860     0.1230 H     1 <1>   0.0800 
 31 H        0.8400     1.5250    -1.1870 H     1 <1>   0.0800 
 32 H       -3.0140     0.7620     1.3240 H     1 <1>   0.1500 
 33 H       -5.1450    -0.6240     2.0350 H     1 <1>   0.1500 
 34 H       -6.0090    -3.1930     1.2770 H     1 <1>   0.0800 
 35 H       -4.6320    -4.1620     1.7540 H     1 <1>   0.0800 
 36 H       -4.0910    -3.7340    -0.7430 H     1 <1>   0.4500 
 37 H       -4.0150    -5.9410    -0.8700 H     1 <1>   0.0800 
 38 H       -4.6130    -5.8840     0.7580 H     1 <1>   0.0800 
 39 H       -6.1830    -2.5660    -1.1540 H     1 <1>   0.0800 
 40 H       -5.9020    -3.9240    -2.2050 H     1 <1>   0.0800 
 41 H       -6.0360    -7.4000    -0.3310 H     1 <1>   0.0800 
 42 H       -7.9980    -3.5950    -0.1510 H     1 <1>   0.0800 
 43 H       -8.0340    -4.3340    -1.6970 H     1 <1>   0.0800 
 44 H       -6.8830    -7.0300    -2.3760 H     1 <1>   0.4000 
 45 H       -8.6050    -6.9550    -1.3910 H     1 <1>   0.0800 
 46 H       -8.6680    -7.3660     0.2820 H     1 <1>   0.0800 
 47 H      -10.3770    -5.7960    -2.3770 H     1 <1>   0.1500 
 48 H       -9.8390    -5.5440     1.8520 H     1 <1>   0.1500 
 49 H      -12.4770    -4.5560    -2.1790 H     1 <1>   0.1500 
 50 H      -11.9320    -4.3080     2.0400 H     1 <1>   0.1500 
 51 H      -13.2650    -3.8050     0.0280 H     1 <1>   0.1500 
@<TRIPOS>BOND
  1   1   2  2   
  2   2   3  am  
  3   2   4  1   
  4   3   5  1   
  5   3  28  1   
  6   4   6  1   
  7   4   7  2   
  8   5  29  1   
  9   5  30  1   
 10   5  31  1   
 11   6   8  1   
 12   7   9  1   
 13   7  32  1   
 14   8   9  2   
 15   8  10  1   
 16   9  33  1   
 17  10  11  1   
 18  10  34  1   
 19  10  35  1   
 20  11  12  1   
 21  11  13  1   
 22  11  36  1   
 23  12  14  1   
 24  12  37  1   
 25  12  38  1   
 26  13  15  1   
 27  13  39  1   
 28  13  40  1   
 29  14  16  1   
 30  14  17  1   
 31  14  41  1   
 32  15  17  1   
 33  15  42  1   
 34  15  43  1   
 35  16  44  1   
 36  17  18  1   
 37  17  19  1   
 38  18  20  ar  
 39  18  21  ar  
 40  19  22  1   
 41  19  45  1   
 42  19  46  1   
 43  22  23  ar  
 44  22  24  ar  
 45  23  25  ar  
 46  23  47  1   
 47  24  26  ar  
 48  24  48  1   
 49  25  27  ar  
 50  25  49  1   
 51  26  27  ar  
 52  26  50  1   
 53  27  51  1   
@<TRIPOS>SUBSTRUCTURE
  1 ****  11 GROUP 4 **** **** 0

# MOE 2024.06 (io_trps.svl 2023.06)
