@<TRIPOS>MOLECULE
NONAME
55 58 1 0 0 
SMALL
USER_CHARGES


@<TRIPOS>ATOM
  1 O       -1.1100     0.4700    -0.5820 O.2   1 <1>  -0.5700 
  2 C       -2.2030     0.8590    -0.2430 C.2   1 <1>   0.5690 
  3 N       -3.2500    -0.0160    -0.1110 N.am  1 <1>  -0.6600 
  4 C       -2.3980     2.3580     0.0160 C.3   1 <1>  -0.0190 
  5 C       -4.6550     0.3030     0.2460 C.3   1 <1>   0.1400 
  6 C       -3.0960    -1.4690    -0.3680 C.3   1 <1>   0.1400 
  7 C       -2.6190     3.1140    -1.3070 C.3   1 <1>  -0.1600 
  8 C       -1.2120     2.9800     0.7790 C.3   1 <1>  -0.1600 
  9 C       -5.4080    -1.0240     0.1320 C.3   1 <1>   0.2000 
 10 C       -4.3440    -2.1150     0.2350 C.3   1 <1>  -0.0800 
 11 C       -2.8010     4.6170    -1.0770 C.3   1 <1>   0.1400 
 12 C       -1.4070     4.4830     0.9980 C.3   1 <1>   0.1400 
 13 O       -6.3380    -1.1680     1.1500 O.3   1 <1>  -0.6800 
 14 C       -4.7650    -3.4230    -0.4550 C.3   1 <1>  -0.0170 
 15 N       -1.6410     5.1550    -0.3120 N.am  1 <1>  -0.6600 
 16 C       -3.6790    -4.4800    -0.3450 C.ar  1 <1>   0.1670 
 17 C       -0.8260     6.1760    -0.7310 C.2   1 <1>   0.5690 
 18 N       -2.7660    -4.4940    -1.2660 N.ar  1 <1>  -0.6200 
 19 C       -3.7070    -5.3730     0.7380 C.ar  1 <1>  -0.1500 
 20 O        0.0640     6.6170    -0.0440 O.2   1 <1>  -0.5700 
 21 C       -1.0140     6.8040    -2.0920 C.3   1 <1>  -0.1790 
 22 C       -1.7810    -5.4240    -1.1670 C.ar  1 <1>   0.3100 
 23 C       -2.7340    -6.3190     0.8600 C.ar  1 <1>  -0.1500 
 24 C       -1.7240    -6.3640    -0.1150 C.ar  1 <1>   0.0000 
 25 C       -0.7750    -5.4540    -2.1450 C.ar  1 <1>  -0.1500 
 26 C       -0.6670    -7.2950    -0.0850 C.ar  1 <1>  -0.1500 
 27 C        0.2450    -6.3670    -2.0980 C.ar  1 <1>  -0.1500 
 28 C        0.2980    -7.2980    -1.0560 C.ar  1 <1>  -0.1500 
 29 H       -3.2680     2.4940     0.6290 H     1 <1>   0.0800 
 30 H       -4.6900     0.6750     1.2540 H     1 <1>   0.0800 
 31 H       -5.0610     1.0270    -0.4380 H     1 <1>   0.0800 
 32 H       -3.0520    -1.6340    -1.4320 H     1 <1>   0.0800 
 33 H       -2.1940    -1.8500     0.0820 H     1 <1>   0.0800 
 34 H       -3.4860     2.7230    -1.8080 H     1 <1>   0.0800 
 35 H       -1.7720     2.9590    -1.9540 H     1 <1>   0.0800 
 36 H       -0.3000     2.8310     0.2270 H     1 <1>   0.0800 
 37 H       -1.0980     2.4930     1.7300 H     1 <1>   0.0800 
 38 H       -5.9260    -1.0690    -0.8110 H     1 <1>   0.0800 
 39 H       -4.1270    -2.3110     1.2710 H     1 <1>   0.0800 
 40 H       -3.6990     4.7920    -0.5100 H     1 <1>   0.0800 
 41 H       -2.9090     5.1110    -2.0250 H     1 <1>   0.0800 
 42 H       -0.5340     4.8870     1.4840 H     1 <1>   0.0800 
 43 H       -2.2530     4.6590     1.6390 H     1 <1>   0.0800 
 44 H       -5.8910    -1.1980     2.0180 H     1 <1>   0.4000 
 45 H       -4.9680    -3.2400    -1.4950 H     1 <1>   0.0800 
 46 H       -5.6710    -3.7900    -0.0080 H     1 <1>   0.0800 
 47 H       -4.4980    -5.3000     1.4610 H     1 <1>   0.1500 
 48 H       -0.9210     6.0550    -2.8550 H     1 <1>   0.0800 
 49 H       -0.2590     7.5520    -2.2530 H     1 <1>   0.0800 
 50 H       -1.9780     7.2720    -2.1480 H     1 <1>   0.0800 
 51 H       -2.7220    -7.0210     1.6740 H     1 <1>   0.1500 
 52 H       -0.8330    -4.7290    -2.9360 H     1 <1>   0.1500 
 53 H       -0.6310    -8.0070     0.7200 H     1 <1>   0.1500 
 54 H        1.0110    -6.3780    -2.8550 H     1 <1>   0.1500 
 55 H        1.1050    -8.0100    -1.0310 H     1 <1>   0.1500 
@<TRIPOS>BOND
  1   1   2  2   
  2   2   3  am  
  3   2   4  1   
  4   3   5  1   
  5   3   6  1   
  6   4   7  1   
  7   4   8  1   
  8   4  29  1   
  9   5   9  1   
 10   5  30  1   
 11   5  31  1   
 12   6  10  1   
 13   6  32  1   
 14   6  33  1   
 15   7  11  1   
 16   7  34  1   
 17   7  35  1   
 18   8  12  1   
 19   8  36  1   
 20   8  37  1   
 21   9  10  1   
 22   9  13  1   
 23   9  38  1   
 24  10  14  1   
 25  10  39  1   
 26  11  15  1   
 27  11  40  1   
 28  11  41  1   
 29  12  15  1   
 30  12  42  1   
 31  12  43  1   
 32  13  44  1   
 33  14  16  1   
 34  14  45  1   
 35  14  46  1   
 36  15  17  am  
 37  16  18  ar  
 38  16  19  ar  
 39  17  20  2   
 40  17  21  1   
 41  18  22  ar  
 42  19  23  ar  
 43  19  47  1   
 44  21  48  1   
 45  21  49  1   
 46  21  50  1   
 47  22  24  ar  
 48  22  25  ar  
 49  23  24  ar  
 50  23  51  1   
 51  24  26  ar  
 52  25  27  ar  
 53  25  52  1   
 54  26  28  ar  
 55  26  53  1   
 56  27  28  ar  
 57  27  54  1   
 58  28  55  1   
@<TRIPOS>SUBSTRUCTURE
  1 ****   6 GROUP 4 **** **** 0

# MOE 2024.06 (io_trps.svl 2023.06)
