@<TRIPOS>MOLECULE
NONAME
55 56 1 0 0 
SMALL
USER_CHARGES


@<TRIPOS>ATOM
  1 O       -0.5780     0.7710     0.8350 O.2   1 <1>  -0.5700 
  2 C       -0.4620     1.9020     0.4390 C.2   1 <1>   0.5690 
  3 N       -1.2760     2.8800     0.8950 N.am  1 <1>  -0.7300 
  4 C        0.5970     2.2460    -0.6120 C.3   1 <1>   0.1810 
  5 C       -1.1930     4.2910     0.4500 C.3   1 <1>   0.3640 
  6 O        0.8820     3.6280    -0.6660 O.3   1 <1>  -0.5600 
  7 C       -2.6010     4.8090     0.1750 C.ar  1 <1>  -0.1440 
  8 C       -0.2690     4.4560    -0.7840 C.3   1 <1>   0.2610 
  9 C       -2.9510     6.0840     0.5980 C.ar  1 <1>  -0.1500 
 10 C       -3.5400     4.0440    -0.5080 C.ar  1 <1>  -0.1500 
 11 C        0.1370     5.9250    -0.9120 C.2   1 <1>   0.5690 
 12 C       -4.2110     6.5960     0.3420 C.ar  1 <1>   0.0830 
 13 C       -4.8100     4.5410    -0.7490 C.ar  1 <1>  -0.1500 
 14 O       -0.5930     6.6890    -1.4980 O.2   1 <1>  -0.5700 
 15 N        1.3070     6.3230    -0.3430 N.am  1 <1>  -0.7300 
 16 O       -4.4570     7.8680     0.7330 O.3   1 <1>  -0.3630 
 17 C       -5.1610     5.8080    -0.3160 C.ar  1 <1>   0.0830 
 18 C        1.9180     7.6630    -0.3100 C.3   1 <1>   0.3000 
 19 C       -4.5610     8.8110    -0.3110 C.3   1 <1>   0.0400 
 20 O       -6.4290     6.2230    -0.5620 O.3   1 <1>  -0.3630 
 21 C        0.8810     8.7380     0.1020 C.3   1 <1>   0.1200 
 22 C        2.4970     7.9500    -1.6970 C.3   1 <1>  -0.2400 
 23 C        3.0530     7.5760     0.7150 C.3   1 <1>  -0.2400 
 24 C       -7.2290     6.5280     0.5590 C.3   1 <1>   0.0400 
 25 O        1.4970     9.9750     0.3230 O.3   1 <1>  -0.5600 
 26 C        0.6100    10.9930     0.6360 C.3   1 <1>   0.1200 
 27 C        1.4250    12.2610     0.8520 C.3   1 <1>  -0.2400 
 28 H       -1.9950     2.6450     1.5810 H     1 <1>   0.3700 
 29 H        0.2570     1.9300    -1.5820 H     1 <1>   0.0800 
 30 H        1.5110     1.7310    -0.3800 H     1 <1>   0.0800 
 31 H       -0.7720     4.8620     1.2600 H     1 <1>   0.0800 
 32 H       -0.7960     4.1720    -1.6770 H     1 <1>   0.0800 
 33 H       -2.2460     6.7080     1.1150 H     1 <1>   0.1500 
 34 H       -3.2940     3.0560    -0.8560 H     1 <1>   0.1500 
 35 H       -5.5380     3.9470    -1.2720 H     1 <1>   0.1500 
 36 H        1.9310     5.5760    -0.0280 H     1 <1>   0.3700 
 37 H       -4.6840     9.7860     0.1250 H     1 <1>   0.0800 
 38 H       -5.4120     8.5700    -0.9220 H     1 <1>   0.0800 
 39 H       -3.6600     8.7780    -0.8980 H     1 <1>   0.0800 
 40 H        0.3910     8.4410     1.0120 H     1 <1>   0.0800 
 41 H        0.1520     8.8660    -0.6790 H     1 <1>   0.0800 
 42 H        2.9970     8.9030    -1.6940 H     1 <1>   0.0800 
 43 H        1.7090     7.9900    -2.4280 H     1 <1>   0.0800 
 44 H        3.2050     7.1930    -1.9810 H     1 <1>   0.0800 
 45 H        3.5810     8.5120     0.7590 H     1 <1>   0.0800 
 46 H        3.7570     6.8100     0.4450 H     1 <1>   0.0800 
 47 H        2.6580     7.3720     1.6940 H     1 <1>   0.0800 
 48 H       -8.2430     6.6490     0.2250 H     1 <1>   0.0800 
 49 H       -6.8820     7.4400     1.0090 H     1 <1>   0.0800 
 50 H       -7.1670     5.7160     1.2630 H     1 <1>   0.0800 
 51 H       -0.0790    11.1190    -0.1840 H     1 <1>   0.0800 
 52 H        0.0740    10.7270     1.5320 H     1 <1>   0.0800 
 53 H        1.9660    12.5080    -0.0440 H     1 <1>   0.0800 
 54 H        2.1190    12.1190     1.6620 H     1 <1>   0.0800 
 55 H        0.7720    13.0780     1.0970 H     1 <1>   0.0800 
@<TRIPOS>BOND
  1   1   2  2   
  2   2   3  am  
  3   2   4  1   
  4   3   5  1   
  5   3  28  1   
  6   4   6  1   
  7   4  29  1   
  8   4  30  1   
  9   5   7  1   
 10   5   8  1   
 11   5  31  1   
 12   6   8  1   
 13   7   9  ar  
 14   7  10  ar  
 15   8  11  1   
 16   8  32  1   
 17   9  12  ar  
 18   9  33  1   
 19  10  13  ar  
 20  10  34  1   
 21  11  14  2   
 22  11  15  am  
 23  12  16  1   
 24  12  17  ar  
 25  13  17  ar  
 26  13  35  1   
 27  15  18  1   
 28  15  36  1   
 29  16  19  1   
 30  17  20  1   
 31  18  21  1   
 32  18  22  1   
 33  18  23  1   
 34  19  37  1   
 35  19  38  1   
 36  19  39  1   
 37  20  24  1   
 38  21  25  1   
 39  21  40  1   
 40  21  41  1   
 41  22  42  1   
 42  22  43  1   
 43  22  44  1   
 44  23  45  1   
 45  23  46  1   
 46  23  47  1   
 47  24  48  1   
 48  24  49  1   
 49  24  50  1   
 50  25  26  1   
 51  26  27  1   
 52  26  51  1   
 53  26  52  1   
 54  27  53  1   
 55  27  54  1   
 56  27  55  1   
@<TRIPOS>SUBSTRUCTURE
  1 ****  11 GROUP 4 **** **** 0

# MOE 2024.06 (io_trps.svl 2023.06)
