@<TRIPOS>MOLECULE
NONAME
47 49 1 0 0 
SMALL
USER_CHARGES


@<TRIPOS>ATOM
  1 S        0.9620    -0.4700    -0.5310 S.3   1 <1>  -0.0800 
  2 C        1.6390     1.0500    -1.0040 C.2   1 <1>   0.4620 
  3 C       -0.6180     0.2640    -0.6000 C.2   1 <1>   0.3250 
  4 N        0.7330     1.9460    -1.1710 N.2   1 <1>  -0.3380 
  5 N        3.0040     1.2180    -1.1380 N.pl3 1 <1>  -0.8220 
  6 N       -0.5280     1.5050    -0.9370 N.2   1 <1>  -0.3380 
  7 C       -1.7980    -0.5140    -0.2970 C.ar  1 <1>   0.0530 
  8 C        3.5400     2.3800    -1.9270 C.3   1 <1>   0.2090 
  9 C        3.9600     0.0920    -0.9100 C.3   1 <1>   0.1290 
 10 C       -3.0650     0.0650    -0.4160 C.ar  1 <1>  -0.1500 
 11 C       -1.7530    -1.8490     0.1200 C.ar  1 <1>  -0.1500 
 12 C        4.0220     3.5140    -0.9990 C.3   1 <1>   0.3430 
 13 C       -4.2200    -0.6410    -0.1370 C.ar  1 <1>  -0.1500 
 14 C       -2.9050    -2.5610     0.4010 C.ar  1 <1>  -0.1500 
 15 N        3.0330     3.7630     0.0950 N.4   1 <1>  -0.9590 
 16 C       -4.1420    -1.9590     0.2740 C.ar  1 <1>  -0.1500 
 17 C        1.9240     4.6750    -0.3300 C.3   1 <1>   0.4230 
 18 C        3.7020     4.1070     1.3850 C.3   1 <1>   0.2630 
 19 C        2.3590     6.1390    -0.4290 C.3   1 <1>  -0.1600 
 20 C        0.7940     4.6870     0.6970 C.3   1 <1>  -0.1600 
 21 C        2.0330     6.8030     0.9140 C.3   1 <1>  -0.1600 
 22 C        1.0050     5.9030     1.6080 C.3   1 <1>  -0.1600 
 23 H        2.7730     2.7610    -2.5800 H     1 <1>   0.0800 
 24 H        4.3530     2.0560    -2.5540 H     1 <1>   0.0800 
 25 H        3.6850    -0.4660    -0.0310 H     1 <1>   0.0800 
 26 H        4.9590     0.4680    -0.7700 H     1 <1>   0.0800 
 27 H        3.9520    -0.5700    -1.7600 H     1 <1>   0.0800 
 28 H       -3.1470     1.0900    -0.7360 H     1 <1>   0.1500 
 29 H       -0.8110    -2.3540     0.2320 H     1 <1>   0.1500 
 30 H        4.1960     4.4120    -1.5680 H     1 <1>   0.0800 
 31 H        4.9600     3.2070    -0.5680 H     1 <1>   0.0800 
 32 H       -5.1810    -0.1660    -0.2390 H     1 <1>   0.1500 
 33 H       -2.8410    -3.5870     0.7200 H     1 <1>   0.1500 
 34 H        2.5800     2.8350     0.2030 H     1 <1>   0.4500 
 35 H       -5.0400    -2.5120     0.4920 H     1 <1>   0.1500 
 36 H        1.5370     4.3380    -1.2790 H     1 <1>   0.0800 
 37 H        4.2030     5.0570     1.3050 H     1 <1>   0.0800 
 38 H        4.4260     3.3520     1.6430 H     1 <1>   0.0800 
 39 H        2.9740     4.1650     2.1770 H     1 <1>   0.0800 
 40 H        1.7520     6.6070    -1.1840 H     1 <1>   0.0800 
 41 H        3.3900     6.2640    -0.7060 H     1 <1>   0.0800 
 42 H        0.7170     3.7640     1.2460 H     1 <1>   0.0800 
 43 H       -0.1300     4.8250     0.1610 H     1 <1>   0.0800 
 44 H        1.6380     7.7940     0.7630 H     1 <1>   0.0800 
 45 H        2.9180     6.8840     1.5210 H     1 <1>   0.0800 
 46 H        1.3690     5.5980     2.5740 H     1 <1>   0.0800 
 47 H        0.0740     6.4280     1.7520 H     1 <1>   0.0800 
@<TRIPOS>BOND
  1   1   2  1   
  2   1   3  1   
  3   2   4  2   
  4   2   5  1   
  5   3   6  2   
  6   3   7  1   
  7   4   6  1   
  8   5   8  1   
  9   5   9  1   
 10   7  10  ar  
 11   7  11  ar  
 12   8  12  1   
 13   8  23  1   
 14   8  24  1   
 15   9  25  1   
 16   9  26  1   
 17   9  27  1   
 18  10  13  ar  
 19  10  28  1   
 20  11  14  ar  
 21  11  29  1   
 22  12  15  1   
 23  12  30  1   
 24  12  31  1   
 25  13  16  ar  
 26  13  32  1   
 27  14  16  ar  
 28  14  33  1   
 29  15  17  1   
 30  15  18  1   
 31  15  34  1   
 32  16  35  1   
 33  17  19  1   
 34  17  20  1   
 35  17  36  1   
 36  18  37  1   
 37  18  38  1   
 38  18  39  1   
 39  19  21  1   
 40  19  40  1   
 41  19  41  1   
 42  20  22  1   
 43  20  42  1   
 44  20  43  1   
 45  21  22  1   
 46  21  44  1   
 47  21  45  1   
 48  22  46  1   
 49  22  47  1   
@<TRIPOS>SUBSTRUCTURE
  1 ****   4 GROUP 4 **** **** 0

# MOE 2024.06 (io_trps.svl 2023.06)
