@<TRIPOS>MOLECULE
NONAME
54 57 1 0 0 
SMALL
USER_CHARGES


@<TRIPOS>ATOM
  1 O       -0.1900     0.3710     1.0540 O.2   1 <1>  -0.5700 
  2 C        0.7950    -0.3400     1.0280 C.2   1 <1>   0.5440 
  3 N        2.0050     0.1410     0.5880 N.am  1 <1>  -0.4940 
  4 C        0.7240    -1.7210     1.4560 C.ar  1 <1>   0.0860 
  5 C        2.3700     1.4500     0.1790 C.2   1 <1>  -0.0880 
  6 C       -0.0090    -2.7030     0.7730 C.ar  1 <1>  -0.1430 
  7 C        1.4330    -2.0940     2.5970 C.ar  1 <1>  -0.1500 
  8 N        3.5650     1.8010    -0.3750 N.pl3 1 <1>   0.3140 
  9 C        1.6440     2.5900     0.2590 C.2   1 <1>  -0.1500 
 10 C       -0.0250    -4.0210     1.2360 C.ar  1 <1>   0.1170 
 11 C       -0.7990    -2.3370    -0.4900 C.3   1 <1>  -0.0960 
 12 C        1.4270    -3.3950     3.0540 C.ar  1 <1>  -0.1500 
 13 N        3.6140     3.1340    -0.6330 N.2   1 <1>  -0.7070 
 14 C        4.7080     0.8870    -0.6680 C.3   1 <1>   0.1760 
 15 C        2.4610     3.5870    -0.2540 C.2   1 <1>   0.1390 
 16 N       -0.7850    -4.9930     0.5690 N.am  1 <1>  -0.5470 
 17 C        0.7010    -4.3510     2.3750 C.ar  1 <1>  -0.1500 
 18 C        5.8860     1.0860     0.2880 C.3   1 <1>  -0.1600 
 19 C        5.3220     1.0810    -2.0550 C.3   1 <1>  -0.1600 
 20 C       -0.6540    -6.3490     0.4530 C.2   1 <1>   0.5690 
 21 C        7.1250     0.6010    -0.4750 C.3   1 <1>  -0.1600 
 22 C        6.7080     0.4470    -1.9430 C.3   1 <1>  -0.1600 
 23 O        0.2390    -6.9850     0.9620 O.2   1 <1>  -0.5700 
 24 C       -1.7080    -7.0790    -0.3900 C.3   1 <1>   0.2610 
 25 O       -2.5420    -6.1840    -1.0820 O.3   1 <1>  -0.5600 
 26 C       -2.6800    -7.9220     0.4280 C.3   1 <1>  -0.1600 
 27 C       -3.7200    -6.8270    -1.4500 C.3   1 <1>   0.1200 
 28 C       -3.9440    -7.9310    -0.4190 C.3   1 <1>  -0.1600 
 29 H        2.7380    -0.5660     0.5580 H     1 <1>   0.3700 
 30 H        1.9900    -1.3480     3.1390 H     1 <1>   0.1500 
 31 H        0.6460     2.7210     0.6370 H     1 <1>   0.1500 
 32 H       -0.4550    -1.4220    -0.9360 H     1 <1>   0.0800 
 33 H       -1.8390    -2.2160    -0.2420 H     1 <1>   0.0800 
 34 H       -0.7040    -3.1030    -1.2390 H     1 <1>   0.0800 
 35 H        1.9800    -3.6670     3.9370 H     1 <1>   0.1500 
 36 H        4.3700    -0.1290    -0.5940 H     1 <1>   0.0800 
 37 H        2.1780     4.6230    -0.3310 H     1 <1>   0.1500 
 38 H       -1.5620    -4.6410     0.0020 H     1 <1>   0.3700 
 39 H        0.6930    -5.3610     2.7420 H     1 <1>   0.1500 
 40 H        5.7460     0.5450     1.2070 H     1 <1>   0.0800 
 41 H        5.9980     2.1350     0.5050 H     1 <1>   0.0800 
 42 H        5.4350     2.1310    -2.2660 H     1 <1>   0.0800 
 43 H        4.7290     0.6210    -2.8260 H     1 <1>   0.0800 
 44 H        7.4680    -0.3430    -0.0870 H     1 <1>   0.0800 
 45 H        7.9200     1.3210    -0.3800 H     1 <1>   0.0800 
 46 H        7.4100     0.9210    -2.6080 H     1 <1>   0.0800 
 47 H        6.6470    -0.5990    -2.1910 H     1 <1>   0.0800 
 48 H       -1.2120    -7.6910    -1.1230 H     1 <1>   0.0800 
 49 H       -2.8660    -7.4410     1.3730 H     1 <1>   0.0800 
 50 H       -2.2890    -8.9080     0.6070 H     1 <1>   0.0800 
 51 H       -3.5840    -7.2370    -2.4370 H     1 <1>   0.0800 
 52 H       -4.5200    -6.1060    -1.4580 H     1 <1>   0.0800 
 53 H       -4.8160    -7.7290     0.1780 H     1 <1>   0.0800 
 54 H       -4.0750    -8.8750    -0.9180 H     1 <1>   0.0800 
@<TRIPOS>BOND
  1   1   2  2   
  2   2   3  am  
  3   2   4  1   
  4   3   5  1   
  5   3  29  1   
  6   4   6  ar  
  7   4   7  ar  
  8   5   8  1   
  9   5   9  2   
 10   6  10  ar  
 11   6  11  1   
 12   7  12  ar  
 13   7  30  1   
 14   8  13  1   
 15   8  14  1   
 16   9  15  1   
 17   9  31  1   
 18  10  16  1   
 19  10  17  ar  
 20  11  32  1   
 21  11  33  1   
 22  11  34  1   
 23  12  17  ar  
 24  12  35  1   
 25  13  15  2   
 26  14  18  1   
 27  14  19  1   
 28  14  36  1   
 29  15  37  1   
 30  16  20  am  
 31  16  38  1   
 32  17  39  1   
 33  18  21  1   
 34  18  40  1   
 35  18  41  1   
 36  19  22  1   
 37  19  42  1   
 38  19  43  1   
 39  20  23  2   
 40  20  24  1   
 41  21  22  1   
 42  21  44  1   
 43  21  45  1   
 44  22  46  1   
 45  22  47  1   
 46  24  25  1   
 47  24  26  1   
 48  24  48  1   
 49  25  27  1   
 50  26  28  1   
 51  26  49  1   
 52  26  50  1   
 53  27  28  1   
 54  27  51  1   
 55  27  52  1   
 56  28  53  1   
 57  28  54  1   
@<TRIPOS>SUBSTRUCTURE
  1 ****   4 GROUP 4 **** **** 0

# MOE 2024.06 (io_trps.svl 2023.06)
