@<TRIPOS>MOLECULE
NONAME
51 53 1 0 0 
SMALL
USER_CHARGES


@<TRIPOS>ATOM
  1 O       -1.2040     1.1710     1.9460 O.2   1 <1>  -0.5700 
  2 C       -1.5080     0.8300     0.8260 C.2   1 <1>   0.5690 
  3 N       -1.8220    -0.4910     0.6960 N.am  1 <1>  -0.7300 
  4 C       -1.4990     1.8780    -0.3610 C.3   1 <1>   0.3310 
  5 C       -1.9630    -1.4200    -0.4510 C.3   1 <1>   0.2200 
  6 N       -1.4130     3.3070     0.1160 N.3   1 <1>  -0.8100 
  7 C       -2.7590     1.7560    -1.2450 C.3   1 <1>  -0.2400 
  8 C       -0.2500     1.5940    -1.2170 C.3   1 <1>  -0.2400 
  9 C       -3.3110    -2.1330    -0.4190 C.3   1 <1>  -0.0800 
 10 C       -1.0210    -2.5980    -0.2340 C.3   1 <1>   0.1200 
 11 C       -1.1050     4.3810    -0.8620 C.3   1 <1>   0.1100 
 12 C       -2.5380     3.7420     0.9820 C.3   1 <1>   0.1100 
 13 C       -3.0620    -3.3010     0.5410 C.3   1 <1>   0.1200 
 14 C       -4.5330    -1.2720    -0.0450 C.3   1 <1>  -0.0170 
 15 O       -1.6780    -3.4360     0.6650 O.3   1 <1>  -0.5600 
 16 C       -0.8800     5.7300    -0.1550 C.3   1 <1>   0.1200 
 17 C       -2.2440     5.1060     1.6280 C.3   1 <1>   0.1200 
 18 C       -5.8070    -2.1020    -0.0530 C.ar  1 <1>  -0.1430 
 19 O       -1.9790     6.0630     0.6430 O.3   1 <1>  -0.5600 
 20 C       -6.4540    -2.4330    -1.2270 C.ar  1 <1>  -0.1500 
 21 C       -6.3830    -2.5670     1.1120 C.ar  1 <1>  -0.1500 
 22 C       -7.6090    -3.1950    -1.1810 C.ar  1 <1>   0.1600 
 23 C       -7.5420    -3.3230     1.0480 C.ar  1 <1>   0.1600 
 24 N       -8.1670    -3.6490    -0.0710 N.ar  1 <1>  -0.6200 
 25 H       -1.7510    -1.0010     1.5820 H     1 <1>   0.3700 
 26 H       -1.7650    -0.9400    -1.3890 H     1 <1>   0.0800 
 27 H       -2.7690     0.8370    -1.7920 H     1 <1>   0.0800 
 28 H       -2.8050     2.5460    -1.9700 H     1 <1>   0.0800 
 29 H       -3.6430     1.7880    -0.6370 H     1 <1>   0.0800 
 30 H       -0.1640     0.5500    -1.4400 H     1 <1>   0.0800 
 31 H        0.6300     1.8840    -0.6710 H     1 <1>   0.0800 
 32 H       -0.2850     2.1200    -2.1530 H     1 <1>   0.0800 
 33 H       -3.4840    -2.5560    -1.3930 H     1 <1>   0.0800 
 34 H       -0.0700    -2.3020     0.1740 H     1 <1>   0.0800 
 35 H       -0.8750    -3.1460    -1.1480 H     1 <1>   0.0800 
 36 H       -0.2070     4.1530    -1.4050 H     1 <1>   0.0800 
 37 H       -1.9110     4.4940    -1.5650 H     1 <1>   0.0800 
 38 H       -3.4400     3.8290     0.4040 H     1 <1>   0.0800 
 39 H       -2.7110     3.0310     1.7680 H     1 <1>   0.0800 
 40 H       -3.4740    -4.2230     0.1660 H     1 <1>   0.0800 
 41 H       -3.4560    -3.1020     1.5230 H     1 <1>   0.0800 
 42 H       -4.6380    -0.4690    -0.7510 H     1 <1>   0.0800 
 43 H       -4.4030    -0.8340     0.9290 H     1 <1>   0.0800 
 44 H       -0.7510     6.5150    -0.8790 H     1 <1>   0.0800 
 45 H       -0.0040     5.6840     0.4690 H     1 <1>   0.0800 
 46 H       -1.3930     5.0340     2.2830 H     1 <1>   0.0800 
 47 H       -3.0940     5.4420     2.1940 H     1 <1>   0.0800 
 48 H       -6.0720    -2.1060    -2.1770 H     1 <1>   0.1500 
 49 H       -5.9450    -2.3500     2.0690 H     1 <1>   0.1500 
 50 H       -8.1010    -3.4450    -2.1060 H     1 <1>   0.1500 
 51 H       -7.9780    -3.6780     1.9670 H     1 <1>   0.1500 
@<TRIPOS>BOND
  1   1   2  2   
  2   2   3  am  
  3   2   4  1   
  4   3   5  1   
  5   3  25  1   
  6   4   6  1   
  7   4   7  1   
  8   4   8  1   
  9   5   9  1   
 10   5  10  1   
 11   5  26  1   
 12   6  11  1   
 13   6  12  1   
 14   7  27  1   
 15   7  28  1   
 16   7  29  1   
 17   8  30  1   
 18   8  31  1   
 19   8  32  1   
 20   9  13  1   
 21   9  14  1   
 22   9  33  1   
 23  10  15  1   
 24  10  34  1   
 25  10  35  1   
 26  11  16  1   
 27  11  36  1   
 28  11  37  1   
 29  12  17  1   
 30  12  38  1   
 31  12  39  1   
 32  13  15  1   
 33  13  40  1   
 34  13  41  1   
 35  14  18  1   
 36  14  42  1   
 37  14  43  1   
 38  16  19  1   
 39  16  44  1   
 40  16  45  1   
 41  17  19  1   
 42  17  46  1   
 43  17  47  1   
 44  18  20  ar  
 45  18  21  ar  
 46  20  22  ar  
 47  20  48  1   
 48  21  23  ar  
 49  21  49  1   
 50  22  24  ar  
 51  22  50  1   
 52  23  24  ar  
 53  23  51  1   
@<TRIPOS>SUBSTRUCTURE
  1 ****   3 GROUP 4 **** **** 0

# MOE 2024.06 (io_trps.svl 2023.06)
