@<TRIPOS>MOLECULE
NONAME
49 51 1 0 0 
SMALL
USER_CHARGES


@<TRIPOS>ATOM
  1 F       -0.6150    -1.3370     0.6560 F     1 <1>  -0.1900 
  2 C        0.5630    -1.8150     0.3330 C.ar  1 <1>   0.1900 
  3 C        1.3810    -1.0920    -0.5190 C.ar  1 <1>   0.1900 
  4 C        0.9660    -3.0420     0.8450 C.ar  1 <1>  -0.1440 
  5 F        0.9820     0.0590    -0.9980 F     1 <1>  -0.1900 
  6 C        2.6260    -1.5680    -0.8820 C.ar  1 <1>  -0.1500 
  7 C        2.2200    -3.5180     0.4770 C.ar  1 <1>  -0.1500 
  8 C        0.0730    -3.8620     1.7740 C.3   1 <1>   0.0450 
  9 C        3.0410    -2.7910    -0.3760 C.ar  1 <1>  -0.1500 
 10 C       -0.8170    -4.8370     1.0180 C.2   1 <1>   0.5690 
 11 O       -1.0960    -5.9050     1.5150 O.2   1 <1>  -0.5700 
 12 N       -1.3670    -4.5040    -0.1870 N.am  1 <1>  -0.6600 
 13 C       -2.6290    -3.7040    -0.1650 C.3   1 <1>   0.1400 
 14 C       -1.3760    -5.5430    -1.2670 C.3   1 <1>   0.1400 
 15 C       -3.8640    -4.6190     0.0750 C.3   1 <1>   0.4230 
 16 C       -2.6980    -6.3490    -1.2870 C.3   1 <1>   0.3430 
 17 N       -3.5160    -6.0890    -0.0500 N.4   1 <1>  -0.9590 
 18 C       -5.0330    -4.2470    -0.8650 C.3   1 <1>   0.1200 
 19 C       -4.7400    -6.9350     0.1230 C.3   1 <1>   0.4230 
 20 O       -6.1250    -5.0960    -0.6520 O.3   1 <1>  -0.5600 
 21 C       -5.8710    -6.4650    -0.8240 C.3   1 <1>   0.1200 
 22 C       -4.3980    -8.4240    -0.0370 C.3   1 <1>  -0.1600 
 23 C       -5.5180    -9.3420     0.4780 C.3   1 <1>  -0.1600 
 24 C       -5.1070   -10.8130     0.3760 C.3   1 <1>  -0.2400 
 25 H        3.2530    -0.9960    -1.5430 H     1 <1>   0.1500 
 26 H        2.5700    -4.4650     0.8540 H     1 <1>   0.1500 
 27 H       -0.5460    -3.2160     2.3680 H     1 <1>   0.0800 
 28 H        0.6890    -4.4220     2.4540 H     1 <1>   0.0800 
 29 H        4.0090    -3.1790    -0.6460 H     1 <1>   0.1500 
 30 H       -2.5860    -2.9640     0.6160 H     1 <1>   0.0800 
 31 H       -2.7230    -3.1750    -1.0980 H     1 <1>   0.0800 
 32 H       -1.2200    -5.0720    -2.2220 H     1 <1>   0.0800 
 33 H       -0.5560    -6.2230    -1.1100 H     1 <1>   0.0800 
 34 H       -4.2040    -4.4370     1.0810 H     1 <1>   0.0800 
 35 H       -2.4550    -7.3960    -1.3630 H     1 <1>   0.0800 
 36 H       -3.2640    -6.0800    -2.1630 H     1 <1>   0.0800 
 37 H       -2.8570    -6.2790     0.7340 H     1 <1>   0.4500 
 38 H       -4.7440    -4.3130    -1.8990 H     1 <1>   0.0800 
 39 H       -5.3630    -3.2420    -0.6660 H     1 <1>   0.0800 
 40 H       -5.1000    -6.7970     1.1310 H     1 <1>   0.0800 
 41 H       -6.7850    -6.9870    -0.6010 H     1 <1>   0.0800 
 42 H       -5.6200    -6.6450    -1.8540 H     1 <1>   0.0800 
 43 H       -4.2140    -8.6560    -1.0710 H     1 <1>   0.0800 
 44 H       -3.5080    -8.6390     0.5280 H     1 <1>   0.0800 
 45 H       -5.7370    -9.1150     1.5080 H     1 <1>   0.0800 
 46 H       -6.4200    -9.2000    -0.0940 H     1 <1>   0.0800 
 47 H       -4.2270   -11.0060     0.9650 H     1 <1>   0.0800 
 48 H       -4.9050   -11.0840    -0.6460 H     1 <1>   0.0800 
 49 H       -5.9000   -11.4430     0.7400 H     1 <1>   0.0800 
@<TRIPOS>BOND
  1   1   2  1   
  2   2   3  ar  
  3   2   4  ar  
  4   3   5  1   
  5   3   6  ar  
  6   4   7  ar  
  7   4   8  1   
  8   6   9  ar  
  9   6  25  1   
 10   7   9  ar  
 11   7  26  1   
 12   8  10  1   
 13   8  27  1   
 14   8  28  1   
 15   9  29  1   
 16  10  11  2   
 17  10  12  am  
 18  12  13  1   
 19  12  14  1   
 20  13  15  1   
 21  13  30  1   
 22  13  31  1   
 23  14  16  1   
 24  14  32  1   
 25  14  33  1   
 26  15  17  1   
 27  15  18  1   
 28  15  34  1   
 29  16  17  1   
 30  16  35  1   
 31  16  36  1   
 32  17  19  1   
 33  17  37  1   
 34  18  20  1   
 35  18  38  1   
 36  18  39  1   
 37  19  21  1   
 38  19  22  1   
 39  19  40  1   
 40  20  21  1   
 41  21  41  1   
 42  21  42  1   
 43  22  23  1   
 44  22  43  1   
 45  22  44  1   
 46  23  24  1   
 47  23  45  1   
 48  23  46  1   
 49  24  47  1   
 50  24  48  1   
 51  24  49  1   
@<TRIPOS>SUBSTRUCTURE
  1 ****  12 GROUP 4 **** **** 0

# MOE 2024.06 (io_trps.svl 2023.06)
