@<TRIPOS>MOLECULE
NONAME
54 57 1 0 0 
SMALL
USER_CHARGES


@<TRIPOS>ATOM
  1 O        0.1040     0.0090    -2.5040 O.2   1 <1>  -0.5700 
  2 C        0.7550    -0.7520    -1.8250 C.2   1 <1>   0.5690 
  3 N        1.6080    -0.3130    -0.8260 N.am  1 <1>  -0.4770 
  4 C        0.5800    -2.2490    -2.1420 C.3   1 <1>   0.1710 
  5 C        1.7790     1.0040    -0.3710 C.ar  1 <1>   0.1170 
  6 C        2.3410    -1.2200     0.1060 C.3   1 <1>   0.2200 
  7 N        0.0570    -3.1010    -1.0370 N.3   1 <1>  -0.8100 
  8 C        2.3680     1.0370     0.8740 C.ar  1 <1>  -0.1430 
  9 C        1.4540     2.2020    -0.9960 C.ar  1 <1>  -0.1500 
 10 C        2.6320    -0.3650     1.3550 C.3   1 <1>  -0.0170 
 11 C        3.6440    -1.6860    -0.5530 C.3   1 <1>  -0.2400 
 12 C       -0.0020    -4.5090    -1.4500 C.3   1 <1>   0.1100 
 13 C       -1.2490    -2.6120    -0.5640 C.3   1 <1>   0.1100 
 14 C        2.6410     2.2270     1.5210 C.ar  1 <1>  -0.1500 
 15 C        1.7200     3.4040    -0.3610 C.ar  1 <1>  -0.1500 
 16 C       -0.4150    -5.3840    -0.2660 C.3   1 <1>  -0.1600 
 17 C       -1.7000    -3.4290     0.6470 C.3   1 <1>  -0.1600 
 18 C        2.3110     3.4190     0.8940 C.ar  1 <1>  -0.1500 
 19 C       -1.7580    -4.9120     0.2960 C.3   1 <1>   0.2000 
 20 O       -2.0450    -5.6130     1.4670 O.3   1 <1>  -0.5600 
 21 C       -2.7270    -6.8250     1.2860 C.3   1 <1>   0.2630 
 22 C       -4.1620    -6.5890     0.8220 C.ar  1 <1>   0.1660 
 23 N       -4.5520    -7.2330    -0.2720 N.ar  1 <1>  -0.6200 
 24 C       -4.9750    -5.7270     1.5430 C.ar  1 <1>  -0.1500 
 25 C       -5.8000    -7.0090    -0.6540 C.ar  1 <1>   0.1600 
 26 C       -6.2720    -5.5030     1.1320 C.ar  1 <1>  -0.1500 
 27 C       -6.6860    -6.1700    -0.0010 C.ar  1 <1>  -0.1500 
 28 H        1.5310    -2.6310    -2.4620 H     1 <1>   0.0800 
 29 H       -0.0880    -2.3260    -2.9820 H     1 <1>   0.0800 
 30 H        1.7380    -2.0620     0.3900 H     1 <1>   0.0800 
 31 H        1.0000     2.1990    -1.9700 H     1 <1>   0.1500 
 32 H        3.6390    -0.4830     1.7100 H     1 <1>   0.0800 
 33 H        1.9430    -0.6170     2.1410 H     1 <1>   0.0800 
 34 H        4.2450    -0.8390    -0.8340 H     1 <1>   0.0800 
 35 H        3.4420    -2.2790    -1.4250 H     1 <1>   0.0800 
 36 H        4.2050    -2.2920     0.1350 H     1 <1>   0.0800 
 37 H        0.9680    -4.8240    -1.7970 H     1 <1>   0.0800 
 38 H       -0.7080    -4.6250    -2.2570 H     1 <1>   0.0800 
 39 H       -1.9790    -2.6860    -1.3540 H     1 <1>   0.0800 
 40 H       -1.1730    -1.5780    -0.2710 H     1 <1>   0.0800 
 41 H        3.1000     2.2310     2.4940 H     1 <1>   0.1500 
 42 H        1.4660     4.3310    -0.8450 H     1 <1>   0.1500 
 43 H        0.3410    -5.3190     0.4960 H     1 <1>   0.0800 
 44 H       -0.4900    -6.4030    -0.5960 H     1 <1>   0.0800 
 45 H       -2.6730    -3.0960     0.9580 H     1 <1>   0.0800 
 46 H       -1.0060    -3.2700     1.4520 H     1 <1>   0.0800 
 47 H        2.5150     4.3560     1.3810 H     1 <1>   0.1500 
 48 H       -2.5410    -5.0700    -0.4290 H     1 <1>   0.0800 
 49 H       -2.7380    -7.3350     2.2310 H     1 <1>   0.0800 
 50 H       -2.1910    -7.4290     0.5760 H     1 <1>   0.0800 
 51 H       -4.5880    -5.2340     2.4170 H     1 <1>   0.1500 
 52 H       -6.1360    -7.5240    -1.5380 H     1 <1>   0.1500 
 53 H       -6.9270    -4.8400     1.6700 H     1 <1>   0.1500 
 54 H       -7.6840    -6.0410    -0.3760 H     1 <1>   0.1500 
@<TRIPOS>BOND
  1   1   2  2   
  2   2   3  am  
  3   2   4  1   
  4   3   5  1   
  5   3   6  1   
  6   4   7  1   
  7   4  28  1   
  8   4  29  1   
  9   5   8  ar  
 10   5   9  ar  
 11   6  10  1   
 12   6  11  1   
 13   6  30  1   
 14   7  12  1   
 15   7  13  1   
 16   8  10  1   
 17   8  14  ar  
 18   9  15  ar  
 19   9  31  1   
 20  10  32  1   
 21  10  33  1   
 22  11  34  1   
 23  11  35  1   
 24  11  36  1   
 25  12  16  1   
 26  12  37  1   
 27  12  38  1   
 28  13  17  1   
 29  13  39  1   
 30  13  40  1   
 31  14  18  ar  
 32  14  41  1   
 33  15  18  ar  
 34  15  42  1   
 35  16  19  1   
 36  16  43  1   
 37  16  44  1   
 38  17  19  1   
 39  17  45  1   
 40  17  46  1   
 41  18  47  1   
 42  19  20  1   
 43  19  48  1   
 44  20  21  1   
 45  21  22  1   
 46  21  49  1   
 47  21  50  1   
 48  22  23  ar  
 49  22  24  ar  
 50  23  25  ar  
 51  24  26  ar  
 52  24  51  1   
 53  25  27  ar  
 54  25  52  1   
 55  26  27  ar  
 56  26  53  1   
 57  27  54  1   
@<TRIPOS>SUBSTRUCTURE
  1 ****  13 GROUP 4 **** **** 0

# MOE 2024.06 (io_trps.svl 2023.06)
