@<TRIPOS>MOLECULE
NONAME
51 52 1 0 0 
SMALL
USER_CHARGES


@<TRIPOS>ATOM
  1 S       -0.6320     0.3170     2.4340 S.o2  1 <1>   1.4470 
  2 O        0.5800     0.2060     3.2080 O.2   1 <1>  -0.6500 
  3 O       -1.8630     0.7070     3.0850 O.2   1 <1>  -0.6500 
  4 N       -0.8940    -1.2450     1.8760 N.am  1 <1>  -0.9140 
  5 C       -0.3570     1.2720     0.9170 C.ar  1 <1>  -0.0090 
  6 C       -2.2450    -1.4970     1.4190 C.3   1 <1>   0.1960 
  7 C        0.5750     0.8610    -0.0280 C.ar  1 <1>  -0.1500 
  8 C       -1.0700     2.4370     0.6600 C.ar  1 <1>  -0.1500 
  9 C       -2.3130    -2.9280     0.8920 C.3   1 <1>  -0.1600 
 10 C        0.7850     1.5820    -1.1910 C.ar  1 <1>  -0.1500 
 11 C       -0.8650     3.1630    -0.5010 C.ar  1 <1>  -0.1500 
 12 C       -3.7040    -3.2520     0.3550 C.3   1 <1>   0.2090 
 13 C        0.0630     2.7370    -1.4350 C.ar  1 <1>  -0.1430 
 14 N       -3.6890    -4.6420    -0.1520 N.pl3 1 <1>  -0.8690 
 15 C        0.2920     3.5320    -2.7080 C.3   1 <1>  -0.0970 
 16 C       -4.3750    -5.7490     0.1490 C.ar  1 <1>   0.7710 
 17 N       -4.0170    -6.8340    -0.4970 N.ar  1 <1>  -0.6200 
 18 N       -5.3610    -5.7300     1.0590 N.ar  1 <1>  -0.1790 
 19 C       -4.6730    -7.9510    -0.2440 C.ar  1 <1>   0.4100 
 20 C       -6.0340    -6.8610     1.3750 C.ar  1 <1>   0.2110 
 21 N       -4.3050    -9.0380    -0.9690 N.pl3 1 <1>  -0.8380 
 22 C       -5.7010    -8.0100     0.7330 C.ar  1 <1>  -0.1430 
 23 C       -5.2600    -9.7980    -1.8220 C.3   1 <1>   0.1290 
 24 C       -2.8720    -9.3170    -1.2770 C.3   1 <1>   0.1290 
 25 C       -6.3960    -9.3220     1.0960 C.3   1 <1>  -0.0970 
 26 H       -0.6950    -1.8170     2.6950 H     1 <1>   0.4200 
 27 H       -2.4920    -0.8020     0.6320 H     1 <1>   0.0800 
 28 H       -2.9420    -1.3650     2.2320 H     1 <1>   0.0800 
 29 H        1.1460    -0.0350     0.1510 H     1 <1>   0.1500 
 30 H       -1.7950     2.7850     1.3770 H     1 <1>   0.1500 
 31 H       -2.0670    -3.6100     1.6860 H     1 <1>   0.0800 
 32 H       -1.5930    -3.0350     0.0990 H     1 <1>   0.0800 
 33 H        1.5150     1.2390    -1.9040 H     1 <1>   0.1500 
 34 H       -1.4310     4.0630    -0.6730 H     1 <1>   0.1500 
 35 H       -3.9490    -2.5820    -0.4550 H     1 <1>   0.0800 
 36 H       -4.4380    -3.1300     1.1330 H     1 <1>   0.0800 
 37 H       -2.9810    -4.8050    -0.8790 H     1 <1>   0.4000 
 38 H        0.6060     2.8840    -3.5060 H     1 <1>   0.0800 
 39 H        1.0550     4.2720    -2.5410 H     1 <1>   0.0800 
 40 H       -0.6120     4.0280    -3.0100 H     1 <1>   0.0800 
 41 H       -5.5600    -4.8360     1.4890 H     1 <1>   0.4570 
 42 H       -6.8040    -6.8160     2.1280 H     1 <1>   0.1500 
 43 H       -6.2290    -9.3310    -1.8120 H     1 <1>   0.0800 
 44 H       -5.3480   -10.8090    -1.4610 H     1 <1>   0.0800 
 45 H       -4.9080    -9.8190    -2.8390 H     1 <1>   0.0800 
 46 H       -2.2320    -8.8040    -0.5790 H     1 <1>   0.0800 
 47 H       -2.6400    -8.9800    -2.2720 H     1 <1>   0.0800 
 48 H       -2.6800   -10.3730    -1.2040 H     1 <1>   0.0800 
 49 H       -5.6680   -10.1100     1.1910 H     1 <1>   0.0800 
 50 H       -7.1030    -9.5970     0.3340 H     1 <1>   0.0800 
 51 H       -6.9220    -9.2420     2.0300 H     1 <1>   0.0800 
@<TRIPOS>BOND
  1   1   2  2   
  2   1   3  2   
  3   1   4  am  
  4   1   5  1   
  5   4   6  1   
  6   4  26  1   
  7   5   7  ar  
  8   5   8  ar  
  9   6   9  1   
 10   6  27  1   
 11   6  28  1   
 12   7  10  ar  
 13   7  29  1   
 14   8  11  ar  
 15   8  30  1   
 16   9  12  1   
 17   9  31  1   
 18   9  32  1   
 19  10  13  ar  
 20  10  33  1   
 21  11  13  ar  
 22  11  34  1   
 23  12  14  1   
 24  12  35  1   
 25  12  36  1   
 26  13  15  1   
 27  14  16  1   
 28  14  37  1   
 29  15  38  1   
 30  15  39  1   
 31  15  40  1   
 32  16  17  ar  
 33  16  18  ar  
 34  17  19  ar  
 35  18  20  ar  
 36  18  41  1   
 37  19  21  1   
 38  19  22  ar  
 39  20  22  ar  
 40  20  42  1   
 41  21  23  1   
 42  21  24  1   
 43  22  25  1   
 44  23  43  1   
 45  23  44  1   
 46  23  45  1   
 47  24  46  1   
 48  24  47  1   
 49  24  48  1   
 50  25  49  1   
 51  25  50  1   
 52  25  51  1   
@<TRIPOS>SUBSTRUCTURE
  1 ****   9 GROUP 4 **** **** 0

# MOE 2024.06 (io_trps.svl 2023.06)
