@<TRIPOS>MOLECULE
NONAME
46 48 1 0 0 
SMALL
USER_CHARGES


@<TRIPOS>ATOM
  1 O        2.6420    -2.1030    -2.7250 O.2   1 <1>  -0.5700 
  2 C        1.9880    -1.3580    -2.0350 C.2   1 <1>   0.5690 
  3 N        2.5450    -0.1970    -1.5390 N.am  1 <1>  -0.6600 
  4 C        0.5700    -1.7970    -1.7330 C.3   1 <1>   0.1570 
  5 C        1.7850     0.8120    -0.6950 C.3   1 <1>   0.2200 
  6 C        3.9990     0.0650    -1.8150 C.3   1 <1>   0.1400 
  7 N        0.4760    -2.1910    -0.3190 N.pl3 1 <1>   0.3140 
  8 C        2.0420     2.2640    -1.1340 C.3   1 <1>   0.1200 
  9 C        2.1100     0.6470     0.8110 C.3   1 <1>   0.3430 
 10 C        4.7160     0.9670    -0.7930 C.3   1 <1>  -0.0800 
 11 N       -0.1700    -1.4170     0.5770 N.2   1 <1>  -0.7070 
 12 C        0.9650    -3.3080     0.2700 C.2   1 <1>  -0.3320 
 13 O        3.1570     2.7900    -0.4770 O.3   1 <1>  -0.5600 
 14 N        3.3370    -0.1910     1.0270 N.4   1 <1>  -0.9590 
 15 C        4.3930     2.4540    -1.0100 C.3   1 <1>   0.1200 
 16 C        4.6020     0.5330     0.6860 C.3   1 <1>   0.3430 
 17 C       -0.1160    -2.0740     1.6920 C.2   1 <1>   0.1080 
 18 C        0.5930    -3.2600     1.5660 C.2   1 <1>  -0.1500 
 19 C        1.7490    -4.4030    -0.4370 C.3   1 <1>  -0.0600 
 20 C        3.3500    -0.7760     2.3960 C.3   1 <1>   0.2630 
 21 C       -0.7760    -1.5830     2.9610 C.3   1 <1>  -0.0590 
 22 H        0.3140    -2.6420    -2.3420 H     1 <1>   0.0800 
 23 H       -0.1260    -1.0080    -1.9340 H     1 <1>   0.0800 
 24 H        0.7300     0.6550    -0.8220 H     1 <1>   0.0800 
 25 H        4.5220    -0.8770    -1.8470 H     1 <1>   0.0800 
 26 H        4.0840     0.4980    -2.7980 H     1 <1>   0.0800 
 27 H        1.2040     2.8720    -0.8390 H     1 <1>   0.0800 
 28 H        2.1600     2.3490    -2.2010 H     1 <1>   0.0800 
 29 H        1.2690     0.1820     1.2930 H     1 <1>   0.0800 
 30 H        2.2340     1.6150     1.2680 H     1 <1>   0.0800 
 31 H        5.7610     0.8910    -1.0340 H     1 <1>   0.0800 
 32 H        3.2340    -0.9540     0.3380 H     1 <1>   0.4500 
 33 H        4.4070     2.7170    -2.0550 H     1 <1>   0.0800 
 34 H        5.1240     3.0640    -0.5060 H     1 <1>   0.0800 
 35 H        4.7010     1.4030     1.3150 H     1 <1>   0.0800 
 36 H        5.4310    -0.1200     0.9030 H     1 <1>   0.0800 
 37 H        0.7760    -3.9790     2.3460 H     1 <1>   0.1500 
 38 H        1.9580    -5.2090     0.2440 H     1 <1>   0.0800 
 39 H        2.6830    -4.0250    -0.8120 H     1 <1>   0.0800 
 40 H        1.1800    -4.7990    -1.2610 H     1 <1>   0.0800 
 41 H        3.4150     0.0040     3.1360 H     1 <1>   0.0800 
 42 H        4.1930    -1.4380     2.5110 H     1 <1>   0.0800 
 43 H        2.4460    -1.3410     2.5630 H     1 <1>   0.0800 
 44 H       -0.5800    -2.2580     3.7730 H     1 <1>   0.0800 
 45 H       -1.8380    -1.5240     2.8080 H     1 <1>   0.0800 
 46 H       -0.4090    -0.6070     3.2140 H     1 <1>   0.0800 
@<TRIPOS>BOND
  1   1   2  2   
  2   2   3  am  
  3   2   4  1   
  4   3   5  1   
  5   3   6  1   
  6   4   7  1   
  7   4  22  1   
  8   4  23  1   
  9   5   8  1   
 10   5   9  1   
 11   5  24  1   
 12   6  10  1   
 13   6  25  1   
 14   6  26  1   
 15   7  11  1   
 16   7  12  1   
 17   8  13  1   
 18   8  27  1   
 19   8  28  1   
 20   9  14  1   
 21   9  29  1   
 22   9  30  1   
 23  10  15  1   
 24  10  16  1   
 25  10  31  1   
 26  11  17  2   
 27  12  18  2   
 28  12  19  1   
 29  13  15  1   
 30  14  16  1   
 31  14  20  1   
 32  14  32  1   
 33  15  33  1   
 34  15  34  1   
 35  16  35  1   
 36  16  36  1   
 37  17  18  1   
 38  17  21  1   
 39  18  37  1   
 40  19  38  1   
 41  19  39  1   
 42  19  40  1   
 43  20  41  1   
 44  20  42  1   
 45  20  43  1   
 46  21  44  1   
 47  21  45  1   
 48  21  46  1   
@<TRIPOS>SUBSTRUCTURE
  1 ****   3 GROUP 4 **** **** 0

# MOE 2024.06 (io_trps.svl 2023.06)
