@<TRIPOS>MOLECULE
NONAME
49 51 1 0 0 
SMALL
USER_CHARGES


@<TRIPOS>ATOM
  1 O       -1.8780     0.4830    -2.8390 O.2   1 <1>  -0.5700 
  2 C       -2.0630     1.1660    -1.8580 C.2   1 <1>   0.5690 
  3 N       -2.4020     0.6020    -0.6570 N.am  1 <1>  -0.6600 
  4 C       -1.9220     2.6750    -2.0040 C.3   1 <1>   0.0440 
  5 C       -2.6050     1.3170     0.6280 C.3   1 <1>   0.1400 
  6 C       -2.4860    -0.8650    -0.4630 C.3   1 <1>   0.1400 
  7 C       -0.7940     3.2570    -1.1560 C.ar  1 <1>  -0.1440 
  8 C       -3.0490     0.2310     1.6070 C.3   1 <1>   0.2000 
  9 C       -2.4700    -1.0690     1.0540 C.3   1 <1>  -0.0800 
 10 C       -1.0290     4.3260    -0.3030 C.ar  1 <1>  -0.1500 
 11 C        0.4810     2.7170    -1.2310 C.ar  1 <1>  -0.1500 
 12 O       -2.5720     0.4650     2.8860 O.3   1 <1>  -0.6800 
 13 C       -3.2390    -2.3150     1.5170 C.3   1 <1>   0.0200 
 14 C       -0.0030     4.8390     0.4690 C.ar  1 <1>  -0.1500 
 15 C        1.5100     3.2290    -0.4600 C.ar  1 <1>  -0.1500 
 16 C       -2.6760    -3.5700     0.8780 C.2   1 <1>  -0.0400 
 17 C        1.2700     4.2980     0.3990 C.ar  1 <1>   0.0830 
 18 O       -1.4450    -3.9310     1.1220 O.3   1 <1>  -0.0190 
 19 C       -3.2120    -4.4670     0.0380 C.2   1 <1>  -0.1500 
 20 O        2.2180     4.8630     1.1880 O.3   1 <1>  -0.3620 
 21 N       -1.1260    -5.0210     0.4860 N.2   1 <1>  -0.4100 
 22 C       -2.1710    -5.3680    -0.1750 C.2   1 <1>   0.1080 
 23 C        3.5640     4.4540     1.1200 C.3   1 <1>   0.1200 
 24 C       -2.2490    -6.5890    -1.0630 C.3   1 <1>  -0.0590 
 25 C        4.3710     5.3240     2.0790 C.3   1 <1>  -0.2400 
 26 H       -1.7270     2.9030    -3.0360 H     1 <1>   0.0800 
 27 H       -2.8600     3.1280    -1.7460 H     1 <1>   0.0800 
 28 H       -1.6720     1.7510     0.9430 H     1 <1>   0.0800 
 29 H       -3.3590     2.0770     0.5280 H     1 <1>   0.0800 
 30 H       -3.4060    -1.2200    -0.8940 H     1 <1>   0.0800 
 31 H       -1.6560    -1.3650    -0.9360 H     1 <1>   0.0800 
 32 H       -4.1250     0.1960     1.6470 H     1 <1>   0.0800 
 33 H       -1.4390    -1.1550     1.3500 H     1 <1>   0.0800 
 34 H       -2.0090     4.7660    -0.2340 H     1 <1>   0.1500 
 35 H        0.6780     1.8890    -1.8930 H     1 <1>   0.1500 
 36 H       -1.5950     0.4860     2.8870 H     1 <1>   0.4000 
 37 H       -4.2790    -2.2230     1.2580 H     1 <1>   0.0800 
 38 H       -3.1680    -2.4050     2.5870 H     1 <1>   0.0800 
 39 H       -0.1810     5.6660     1.1320 H     1 <1>   0.1500 
 40 H        2.4830     2.7850    -0.5410 H     1 <1>   0.1500 
 41 H       -4.1950    -4.5140    -0.3910 H     1 <1>   0.1500 
 42 H        3.6210     3.4180     1.4060 H     1 <1>   0.0800 
 43 H        3.9090     4.5830     0.1080 H     1 <1>   0.0800 
 44 H       -3.0270    -7.2430    -0.7170 H     1 <1>   0.0800 
 45 H       -1.3130    -7.1190    -1.0410 H     1 <1>   0.0800 
 46 H       -2.4570    -6.2920    -2.0740 H     1 <1>   0.0800 
 47 H        4.0080     5.2020     3.0830 H     1 <1>   0.0800 
 48 H        4.2940     6.3580     1.7920 H     1 <1>   0.0800 
 49 H        5.4060     5.0370     2.0490 H     1 <1>   0.0800 
@<TRIPOS>BOND
  1   1   2  2   
  2   2   3  am  
  3   2   4  1   
  4   3   5  1   
  5   3   6  1   
  6   4   7  1   
  7   4  26  1   
  8   4  27  1   
  9   5   8  1   
 10   5  28  1   
 11   5  29  1   
 12   6   9  1   
 13   6  30  1   
 14   6  31  1   
 15   7  10  ar  
 16   7  11  ar  
 17   8   9  1   
 18   8  12  1   
 19   8  32  1   
 20   9  13  1   
 21   9  33  1   
 22  10  14  ar  
 23  10  34  1   
 24  11  15  ar  
 25  11  35  1   
 26  12  36  1   
 27  13  16  1   
 28  13  37  1   
 29  13  38  1   
 30  14  17  ar  
 31  14  39  1   
 32  15  17  ar  
 33  15  40  1   
 34  16  18  1   
 35  16  19  2   
 36  17  20  1   
 37  18  21  1   
 38  19  22  1   
 39  19  41  1   
 40  20  23  1   
 41  21  22  2   
 42  22  24  1   
 43  23  25  1   
 44  23  42  1   
 45  23  43  1   
 46  24  44  1   
 47  24  45  1   
 48  24  46  1   
 49  25  47  1   
 50  25  48  1   
 51  25  49  1   
@<TRIPOS>SUBSTRUCTURE
  1 ****   3 GROUP 4 **** **** 0

# MOE 2024.06 (io_trps.svl 2023.06)
