@<TRIPOS>MOLECULE
NONAME
51 53 1 0 0 
SMALL
USER_CHARGES


@<TRIPOS>ATOM
  1 S       -1.4890    -2.2500     0.6180 S.3   1 <1>  -0.0800 
  2 C       -2.6890    -3.2890     1.3620 C.2   1 <1>  -0.1100 
  3 C       -1.8220    -2.9270    -0.9640 C.2   1 <1>  -0.1100 
  4 C       -3.2870    -4.0700     0.4410 C.2   1 <1>  -0.1810 
  5 C       -2.7820    -3.8660    -0.8880 C.2   1 <1>  -0.1500 
  6 C       -4.3790    -5.0770     0.7350 C.3   1 <1>   0.5240 
  7 N       -5.6760    -4.3640     0.7260 N.4   1 <1>  -0.9590 
  8 C       -6.7240    -5.1820     1.4320 C.3   1 <1>   0.3430 
  9 C       -6.0910    -4.0440    -0.6730 C.3   1 <1>   0.3430 
 10 C       -8.0660    -4.4600     1.6900 C.3   1 <1>   0.1400 
 11 C       -6.7120    -2.6490    -0.7390 C.3   1 <1>  -0.1600 
 12 N       -8.5730    -3.7140     0.4970 N.am  1 <1>  -0.6600 
 13 C       -7.8690    -2.4280     0.2410 C.3   1 <1>   0.1400 
 14 C       -9.5030    -4.1590    -0.4130 C.2   1 <1>   0.5690 
 15 O       -9.6960    -3.5600    -1.4420 O.2   1 <1>  -0.5700 
 16 C      -10.3340    -5.4100    -0.2130 C.3   1 <1>  -0.0990 
 17 C       -9.8450    -6.5560    -1.1070 C.3   1 <1>   0.0960 
 18 N       -8.6040    -7.1960    -0.6120 N.pl3 1 <1>   0.3140 
 19 N       -7.4140    -7.0160    -1.2260 N.2   1 <1>  -0.7070 
 20 C       -8.5070    -8.1420     0.3530 C.2   1 <1>  -0.3320 
 21 C       -6.6230    -7.8950    -0.6970 C.2   1 <1>   0.1080 
 22 C       -7.2420    -8.6100     0.3180 C.2   1 <1>  -0.1500 
 23 C       -9.6430    -8.6210     1.2440 C.3   1 <1>  -0.0600 
 24 C       -5.2070    -8.1250    -1.1740 C.3   1 <1>  -0.0590 
 25 H       -2.8100    -3.1900     2.4280 H     1 <1>   0.1500 
 26 H       -1.2500    -2.5460    -1.7930 H     1 <1>   0.1500 
 27 H       -3.1450    -4.4280    -1.7330 H     1 <1>   0.1500 
 28 H       -4.2040    -5.5020     1.7100 H     1 <1>   0.0800 
 29 H       -4.3740    -5.8700     0.0070 H     1 <1>   0.0800 
 30 H       -5.5280    -3.4730     1.2120 H     1 <1>   0.4500 
 31 H       -6.3390    -5.5130     2.3820 H     1 <1>   0.0800 
 32 H       -6.9260    -6.0640     0.8550 H     1 <1>   0.0800 
 33 H       -6.8080    -4.7690    -1.0220 H     1 <1>   0.0800 
 34 H       -5.2450    -4.0740    -1.3390 H     1 <1>   0.0800 
 35 H       -7.9410    -3.7700     2.5060 H     1 <1>   0.0800 
 36 H       -8.7830    -5.1880     2.0180 H     1 <1>   0.0800 
 37 H       -7.0940    -2.5130    -1.7350 H     1 <1>   0.0800 
 38 H       -5.9580    -1.8960    -0.5920 H     1 <1>   0.0800 
 39 H       -8.5590    -1.7080    -0.1700 H     1 <1>   0.0800 
 40 H       -7.5000    -2.0240     1.1680 H     1 <1>   0.0800 
 41 H      -11.3340    -5.1630    -0.5200 H     1 <1>   0.0800 
 42 H      -10.3970    -5.7090     0.8120 H     1 <1>   0.0800 
 43 H       -9.6640    -6.1910    -2.1030 H     1 <1>   0.0800 
 44 H      -10.6030    -7.3140    -1.1700 H     1 <1>   0.0800 
 45 H       -6.7950    -9.3900     0.9120 H     1 <1>   0.1500 
 46 H      -10.0010    -7.8260     1.8720 H     1 <1>   0.0800 
 47 H       -9.3030    -9.4230     1.8760 H     1 <1>   0.0800 
 48 H      -10.4580    -8.9910     0.6460 H     1 <1>   0.0800 
 49 H       -4.8530    -7.2670    -1.7140 H     1 <1>   0.0800 
 50 H       -5.1940    -8.9720    -1.8370 H     1 <1>   0.0800 
 51 H       -4.5570    -8.3250    -0.3430 H     1 <1>   0.0800 
@<TRIPOS>BOND
  1   1   2  1   
  2   1   3  1   
  3   2   4  2   
  4   2  25  1   
  5   3   5  2   
  6   3  26  1   
  7   4   5  1   
  8   4   6  1   
  9   5  27  1   
 10   6   7  1   
 11   6  28  1   
 12   6  29  1   
 13   7   8  1   
 14   7   9  1   
 15   7  30  1   
 16   8  10  1   
 17   8  31  1   
 18   8  32  1   
 19   9  11  1   
 20   9  33  1   
 21   9  34  1   
 22  10  12  1   
 23  10  35  1   
 24  10  36  1   
 25  11  13  1   
 26  11  37  1   
 27  11  38  1   
 28  12  13  1   
 29  12  14  am  
 30  13  39  1   
 31  13  40  1   
 32  14  15  2   
 33  14  16  1   
 34  16  17  1   
 35  16  41  1   
 36  16  42  1   
 37  17  18  1   
 38  17  43  1   
 39  17  44  1   
 40  18  19  1   
 41  18  20  1   
 42  19  21  2   
 43  20  22  2   
 44  20  23  1   
 45  21  22  1   
 46  21  24  1   
 47  22  45  1   
 48  23  46  1   
 49  23  47  1   
 50  23  48  1   
 51  24  49  1   
 52  24  50  1   
 53  24  51  1   
@<TRIPOS>SUBSTRUCTURE
  1 ****   9 GROUP 4 **** **** 0

# MOE 2024.06 (io_trps.svl 2023.06)
