@<TRIPOS>MOLECULE
NONAME
16 16 1 0 0 
SMALL
USER_CHARGES


@<TRIPOS>ATOM
  1 F       -0.6830     0.8920    -1.1010 F     1 <1>  -0.3400 
  2 C       -1.4790     0.6880    -0.0580 C.3   1 <1>   1.1640 
  3 F       -1.8390    -0.5910    -0.1320 F     1 <1>  -0.3400 
  4 F       -0.7090     0.7750     1.0220 F     1 <1>  -0.3400 
  5 C       -2.6630     1.6450    -0.0200 C.ar  1 <1>  -0.1440 
  6 C       -2.5520     3.0160     0.0570 C.ar  1 <1>  -0.1440 
  7 C       -3.9510     1.1320    -0.0640 C.ar  1 <1>   0.1600 
  8 C       -3.7470     3.7490     0.0820 C.ar  1 <1>   0.1390 
  9 C       -1.2410     3.7960     0.1160 C.3   1 <1>  -0.0970 
 10 N       -5.0580     1.8540    -0.0380 N.ar  1 <1>  -0.3100 
 11 O       -3.7080     5.0000     0.1510 O.3   1 <1>  -0.8290 
 12 N       -4.9620     3.1550     0.0340 N.ar  1 <1>  -0.3100 
 13 H       -4.1070     0.0710    -0.1240 H     1 <1>   0.1500 
 14 H       -0.3680     3.1750     0.0930 H     1 <1>   0.0800 
 15 H       -1.2280     4.3810     1.0180 H     1 <1>   0.0800 
 16 H       -1.2060     4.4760    -0.7160 H     1 <1>   0.0800 
@<TRIPOS>BOND
  1   1   2  1   
  2   2   3  1   
  3   2   4  1   
  4   2   5  1   
  5   5   6  ar  
  6   5   7  ar  
  7   6   8  ar  
  8   6   9  1   
  9   7  10  ar  
 10   7  13  1   
 11   8  11  1   
 12   8  12  ar  
 13   9  14  1   
 14   9  15  1   
 15   9  16  1   
 16  10  12  ar  
@<TRIPOS>SUBSTRUCTURE
  1 ****   5 GROUP 4 **** **** 0

# MOE 2024.06 (io_trps.svl 2023.06)
