@<TRIPOS>MOLECULE
NONAME
45 47 1 0 0 
SMALL
USER_CHARGES


@<TRIPOS>ATOM
  1 CL       2.1940    -3.0530    -2.9420 Cl    1 <1>  -0.1770 
  2 C        1.2920    -4.1530    -1.9300 C.ar  1 <1>   0.1770 
  3 C        1.5550    -4.1960    -0.5740 C.ar  1 <1>  -0.1500 
  4 C        0.3290    -4.9640    -2.5010 C.ar  1 <1>  -0.1500 
  5 C        0.8370    -5.0700     0.2250 C.ar  1 <1>  -0.1500 
  6 C       -0.3880    -5.8380    -1.7010 C.ar  1 <1>  -0.1500 
  7 C       -0.1340    -5.8930    -0.3300 C.ar  1 <1>   0.0830 
  8 O       -0.7880    -6.7190     0.5250 O.3   1 <1>  -0.3630 
  9 C       -1.7970    -7.5880     0.0740 C.3   1 <1>   0.1200 
 10 C       -2.2790    -8.3970     1.2820 C.3   1 <1>   0.3430 
 11 N       -3.3190    -9.3960     0.8910 N.4   1 <1>  -0.9590 
 12 C       -4.6470    -8.8170     0.5060 C.3   1 <1>   0.3430 
 13 C       -3.6010   -10.4450     1.9080 C.3   1 <1>   0.3430 
 14 C       -5.7030    -9.8670     0.8910 C.3   1 <1>   0.2000 
 15 C       -4.9410   -11.0600     1.4870 C.3   1 <1>  -0.0800 
 16 O       -6.5410    -9.3380     1.8630 O.3   1 <1>  -0.6800 
 17 C       -4.7760   -12.2320     0.4850 C.3   1 <1>   0.0200 
 18 C       -3.7340   -11.9600    -0.5870 C.2   1 <1>  -0.0400 
 19 O       -3.9010   -10.9710    -1.4220 O.3   1 <1>  -0.0190 
 20 C       -2.5520   -12.5320    -0.8610 C.2   1 <1>  -0.1500 
 21 N       -2.8670   -10.8000    -2.1850 N.2   1 <1>  -0.4100 
 22 C       -2.0480   -11.7490    -1.8960 C.2   1 <1>   0.1080 
 23 C       -0.7190   -11.9710    -2.5860 C.3   1 <1>  -0.0590 
 24 H        2.3090    -3.5550    -0.1540 H     1 <1>   0.1500 
 25 H        0.1490    -4.9070    -3.5600 H     1 <1>   0.1500 
 26 H        1.0290    -5.1160     1.2820 H     1 <1>   0.1500 
 27 H       -1.1310    -6.4580    -2.1660 H     1 <1>   0.1500 
 28 H       -2.5900    -6.9920    -0.3390 H     1 <1>   0.0800 
 29 H       -1.3720    -8.2370    -0.6720 H     1 <1>   0.0800 
 30 H       -2.6760    -7.7260     2.0260 H     1 <1>   0.0800 
 31 H       -1.4300    -8.9120     1.7010 H     1 <1>   0.0800 
 32 H       -2.9820    -9.9010     0.0460 H     1 <1>   0.4500 
 33 H       -4.8390    -7.9000     1.0370 H     1 <1>   0.0800 
 34 H       -4.6760    -8.6320    -0.5560 H     1 <1>   0.0800 
 35 H       -2.8170   -11.1840     1.9450 H     1 <1>   0.0800 
 36 H       -3.7050    -9.9880     2.8800 H     1 <1>   0.0800 
 37 H       -6.3160   -10.1370     0.0470 H     1 <1>   0.0800 
 38 H       -5.4600   -11.4460     2.3470 H     1 <1>   0.0800 
 39 H       -6.1060    -9.2010     2.7270 H     1 <1>   0.4000 
 40 H       -5.7200   -12.4580     0.0190 H     1 <1>   0.0800 
 41 H       -4.4740   -13.1120     1.0270 H     1 <1>   0.0800 
 42 H       -2.0650   -13.3790    -0.4090 H     1 <1>   0.1500 
 43 H        0.0830   -11.9250    -1.8720 H     1 <1>   0.0800 
 44 H       -0.5610   -11.2180    -3.3380 H     1 <1>   0.0800 
 45 H       -0.7130   -12.9350    -3.0600 H     1 <1>   0.0800 
@<TRIPOS>BOND
  1   1   2  1   
  2   2   3  ar  
  3   2   4  ar  
  4   3   5  ar  
  5   3  24  1   
  6   4   6  ar  
  7   4  25  1   
  8   5   7  ar  
  9   5  26  1   
 10   6   7  ar  
 11   6  27  1   
 12   7   8  1   
 13   8   9  1   
 14   9  10  1   
 15   9  28  1   
 16   9  29  1   
 17  10  11  1   
 18  10  30  1   
 19  10  31  1   
 20  11  12  1   
 21  11  13  1   
 22  11  32  1   
 23  12  14  1   
 24  12  33  1   
 25  12  34  1   
 26  13  15  1   
 27  13  35  1   
 28  13  36  1   
 29  14  15  1   
 30  14  16  1   
 31  14  37  1   
 32  15  17  1   
 33  15  38  1   
 34  16  39  1   
 35  17  18  1   
 36  17  40  1   
 37  17  41  1   
 38  18  19  1   
 39  18  20  2   
 40  19  21  1   
 41  20  22  1   
 42  20  42  1   
 43  21  22  2   
 44  22  23  1   
 45  23  43  1   
 46  23  44  1   
 47  23  45  1   
@<TRIPOS>SUBSTRUCTURE
  1 ****   9 GROUP 4 **** **** 0

# MOE 2024.06 (io_trps.svl 2023.06)
