@<TRIPOS>MOLECULE
NONAME
48 50 1 0 0 
SMALL
USER_CHARGES


@<TRIPOS>ATOM
  1 S        1.2710     1.0150    -1.7650 S.o2  1 <1>   1.3330 
  2 O        1.3670    -0.3230    -2.3060 O.2   1 <1>  -0.6500 
  3 O        0.9410     2.1200    -2.6370 O.2   1 <1>  -0.6500 
  4 N        0.1140     0.9920    -0.5210 N.am  1 <1>  -0.8490 
  5 C        2.8080     1.3780    -0.9130 C.3   1 <1>  -0.0550 
  6 C       -1.0400     0.1520    -0.8580 C.3   1 <1>   0.1160 
  7 C       -0.3460     2.3300    -0.1320 C.3   1 <1>   0.1160 
  8 C        3.3160     0.2400     0.0010 C.3   1 <1>  -0.0800 
  9 C        4.7000     0.4620     0.5950 C.3   1 <1>   0.2200 
 10 C        2.4550    -0.0370     1.2400 C.3   1 <1>   0.1200 
 11 N        4.8490     1.8550     1.0790 N.am  1 <1>  -0.7300 
 12 C        4.6350    -0.4660     1.7980 C.3   1 <1>   0.1200 
 13 O        3.3370    -0.3250     2.2880 O.3   1 <1>  -0.5600 
 14 C        5.4320     2.8780     0.3970 C.2   1 <1>   0.7160 
 15 O        5.8810     2.6480    -0.7080 O.2   1 <1>  -0.5700 
 16 C        5.4590     4.1980     0.9930 C.2   1 <1>  -0.0860 
 17 C        5.4310     5.4320     0.2380 C.2   1 <1>  -0.1810 
 18 C        5.5030     4.4450     2.3280 C.2   1 <1>  -0.1100 
 19 C        5.4670     6.5420     0.9920 C.2   1 <1>  -0.1400 
 20 C        5.3670     5.5200    -1.2820 C.3   1 <1>   0.0210 
 21 S        5.5150     6.1540     2.6940 S.3   1 <1>  -0.0800 
 22 C        5.4670     7.9840     0.5360 C.3   1 <1>   0.0200 
 23 C        4.9800     6.9400    -1.7440 C.3   1 <1>  -0.1600 
 24 C        5.7480     8.0360    -0.9770 C.3   1 <1>  -0.1600 
 25 H        3.5610     1.5660    -1.6540 H     1 <1>   0.0800 
 26 H        2.6900     2.2790    -0.3450 H     1 <1>   0.0800 
 27 H       -1.7490     0.1480    -0.0480 H     1 <1>   0.0800 
 28 H       -0.7200    -0.8630    -1.0290 H     1 <1>   0.0800 
 29 H       -1.5210     0.5170    -1.7500 H     1 <1>   0.0800 
 30 H       -1.0090     2.2620     0.7140 H     1 <1>   0.0800 
 31 H       -0.8690     2.8020    -0.9480 H     1 <1>   0.0800 
 32 H        0.4910     2.9480     0.1430 H     1 <1>   0.0800 
 33 H        3.3500    -0.6670    -0.5780 H     1 <1>   0.0800 
 34 H        5.4960     0.2040    -0.0840 H     1 <1>   0.0800 
 35 H        1.7990    -0.8770     1.0920 H     1 <1>   0.0800 
 36 H        1.8800     0.8250     1.5310 H     1 <1>   0.0800 
 37 H        4.3820     2.0450     1.9670 H     1 <1>   0.3700 
 38 H        5.3450    -0.2110     2.5650 H     1 <1>   0.0800 
 39 H        4.7670    -1.4920     1.5000 H     1 <1>   0.0800 
 40 H        5.5380     3.7720     3.1660 H     1 <1>   0.1500 
 41 H        6.3310     5.2560    -1.6810 H     1 <1>   0.0800 
 42 H        4.6450     4.8200    -1.6630 H     1 <1>   0.0800 
 43 H        4.5050     8.4160     0.7500 H     1 <1>   0.0800 
 44 H        6.2190     8.5400     1.0670 H     1 <1>   0.0800 
 45 H        5.1680     7.0320    -2.7990 H     1 <1>   0.0800 
 46 H        3.9250     7.0800    -1.5840 H     1 <1>   0.0800 
 47 H        5.4840     9.0070    -1.3580 H     1 <1>   0.0800 
 48 H        6.8030     7.8940    -1.1380 H     1 <1>   0.0800 
@<TRIPOS>BOND
  1   1   2  2   
  2   1   3  2   
  3   1   4  am  
  4   1   5  1   
  5   4   6  1   
  6   4   7  1   
  7   5   8  1   
  8   5  25  1   
  9   5  26  1   
 10   6  27  1   
 11   6  28  1   
 12   6  29  1   
 13   7  30  1   
 14   7  31  1   
 15   7  32  1   
 16   8   9  1   
 17   8  10  1   
 18   8  33  1   
 19   9  11  1   
 20   9  12  1   
 21   9  34  1   
 22  10  13  1   
 23  10  35  1   
 24  10  36  1   
 25  11  14  am  
 26  11  37  1   
 27  12  13  1   
 28  12  38  1   
 29  12  39  1   
 30  14  15  2   
 31  14  16  1   
 32  16  17  1   
 33  16  18  2   
 34  17  19  2   
 35  17  20  1   
 36  18  21  1   
 37  18  40  1   
 38  19  21  1   
 39  19  22  1   
 40  20  23  1   
 41  20  41  1   
 42  20  42  1   
 43  22  24  1   
 44  22  43  1   
 45  22  44  1   
 46  23  24  1   
 47  23  45  1   
 48  23  46  1   
 49  24  47  1   
 50  24  48  1   
@<TRIPOS>SUBSTRUCTURE
  1 ****  14 GROUP 4 **** **** 0

# MOE 2024.06 (io_trps.svl 2023.06)
