@<TRIPOS>MOLECULE
NONAME
51 54 1 0 0 
SMALL
USER_CHARGES


@<TRIPOS>ATOM
  1 O       -1.2000     1.5880    -3.0150 O.2   1 <1>  -0.5700 
  2 C       -0.8410     1.8600    -1.8960 C.2   1 <1>   0.5690 
  3 N       -1.5180     1.6050    -0.7390 N.am  1 <1>  -0.4770 
  4 C        0.4790     2.5280    -1.6280 C.3   1 <1>  -0.0990 
  5 C       -2.8060     1.0650    -0.5860 C.ar  1 <1>   0.1170 
  6 C       -0.6890     1.9840     0.4240 C.3   1 <1>   0.1400 
  7 C        0.3690     2.9290    -0.1600 C.3   1 <1>   0.2890 
  8 C       -3.7330     1.6660     0.2600 C.ar  1 <1>  -0.1500 
  9 C       -3.1820    -0.0820    -1.2740 C.ar  1 <1>  -0.1500 
 10 N       -0.1510     4.3130    -0.0850 N.pl3 1 <1>  -0.8690 
 11 C       -4.9980     1.1290     0.4330 C.ar  1 <1>  -0.1430 
 12 C       -4.4420    -0.6270    -1.1070 C.ar  1 <1>  -0.1500 
 13 C        0.2520     5.2210     0.8660 C.ar  1 <1>   0.4100 
 14 C       -5.3480    -0.0240    -0.2510 C.ar  1 <1>  -0.1500 
 15 C       -5.9940     1.7990     1.3620 C.3   1 <1>  -0.0970 
 16 N        1.5240     5.1350     1.2490 N.ar  1 <1>  -0.6200 
 17 C       -0.6550     6.1710     1.3680 C.ar  1 <1>   0.0860 
 18 C        1.9290     6.0120     2.1470 C.ar  1 <1>   0.1600 
 19 C       -2.0230     6.1910     0.9150 C.2   1 <1>   0.5440 
 20 C       -0.1920     7.0750     2.3150 C.ar  1 <1>  -0.1500 
 21 C        1.1250     6.9900     2.7050 C.ar  1 <1>  -0.1500 
 22 O       -2.7050     5.1820     0.9910 O.2   1 <1>  -0.5700 
 23 N       -2.5900     7.3270     0.3830 N.am  1 <1>  -0.6600 
 24 C       -1.8200     8.4780    -0.1400 C.3   1 <1>   0.1400 
 25 C       -3.9830     7.3530    -0.1150 C.3   1 <1>   0.1400 
 26 C       -2.7070     9.0740    -1.2270 C.3   1 <1>  -0.1600 
 27 C       -4.1270     8.7010    -0.8110 C.3   1 <1>  -0.1600 
 28 H        0.6360     3.3730    -2.2730 H     1 <1>   0.0800 
 29 H        1.2630     1.8080    -1.7670 H     1 <1>   0.0800 
 30 H       -0.2240     1.1000     0.8210 H     1 <1>   0.0800 
 31 H       -1.2650     2.4670     1.1930 H     1 <1>   0.0800 
 32 H        1.3110     2.8390     0.3540 H     1 <1>   0.0800 
 33 H       -3.4660     2.5690     0.7780 H     1 <1>   0.1500 
 34 H       -2.4810    -0.5440    -1.9460 H     1 <1>   0.1500 
 35 H       -1.1630     4.3450    -0.2890 H     1 <1>   0.4000 
 36 H       -4.7190    -1.5160    -1.6450 H     1 <1>   0.1500 
 37 H       -6.3270    -0.4530    -0.1240 H     1 <1>   0.1500 
 38 H       -5.7260     2.8280     1.5240 H     1 <1>   0.0800 
 39 H       -6.0070     1.2910     2.3090 H     1 <1>   0.0800 
 40 H       -6.9800     1.7680     0.9340 H     1 <1>   0.0800 
 41 H        2.9580     5.9500     2.4580 H     1 <1>   0.1500 
 42 H       -0.8540     7.8150     2.7310 H     1 <1>   0.1500 
 43 H        1.5290     7.6680     3.4350 H     1 <1>   0.1500 
 44 H       -0.8690     8.1680    -0.5380 H     1 <1>   0.0800 
 45 H       -1.6720     9.1920     0.6510 H     1 <1>   0.0800 
 46 H       -4.6800     7.2440     0.6980 H     1 <1>   0.0800 
 47 H       -4.1210     6.5470    -0.8170 H     1 <1>   0.0800 
 48 H       -2.4680     8.6060    -2.1670 H     1 <1>   0.0800 
 49 H       -2.5710    10.1360    -1.3200 H     1 <1>   0.0800 
 50 H       -4.5040     9.4200    -0.1050 H     1 <1>   0.0800 
 51 H       -4.8000     8.6470    -1.6490 H     1 <1>   0.0800 
@<TRIPOS>BOND
  1   1   2  2   
  2   2   3  am  
  3   2   4  1   
  4   3   5  1   
  5   3   6  1   
  6   4   7  1   
  7   4  28  1   
  8   4  29  1   
  9   5   8  ar  
 10   5   9  ar  
 11   6   7  1   
 12   6  30  1   
 13   6  31  1   
 14   7  10  1   
 15   7  32  1   
 16   8  11  ar  
 17   8  33  1   
 18   9  12  ar  
 19   9  34  1   
 20  10  13  1   
 21  10  35  1   
 22  11  14  ar  
 23  11  15  1   
 24  12  14  ar  
 25  12  36  1   
 26  13  16  ar  
 27  13  17  ar  
 28  14  37  1   
 29  15  38  1   
 30  15  39  1   
 31  15  40  1   
 32  16  18  ar  
 33  17  19  1   
 34  17  20  ar  
 35  18  21  ar  
 36  18  41  1   
 37  19  22  2   
 38  19  23  am  
 39  20  21  ar  
 40  20  42  1   
 41  21  43  1   
 42  23  24  1   
 43  23  25  1   
 44  24  26  1   
 45  24  44  1   
 46  24  45  1   
 47  25  27  1   
 48  25  46  1   
 49  25  47  1   
 50  26  27  1   
 51  26  48  1   
 52  26  49  1   
 53  27  50  1   
 54  27  51  1   
@<TRIPOS>SUBSTRUCTURE
  1 ****  22 GROUP 4 **** **** 0

# MOE 2024.06 (io_trps.svl 2023.06)
