@<TRIPOS>MOLECULE
NONAME
38 40 1 0 0 
SMALL
USER_CHARGES


@<TRIPOS>ATOM
  1 O       -1.5160     0.0490    -2.4980 O.2   1 <1>  -0.5700 
  2 C       -2.1890     0.6800    -1.7000 C.2   1 <1>   0.5440 
  3 N       -3.3120     0.0870    -1.1830 N.am  1 <1>  -0.6600 
  4 C       -1.7890     2.0270    -1.3380 C.ar  1 <1>   0.0860 
  5 C       -4.4020     0.8510    -0.5010 C.3   1 <1>   0.2350 
  6 C       -3.1760    -1.2760    -0.6020 C.3   1 <1>   0.2350 
  7 C       -1.4080     2.3880    -0.0360 C.ar  1 <1>  -0.1440 
  8 C       -1.7760     3.0170    -2.3190 C.ar  1 <1>  -0.1500 
  9 C       -4.9350    -0.0450     0.6010 C.3   1 <1>  -0.2420 
 10 C       -4.1460    -1.3350     0.5630 C.3   1 <1>  -0.2420 
 11 C       -1.0700     3.6990     0.2550 C.ar  1 <1>  -0.1500 
 12 C       -1.3580     1.3570     1.0920 C.3   1 <1>  -0.0970 
 13 C       -1.4260     4.3210    -2.0270 C.ar  1 <1>  -0.1500 
 14 C       -5.4990     0.7900     1.7550 C.2   1 <1>   0.9470 
 15 C       -5.6210    -1.3480     0.2800 C.3   1 <1>  -0.2000 
 16 C       -3.5660    -2.1440     1.7240 C.2   1 <1>   0.9470 
 17 C       -1.0780     4.6770    -0.7360 C.ar  1 <1>   0.0820 
 18 O       -6.7020     0.6990     2.0360 O.co2 1 <1>  -0.9000 
 19 O       -4.7880     1.6620     2.2730 O.co2 1 <1>  -0.9000 
 20 O       -2.4680    -1.8150     2.1940 O.co2 1 <1>  -0.9000 
 21 O       -4.1220    -3.1970     2.0640 O.co2 1 <1>  -0.9000 
 22 O       -0.7640     5.9750    -0.5180 O.3   1 <1>  -0.3630 
 23 C       -0.5420     6.4650     0.7850 C.3   1 <1>   0.0400 
 24 H       -4.0280     1.7690    -0.0840 H     1 <1>   0.0800 
 25 H       -5.1880     1.0800    -1.1980 H     1 <1>   0.0800 
 26 H       -3.4200    -2.0210    -1.3360 H     1 <1>   0.0800 
 27 H       -2.1640    -1.4290    -0.2660 H     1 <1>   0.0800 
 28 H       -2.0470     2.7450    -3.3240 H     1 <1>   0.1500 
 29 H       -0.8040     3.9450     1.2650 H     1 <1>   0.1500 
 30 H       -0.7440     1.6960     1.9040 H     1 <1>   0.0800 
 31 H       -0.9590     0.4210     0.7460 H     1 <1>   0.0800 
 32 H       -2.3440     1.1730     1.4820 H     1 <1>   0.0800 
 33 H       -1.4240     5.0730    -2.7950 H     1 <1>   0.1500 
 34 H       -5.9750    -1.5200    -0.7190 H     1 <1>   0.1000 
 35 H       -6.2670    -1.7770     1.0280 H     1 <1>   0.1000 
 36 H       -0.3670     7.5240     0.7190 H     1 <1>   0.0800 
 37 H        0.3220     5.9760     1.1990 H     1 <1>   0.0800 
 38 H       -1.4160     6.2720     1.3820 H     1 <1>   0.0800 
@<TRIPOS>BOND
  1   1   2  2   
  2   2   3  am  
  3   2   4  1   
  4   3   5  1   
  5   3   6  1   
  6   4   7  ar  
  7   4   8  ar  
  8   5   9  1   
  9   5  24  1   
 10   5  25  1   
 11   6  10  1   
 12   6  26  1   
 13   6  27  1   
 14   7  11  ar  
 15   7  12  1   
 16   8  13  ar  
 17   8  28  1   
 18   9  10  1   
 19   9  14  1   
 20   9  15  1   
 21  10  15  1   
 22  10  16  1   
 23  11  17  ar  
 24  11  29  1   
 25  12  30  1   
 26  12  31  1   
 27  12  32  1   
 28  13  17  ar  
 29  13  33  1   
 30  14  18  ar  
 31  14  19  ar  
 32  15  34  1   
 33  15  35  1   
 34  16  20  ar  
 35  16  21  ar  
 36  17  22  1   
 37  22  23  1   
 38  23  36  1   
 39  23  37  1   
 40  23  38  1   
@<TRIPOS>SUBSTRUCTURE
  1 ****   5 GROUP 4 **** **** 0

# MOE 2024.06 (io_trps.svl 2023.06)
