@<TRIPOS>MOLECULE
NONAME
44 45 1 0 0 
SMALL
USER_CHARGES


@<TRIPOS>ATOM
  1 S        0.5990    -0.6760    -0.8340 S.3   1 <1>  -0.0800 
  2 C       -0.9880    -1.4020    -1.0310 C.2   1 <1>  -0.1400 
  3 C       -0.0330     0.9260    -1.1880 C.2   1 <1>  -0.1400 
  4 C       -1.8950    -0.4590    -1.3500 C.2   1 <1>  -0.1500 
  5 C       -1.0740    -2.9040    -0.8280 C.3   1 <1>   0.2900 
  6 C       -1.3530     0.8630    -1.4400 C.2   1 <1>  -0.1500 
  7 C        0.9380     2.0950    -1.1850 C.3   1 <1>   0.0200 
  8 N       -2.4670    -3.3320    -0.5980 N.3   1 <1>  -0.8100 
  9 C        0.9880     2.8340     0.1670 C.3   1 <1>  -0.0800 
 10 C       -2.5790    -4.8140    -0.6920 C.3   1 <1>   0.1100 
 11 C       -2.9320    -2.9160     0.7540 C.3   1 <1>   0.1100 
 12 C        1.8750     4.0810     0.0560 C.3   1 <1>  -0.2400 
 13 C        1.5020     1.9410     1.3050 C.3   1 <1>  -0.2400 
 14 C       -3.9940    -5.3380    -0.3310 C.3   1 <1>   0.3170 
 15 C       -4.3900    -3.3510     1.0420 C.3   1 <1>   0.3430 
 16 N       -4.9510    -4.1660    -0.0870 N.4   1 <1>  -0.9590 
 17 C       -3.9130    -6.3460     0.8350 C.2   1 <1>   0.9060 
 18 C       -6.3210    -4.6760     0.2030 C.3   1 <1>   0.2630 
 19 O       -3.3260    -6.0210     1.8750 O.co2 1 <1>  -0.9000 
 20 O       -4.5450    -7.3990     0.7230 O.co2 1 <1>  -0.9000 
 21 H       -2.9380    -0.6430    -1.5340 H     1 <1>   0.1500 
 22 H       -0.4600    -3.1940     0.0090 H     1 <1>   0.0800 
 23 H       -0.6860    -3.3840    -1.7100 H     1 <1>   0.0800 
 24 H       -1.9800     1.7000    -1.6910 H     1 <1>   0.1500 
 25 H        0.6210     2.7880    -1.9440 H     1 <1>   0.0800 
 26 H        1.9200     1.7470    -1.4560 H     1 <1>   0.0800 
 27 H       -0.0120     3.1530     0.4120 H     1 <1>   0.0800 
 28 H       -1.8520    -5.2760    -0.0420 H     1 <1>   0.0800 
 29 H       -2.3480    -5.1250    -1.6960 H     1 <1>   0.0800 
 30 H       -2.8630    -1.8470     0.8570 H     1 <1>   0.0800 
 31 H       -2.2980    -3.3550     1.5070 H     1 <1>   0.0800 
 32 H        2.8870     3.8070    -0.1840 H     1 <1>   0.0800 
 33 H        1.8790     4.6210     0.9870 H     1 <1>   0.0800 
 34 H        1.5050     4.7390    -0.7110 H     1 <1>   0.0800 
 35 H        2.4750     1.5480     1.0700 H     1 <1>   0.0800 
 36 H        0.8290     1.1190     1.4710 H     1 <1>   0.0800 
 37 H        1.5690     2.5030     2.2200 H     1 <1>   0.0800 
 38 H       -4.3550    -5.9080    -1.1670 H     1 <1>   0.0800 
 39 H       -4.9960    -2.4750     1.2000 H     1 <1>   0.0800 
 40 H       -4.4010    -3.9300     1.9520 H     1 <1>   0.0800 
 41 H       -4.8860    -3.5800    -0.9280 H     1 <1>   0.4500 
 42 H       -6.3030    -5.3000     1.0850 H     1 <1>   0.0800 
 43 H       -6.6780    -5.2710    -0.6210 H     1 <1>   0.0800 
 44 H       -7.0010    -3.8580     0.3670 H     1 <1>   0.0800 
@<TRIPOS>BOND
  1   1   2  1   
  2   1   3  1   
  3   2   4  2   
  4   2   5  1   
  5   3   6  2   
  6   3   7  1   
  7   4   6  1   
  8   4  21  1   
  9   5   8  1   
 10   5  22  1   
 11   5  23  1   
 12   6  24  1   
 13   7   9  1   
 14   7  25  1   
 15   7  26  1   
 16   8  10  1   
 17   8  11  1   
 18   9  12  1   
 19   9  13  1   
 20   9  27  1   
 21  10  14  1   
 22  10  28  1   
 23  10  29  1   
 24  11  15  1   
 25  11  30  1   
 26  11  31  1   
 27  12  32  1   
 28  12  33  1   
 29  12  34  1   
 30  13  35  1   
 31  13  36  1   
 32  13  37  1   
 33  14  16  1   
 34  14  17  1   
 35  14  38  1   
 36  15  16  1   
 37  15  39  1   
 38  15  40  1   
 39  16  18  1   
 40  16  41  1   
 41  17  19  ar  
 42  17  20  ar  
 43  18  42  1   
 44  18  43  1   
 45  18  44  1   
@<TRIPOS>SUBSTRUCTURE
  1 ****   5 GROUP 4 **** **** 0

# MOE 2024.06 (io_trps.svl 2023.06)
