@<TRIPOS>MOLECULE
NONAME
40 43 1 0 0 
SMALL
USER_CHARGES


@<TRIPOS>ATOM
  1 O        1.2560     0.5820    -1.2020 O.3   1 <1>  -0.0190 
  2 N        0.5310     1.6570    -1.2740 N.2   1 <1>  -0.4100 
  3 C        1.5080     0.4530     0.0780 C.2   1 <1>   0.2980 
  4 C        0.3860     2.0950    -0.0860 C.2   1 <1>   0.3350 
  5 N        1.0080     1.3590     0.8260 N.2   1 <1>  -0.5650 
  6 C        2.3750    -0.7190     0.5460 C.3   1 <1>   0.4690 
  7 C       -0.4020     3.3410     0.3240 C.3   1 <1>   0.1010 
  8 N        2.0360    -2.0230    -0.0960 N.pl3 1 <1>  -0.8210 
  9 C        3.8520    -0.5100     0.2170 C.3   1 <1>  -0.1600 
 10 C       -1.5570     3.6500    -0.6430 C.3   1 <1>  -0.2400 
 11 C        0.5280     4.5560     0.4380 C.3   1 <1>  -0.2400 
 12 C        0.9940    -2.7520     0.4660 C.2   1 <1>   0.5990 
 13 C        3.2750    -2.7430    -0.4810 C.3   1 <1>   0.2090 
 14 C        4.4220    -1.9180     0.0920 C.3   1 <1>  -0.1600 
 15 N        0.1660    -2.3190     1.3370 N.2   1 <1>  -0.4100 
 16 N        0.7740    -4.0080     0.1060 N.2   1 <1>  -0.5650 
 17 O       -0.6640    -3.2960     1.5880 O.3   1 <1>  -0.0190 
 18 C       -0.2450    -4.2680     0.8170 C.2   1 <1>   0.3930 
 19 C       -1.0000    -5.5880     0.8510 C.3   1 <1>  -0.0150 
 20 C       -1.0380    -6.5040    -0.3350 C.3   1 <1>  -0.2000 
 21 C       -2.2700    -5.7510     0.0730 C.3   1 <1>  -0.2000 
 22 H        2.2730    -0.8160     1.6130 H     1 <1>   0.0800 
 23 H       -0.8270     3.1460     1.2930 H     1 <1>   0.0800 
 24 H        3.9380     0.0010    -0.7270 H     1 <1>   0.0800 
 25 H        4.3450     0.0720     0.9750 H     1 <1>   0.0800 
 26 H       -1.1760     3.8730    -1.6240 H     1 <1>   0.0800 
 27 H       -2.1280     4.4900    -0.2910 H     1 <1>   0.0800 
 28 H       -2.2090     2.7970    -0.7170 H     1 <1>   0.0800 
 29 H        0.9780     4.7700    -0.5160 H     1 <1>   0.0800 
 30 H        1.3110     4.3510     1.1470 H     1 <1>   0.0800 
 31 H       -0.0180     5.4210     0.7690 H     1 <1>   0.0800 
 32 H        3.2970    -3.7490    -0.0970 H     1 <1>   0.0800 
 33 H        3.3340    -2.7740    -1.5560 H     1 <1>   0.0800 
 34 H        4.6750    -2.3020     1.0650 H     1 <1>   0.0800 
 35 H        5.2930    -1.9560    -0.5380 H     1 <1>   0.0800 
 36 H       -0.9520    -6.0460     1.8220 H     1 <1>   0.1000 
 37 H       -0.5200    -6.2060    -1.2310 H     1 <1>   0.1000 
 38 H       -0.9950    -7.5660    -0.1670 H     1 <1>   0.1000 
 39 H       -3.0850    -6.2890     0.5230 H     1 <1>   0.1000 
 40 H       -2.6030    -4.9390    -0.5500 H     1 <1>   0.1000 
@<TRIPOS>BOND
  1   1   2  1   
  2   1   3  1   
  3   2   4  2   
  4   3   5  2   
  5   3   6  1   
  6   4   5  1   
  7   4   7  1   
  8   6   8  1   
  9   6   9  1   
 10   6  22  1   
 11   7  10  1   
 12   7  11  1   
 13   7  23  1   
 14   8  12  1   
 15   8  13  1   
 16   9  14  1   
 17   9  24  1   
 18   9  25  1   
 19  10  26  1   
 20  10  27  1   
 21  10  28  1   
 22  11  29  1   
 23  11  30  1   
 24  11  31  1   
 25  12  15  2   
 26  12  16  1   
 27  13  14  1   
 28  13  32  1   
 29  13  33  1   
 30  14  34  1   
 31  14  35  1   
 32  15  17  1   
 33  16  18  2   
 34  17  18  1   
 35  18  19  1   
 36  19  20  1   
 37  19  21  1   
 38  19  36  1   
 39  20  21  1   
 40  20  37  1   
 41  20  38  1   
 42  21  39  1   
 43  21  40  1   
@<TRIPOS>SUBSTRUCTURE
  1 ****   8 GROUP 4 **** **** 0

# MOE 2024.06 (io_trps.svl 2023.06)
