@<TRIPOS>MOLECULE
NONAME
45 47 1 0 0 
SMALL
USER_CHARGES


@<TRIPOS>ATOM
  1 S        1.4600     0.2210    -0.4200 S.o2  1 <1>   1.4470 
  2 O        2.4100     0.3650    -1.4950 O.2   1 <1>  -0.6500 
  3 O        1.6170     0.9550     0.8100 O.2   1 <1>  -0.6500 
  4 N        0.0890     0.8840    -1.0650 N.am  1 <1>  -0.9780 
  5 C        1.0120    -1.5140    -0.1260 C.ar  1 <1>  -0.0090 
  6 C        1.3610    -2.5140    -1.0260 C.ar  1 <1>  -0.1500 
  7 C        0.2860    -1.8850     0.9990 C.ar  1 <1>  -0.1500 
  8 C        0.9910    -3.8310    -0.8130 C.ar  1 <1>  -0.1500 
  9 C       -0.0840    -3.2010     1.2130 C.ar  1 <1>  -0.1500 
 10 C        0.2490    -4.2020     0.3040 C.ar  1 <1>   0.0860 
 11 C       -0.1680    -5.5770     0.5050 C.2   1 <1>   0.5440 
 12 O        0.6820    -6.4380     0.6170 O.2   1 <1>  -0.5700 
 13 N       -1.5020    -5.9340     0.5610 N.am  1 <1>  -0.6600 
 14 C       -2.5780    -5.0340     0.0480 C.3   1 <1>   0.2200 
 15 C       -1.8780    -7.3120     1.0080 C.3   1 <1>   0.0600 
 16 C       -3.5270    -5.6930    -0.9510 C.3   1 <1>  -0.1600 
 17 C       -3.4940    -4.5160     1.1520 C.3   1 <1>  -0.1600 
 18 C       -4.7550    -4.7730    -0.9620 C.3   1 <1>  -0.0800 
 19 C       -4.7620    -4.0620     0.4160 C.3   1 <1>  -0.0800 
 20 C       -6.0540    -5.5120    -1.3440 C.3   1 <1>   0.1400 
 21 C       -6.0470    -4.2830     1.2360 C.3   1 <1>  -0.0990 
 22 N       -7.2250    -4.7540    -0.8580 N.am  1 <1>  -0.7300 
 23 C       -7.2660    -4.1550     0.3510 C.2   1 <1>   0.5690 
 24 O       -8.2370    -3.5480     0.7220 O.2   1 <1>  -0.5700 
 25 H        0.3930     1.1910    -1.9860 H     1 <1>   0.4200 
 26 H       -0.0380     1.7290    -0.5150 H     1 <1>   0.4200 
 27 H        1.9310    -2.2600    -1.9050 H     1 <1>   0.1500 
 28 H        0.0080    -1.1310     1.7180 H     1 <1>   0.1500 
 29 H        1.2770    -4.5930    -1.5190 H     1 <1>   0.1500 
 30 H       -0.6370    -3.4660     2.0970 H     1 <1>   0.1500 
 31 H       -2.1420    -4.1830    -0.4470 H     1 <1>   0.0800 
 32 H       -2.8310    -7.3090     1.5030 H     1 <1>   0.0800 
 33 H       -1.1420    -7.6930     1.6960 H     1 <1>   0.0800 
 34 H       -1.9190    -7.9680     0.1570 H     1 <1>   0.0800 
 35 H       -3.0780    -5.7700    -1.9250 H     1 <1>   0.0800 
 36 H       -3.8190    -6.6680    -0.6090 H     1 <1>   0.0800 
 37 H       -3.7290    -5.3090     1.8380 H     1 <1>   0.0800 
 38 H       -3.0440    -3.7020     1.6900 H     1 <1>   0.0800 
 39 H       -4.5880    -4.0160    -1.7090 H     1 <1>   0.0800 
 40 H       -4.6810    -3.0040     0.2240 H     1 <1>   0.0800 
 41 H       -6.0760    -6.4900    -0.8940 H     1 <1>   0.0800 
 42 H       -6.1110    -5.6280    -2.4140 H     1 <1>   0.0800 
 43 H       -6.1060    -3.5670     2.0360 H     1 <1>   0.0800 
 44 H       -6.0580    -5.2690     1.6630 H     1 <1>   0.0800 
 45 H       -8.0620    -4.6980    -1.4430 H     1 <1>   0.3700 
@<TRIPOS>BOND
  1   1   2  2   
  2   1   3  2   
  3   1   4  am  
  4   1   5  1   
  5   4  25  1   
  6   4  26  1   
  7   5   6  ar  
  8   5   7  ar  
  9   6   8  ar  
 10   6  27  1   
 11   7   9  ar  
 12   7  28  1   
 13   8  10  ar  
 14   8  29  1   
 15   9  10  ar  
 16   9  30  1   
 17  10  11  1   
 18  11  12  2   
 19  11  13  am  
 20  13  14  1   
 21  13  15  1   
 22  14  16  1   
 23  14  17  1   
 24  14  31  1   
 25  15  32  1   
 26  15  33  1   
 27  15  34  1   
 28  16  18  1   
 29  16  35  1   
 30  16  36  1   
 31  17  19  1   
 32  17  37  1   
 33  17  38  1   
 34  18  19  1   
 35  18  20  1   
 36  18  39  1   
 37  19  21  1   
 38  19  40  1   
 39  20  22  1   
 40  20  41  1   
 41  20  42  1   
 42  21  23  1   
 43  21  43  1   
 44  21  44  1   
 45  22  23  am  
 46  22  45  1   
 47  23  24  2   
@<TRIPOS>SUBSTRUCTURE
  1 ****  14 GROUP 4 **** **** 0

# MOE 2024.06 (io_trps.svl 2023.06)
