@<TRIPOS>MOLECULE
NONAME
46 47 1 0 0 
SMALL
USER_CHARGES


@<TRIPOS>ATOM
  1 S        2.0110     0.1210     0.3840 S.o2  1 <1>   1.3330 
  2 O        3.2090     0.7340     0.9050 O.2   1 <1>  -0.6500 
  3 O        2.0320    -1.2210    -0.1470 O.2   1 <1>  -0.6500 
  4 N        1.3580     1.1470    -0.8560 N.am  1 <1>  -0.6930 
  5 C        0.7350     0.2040     1.6200 C.3   1 <1>  -0.1350 
  6 C        1.2520     2.5220    -0.7140 C.ar  1 <1>   0.1990 
  7 C        0.8080     0.4820    -2.0630 C.3   1 <1>   0.1160 
  8 C        2.3690     3.3180    -0.4900 C.ar  1 <1>  -0.1500 
  9 C        0.0130     3.1500    -0.7940 C.ar  1 <1>  -0.1500 
 10 C        2.2540     4.6870    -0.3460 C.ar  1 <1>  -0.1500 
 11 C       -0.1000     4.5190    -0.6510 C.ar  1 <1>  -0.1500 
 12 C        1.0150     5.3290    -0.4270 C.ar  1 <1>   0.0860 
 13 C        0.8770     6.7660    -0.2840 C.2   1 <1>   0.5440 
 14 O       -0.1720     7.2590     0.0840 O.2   1 <1>  -0.5700 
 15 N        1.9140     7.6040    -0.5640 N.am  1 <1>  -0.7300 
 16 C        1.9150     9.0540    -0.3230 C.3   1 <1>   0.3210 
 17 C        3.3350     9.4640     0.0080 C.2   1 <1>  -0.1810 
 18 C        4.0570     9.1290     1.1500 C.2   1 <1>   0.1080 
 19 C        4.1850    10.2160    -0.7230 C.2   1 <1>  -0.3020 
 20 N        5.2540     9.6240     1.1310 N.2   1 <1>  -0.7070 
 21 C        3.5620     8.2870     2.3050 C.3   1 <1>  -0.0590 
 22 N        5.3350    10.3040    -0.0260 N.pl3 1 <1>   0.3140 
 23 C        6.5590    11.0280    -0.4230 C.3   1 <1>   0.0960 
 24 C        6.4240    12.5330    -0.1600 C.3   1 <1>  -0.2400 
 25 H        0.9980    -0.4080     2.4600 H     1 <1>   0.0800 
 26 H       -0.1950    -0.1430     1.2170 H     1 <1>   0.0800 
 27 H        0.6120     1.2150     1.9570 H     1 <1>   0.0800 
 28 H        1.5700    -0.1300    -2.5150 H     1 <1>   0.0800 
 29 H        0.4820     1.2130    -2.7810 H     1 <1>   0.0800 
 30 H       -0.0240    -0.1440    -1.7890 H     1 <1>   0.0800 
 31 H        3.3380     2.8540    -0.4300 H     1 <1>   0.1500 
 32 H       -0.8670     2.5560    -0.9640 H     1 <1>   0.1500 
 33 H        3.1430     5.2630    -0.1600 H     1 <1>   0.1500 
 34 H       -1.0710     4.9830    -0.7130 H     1 <1>   0.1500 
 35 H        2.8070     7.2430    -0.9000 H     1 <1>   0.3700 
 36 H        1.2540     9.3010     0.4910 H     1 <1>   0.0800 
 37 H        1.5780     9.5630    -1.2090 H     1 <1>   0.0800 
 38 H        4.0430    10.6860    -1.6780 H     1 <1>   0.1500 
 39 H        2.4920     8.3350     2.3800 H     1 <1>   0.0800 
 40 H        3.9900     8.6480     3.2220 H     1 <1>   0.0800 
 41 H        3.8610     7.2670     2.1590 H     1 <1>   0.0800 
 42 H        6.7410    10.8440    -1.4660 H     1 <1>   0.0800 
 43 H        7.3810    10.6290     0.1440 H     1 <1>   0.0800 
 44 H        5.6120    12.9440    -0.7340 H     1 <1>   0.0800 
 45 H        7.3320    13.0350    -0.4380 H     1 <1>   0.0800 
 46 H        6.2430    12.7060     0.8870 H     1 <1>   0.0800 
@<TRIPOS>BOND
  1   1   2  2   
  2   1   3  2   
  3   1   4  am  
  4   1   5  1   
  5   4   6  1   
  6   4   7  1   
  7   5  25  1   
  8   5  26  1   
  9   5  27  1   
 10   6   8  ar  
 11   6   9  ar  
 12   7  28  1   
 13   7  29  1   
 14   7  30  1   
 15   8  10  ar  
 16   8  31  1   
 17   9  11  ar  
 18   9  32  1   
 19  10  12  ar  
 20  10  33  1   
 21  11  12  ar  
 22  11  34  1   
 23  12  13  1   
 24  13  14  2   
 25  13  15  am  
 26  15  16  1   
 27  15  35  1   
 28  16  17  1   
 29  16  36  1   
 30  16  37  1   
 31  17  18  1   
 32  17  19  2   
 33  18  20  2   
 34  18  21  1   
 35  19  22  1   
 36  19  38  1   
 37  20  22  1   
 38  21  39  1   
 39  21  40  1   
 40  21  41  1   
 41  22  23  1   
 42  23  24  1   
 43  23  42  1   
 44  23  43  1   
 45  24  44  1   
 46  24  45  1   
 47  24  46  1   
@<TRIPOS>SUBSTRUCTURE
  1 ****  10 GROUP 4 **** **** 0

# MOE 2024.06 (io_trps.svl 2023.06)
