@<TRIPOS>MOLECULE
NONAME
48 51 1 0 0 
SMALL
USER_CHARGES


@<TRIPOS>ATOM
  1 O       -0.9380    -0.4250    -0.8100 O.2   1 <1>  -0.5700 
  2 C       -0.7410    -1.6260    -0.7160 C.2   1 <1>   0.5440 
  3 N       -1.6190    -2.5110    -1.2970 N.am  1 <1>  -0.4200 
  4 C        0.3830    -2.1600     0.0000 C.ar  1 <1>   0.0860 
  5 C       -1.4000    -3.8630    -1.1760 C.2   1 <1>   0.4500 
  6 C       -2.8210    -2.0380    -2.0510 C.3   1 <1>   0.2010 
  7 C        0.5050    -3.5530     0.0610 C.ar  1 <1>   0.1790 
  8 C        1.3470    -1.3690     0.6330 C.ar  1 <1>  -0.1500 
  9 N       -0.4170    -4.3840    -0.5460 N.2   1 <1>  -0.6290 
 10 C       -4.1180    -2.6220    -1.4950 C.2   1 <1>   0.5690 
 11 C        1.5740    -4.1170     0.7470 C.ar  1 <1>  -0.1500 
 12 C        2.4030    -1.9430     1.3100 C.ar  1 <1>  -0.1500 
 13 O       -4.6220    -3.5160    -2.1350 O.2   1 <1>  -0.5700 
 14 N       -4.6740    -2.1740    -0.3190 N.am  1 <1>  -0.6600 
 15 C        2.5180    -3.3240     1.3680 C.ar  1 <1>  -0.1500 
 16 C       -5.9100    -2.8010     0.2410 C.3   1 <1>   0.1400 
 17 C       -4.1420    -1.0610     0.5160 C.3   1 <1>   0.1400 
 18 C       -7.0480    -1.7660     0.4110 C.3   1 <1>   0.0000 
 19 C       -5.2230     0.0090     0.6920 C.3   1 <1>  -0.1600 
 20 C       -8.2670    -2.4790     1.0320 C.3   1 <1>   0.2000 
 21 C       -6.5230    -0.5810     1.2610 C.3   1 <1>  -0.1600 
 22 C       -7.5770    -1.3160    -0.9660 C.3   1 <1>  -0.1600 
 23 O       -9.1630    -1.5550     1.5380 O.3   1 <1>  -0.6800 
 24 C       -8.9590    -3.1790    -0.1360 C.3   1 <1>  -0.1600 
 25 C       -8.6320    -2.3490    -1.3860 C.3   1 <1>  -0.1600 
 26 H       -2.1180    -4.5100    -1.6520 H     1 <1>   0.0600 
 27 H       -2.8900    -0.9670    -2.0460 H     1 <1>   0.0800 
 28 H       -2.7230    -2.3450    -3.0760 H     1 <1>   0.0800 
 29 H        1.2560    -0.2970     0.5850 H     1 <1>   0.1500 
 30 H        1.6520    -5.1890     0.7850 H     1 <1>   0.1500 
 31 H        3.1400    -1.3240     1.7940 H     1 <1>   0.1500 
 32 H        3.3410    -3.7740     1.8960 H     1 <1>   0.1500 
 33 H       -6.2380    -3.6070    -0.3930 H     1 <1>   0.0800 
 34 H       -5.6680    -3.2260     1.1990 H     1 <1>   0.0800 
 35 H       -3.8560    -1.4520     1.4780 H     1 <1>   0.0800 
 36 H       -3.2750    -0.6100     0.0730 H     1 <1>   0.0800 
 37 H       -4.8560     0.7720     1.3560 H     1 <1>   0.0800 
 38 H       -5.4140     0.4730    -0.2590 H     1 <1>   0.0800 
 39 H       -8.0030    -3.1560     1.8280 H     1 <1>   0.0800 
 40 H       -7.2640     0.1980     1.3220 H     1 <1>   0.0800 
 41 H       -6.3400    -0.9270     2.2640 H     1 <1>   0.0800 
 42 H       -8.0520    -0.3550    -0.8750 H     1 <1>   0.0800 
 43 H       -6.7960    -1.2340    -1.7010 H     1 <1>   0.0800 
 44 H       -9.4510    -0.9690     0.8130 H     1 <1>   0.4000 
 45 H       -8.5360    -4.1620    -0.2520 H     1 <1>   0.0800 
 46 H      -10.0180    -3.2860     0.0240 H     1 <1>   0.0800 
 47 H       -8.2390    -2.9900    -2.1580 H     1 <1>   0.0800 
 48 H       -9.5120    -1.8560    -1.7620 H     1 <1>   0.0800 
@<TRIPOS>BOND
  1   1   2  2   
  2   2   3  am  
  3   2   4  1   
  4   3   5  1   
  5   3   6  1   
  6   4   7  ar  
  7   4   8  ar  
  8   5   9  2   
  9   5  26  1   
 10   6  10  1   
 11   6  27  1   
 12   6  28  1   
 13   7   9  1   
 14   7  11  ar  
 15   8  12  ar  
 16   8  29  1   
 17  10  13  2   
 18  10  14  am  
 19  11  15  ar  
 20  11  30  1   
 21  12  15  ar  
 22  12  31  1   
 23  14  16  1   
 24  14  17  1   
 25  15  32  1   
 26  16  18  1   
 27  16  33  1   
 28  16  34  1   
 29  17  19  1   
 30  17  35  1   
 31  17  36  1   
 32  18  20  1   
 33  18  21  1   
 34  18  22  1   
 35  19  21  1   
 36  19  37  1   
 37  19  38  1   
 38  20  23  1   
 39  20  24  1   
 40  20  39  1   
 41  21  40  1   
 42  21  41  1   
 43  22  25  1   
 44  22  42  1   
 45  22  43  1   
 46  23  44  1   
 47  24  25  1   
 48  24  45  1   
 49  24  46  1   
 50  25  47  1   
 51  25  48  1   
@<TRIPOS>SUBSTRUCTURE
  1 ****  14 GROUP 4 **** **** 0

# MOE 2024.06 (io_trps.svl 2023.06)
