@<TRIPOS>MOLECULE
NONAME
46 48 1 0 0 
SMALL
USER_CHARGES


@<TRIPOS>ATOM
  1 O        2.1390    -4.4440    -0.6500 O.3   1 <1>  -0.3630 
  2 C        0.9930    -4.7910    -0.0190 C.ar  1 <1>   0.0830 
  3 C        3.3890    -4.5330    -0.0010 C.3   1 <1>   0.0400 
  4 C       -0.1920    -4.4000    -0.6180 C.ar  1 <1>  -0.1500 
  5 C        0.9540    -5.5110     1.1710 C.ar  1 <1>  -0.1500 
  6 C       -1.4080    -4.7340    -0.0510 C.ar  1 <1>  -0.1500 
  7 C       -0.2640    -5.8500     1.7340 C.ar  1 <1>  -0.1500 
  8 C       -1.4510    -5.4710     1.1240 C.ar  1 <1>  -0.1430 
  9 C       -2.7790    -5.8990     1.7130 C.3   1 <1>   0.4860 
 10 N       -3.1840    -7.0810     0.9300 N.4   1 <1>  -0.9590 
 11 C       -4.2720    -6.8960    -0.0660 C.3   1 <1>   0.3430 
 12 C       -3.4240    -8.3570     1.6320 C.3   1 <1>   0.3430 
 13 C       -4.8220    -8.3040    -0.3360 C.3   1 <1>   0.2000 
 14 C       -4.0180    -9.2660     0.5520 C.3   1 <1>  -0.0800 
 15 O       -6.1600    -8.3540     0.0380 O.3   1 <1>  -0.6800 
 16 C       -2.9370   -10.0430    -0.2420 C.3   1 <1>   0.0210 
 17 C       -1.6730    -9.2620    -0.5860 C.2   1 <1>   0.1080 
 18 N       -1.6660    -8.1200    -1.2070 N.2   1 <1>  -0.7070 
 19 C       -0.3890    -9.6870    -0.2660 C.2   1 <1>  -0.1500 
 20 N       -0.3560    -7.7910    -1.3120 N.pl3 1 <1>   0.3000 
 21 C        0.4290    -8.7260    -0.7410 C.2   1 <1>  -0.3320 
 22 C        1.9440    -8.6430    -0.7000 C.3   1 <1>  -0.0600 
 23 H        4.1330    -4.1050    -0.6480 H     1 <1>   0.0800 
 24 H        3.6190    -5.5680     0.1820 H     1 <1>   0.0800 
 25 H        3.3450    -3.9790     0.9200 H     1 <1>   0.0800 
 26 H       -0.1510    -3.8300    -1.5300 H     1 <1>   0.1500 
 27 H        1.8570    -5.8180     1.6630 H     1 <1>   0.1500 
 28 H       -2.3140    -4.4180    -0.5400 H     1 <1>   0.1500 
 29 H       -0.2710    -6.4180     2.6490 H     1 <1>   0.1500 
 30 H       -3.5050    -5.1090     1.6230 H     1 <1>   0.0800 
 31 H       -2.6560    -6.1540     2.7520 H     1 <1>   0.0800 
 32 H       -2.3570    -7.2830     0.3200 H     1 <1>   0.4500 
 33 H       -5.0530    -6.2630     0.3210 H     1 <1>   0.0800 
 34 H       -3.8710    -6.4740    -0.9730 H     1 <1>   0.0800 
 35 H       -2.5100    -8.7640     2.0350 H     1 <1>   0.0800 
 36 H       -4.1390    -8.2110     2.4250 H     1 <1>   0.0800 
 37 H       -4.7640    -8.5500    -1.3830 H     1 <1>   0.0800 
 38 H       -4.6690    -9.9960     1.0000 H     1 <1>   0.0800 
 39 H       -6.2930    -8.3090     1.0040 H     1 <1>   0.4000 
 40 H       -3.3610   -10.4230    -1.1550 H     1 <1>   0.0800 
 41 H       -2.6420   -10.8990     0.3390 H     1 <1>   0.0800 
 42 H       -0.1210   -10.5970     0.2430 H     1 <1>   0.1500 
 43 H       -0.0240    -6.9260    -1.7620 H     1 <1>   0.2700 
 44 H        2.3500    -9.4950    -0.1860 H     1 <1>   0.0800 
 45 H        2.2580    -7.7510    -0.1880 H     1 <1>   0.0800 
 46 H        2.3420    -8.6270    -1.7000 H     1 <1>   0.0800 
@<TRIPOS>BOND
  1   1   2  1   
  2   1   3  1   
  3   2   4  ar  
  4   2   5  ar  
  5   3  23  1   
  6   3  24  1   
  7   3  25  1   
  8   4   6  ar  
  9   4  26  1   
 10   5   7  ar  
 11   5  27  1   
 12   6   8  ar  
 13   6  28  1   
 14   7   8  ar  
 15   7  29  1   
 16   8   9  1   
 17   9  10  1   
 18   9  30  1   
 19   9  31  1   
 20  10  11  1   
 21  10  12  1   
 22  10  32  1   
 23  11  13  1   
 24  11  33  1   
 25  11  34  1   
 26  12  14  1   
 27  12  35  1   
 28  12  36  1   
 29  13  14  1   
 30  13  15  1   
 31  13  37  1   
 32  14  16  1   
 33  14  38  1   
 34  15  39  1   
 35  16  17  1   
 36  16  40  1   
 37  16  41  1   
 38  17  18  2   
 39  17  19  1   
 40  18  20  1   
 41  19  21  2   
 42  19  42  1   
 43  20  21  1   
 44  20  43  1   
 45  21  22  1   
 46  22  44  1   
 47  22  45  1   
 48  22  46  1   
@<TRIPOS>SUBSTRUCTURE
  1 ****  18 GROUP 4 **** **** 0

# MOE 2024.06 (io_trps.svl 2023.06)
