@<TRIPOS>MOLECULE
NONAME
45 46 1 0 0 
SMALL
USER_CHARGES


@<TRIPOS>ATOM
  1 F       -0.3700     1.7840    -1.2270 F     1 <1>  -0.3400 
  2 C        0.3500     2.8480    -0.8690 C.3   1 <1>   0.9600 
  3 F        0.0990     3.7320    -1.8280 F     1 <1>  -0.3400 
  4 O        1.7320     2.5030    -0.9880 O.3   1 <1>  -0.3620 
  5 C       -0.1380     3.3980     0.5070 C.3   1 <1>   0.6000 
  6 C        2.2760     1.5420    -0.2040 C.ar  1 <1>   0.0830 
  7 F        0.5780     4.4360     0.9440 F     1 <1>  -0.3400 
  8 F       -0.0420     2.4950     1.4850 F     1 <1>  -0.3400 
  9 C        3.1670     1.8790     0.8290 C.ar  1 <1>   0.0860 
 10 C        1.9580     0.2140    -0.4610 C.ar  1 <1>  -0.1500 
 11 C        3.5880     3.2380     1.1140 C.2   1 <1>   0.5440 
 12 C        3.6620     0.8330     1.6110 C.ar  1 <1>  -0.1500 
 13 C        2.4730    -0.7970     0.3250 C.ar  1 <1>  -0.1500 
 14 O        3.8290     3.5860     2.2550 O.2   1 <1>  -0.5700 
 15 N        3.7420     4.1550     0.1230 N.am  1 <1>  -0.7300 
 16 C        3.3240    -0.4850     1.3700 C.ar  1 <1>  -0.1500 
 17 C        3.8100     5.6070     0.3240 C.3   1 <1>   0.4000 
 18 C        2.7540     6.2370    -0.5920 C.2   1 <1>   0.0060 
 19 C        5.2560     6.1090     0.0760 C.3   1 <1>  -0.0800 
 20 N        2.5380     5.8670    -1.8200 N.2   1 <1>  -0.5650 
 21 N        1.9180     7.2230    -0.1760 N.pl3 1 <1>   0.0480 
 22 C        5.3990     7.6090     0.3800 C.3   1 <1>  -0.2400 
 23 C        5.7900     5.8280    -1.3420 C.3   1 <1>  -0.2400 
 24 C        1.5280     6.6550    -2.2270 C.2   1 <1>   0.0770 
 25 C        1.1370     7.4860    -1.2390 C.2   1 <1>  -0.3020 
 26 C        1.8070     7.8510     1.1530 C.3   1 <1>   0.0160 
 27 H       -1.1620     3.7120     0.4580 H     1 <1>   0.0800 
 28 H        1.3080    -0.0380    -1.2800 H     1 <1>   0.1500 
 29 H        4.3290     1.0660     2.4240 H     1 <1>   0.1500 
 30 H        2.2170    -1.8240     0.1270 H     1 <1>   0.1500 
 31 H        3.4170     3.9390    -0.8260 H     1 <1>   0.3700 
 32 H        3.7240    -1.2680     1.9920 H     1 <1>   0.1500 
 33 H        3.5540     5.8200     1.3460 H     1 <1>   0.0800 
 34 H        5.8850     5.5810     0.7730 H     1 <1>   0.0800 
 35 H        4.8030     8.1930    -0.2990 H     1 <1>   0.0800 
 36 H        6.4260     7.9120     0.2750 H     1 <1>   0.0800 
 37 H        5.0910     7.8180     1.3890 H     1 <1>   0.0800 
 38 H        5.2160     6.3630    -2.0780 H     1 <1>   0.0800 
 39 H        5.7360     4.7780    -1.5660 H     1 <1>   0.0800 
 40 H        6.8170     6.1350    -1.4220 H     1 <1>   0.0800 
 41 H        1.1290     6.5780    -3.2240 H     1 <1>   0.1500 
 42 H        0.3620     8.2300    -1.2380 H     1 <1>   0.1500 
 43 H        2.7110     8.3880     1.3740 H     1 <1>   0.0800 
 44 H        1.6450     7.0900     1.8940 H     1 <1>   0.0800 
 45 H        0.9770     8.5340     1.1600 H     1 <1>   0.0800 
@<TRIPOS>BOND
  1   1   2  1   
  2   2   3  1   
  3   2   4  1   
  4   2   5  1   
  5   4   6  1   
  6   5   7  1   
  7   5   8  1   
  8   5  27  1   
  9   6   9  ar  
 10   6  10  ar  
 11   9  11  1   
 12   9  12  ar  
 13  10  13  ar  
 14  10  28  1   
 15  11  14  2   
 16  11  15  am  
 17  12  16  ar  
 18  12  29  1   
 19  13  16  ar  
 20  13  30  1   
 21  15  17  1   
 22  15  31  1   
 23  16  32  1   
 24  17  18  1   
 25  17  19  1   
 26  17  33  1   
 27  18  20  2   
 28  18  21  1   
 29  19  22  1   
 30  19  23  1   
 31  19  34  1   
 32  20  24  1   
 33  21  25  1   
 34  21  26  1   
 35  22  35  1   
 36  22  36  1   
 37  22  37  1   
 38  23  38  1   
 39  23  39  1   
 40  23  40  1   
 41  24  25  2   
 42  24  41  1   
 43  25  42  1   
 44  26  43  1   
 45  26  44  1   
 46  26  45  1   
@<TRIPOS>SUBSTRUCTURE
  1 ****  15 GROUP 4 **** **** 0

# MOE 2024.06 (io_trps.svl 2023.06)
