@<TRIPOS>MOLECULE
NONAME
38 39 1 0 0 
SMALL
USER_CHARGES


@<TRIPOS>ATOM
  1 O        0.5660    -0.6530    -1.4520 O.2   1 <1>  -0.5700 
  2 C        1.3260    -0.7220    -0.5060 C.2   1 <1>   0.7150 
  3 N        2.0340     0.3820    -0.1620 N.am  1 <1>  -0.7300 
  4 C        1.5300    -1.9250     0.2520 C.2   1 <1>  -0.2370 
  5 C        2.0780     1.6390    -0.9230 C.3   1 <1>   0.2840 
  6 N        0.5610    -2.8260     0.6510 N.pl3 1 <1>   0.0480 
  7 C        2.7390    -2.3810     0.7180 C.2   1 <1>  -0.1500 
  8 C        3.4860     2.1930    -0.8230 C.ar  1 <1>  -0.1430 
  9 C        1.1890    -3.8110     1.3460 C.2   1 <1>  -0.3020 
 10 C       -0.9260    -2.8200     0.4890 C.3   1 <1>   0.1760 
 11 C        2.5230    -3.5680     1.4040 C.2   1 <1>  -0.1500 
 12 C        3.8120     3.2260     0.0330 C.ar  1 <1>  -0.1500 
 13 C        4.5170     1.6790    -1.5830 C.ar  1 <1>  -0.1500 
 14 C       -1.3400    -3.2470    -0.9240 C.3   1 <1>  -0.2400 
 15 C       -1.5580    -1.4860     0.9070 C.3   1 <1>  -0.2400 
 16 C        5.1180     3.6880     0.0890 C.ar  1 <1>   0.1670 
 17 C        5.7880     2.2110    -1.4540 C.ar  1 <1>   0.1600 
 18 N        6.1100     3.2010    -0.6370 N.ar  1 <1>  -0.6200 
 19 C        5.4860     4.8210     1.0240 C.3   1 <1>  -0.0970 
 20 H        2.6990     0.3080     0.6060 H     1 <1>   0.3700 
 21 H        1.3670     2.3320    -0.5090 H     1 <1>   0.0800 
 22 H        1.8220     1.4600    -1.9540 H     1 <1>   0.0800 
 23 H        3.7030    -1.9220     0.5820 H     1 <1>   0.1500 
 24 H        0.6600    -4.6440     1.7730 H     1 <1>   0.1500 
 25 H       -1.3070    -3.5650     1.1650 H     1 <1>   0.0800 
 26 H        3.2820    -4.1640     1.8820 H     1 <1>   0.1500 
 27 H        3.0580     3.6700     0.6560 H     1 <1>   0.1500 
 28 H        4.3410     0.8710    -2.2700 H     1 <1>   0.1500 
 29 H       -1.0390    -2.5230    -1.6560 H     1 <1>   0.0800 
 30 H       -2.4080    -3.3510    -0.9760 H     1 <1>   0.0800 
 31 H       -0.8940    -4.1950    -1.1670 H     1 <1>   0.0800 
 32 H       -1.3440    -0.7080     0.1980 H     1 <1>   0.0800 
 33 H       -1.2000    -1.1940     1.8780 H     1 <1>   0.0800 
 34 H       -2.6260    -1.5950     0.9580 H     1 <1>   0.0800 
 35 H        6.5830     1.8010    -2.0530 H     1 <1>   0.1500 
 36 H        4.6320     5.1630     1.5780 H     1 <1>   0.0800 
 37 H        5.8810     5.6410     0.4530 H     1 <1>   0.0800 
 38 H        6.2390     4.4860     1.7130 H     1 <1>   0.0800 
@<TRIPOS>BOND
  1   1   2  2   
  2   2   3  am  
  3   2   4  1   
  4   3   5  1   
  5   3  20  1   
  6   4   6  1   
  7   4   7  2   
  8   5   8  1   
  9   5  21  1   
 10   5  22  1   
 11   6   9  1   
 12   6  10  1   
 13   7  11  1   
 14   7  23  1   
 15   8  12  ar  
 16   8  13  ar  
 17   9  11  2   
 18   9  24  1   
 19  10  14  1   
 20  10  15  1   
 21  10  25  1   
 22  11  26  1   
 23  12  16  ar  
 24  12  27  1   
 25  13  17  ar  
 26  13  28  1   
 27  14  29  1   
 28  14  30  1   
 29  14  31  1   
 30  15  32  1   
 31  15  33  1   
 32  15  34  1   
 33  16  18  ar  
 34  16  19  1   
 35  17  18  ar  
 36  17  35  1   
 37  19  36  1   
 38  19  37  1   
 39  19  38  1   
@<TRIPOS>SUBSTRUCTURE
  1 ****   3 GROUP 4 **** **** 0

# MOE 2024.06 (io_trps.svl 2023.06)
