@<TRIPOS>MOLECULE
NONAME
48 51 1 0 0 
SMALL
USER_CHARGES


@<TRIPOS>ATOM
  1 O       -1.4370     0.1430     3.1590 O.3   1 <1>  -0.5600 
  2 C       -0.0740     0.3900     2.9980 C.3   1 <1>   0.1200 
  3 C       -2.0750     0.2910     1.9340 C.3   1 <1>   0.1200 
  4 C        0.0600     1.3770     1.8360 C.3   1 <1>   0.2890 
  5 C       -1.3420     1.4310     1.2350 C.3   1 <1>  -0.0800 
  6 N        0.4600     2.7180     2.3090 N.pl3 1 <1>  -0.8690 
  7 C       -1.3430     1.3210    -0.2980 C.3   1 <1>  -0.0170 
  8 C        0.8970     3.6930     1.4820 C.ar  1 <1>   0.7200 
  9 C       -2.7600     1.3410    -0.8480 C.ar  1 <1>  -0.1440 
 10 N        1.4850     3.3390     0.3500 N.ar  1 <1>  -0.6200 
 11 N        0.6500     4.9160     1.9130 N.ar  1 <1>  -0.6200 
 12 C       -3.4850     2.5130    -0.9220 C.ar  1 <1>  -0.1500 
 13 C       -3.3950     0.2010    -1.2960 C.ar  1 <1>  -0.1500 
 14 C        1.8800     4.3240    -0.4190 C.ar  1 <1>   0.1670 
 15 C        1.0480     5.8890     1.1330 C.ar  1 <1>   0.1670 
 16 C       -4.7750     2.4890    -1.4240 C.ar  1 <1>   0.1600 
 17 C       -4.6900     0.2860    -1.7810 C.ar  1 <1>   0.1600 
 18 C        1.6890     5.6490    -0.0700 C.ar  1 <1>  -0.1430 
 19 C        2.5730     3.9160    -1.7110 C.3   1 <1>  -0.0170 
 20 C        0.7590     7.2920     1.6370 C.3   1 <1>  -0.0970 
 21 N       -5.3970     1.4020    -1.8540 N.ar  1 <1>  -0.6200 
 22 C        2.1570     6.7900    -0.9760 C.3   1 <1>  -0.0170 
 23 C        2.6820     5.0600    -2.7270 C.3   1 <1>  -0.1600 
 24 C        3.1670     6.3360    -2.0360 C.3   1 <1>  -0.1600 
 25 H        0.3260     0.7780     3.9170 H     1 <1>   0.0800 
 26 H        0.4000    -0.5440     2.7530 H     1 <1>   0.0800 
 27 H       -1.9760    -0.6360     1.3950 H     1 <1>   0.0800 
 28 H       -3.1160     0.5120     2.0990 H     1 <1>   0.0800 
 29 H        0.7890     1.0020     1.1380 H     1 <1>   0.0800 
 30 H       -1.8260     2.3480     1.5210 H     1 <1>   0.0800 
 31 H       -0.1030     3.0930     3.0700 H     1 <1>   0.4000 
 32 H       -0.8440     0.4180    -0.6040 H     1 <1>   0.0800 
 33 H       -0.7950     2.1490    -0.7140 H     1 <1>   0.0800 
 34 H       -3.0560     3.4430    -0.5940 H     1 <1>   0.1500 
 35 H       -2.8990    -0.7520    -1.2750 H     1 <1>   0.1500 
 36 H       -5.3250     3.4130    -1.4740 H     1 <1>   0.1500 
 37 H       -5.1710    -0.6130    -2.1270 H     1 <1>   0.1500 
 38 H        3.5580     3.5670    -1.4590 H     1 <1>   0.0800 
 39 H        2.0390     3.0960    -2.1570 H     1 <1>   0.0800 
 40 H        0.4090     7.9200     0.8390 H     1 <1>   0.0800 
 41 H        1.6520     7.7130     2.0610 H     1 <1>   0.0800 
 42 H        0.0000     7.2640     2.3970 H     1 <1>   0.0800 
 43 H        1.2950     7.2030    -1.4700 H     1 <1>   0.0800 
 44 H        2.6080     7.5690    -0.3880 H     1 <1>   0.0800 
 45 H        3.3650     4.7810    -3.5110 H     1 <1>   0.0800 
 46 H        1.7180     5.2370    -3.1710 H     1 <1>   0.0800 
 47 H        3.3030     7.1190    -2.7620 H     1 <1>   0.0800 
 48 H        4.1190     6.1490    -1.5660 H     1 <1>   0.0800 
@<TRIPOS>BOND
  1   1   2  1   
  2   1   3  1   
  3   2   4  1   
  4   2  25  1   
  5   2  26  1   
  6   3   5  1   
  7   3  27  1   
  8   3  28  1   
  9   4   5  1   
 10   4   6  1   
 11   4  29  1   
 12   5   7  1   
 13   5  30  1   
 14   6   8  1   
 15   6  31  1   
 16   7   9  1   
 17   7  32  1   
 18   7  33  1   
 19   8  10  ar  
 20   8  11  ar  
 21   9  12  ar  
 22   9  13  ar  
 23  10  14  ar  
 24  11  15  ar  
 25  12  16  ar  
 26  12  34  1   
 27  13  17  ar  
 28  13  35  1   
 29  14  18  ar  
 30  14  19  1   
 31  15  18  ar  
 32  15  20  1   
 33  16  21  ar  
 34  16  36  1   
 35  17  21  ar  
 36  17  37  1   
 37  18  22  1   
 38  19  23  1   
 39  19  38  1   
 40  19  39  1   
 41  20  40  1   
 42  20  41  1   
 43  20  42  1   
 44  22  24  1   
 45  22  43  1   
 46  22  44  1   
 47  23  24  1   
 48  23  45  1   
 49  23  46  1   
 50  24  47  1   
 51  24  48  1   
@<TRIPOS>SUBSTRUCTURE
  1 ****   7 GROUP 4 **** **** 0

# MOE 2024.06 (io_trps.svl 2023.06)
