@<TRIPOS>MOLECULE
NONAME
40 42 1 0 0 
SMALL
USER_CHARGES


@<TRIPOS>ATOM
  1 O        1.5680     0.1470     1.3720 O.3   1 <1>  -0.6800 
  2 C        1.4410    -0.1000     0.0070 C.3   1 <1>   0.2000 
  3 C        2.0820    -1.4430    -0.3410 C.3   1 <1>  -0.0800 
  4 C        2.3410     0.8840    -0.7450 C.3   1 <1>   0.3430 
  5 C        3.5850    -1.1420    -0.3930 C.3   1 <1>   0.3430 
  6 C        1.7370    -2.6280     0.5820 C.3   1 <1>  -0.0170 
  7 N        3.7320     0.3300    -0.6290 N.4   1 <1>  -0.9590 
  8 C        2.5580    -3.8470     0.1930 C.ar  1 <1>  -0.1440 
  9 C        4.4660     0.9690     0.5030 C.3   1 <1>   0.4860 
 10 C        3.6040    -4.3010     0.9710 C.ar  1 <1>  -0.1500 
 11 C        2.3030    -4.5590    -0.9630 C.ar  1 <1>  -0.1500 
 12 C        4.6780     2.4370     0.2030 C.ar  1 <1>  -0.1440 
 13 C        4.3380    -5.4010     0.5570 C.ar  1 <1>   0.1600 
 14 C        3.0990    -5.6450    -1.2870 C.ar  1 <1>   0.1600 
 15 C        5.6510     2.8320    -0.7030 C.ar  1 <1>   0.1600 
 16 C        3.9120     3.4050     0.8240 C.ar  1 <1>  -0.1500 
 17 N        4.1160    -6.0720    -0.5600 N.ar  1 <1>  -0.6200 
 18 N        5.8950     4.0820    -1.0480 N.ar  1 <1>  -0.6200 
 19 C        4.1650     4.7170     0.4810 C.ar  1 <1>  -0.1500 
 20 C        5.1510     4.9980    -0.4480 C.ar  1 <1>   0.1600 
 21 H        0.8280    -0.2580     1.8740 H     1 <1>   0.4000 
 22 H        0.4050    -0.0170    -0.2760 H     1 <1>   0.0800 
 23 H        1.7790    -1.7040    -1.3400 H     1 <1>   0.0800 
 24 H        2.2540     1.8790    -0.3430 H     1 <1>   0.0800 
 25 H        2.0490     0.9000    -1.7820 H     1 <1>   0.0800 
 26 H        4.0580    -1.7170    -1.1750 H     1 <1>   0.0800 
 27 H        4.0320    -1.4110     0.5500 H     1 <1>   0.0800 
 28 H        0.6900    -2.8630     0.5030 H     1 <1>   0.0800 
 29 H        1.9400    -2.3850     1.6110 H     1 <1>   0.0800 
 30 H        4.2470     0.5190    -1.4980 H     1 <1>   0.4500 
 31 H        3.9010     0.8630     1.4160 H     1 <1>   0.0800 
 32 H        5.4230     0.4920     0.6410 H     1 <1>   0.0800 
 33 H        3.8600    -3.8230     1.8990 H     1 <1>   0.1500 
 34 H        1.4940    -4.2890    -1.6170 H     1 <1>   0.1500 
 35 H        5.1500    -5.7480     1.1750 H     1 <1>   0.1500 
 36 H        2.8880    -6.1910    -2.1920 H     1 <1>   0.1500 
 37 H        6.2680     2.0880    -1.1790 H     1 <1>   0.1500 
 38 H        3.1500     3.1650     1.5490 H     1 <1>   0.1500 
 39 H        3.6060     5.5200     0.9290 H     1 <1>   0.1500 
 40 H        5.3390     6.0260    -0.7100 H     1 <1>   0.1500 
@<TRIPOS>BOND
  1   1   2  1   
  2   1  21  1   
  3   2   3  1   
  4   2   4  1   
  5   2  22  1   
  6   3   5  1   
  7   3   6  1   
  8   3  23  1   
  9   4   7  1   
 10   4  24  1   
 11   4  25  1   
 12   5   7  1   
 13   5  26  1   
 14   5  27  1   
 15   6   8  1   
 16   6  28  1   
 17   6  29  1   
 18   7   9  1   
 19   7  30  1   
 20   8  10  ar  
 21   8  11  ar  
 22   9  12  1   
 23   9  31  1   
 24   9  32  1   
 25  10  13  ar  
 26  10  33  1   
 27  11  14  ar  
 28  11  34  1   
 29  12  15  ar  
 30  12  16  ar  
 31  13  17  ar  
 32  13  35  1   
 33  14  17  ar  
 34  14  36  1   
 35  15  18  ar  
 36  15  37  1   
 37  16  19  ar  
 38  16  38  1   
 39  18  20  ar  
 40  19  20  ar  
 41  19  39  1   
 42  20  40  1   
@<TRIPOS>SUBSTRUCTURE
  1 ****   5 GROUP 4 **** **** 0

# MOE 2024.06 (io_trps.svl 2023.06)
