@<TRIPOS>MOLECULE
NONAME
41 42 1 0 0 
SMALL
USER_CHARGES


@<TRIPOS>ATOM
  1 O        0.0400     0.5910     0.2840 O.3   1 <1>  -0.5600 
  2 C       -0.1400     1.9610     0.2780 C.3   1 <1>   0.2000 
  3 C       -1.1190    -0.0580    -0.1350 C.3   1 <1>   0.1200 
  4 C       -1.0590     2.2140    -0.9090 C.3   1 <1>  -0.1600 
  5 C        1.2430     2.6140     0.1860 C.3   1 <1>  -0.1600 
  6 C       -1.9260     0.9670    -0.9290 C.3   1 <1>  -0.1600 
  7 C        1.1870     4.1490     0.2110 C.3   1 <1>  -0.1600 
  8 C        2.6020     4.7280     0.1710 C.3   1 <1>   0.3430 
  9 N        2.5620     6.2150     0.1020 N.4   1 <1>  -0.9590 
 10 C        3.8800     6.7650    -0.2940 C.3   1 <1>   0.5230 
 11 C        2.0870     6.8450     1.3780 C.3   1 <1>   0.2630 
 12 C        3.6960     8.2140    -0.6810 C.2   1 <1>  -0.3320 
 13 N        4.6850     9.1310    -0.5720 N.pl3 1 <1>   0.3140 
 14 C        2.6190     8.8650    -1.1880 C.2   1 <1>  -0.1500 
 15 N        4.2700    10.3380    -0.9720 N.2   1 <1>  -0.7070 
 16 C        6.0680     8.9520    -0.0970 C.3   1 <1>   0.0160 
 17 C        3.0400    10.1780    -1.3440 C.2   1 <1>   0.1390 
 18 H       -0.6330     2.2220     1.2000 H     1 <1>   0.0800 
 19 H       -1.6550    -0.3910     0.7380 H     1 <1>   0.0800 
 20 H       -0.8340    -0.9030    -0.7370 H     1 <1>   0.0800 
 21 H       -0.4820     2.2720    -1.8150 H     1 <1>   0.0800 
 22 H       -1.6360     3.1130    -0.7910 H     1 <1>   0.0800 
 23 H        1.7210     2.2780    -0.7180 H     1 <1>   0.0800 
 24 H        1.8250     2.2640     1.0220 H     1 <1>   0.0800 
 25 H       -2.8660     1.1420    -0.4360 H     1 <1>   0.0800 
 26 H       -2.1150     0.6250    -1.9310 H     1 <1>   0.0800 
 27 H        0.6810     4.4580     1.1080 H     1 <1>   0.0800 
 28 H        0.6310     4.4950    -0.6430 H     1 <1>   0.0800 
 29 H        3.1060     4.3390    -0.6990 H     1 <1>   0.0800 
 30 H        3.1500     4.4110     1.0450 H     1 <1>   0.0800 
 31 H        1.9200     6.4890    -0.6530 H     1 <1>   0.4500 
 32 H        4.2770     6.2200    -1.1370 H     1 <1>   0.0800 
 33 H        4.5720     6.6820     0.5280 H     1 <1>   0.0800 
 34 H        2.7350     6.5740     2.1960 H     1 <1>   0.0800 
 35 H        1.0860     6.5210     1.6090 H     1 <1>   0.0800 
 36 H        2.0830     7.9200     1.2870 H     1 <1>   0.0800 
 37 H        1.6350     8.5150    -1.4410 H     1 <1>   0.1500 
 38 H        6.5630     8.2140    -0.7000 H     1 <1>   0.0800 
 39 H        6.0600     8.6530     0.9340 H     1 <1>   0.0800 
 40 H        6.5920     9.8870    -0.1870 H     1 <1>   0.0800 
 41 H        2.4310    10.9800    -1.7280 H     1 <1>   0.1500 
@<TRIPOS>BOND
  1   1   2  1   
  2   1   3  1   
  3   2   4  1   
  4   2   5  1   
  5   2  18  1   
  6   3   6  1   
  7   3  19  1   
  8   3  20  1   
  9   4   6  1   
 10   4  21  1   
 11   4  22  1   
 12   5   7  1   
 13   5  23  1   
 14   5  24  1   
 15   6  25  1   
 16   6  26  1   
 17   7   8  1   
 18   7  27  1   
 19   7  28  1   
 20   8   9  1   
 21   8  29  1   
 22   8  30  1   
 23   9  10  1   
 24   9  11  1   
 25   9  31  1   
 26  10  12  1   
 27  10  32  1   
 28  10  33  1   
 29  11  34  1   
 30  11  35  1   
 31  11  36  1   
 32  12  13  1   
 33  12  14  2   
 34  13  15  1   
 35  13  16  1   
 36  14  17  1   
 37  14  37  1   
 38  15  17  2   
 39  16  38  1   
 40  16  39  1   
 41  16  40  1   
 42  17  41  1   
@<TRIPOS>SUBSTRUCTURE
  1 ****   9 GROUP 4 **** **** 0

# MOE 2024.06 (io_trps.svl 2023.06)
