@<TRIPOS>MOLECULE
NONAME
52 55 1 0 0 
SMALL
USER_CHARGES


@<TRIPOS>ATOM
  1 F       -0.2080    -1.4640    -3.0100 F     1 <1>  -0.1900 
  2 C       -0.2750    -2.4340    -2.1430 C.ar  1 <1>   0.1900 
  3 C       -1.1000    -2.2930    -1.0440 C.ar  1 <1>  -0.1500 
  4 C        0.4810    -3.5720    -2.3520 C.ar  1 <1>  -0.1500 
  5 C       -1.1690    -3.3310    -0.1310 C.ar  1 <1>  -0.1500 
  6 C        0.3990    -4.5990    -1.4280 C.ar  1 <1>  -0.1500 
  7 C       -0.4300    -4.5050    -0.3070 C.ar  1 <1>   0.0860 
  8 C       -0.5110    -5.5970     0.6450 C.2   1 <1>   0.5440 
  9 O        0.5170    -6.0340     1.1290 O.2   1 <1>  -0.5700 
 10 N       -1.7170    -6.1640     1.0060 N.am  1 <1>  -0.6600 
 11 C       -2.9640    -6.0490     0.2020 C.3   1 <1>   0.1400 
 12 C       -1.8280    -7.1150     2.1480 C.3   1 <1>   0.1400 
 13 C       -3.3320    -7.4280    -0.3510 C.3   1 <1>  -0.1600 
 14 C       -2.1900    -8.5030     1.6180 C.3   1 <1>  -0.1600 
 15 C       -3.4690    -8.4760     0.7670 C.3   1 <1>   0.4240 
 16 O       -4.4890    -8.0500     1.6410 O.3   1 <1>  -0.5600 
 17 C       -3.7600    -9.8770     0.1870 C.ar  1 <1>  -0.1430 
 18 C       -5.8040    -8.3600     1.2980 C.3   1 <1>   0.1200 
 19 C       -4.9480   -10.5400     0.4610 C.ar  1 <1>  -0.1430 
 20 C       -2.8320   -10.5050    -0.6350 C.ar  1 <1>  -0.1500 
 21 C       -5.9820    -9.8750     1.3470 C.3   1 <1>  -0.0170 
 22 C       -5.1960   -11.7960    -0.0690 C.ar  1 <1>  -0.1500 
 23 C       -3.0590   -11.7620    -1.1680 C.ar  1 <1>   0.0830 
 24 C       -4.2660   -12.4230    -0.8950 C.ar  1 <1>   0.0830 
 25 O       -2.0490   -12.2490    -1.9430 O.3   1 <1>  -0.3620 
 26 O       -4.5150   -13.6460    -1.4510 O.3   1 <1>  -0.3620 
 27 C       -1.7370   -13.6240    -1.9400 C.3   1 <1>   0.0400 
 28 C       -5.7760   -14.2710    -1.3550 C.3   1 <1>   0.0400 
 29 H       -1.6680    -1.3900    -0.9110 H     1 <1>   0.1500 
 30 H        1.1180    -3.6450    -3.2150 H     1 <1>   0.1500 
 31 H       -1.7990    -3.2390     0.7380 H     1 <1>   0.1500 
 32 H        0.9850    -5.4930    -1.5630 H     1 <1>   0.1500 
 33 H       -2.8370    -5.3650    -0.6180 H     1 <1>   0.0800 
 34 H       -3.7570    -5.6800     0.8310 H     1 <1>   0.0800 
 35 H       -2.5920    -6.7670     2.8220 H     1 <1>   0.0800 
 36 H       -0.9020    -7.1640     2.6960 H     1 <1>   0.0800 
 37 H       -2.5590    -7.7310    -1.0320 H     1 <1>   0.0800 
 38 H       -4.2420    -7.3700    -0.9150 H     1 <1>   0.0800 
 39 H       -2.3270    -9.1830     2.4380 H     1 <1>   0.0800 
 40 H       -1.3620    -8.8610     1.0370 H     1 <1>   0.0800 
 41 H       -6.0150    -7.9770     0.3160 H     1 <1>   0.0800 
 42 H       -6.4520    -7.8820     2.0110 H     1 <1>   0.0800 
 43 H       -1.9020   -10.0250    -0.8760 H     1 <1>   0.1500 
 44 H       -6.9740   -10.1240     1.0170 H     1 <1>   0.0800 
 45 H       -5.8660   -10.2160     2.3610 H     1 <1>   0.0800 
 46 H       -6.1250   -12.2730     0.1730 H     1 <1>   0.1500 
 47 H       -0.7230   -13.7390    -2.2740 H     1 <1>   0.0800 
 48 H       -2.4020   -14.1320    -2.6160 H     1 <1>   0.0800 
 49 H       -1.8440   -14.0080    -0.9400 H     1 <1>   0.0800 
 50 H       -5.7430   -15.1780    -1.9310 H     1 <1>   0.0800 
 51 H       -6.5250   -13.6110    -1.7560 H     1 <1>   0.0800 
 52 H       -5.9740   -14.5020    -0.3230 H     1 <1>   0.0800 
@<TRIPOS>BOND
  1   1   2  1   
  2   2   3  ar  
  3   2   4  ar  
  4   3   5  ar  
  5   3  29  1   
  6   4   6  ar  
  7   4  30  1   
  8   5   7  ar  
  9   5  31  1   
 10   6   7  ar  
 11   6  32  1   
 12   7   8  1   
 13   8   9  2   
 14   8  10  am  
 15  10  11  1   
 16  10  12  1   
 17  11  13  1   
 18  11  33  1   
 19  11  34  1   
 20  12  14  1   
 21  12  35  1   
 22  12  36  1   
 23  13  15  1   
 24  13  37  1   
 25  13  38  1   
 26  14  15  1   
 27  14  39  1   
 28  14  40  1   
 29  15  16  1   
 30  15  17  1   
 31  16  18  1   
 32  17  19  ar  
 33  17  20  ar  
 34  18  21  1   
 35  18  41  1   
 36  18  42  1   
 37  19  21  1   
 38  19  22  ar  
 39  20  23  ar  
 40  20  43  1   
 41  21  44  1   
 42  21  45  1   
 43  22  24  ar  
 44  22  46  1   
 45  23  24  ar  
 46  23  25  1   
 47  24  26  1   
 48  25  27  1   
 49  26  28  1   
 50  27  47  1   
 51  27  48  1   
 52  27  49  1   
 53  28  50  1   
 54  28  51  1   
 55  28  52  1   
@<TRIPOS>SUBSTRUCTURE
  1 ****  13 GROUP 4 **** **** 0

# MOE 2024.06 (io_trps.svl 2023.06)
