@<TRIPOS>MOLECULE
NONAME
47 49 1 0 0 
SMALL
USER_CHARGES


@<TRIPOS>ATOM
  1 S       -0.0610     0.4440     0.1440 S.o2  1 <1>   1.3330 
  2 O       -0.0810    -0.2370     1.4190 O.2   1 <1>  -0.6500 
  3 O       -0.6560     1.7550     0.0280 O.2   1 <1>  -0.6500 
  4 N       -0.8030    -0.5760    -0.9930 N.am  1 <1>  -0.8490 
  5 C        1.6190     0.5520    -0.4740 C.3   1 <1>  -0.0550 
  6 C       -0.5930    -2.0020    -0.7200 C.3   1 <1>   0.1160 
  7 C       -2.2360    -0.3020    -1.1330 C.3   1 <1>   0.1160 
  8 C        2.5240     1.4990     0.3400 C.3   1 <1>  -0.0800 
  9 C        3.8530     1.7170    -0.3630 C.3   1 <1>   0.2200 
 10 C        2.9820     0.8590     1.6520 C.3   1 <1>   0.1200 
 11 N        4.4490     2.9870     0.1040 N.am  1 <1>  -0.7300 
 12 C        4.6880     0.5370     0.1340 C.3   1 <1>   0.1200 
 13 O        4.1130     0.1080     1.3350 O.3   1 <1>  -0.5600 
 14 C        4.7670     4.0710    -0.6610 C.2   1 <1>   0.7160 
 15 O        4.5210     4.0360    -1.8550 O.2   1 <1>  -0.5700 
 16 C        5.3920     5.2240    -0.0320 C.2   1 <1>   0.2030 
 17 N        5.7010     5.3170     1.2520 N.2   1 <1>  -0.7070 
 18 C        5.7560     6.3950    -0.7010 C.2   1 <1>  -0.1500 
 19 N        6.2510     6.5340     1.3820 N.pl3 1 <1>   0.3000 
 20 C        6.3060     7.2240     0.2230 C.2   1 <1>  -0.2050 
 21 C        6.8630     8.5480     0.1570 C.ar  1 <1>   0.3630 
 22 N        7.3250     9.0630     1.2990 N.ar  1 <1>  -0.6200 
 23 C        6.9090     9.2450    -1.0490 C.ar  1 <1>  -0.1500 
 24 C        7.8350    10.2810     1.2320 C.ar  1 <1>   0.1600 
 25 C        7.4430    10.5120    -1.1050 C.ar  1 <1>  -0.1500 
 26 C        7.9180    11.0380     0.0770 C.ar  1 <1>  -0.1500 
 27 H        2.0550    -0.4270    -0.4990 H     1 <1>   0.0800 
 28 H        1.5720     0.9130    -1.4840 H     1 <1>   0.0800 
 29 H       -1.0030    -2.5960    -1.5190 H     1 <1>   0.0800 
 30 H       -1.0710    -2.2830     0.2050 H     1 <1>   0.0800 
 31 H        0.4590    -2.2160    -0.6430 H     1 <1>   0.0800 
 32 H       -2.6710    -0.9540    -1.8710 H     1 <1>   0.0800 
 33 H       -2.3880     0.7160    -1.4550 H     1 <1>   0.0800 
 34 H       -2.7390    -0.4450    -0.1910 H     1 <1>   0.0800 
 35 H        2.0090     2.4300     0.5070 H     1 <1>   0.0800 
 36 H        3.7670     1.7210    -1.4370 H     1 <1>   0.0800 
 37 H        2.2490     0.2170     2.1070 H     1 <1>   0.0800 
 38 H        3.2800     1.6150     2.3590 H     1 <1>   0.0800 
 39 H        4.7080     3.0490     1.0930 H     1 <1>   0.3700 
 40 H        5.7170     0.8040     0.3040 H     1 <1>   0.0800 
 41 H        4.6360    -0.2830    -0.5590 H     1 <1>   0.0800 
 42 H        5.6100     6.5630    -1.7530 H     1 <1>   0.1500 
 43 H        6.6020     6.9190     2.2700 H     1 <1>   0.2700 
 44 H        6.5250     8.7870    -1.9400 H     1 <1>   0.1500 
 45 H        8.2100    10.7030     2.1490 H     1 <1>   0.1500 
 46 H        7.4880    11.0670    -2.0270 H     1 <1>   0.1500 
 47 H        8.3480    12.0230     0.1040 H     1 <1>   0.1500 
@<TRIPOS>BOND
  1   1   2  2   
  2   1   3  2   
  3   1   4  am  
  4   1   5  1   
  5   4   6  1   
  6   4   7  1   
  7   5   8  1   
  8   5  27  1   
  9   5  28  1   
 10   6  29  1   
 11   6  30  1   
 12   6  31  1   
 13   7  32  1   
 14   7  33  1   
 15   7  34  1   
 16   8   9  1   
 17   8  10  1   
 18   8  35  1   
 19   9  11  1   
 20   9  12  1   
 21   9  36  1   
 22  10  13  1   
 23  10  37  1   
 24  10  38  1   
 25  11  14  am  
 26  11  39  1   
 27  12  13  1   
 28  12  40  1   
 29  12  41  1   
 30  14  15  2   
 31  14  16  1   
 32  16  17  2   
 33  16  18  1   
 34  17  19  1   
 35  18  20  2   
 36  18  42  1   
 37  19  20  1   
 38  19  43  1   
 39  20  21  1   
 40  21  22  ar  
 41  21  23  ar  
 42  22  24  ar  
 43  23  25  ar  
 44  23  44  1   
 45  24  26  ar  
 46  24  45  1   
 47  25  26  ar  
 48  25  46  1   
 49  26  47  1   
@<TRIPOS>SUBSTRUCTURE
  1 ****  14 GROUP 4 **** **** 0

# MOE 2024.06 (io_trps.svl 2023.06)
