@<TRIPOS>MOLECULE
NONAME
43 45 1 0 0 
SMALL
USER_CHARGES


@<TRIPOS>ATOM
  1 O        0.6170    -0.1820     2.3810 O.3   1 <1>  -0.6800 
  2 C        0.9300    -0.3850     1.0440 C.3   1 <1>   0.2000 
  3 C        1.5790    -1.7650     0.9210 C.3   1 <1>  -0.0800 
  4 C        2.0620     0.5880     0.6630 C.3   1 <1>   0.3430 
  5 C        2.9840    -1.4650     1.4510 C.3   1 <1>   0.3430 
  6 C        1.5440    -2.2590    -0.5520 C.3   1 <1>  -0.0170 
  7 N        3.3380    -0.1880     0.7950 N.4   1 <1>  -0.9590 
  8 C        2.8280    -2.9250    -1.0310 C.ar  1 <1>   0.1670 
  9 C        4.4320     0.5650     1.4490 C.3   1 <1>   0.4860 
 10 N        3.8190    -2.1090    -1.3750 N.ar  1 <1>  -0.6200 
 11 C        2.9140    -4.3140    -1.0970 C.ar  1 <1>   0.1600 
 12 C        4.7460     1.7730     0.5900 C.ar  1 <1>  -0.1440 
 13 C        4.8780    -2.7770    -1.8110 C.ar  1 <1>   0.1600 
 14 N        3.9820    -4.9750    -1.5050 N.ar  1 <1>  -0.6200 
 15 C        4.4240     3.0470     1.0330 C.ar  1 <1>  -0.1500 
 16 C        5.3480     1.6150    -0.6500 C.ar  1 <1>  -0.1500 
 17 C        4.9580    -4.1630    -1.8710 C.ar  1 <1>   0.1600 
 18 C        4.6920     4.1480     0.2400 C.ar  1 <1>  -0.1500 
 19 C        5.6140     2.7190    -1.4400 C.ar  1 <1>  -0.1500 
 20 C        5.2850     3.9900    -1.0010 C.ar  1 <1>  -0.1440 
 21 C        5.5790     5.2000    -1.8700 C.3   1 <1>  -0.0970 
 22 H       -0.2350    -0.6060     2.6200 H     1 <1>   0.4000 
 23 H        0.0400    -0.2450     0.4530 H     1 <1>   0.0800 
 24 H        1.0960    -2.4940     1.5490 H     1 <1>   0.0800 
 25 H        2.0460     1.4430     1.3180 H     1 <1>   0.0800 
 26 H        1.9480     0.9200    -0.3560 H     1 <1>   0.0800 
 27 H        3.6880    -2.2470     1.2150 H     1 <1>   0.0800 
 28 H        2.9390    -1.3280     2.5200 H     1 <1>   0.0800 
 29 H        1.3500    -1.4390    -1.2230 H     1 <1>   0.0800 
 30 H        0.7210    -2.9420    -0.6700 H     1 <1>   0.0800 
 31 H        3.6550    -0.4440    -0.1600 H     1 <1>   0.4500 
 32 H        4.1310     0.8790     2.4350 H     1 <1>   0.0800 
 33 H        5.3100    -0.0540     1.5340 H     1 <1>   0.0800 
 34 H        2.0670    -4.9090    -0.8020 H     1 <1>   0.1500 
 35 H        5.7300    -2.2060    -2.1390 H     1 <1>   0.1500 
 36 H        3.9640     3.2000     1.9950 H     1 <1>   0.1500 
 37 H        5.6170     0.6390    -1.0160 H     1 <1>   0.1500 
 38 H        5.8630    -4.6170    -2.2360 H     1 <1>   0.1500 
 39 H        4.4390     5.1340     0.5920 H     1 <1>   0.1500 
 40 H        6.0830     2.5880    -2.4010 H     1 <1>   0.1500 
 41 H        4.8700     5.9850    -1.6770 H     1 <1>   0.0800 
 42 H        5.5210     4.9400    -2.9110 H     1 <1>   0.0800 
 43 H        6.5680     5.5670    -1.6590 H     1 <1>   0.0800 
@<TRIPOS>BOND
  1   1   2  1   
  2   1  22  1   
  3   2   3  1   
  4   2   4  1   
  5   2  23  1   
  6   3   5  1   
  7   3   6  1   
  8   3  24  1   
  9   4   7  1   
 10   4  25  1   
 11   4  26  1   
 12   5   7  1   
 13   5  27  1   
 14   5  28  1   
 15   6   8  1   
 16   6  29  1   
 17   6  30  1   
 18   7   9  1   
 19   7  31  1   
 20   8  10  ar  
 21   8  11  ar  
 22   9  12  1   
 23   9  32  1   
 24   9  33  1   
 25  10  13  ar  
 26  11  14  ar  
 27  11  34  1   
 28  12  15  ar  
 29  12  16  ar  
 30  13  17  ar  
 31  13  35  1   
 32  14  17  ar  
 33  15  18  ar  
 34  15  36  1   
 35  16  19  ar  
 36  16  37  1   
 37  17  38  1   
 38  18  20  ar  
 39  18  39  1   
 40  19  20  ar  
 41  19  40  1   
 42  20  21  1   
 43  21  41  1   
 44  21  42  1   
 45  21  43  1   
@<TRIPOS>SUBSTRUCTURE
  1 ****   7 GROUP 4 **** **** 0

# MOE 2024.06 (io_trps.svl 2023.06)
