@<TRIPOS>MOLECULE
NONAME
52 55 1 0 0 
SMALL
USER_CHARGES


@<TRIPOS>ATOM
  1 S       -0.4510    -0.9660    -0.0180 S.3   1 <1>  -0.0800 
  2 C       -0.7750     0.7380     0.2980 C.2   1 <1>   0.3250 
  3 C       -1.9530    -1.4080     0.7300 C.2   1 <1>  -0.1400 
  4 N       -1.9000     0.9040     0.9030 N.2   1 <1>  -0.5650 
  5 C        0.1810     1.7430    -0.1220 C.ar  1 <1>   0.0530 
  6 C       -2.5520    -0.2830     1.1480 C.2   1 <1>   0.0770 
  7 C       -2.2780    -2.8840     0.7640 C.3   1 <1>   0.5230 
  8 C       -0.0820     3.0920     0.1150 C.ar  1 <1>  -0.1500 
  9 C        1.3840     1.4380    -0.7680 C.ar  1 <1>  -0.1500 
 10 N       -3.7170    -3.0950     1.1090 N.4   1 <1>  -0.9590 
 11 C        0.7940     4.0930    -0.2660 C.ar  1 <1>   0.0830 
 12 C        2.2690     2.4280    -1.1540 C.ar  1 <1>  -0.1500 
 13 C       -4.6340    -2.5880     0.0280 C.3   1 <1>   0.3430 
 14 C       -3.9950    -4.5550     1.2670 C.3   1 <1>   0.3430 
 15 O        0.4260     5.3670     0.0180 O.3   1 <1>  -0.3630 
 16 C        1.9810     3.7570    -0.9070 C.ar  1 <1>  -0.1500 
 17 C       -5.5220    -3.7690    -0.3890 C.3   1 <1>   0.2000 
 18 C       -4.7060    -5.0030    -0.0140 C.3   1 <1>  -0.0800 
 19 C        1.2450     6.4620    -0.3270 C.3   1 <1>   0.0400 
 20 O       -6.6970    -3.7550     0.3520 O.3   1 <1>  -0.6800 
 21 C       -3.7330    -5.3780    -1.1540 C.3   1 <1>   0.0210 
 22 C       -2.5590    -6.2090    -0.6750 C.2   1 <1>   0.1080 
 23 N       -1.5130    -5.6840    -0.1110 N.2   1 <1>  -0.7070 
 24 C       -2.4640    -7.5900    -0.7880 C.2   1 <1>  -0.1500 
 25 N       -0.7000    -6.7380     0.1330 N.pl3 1 <1>   0.3000 
 26 C       -1.2630    -7.8990    -0.2590 C.2   1 <1>  -0.3320 
 27 C       -0.6010    -9.2580    -0.1140 C.3   1 <1>  -0.0600 
 28 H       -3.4970    -0.2130     1.6590 H     1 <1>   0.1500 
 29 H       -1.6450    -3.3740     1.4860 H     1 <1>   0.0800 
 30 H       -2.0670    -3.3150    -0.2010 H     1 <1>   0.0800 
 31 H       -0.9940     3.3760     0.6100 H     1 <1>   0.1500 
 32 H        1.6470     0.4180    -0.9780 H     1 <1>   0.1500 
 33 H       -3.9000    -2.6100     1.9960 H     1 <1>   0.4500 
 34 H        3.1870     2.1630    -1.6500 H     1 <1>   0.1500 
 35 H       -5.2380    -1.7620     0.3660 H     1 <1>   0.0800 
 36 H       -4.0510    -2.2690    -0.8210 H     1 <1>   0.0800 
 37 H       -3.1000    -5.1220     1.4640 H     1 <1>   0.0800 
 38 H       -4.6650    -4.6980     2.0990 H     1 <1>   0.0800 
 39 H        2.6830     4.5070    -1.2170 H     1 <1>   0.1500 
 40 H       -5.7920    -3.7290    -1.4310 H     1 <1>   0.0800 
 41 H       -5.3340    -5.8540     0.1860 H     1 <1>   0.0800 
 42 H        0.7520     7.3620    -0.0040 H     1 <1>   0.0800 
 43 H        1.3750     6.4790    -1.3940 H     1 <1>   0.0800 
 44 H        2.1900     6.3630     0.1770 H     1 <1>   0.0800 
 45 H       -6.5700    -3.9630     1.2970 H     1 <1>   0.4000 
 46 H       -3.3320    -4.4990    -1.6270 H     1 <1>   0.0800 
 47 H       -4.2650    -5.9260    -1.9120 H     1 <1>   0.0800 
 48 H       -3.1980    -8.2520    -1.2140 H     1 <1>   0.1500 
 49 H        0.2330    -6.6430     0.5570 H     1 <1>   0.2700 
 50 H       -1.2440   -10.0270    -0.5030 H     1 <1>   0.0800 
 51 H       -0.4040    -9.4700     0.9230 H     1 <1>   0.0800 
 52 H        0.3270    -9.2820    -0.6580 H     1 <1>   0.0800 
@<TRIPOS>BOND
  1   1   2  1   
  2   1   3  1   
  3   2   4  2   
  4   2   5  1   
  5   3   6  2   
  6   3   7  1   
  7   4   6  1   
  8   5   8  ar  
  9   5   9  ar  
 10   6  28  1   
 11   7  10  1   
 12   7  29  1   
 13   7  30  1   
 14   8  11  ar  
 15   8  31  1   
 16   9  12  ar  
 17   9  32  1   
 18  10  13  1   
 19  10  14  1   
 20  10  33  1   
 21  11  15  1   
 22  11  16  ar  
 23  12  16  ar  
 24  12  34  1   
 25  13  17  1   
 26  13  35  1   
 27  13  36  1   
 28  14  18  1   
 29  14  37  1   
 30  14  38  1   
 31  15  19  1   
 32  16  39  1   
 33  17  18  1   
 34  17  20  1   
 35  17  40  1   
 36  18  21  1   
 37  18  41  1   
 38  19  42  1   
 39  19  43  1   
 40  19  44  1   
 41  20  45  1   
 42  21  22  1   
 43  21  46  1   
 44  21  47  1   
 45  22  23  2   
 46  22  24  1   
 47  23  25  1   
 48  24  26  2   
 49  24  48  1   
 50  25  26  1   
 51  25  49  1   
 52  26  27  1   
 53  27  50  1   
 54  27  51  1   
 55  27  52  1   
@<TRIPOS>SUBSTRUCTURE
  1 ****   3 GROUP 4 **** **** 0

# MOE 2024.06 (io_trps.svl 2023.06)
