@<TRIPOS>MOLECULE
NONAME
39 40 1 0 0 
SMALL
USER_CHARGES


@<TRIPOS>ATOM
  1 S       -0.3680    -0.7570    -1.9490 S.3   1 <1>  -0.4600 
  2 C       -1.6370    -1.4550    -0.8610 C.3   1 <1>   0.0700 
  3 C        0.9030    -0.0990    -0.8250 C.3   1 <1>   0.0700 
  4 C       -1.1160    -2.7850    -0.3020 C.3   1 <1>   0.4230 
  5 C        2.0570    -1.0980    -0.6590 C.3   1 <1>   0.0700 
  6 N       -2.2420    -3.6240     0.2010 N.4   1 <1>  -0.9060 
  7 C       -0.0550    -2.5550     0.7890 C.3   1 <1>   0.0700 
  8 S        1.5670    -2.7340     0.0040 S.3   1 <1>  -0.4600 
  9 C       -2.1530    -5.0390    -0.2000 C.3   1 <1>   0.5660 
 10 C       -3.5630    -5.5900    -0.0520 C.ar  1 <1>  -0.1430 
 11 C       -1.1020    -5.7980     0.6300 C.3   1 <1>  -0.1600 
 12 C       -4.1530    -5.7760     1.1980 C.ar  1 <1>  -0.1500 
 13 C       -4.2820    -5.8990    -1.2030 C.ar  1 <1>  -0.1500 
 14 C       -1.0560    -7.2990     0.3020 C.3   1 <1>  -0.2400 
 15 C       -5.4470    -6.2600     1.2960 C.ar  1 <1>  -0.1500 
 16 C       -5.5760    -6.3830    -1.1140 C.ar  1 <1>  -0.1500 
 17 C       -6.1350    -6.5530     0.1360 C.ar  1 <1>   0.1900 
 18 F       -7.3560    -7.0050     0.2250 F     1 <1>  -0.1900 
 19 H       -2.5000    -1.6020    -1.4860 H     1 <1>   0.0800 
 20 H       -1.8480    -0.7290    -0.0950 H     1 <1>   0.0800 
 21 H        0.4410     0.1590     0.1090 H     1 <1>   0.0800 
 22 H        1.2700     0.8020    -1.2860 H     1 <1>   0.0800 
 23 H       -0.6450    -3.3100    -1.1190 H     1 <1>   0.0800 
 24 H        2.7930    -0.7040     0.0190 H     1 <1>   0.0800 
 25 H        2.5300    -1.2830    -1.6090 H     1 <1>   0.0800 
 26 H       -3.1320    -3.2940    -0.1890 H     1 <1>   0.4500 
 27 H       -2.3360    -3.5770     1.2190 H     1 <1>   0.4500 
 28 H       -0.0880    -3.3130     1.5490 H     1 <1>   0.0800 
 29 H       -0.1070    -1.5850     1.2480 H     1 <1>   0.0800 
 30 H       -1.8750    -5.1010    -1.2410 H     1 <1>   0.0800 
 31 H       -1.2970    -5.6850     1.6810 H     1 <1>   0.0800 
 32 H       -0.1260    -5.3970     0.4200 H     1 <1>   0.0800 
 33 H       -3.6230    -5.5590     2.1100 H     1 <1>   0.1500 
 34 H       -3.8490    -5.7740    -2.1830 H     1 <1>   0.1500 
 35 H       -1.9860    -7.7830     0.5490 H     1 <1>   0.0800 
 36 H       -0.2740    -7.7750     0.8700 H     1 <1>   0.0800 
 37 H       -0.8520    -7.4580    -0.7430 H     1 <1>   0.0800 
 38 H       -5.9200    -6.4140     2.2510 H     1 <1>   0.1500 
 39 H       -6.1470    -6.6290    -1.9930 H     1 <1>   0.1500 
@<TRIPOS>BOND
  1   1   2  1   
  2   1   3  1   
  3   2   4  1   
  4   2  19  1   
  5   2  20  1   
  6   3   5  1   
  7   3  21  1   
  8   3  22  1   
  9   4   6  1   
 10   4   7  1   
 11   4  23  1   
 12   5   8  1   
 13   5  24  1   
 14   5  25  1   
 15   6   9  1   
 16   6  26  1   
 17   6  27  1   
 18   7   8  1   
 19   7  28  1   
 20   7  29  1   
 21   9  10  1   
 22   9  11  1   
 23   9  30  1   
 24  10  12  ar  
 25  10  13  ar  
 26  11  14  1   
 27  11  31  1   
 28  11  32  1   
 29  12  15  ar  
 30  12  33  1   
 31  13  16  ar  
 32  13  34  1   
 33  14  35  1   
 34  14  36  1   
 35  14  37  1   
 36  15  17  ar  
 37  15  38  1   
 38  16  17  ar  
 39  16  39  1   
 40  17  18  1   
@<TRIPOS>SUBSTRUCTURE
  1 ****   6 GROUP 4 **** **** 0

# MOE 2024.06 (io_trps.svl 2023.06)
