@<TRIPOS>MOLECULE
NONAME
50 53 1 0 0 
SMALL
USER_CHARGES


@<TRIPOS>ATOM
  1 O       -1.6900     0.1140    -0.8390 O.2   1 <1>  -0.5700 
  2 C       -1.8010    -0.0070     0.3660 C.2   1 <1>   0.7160 
  3 N       -1.9550    -1.2670     0.8640 N.am  1 <1>  -0.7300 
  4 C       -1.8040     1.1230     1.2840 C.2   1 <1>   0.1410 
  5 C       -1.9710    -2.5320     0.0940 C.3   1 <1>   0.2200 
  6 N       -1.9190     0.9360     2.6390 N.2   1 <1>  -0.5650 
  7 C       -1.7130     2.4630     1.0690 C.2   1 <1>  -0.0400 
  8 C       -3.3900    -3.0480    -0.1070 C.3   1 <1>  -0.0800 
  9 C       -1.3880    -3.6440     0.9560 C.3   1 <1>   0.1200 
 10 C       -1.8860     2.1220     3.1180 C.2   1 <1>   0.3280 
 11 O       -1.7650     3.0650     2.2220 O.3   1 <1>  -0.2800 
 12 C       -1.5740     3.3480    -0.1660 C.3   1 <1>   0.1000 
 13 C       -3.6700    -3.7610     1.2210 C.3   1 <1>   0.1200 
 14 C       -4.4320    -1.9740    -0.4890 C.3   1 <1>  -0.0160 
 15 O       -2.4280    -4.0530     1.7930 O.3   1 <1>  -0.5600 
 16 C       -2.7830     3.2190    -1.0980 C.3   1 <1>  -0.2400 
 17 C       -0.2580     3.0910    -0.9060 C.3   1 <1>  -0.2400 
 18 C       -5.8410    -2.4700    -0.8360 C.ar  1 <1>  -0.1440 
 19 C       -6.8810    -1.5290    -1.0360 C.ar  1 <1>   0.0000 
 20 C       -6.1670    -3.7910    -0.9770 C.ar  1 <1>  -0.1500 
 21 C       -8.1750    -2.0200    -1.3380 C.ar  1 <1>   0.3100 
 22 C       -6.7120    -0.1250    -0.9620 C.ar  1 <1>  -0.1500 
 23 C       -7.4800    -4.1700    -1.2840 C.ar  1 <1>   0.1600 
 24 N       -8.4580    -3.3410    -1.4560 N.ar  1 <1>  -0.6200 
 25 C       -9.2250    -1.1070    -1.5300 C.ar  1 <1>  -0.1500 
 26 C       -7.7550     0.7390    -1.1570 C.ar  1 <1>  -0.1500 
 27 C       -9.0300     0.2450    -1.4430 C.ar  1 <1>  -0.1500 
 28 H       -2.0780    -1.3550     1.8780 H     1 <1>   0.3700 
 29 H       -1.4360    -2.4150    -0.8350 H     1 <1>   0.0800 
 30 H       -3.3500    -3.7860    -0.8880 H     1 <1>   0.0800 
 31 H       -0.5500    -3.3190     1.5470 H     1 <1>   0.0800 
 32 H       -1.1050    -4.4870     0.3500 H     1 <1>   0.0800 
 33 H       -1.9480     2.4000     4.1560 H     1 <1>   0.1500 
 34 H       -1.5480     4.3700     0.1770 H     1 <1>   0.0800 
 35 H       -4.2150    -4.6790     1.0880 H     1 <1>   0.0800 
 36 H       -4.2000    -3.1220     1.9060 H     1 <1>   0.0800 
 37 H       -4.0550    -1.4250    -1.3350 H     1 <1>   0.0800 
 38 H       -4.5190    -1.2860     0.3330 H     1 <1>   0.0800 
 39 H       -2.8380     2.2370    -1.5300 H     1 <1>   0.0800 
 40 H       -2.7130     3.9360    -1.8950 H     1 <1>   0.0800 
 41 H       -3.6900     3.4040    -0.5500 H     1 <1>   0.0800 
 42 H       -0.2350     2.1040    -1.3290 H     1 <1>   0.0800 
 43 H        0.5700     3.1920    -0.2270 H     1 <1>   0.0800 
 44 H       -0.1360     3.8030    -1.7020 H     1 <1>   0.0800 
 45 H       -5.4540    -4.5820    -0.8650 H     1 <1>   0.1500 
 46 H       -5.7410     0.2830    -0.7500 H     1 <1>   0.1500 
 47 H       -7.6880    -5.2210    -1.3820 H     1 <1>   0.1500 
 48 H      -10.1950    -1.5100    -1.7520 H     1 <1>   0.1500 
 49 H       -7.6090     1.8030    -1.0950 H     1 <1>   0.1500 
 50 H       -9.8430     0.9330    -1.5930 H     1 <1>   0.1500 
@<TRIPOS>BOND
  1   1   2  2   
  2   2   3  am  
  3   2   4  1   
  4   3   5  1   
  5   3  28  1   
  6   4   6  1   
  7   4   7  2   
  8   5   8  1   
  9   5   9  1   
 10   5  29  1   
 11   6  10  2   
 12   7  11  1   
 13   7  12  1   
 14   8  13  1   
 15   8  14  1   
 16   8  30  1   
 17   9  15  1   
 18   9  31  1   
 19   9  32  1   
 20  10  11  1   
 21  10  33  1   
 22  12  16  1   
 23  12  17  1   
 24  12  34  1   
 25  13  15  1   
 26  13  35  1   
 27  13  36  1   
 28  14  18  1   
 29  14  37  1   
 30  14  38  1   
 31  16  39  1   
 32  16  40  1   
 33  16  41  1   
 34  17  42  1   
 35  17  43  1   
 36  17  44  1   
 37  18  19  ar  
 38  18  20  ar  
 39  19  21  ar  
 40  19  22  ar  
 41  20  23  ar  
 42  20  45  1   
 43  21  24  ar  
 44  21  25  ar  
 45  22  26  ar  
 46  22  46  1   
 47  23  24  ar  
 48  23  47  1   
 49  25  27  ar  
 50  25  48  1   
 51  26  27  ar  
 52  26  49  1   
 53  27  50  1   
@<TRIPOS>SUBSTRUCTURE
  1 ****  14 GROUP 4 **** **** 0

# MOE 2024.06 (io_trps.svl 2023.06)
