@<TRIPOS>MOLECULE
NONAME
39 41 1 0 0 
SMALL
USER_CHARGES


@<TRIPOS>ATOM
  1 S       -1.6430    -0.4070     1.7020 S.3   1 <1>  -0.0800 
  2 C       -1.3480    -1.1000     0.1120 C.2   1 <1>  -0.1400 
  3 C       -1.4140     1.2210     1.0910 C.2   1 <1>  -0.1100 
  4 C       -1.0910    -0.1200    -0.7790 C.2   1 <1>  -0.1500 
  5 C       -1.4170    -2.6170    -0.0080 C.3   1 <1>   0.3800 
  6 C       -1.1320     1.1980    -0.2230 C.2   1 <1>  -0.1500 
  7 O       -1.0790    -2.9630    -1.3030 O.3   1 <1>  -0.6800 
  8 C       -2.8200    -3.1810     0.3240 C.3   1 <1>  -0.0800 
  9 C       -2.8780    -4.7160     0.2100 C.3   1 <1>  -0.1600 
 10 C       -3.9510    -2.5650    -0.5260 C.3   1 <1>  -0.1600 
 11 C       -4.2730    -5.2510     0.5420 C.3   1 <1>   0.1100 
 12 C       -5.3090    -3.1650    -0.1570 C.3   1 <1>   0.1100 
 13 N       -5.2750    -4.6220    -0.3360 N.3   1 <1>  -0.8100 
 14 C       -6.6210    -5.2060    -0.1290 C.3   1 <1>   0.2900 
 15 C       -6.7010    -6.6880    -0.4870 C.2   1 <1>   0.2980 
 16 O       -6.5180    -7.0440    -1.7320 O.3   1 <1>  -0.0190 
 17 N       -6.9420    -7.6420     0.3240 N.2   1 <1>  -0.5650 
 18 N       -6.6500    -8.3360    -1.7170 N.2   1 <1>  -0.4100 
 19 C       -6.8960    -8.6930    -0.5100 C.2   1 <1>   0.3350 
 20 C       -7.1200   -10.1610    -0.0350 C.3   1 <1>   1.2010 
 21 F       -7.0320   -11.0580    -1.0160 F     1 <1>  -0.3400 
 22 F       -8.3190   -10.3460     0.5150 F     1 <1>  -0.3400 
 23 F       -6.2340   -10.5450     0.8830 F     1 <1>  -0.3400 
 24 H       -1.5150     2.0320     1.7910 H     1 <1>   0.1500 
 25 H       -0.8660    -0.2680    -1.8210 H     1 <1>   0.1500 
 26 H       -0.6810    -3.0580     0.6420 H     1 <1>   0.0800 
 27 H       -0.9450     2.0610    -0.8380 H     1 <1>   0.1500 
 28 H       -1.7870    -2.6530    -1.8950 H     1 <1>   0.4000 
 29 H       -3.0200    -2.9340     1.3510 H     1 <1>   0.0800 
 30 H       -2.1620    -5.1590     0.8790 H     1 <1>   0.0800 
 31 H       -2.6270    -5.0280    -0.7890 H     1 <1>   0.0800 
 32 H       -3.7770    -2.7430    -1.5720 H     1 <1>   0.0800 
 33 H       -3.9920    -1.5010    -0.3730 H     1 <1>   0.0800 
 34 H       -4.5080    -5.0490     1.5740 H     1 <1>   0.0800 
 35 H       -4.2720    -6.3180     0.3970 H     1 <1>   0.0800 
 36 H       -6.0620    -2.7390    -0.7980 H     1 <1>   0.0800 
 37 H       -5.5520    -2.9230     0.8650 H     1 <1>   0.0800 
 38 H       -7.3300    -4.6830    -0.7460 H     1 <1>   0.0800 
 39 H       -6.9140    -5.0800     0.8980 H     1 <1>   0.0800 
@<TRIPOS>BOND
  1   1   2  1   
  2   1   3  1   
  3   2   4  2   
  4   2   5  1   
  5   3   6  2   
  6   3  24  1   
  7   4   6  1   
  8   4  25  1   
  9   5   7  1   
 10   5   8  1   
 11   5  26  1   
 12   6  27  1   
 13   7  28  1   
 14   8   9  1   
 15   8  10  1   
 16   8  29  1   
 17   9  11  1   
 18   9  30  1   
 19   9  31  1   
 20  10  12  1   
 21  10  32  1   
 22  10  33  1   
 23  11  13  1   
 24  11  34  1   
 25  11  35  1   
 26  12  13  1   
 27  12  36  1   
 28  12  37  1   
 29  13  14  1   
 30  14  15  1   
 31  14  38  1   
 32  14  39  1   
 33  15  16  1   
 34  15  17  2   
 35  16  18  1   
 36  17  19  1   
 37  18  19  2   
 38  19  20  1   
 39  20  21  1   
 40  20  22  1   
 41  20  23  1   
@<TRIPOS>SUBSTRUCTURE
  1 ****  11 GROUP 4 **** **** 0

# MOE 2024.06 (io_trps.svl 2023.06)
