@<TRIPOS>MOLECULE
NONAME
52 55 1 0 0 
SMALL
USER_CHARGES


@<TRIPOS>ATOM
  1 O       -1.9390    -0.2530    -2.4130 O.2   1 <1>  -0.5700 
  2 C       -2.1960    -0.6510    -1.3120 C.2   1 <1>   0.5690 
  3 N       -2.9300     0.1060    -0.4670 N.am  1 <1>  -0.7300 
  4 C       -1.7660    -2.0410    -0.9020 C.3   1 <1>  -0.0190 
  5 C       -3.3970    -0.3240     0.8850 C.3   1 <1>   0.2200 
  6 C       -0.8960    -2.0130     0.3620 C.3   1 <1>   0.1200 
  7 C       -2.9720    -2.9850    -0.7600 C.3   1 <1>   0.3430 
  8 C       -2.2020    -0.6550     1.7970 C.3   1 <1>   0.1200 
  9 C       -4.3530    -1.5450     0.8000 C.3   1 <1>   0.3430 
 10 O       -1.6900    -1.9240     1.5050 O.3   1 <1>  -0.5600 
 11 N       -4.2940    -2.3000    -0.5160 N.4   1 <1>  -0.9590 
 12 C       -5.4320    -3.2430    -0.7230 C.3   1 <1>   0.4230 
 13 C       -6.7220    -2.4510    -0.9700 C.3   1 <1>  -0.1600 
 14 C       -5.5660    -4.2500     0.4320 C.3   1 <1>  -0.1600 
 15 C       -7.8870    -3.4080    -1.2060 C.3   1 <1>   0.2090 
 16 C       -6.7460    -5.1820     0.1770 C.3   1 <1>   0.2090 
 17 N       -7.9290    -4.3340    -0.0600 N.pl3 1 <1>  -0.8380 
 18 C       -9.1680    -4.7280     0.4400 C.ar  1 <1>   0.1000 
 19 C       -9.8850    -5.8190    -0.0620 C.ar  1 <1>  -0.1430 
 20 C       -9.7080    -3.9940     1.4880 C.ar  1 <1>  -0.1500 
 21 C      -11.1100    -6.1480     0.4970 C.ar  1 <1>  -0.1500 
 22 C       -9.3610    -6.6660    -1.2140 C.3   1 <1>  -0.0970 
 23 C      -10.9310    -4.3260     2.0380 C.ar  1 <1>  -0.1500 
 24 C      -11.6350    -5.4070     1.5420 C.ar  1 <1>  -0.1500 
 25 H       -3.1060     1.0750    -0.7570 H     1 <1>   0.3700 
 26 H       -1.1410    -2.4250    -1.6880 H     1 <1>   0.0800 
 27 H       -3.9260     0.4980     1.3360 H     1 <1>   0.0800 
 28 H       -0.1910    -1.1970     0.3440 H     1 <1>   0.0800 
 29 H       -0.3410    -2.9320     0.4410 H     1 <1>   0.0800 
 30 H       -2.7740    -3.6850     0.0360 H     1 <1>   0.0800 
 31 H       -3.0480    -3.5490    -1.6750 H     1 <1>   0.0800 
 32 H       -2.5320    -0.6860     2.8220 H     1 <1>   0.0800 
 33 H       -1.4220     0.0840     1.7200 H     1 <1>   0.0800 
 34 H       -5.3550    -1.1830     0.9550 H     1 <1>   0.0800 
 35 H       -4.1340    -2.2160     1.6150 H     1 <1>   0.0800 
 36 H       -4.3740    -1.5730    -1.2430 H     1 <1>   0.4500 
 37 H       -5.2410    -3.8100    -1.6210 H     1 <1>   0.0800 
 38 H       -6.9740    -1.8410    -0.1230 H     1 <1>   0.0800 
 39 H       -6.6160    -1.8220    -1.8350 H     1 <1>   0.0800 
 40 H       -4.6770    -4.8450     0.5270 H     1 <1>   0.0800 
 41 H       -5.7520    -3.7510     1.3650 H     1 <1>   0.0800 
 42 H       -7.7520    -3.9640    -2.1180 H     1 <1>   0.0800 
 43 H       -8.8170    -2.8650    -1.2700 H     1 <1>   0.0800 
 44 H       -6.9190    -5.8170     1.0310 H     1 <1>   0.0800 
 45 H       -6.5670    -5.8040    -0.6840 H     1 <1>   0.0800 
 46 H       -9.1580    -3.1570     1.8710 H     1 <1>   0.1500 
 47 H      -11.6690    -6.9860     0.1220 H     1 <1>   0.1500 
 48 H      -10.1360    -7.2970    -1.6100 H     1 <1>   0.0800 
 49 H       -8.5570    -7.2900    -0.8700 H     1 <1>   0.0800 
 50 H       -9.0060    -6.0360    -2.0070 H     1 <1>   0.0800 
 51 H      -11.3360    -3.7470     2.8500 H     1 <1>   0.1500 
 52 H      -12.5870    -5.6720     1.9660 H     1 <1>   0.1500 
@<TRIPOS>BOND
  1   1   2  2   
  2   2   3  am  
  3   2   4  1   
  4   3   5  1   
  5   3  25  1   
  6   4   6  1   
  7   4   7  1   
  8   4  26  1   
  9   5   8  1   
 10   5   9  1   
 11   5  27  1   
 12   6  10  1   
 13   6  28  1   
 14   6  29  1   
 15   7  11  1   
 16   7  30  1   
 17   7  31  1   
 18   8  10  1   
 19   8  32  1   
 20   8  33  1   
 21   9  11  1   
 22   9  34  1   
 23   9  35  1   
 24  11  12  1   
 25  11  36  1   
 26  12  13  1   
 27  12  14  1   
 28  12  37  1   
 29  13  15  1   
 30  13  38  1   
 31  13  39  1   
 32  14  16  1   
 33  14  40  1   
 34  14  41  1   
 35  15  17  1   
 36  15  42  1   
 37  15  43  1   
 38  16  17  1   
 39  16  44  1   
 40  16  45  1   
 41  17  18  1   
 42  18  19  ar  
 43  18  20  ar  
 44  19  21  ar  
 45  19  22  1   
 46  20  23  ar  
 47  20  46  1   
 48  21  24  ar  
 49  21  47  1   
 50  22  48  1   
 51  22  49  1   
 52  22  50  1   
 53  23  24  ar  
 54  23  51  1   
 55  24  52  1   
@<TRIPOS>SUBSTRUCTURE
  1 ****  12 GROUP 4 **** **** 0

# MOE 2024.06 (io_trps.svl 2023.06)
