@<TRIPOS>MOLECULE
NONAME
43 45 1 0 0 
SMALL
USER_CHARGES


@<TRIPOS>ATOM
  1 F        1.0480     1.4770     1.2180 F     1 <1>  -0.3400 
  2 C        1.5110     2.5430     0.5780 C.3   1 <1>   1.1640 
  3 F        0.5910     2.8770    -0.3160 F     1 <1>  -0.3400 
  4 F        1.5400     3.5280     1.4690 F     1 <1>  -0.3400 
  5 C        2.8870     2.3110    -0.0720 C.ar  1 <1>  -0.1440 
  6 C        3.7330     3.3830    -0.3380 C.ar  1 <1>  -0.1500 
  7 C        3.3100     1.0320    -0.4150 C.ar  1 <1>  -0.1500 
  8 C        4.9900     3.2170    -0.9230 C.ar  1 <1>   0.0860 
  9 C        4.5450     0.8380    -1.0040 C.ar  1 <1>  -0.1500 
 10 C        5.8760     4.3440    -1.1790 C.2   1 <1>   0.5440 
 11 C        5.3700     1.9170    -1.2540 C.ar  1 <1>  -0.1500 
 12 O        6.8800     4.2330    -1.8580 O.2   1 <1>  -0.5700 
 13 N        5.6680     5.5750    -0.6140 N.am  1 <1>  -0.6600 
 14 C        6.1560     5.7700     0.7970 C.3   1 <1>   0.2200 
 15 C        5.5850     6.7610    -1.5250 C.3   1 <1>   0.1400 
 16 C        5.4790     6.9520     1.5090 C.3   1 <1>   0.1200 
 17 C        7.7010     5.9110     0.8440 C.3   1 <1>   0.3430 
 18 C        6.4770     7.9550    -1.1320 C.3   1 <1>  -0.0800 
 19 O        6.1700     8.1390     1.2580 O.3   1 <1>  -0.5600 
 20 N        8.3010     6.2650    -0.4900 N.4   1 <1>  -0.9590 
 21 C        5.8950     8.7540     0.0450 C.3   1 <1>   0.1200 
 22 C        7.9800     7.6510    -0.9540 C.3   1 <1>   0.3430 
 23 C        9.7640     5.9920    -0.5280 C.3   1 <1>   0.2630 
 24 H        3.4080     4.3790    -0.0900 H     1 <1>   0.1500 
 25 H        2.6810     0.1760    -0.2300 H     1 <1>   0.1500 
 26 H        4.8620    -0.1560    -1.2710 H     1 <1>   0.1500 
 27 H        6.3280     1.7470    -1.7180 H     1 <1>   0.1500 
 28 H        5.8910     4.8900     1.3570 H     1 <1>   0.0800 
 29 H        5.8470     6.4520    -2.5240 H     1 <1>   0.0800 
 30 H        4.5580     7.0850    -1.5630 H     1 <1>   0.0800 
 31 H        5.5230     6.7950     2.5730 H     1 <1>   0.0800 
 32 H        4.4440     7.0550     1.2280 H     1 <1>   0.0800 
 33 H        8.1050     4.9660     1.1670 H     1 <1>   0.0800 
 34 H        7.9750     6.6480     1.5820 H     1 <1>   0.0800 
 35 H        6.4180     8.6350    -1.9630 H     1 <1>   0.0800 
 36 H        7.8300     5.6110    -1.1580 H     1 <1>   0.4500 
 37 H        4.8300     8.8880    -0.0490 H     1 <1>   0.0800 
 38 H        6.3500     9.7290     0.0830 H     1 <1>   0.0800 
 39 H        8.4000     8.3660    -0.2650 H     1 <1>   0.0800 
 40 H        8.4590     7.8010    -1.9070 H     1 <1>   0.0800 
 41 H       10.2830     6.6320     0.1670 H     1 <1>   0.0800 
 42 H       10.1490     6.1700    -1.5190 H     1 <1>   0.0800 
 43 H        9.9570     4.9640    -0.2680 H     1 <1>   0.0800 
@<TRIPOS>BOND
  1   1   2  1   
  2   2   3  1   
  3   2   4  1   
  4   2   5  1   
  5   5   6  ar  
  6   5   7  ar  
  7   6   8  ar  
  8   6  24  1   
  9   7   9  ar  
 10   7  25  1   
 11   8  10  1   
 12   8  11  ar  
 13   9  11  ar  
 14   9  26  1   
 15  10  12  2   
 16  10  13  am  
 17  11  27  1   
 18  13  14  1   
 19  13  15  1   
 20  14  16  1   
 21  14  17  1   
 22  14  28  1   
 23  15  18  1   
 24  15  29  1   
 25  15  30  1   
 26  16  19  1   
 27  16  31  1   
 28  16  32  1   
 29  17  20  1   
 30  17  33  1   
 31  17  34  1   
 32  18  21  1   
 33  18  22  1   
 34  18  35  1   
 35  19  21  1   
 36  20  22  1   
 37  20  23  1   
 38  20  36  1   
 39  21  37  1   
 40  21  38  1   
 41  22  39  1   
 42  22  40  1   
 43  23  41  1   
 44  23  42  1   
 45  23  43  1   
@<TRIPOS>SUBSTRUCTURE
  1 ****  13 GROUP 4 **** **** 0

# MOE 2024.06 (io_trps.svl 2023.06)
