@<TRIPOS>MOLECULE
NONAME
44 47 1 0 0 
SMALL
USER_CHARGES


@<TRIPOS>ATOM
  1 O       -2.4570    -0.4450    -2.6680 O.2   1 <1>  -0.5700 
  2 C       -2.4510    -0.8620    -1.5380 C.2   1 <1>   0.5690 
  3 N       -2.2680    -0.0440    -0.4600 N.am  1 <1>  -0.6600 
  4 C       -2.7070    -2.3340    -1.3450 C.3   1 <1>  -0.0190 
  5 C       -2.3470    -0.5290     0.9480 C.3   1 <1>   0.2200 
  6 C       -1.9260     1.4020    -0.6330 C.3   1 <1>   0.0600 
  7 C       -1.5450    -3.0460    -0.6200 C.3   1 <1>   0.1200 
  8 C       -4.1090    -2.5100    -0.7530 C.3   1 <1>   0.3430 
  9 C       -1.2430    -1.5750     1.2360 C.3   1 <1>   0.1200 
 10 C       -3.7840    -1.0110     1.2900 C.3   1 <1>   0.3430 
 11 O       -1.5680    -2.8580     0.7690 O.3   1 <1>  -0.5600 
 12 N       -4.1600    -2.3610     0.7410 N.4   1 <1>  -0.9590 
 13 C       -5.4110    -2.9040     1.3350 C.3   1 <1>   0.4860 
 14 C       -5.5230    -4.3630     0.9470 C.ar  1 <1>  -0.1440 
 15 C       -6.4570    -4.7850    -0.0120 C.ar  1 <1>  -0.1520 
 16 C       -4.6790    -5.3000     1.5070 C.ar  1 <1>  -0.1500 
 17 N       -7.4310    -4.1080    -0.7150 N.pl3 1 <1>   0.0330 
 18 C       -6.5000    -6.1190    -0.4100 C.ar  1 <1>   0.0000 
 19 C       -4.7340    -6.6420     1.1160 C.ar  1 <1>  -0.1500 
 20 C       -8.0520    -4.9930    -1.5470 C.2   1 <1>  -0.3020 
 21 C       -5.6330    -7.0530     0.1620 C.ar  1 <1>  -0.1500 
 22 C       -7.5110    -6.2220    -1.3870 C.2   1 <1>  -0.1500 
 23 H       -2.7430    -2.7550    -2.3340 H     1 <1>   0.0800 
 24 H       -2.1430     0.3160     1.5840 H     1 <1>   0.0800 
 25 H       -2.6870     2.0190    -0.1870 H     1 <1>   0.0800 
 26 H       -1.8510     1.6600    -1.6760 H     1 <1>   0.0800 
 27 H       -0.9790     1.6140    -0.1670 H     1 <1>   0.0800 
 28 H       -0.5930    -2.7150    -1.0020 H     1 <1>   0.0800 
 29 H       -1.6180    -4.1070    -0.7890 H     1 <1>   0.0800 
 30 H       -4.4420    -3.5010    -1.0170 H     1 <1>   0.0800 
 31 H       -4.7820    -1.8070    -1.2180 H     1 <1>   0.0800 
 32 H       -1.1090    -1.6620     2.3000 H     1 <1>   0.0800 
 33 H       -0.3020    -1.2690     0.8090 H     1 <1>   0.0800 
 34 H       -4.4850    -0.2680     0.9450 H     1 <1>   0.0800 
 35 H       -3.8600    -1.0520     2.3640 H     1 <1>   0.0800 
 36 H       -3.3920    -2.9900     1.0530 H     1 <1>   0.4500 
 37 H       -5.3740    -2.8280     2.4100 H     1 <1>   0.0800 
 38 H       -6.2660    -2.3550     0.9800 H     1 <1>   0.0800 
 39 H       -3.9520    -5.0270     2.2540 H     1 <1>   0.1500 
 40 H       -7.7030    -3.1260    -0.6140 H     1 <1>   0.2700 
 41 H       -4.0650    -7.3530     1.5700 H     1 <1>   0.1500 
 42 H       -8.8530    -4.6990    -2.2050 H     1 <1>   0.1500 
 43 H       -5.6870    -8.0800    -0.1520 H     1 <1>   0.1500 
 44 H       -7.7750    -7.1380    -1.8870 H     1 <1>   0.1500 
@<TRIPOS>BOND
  1   1   2  2   
  2   2   3  am  
  3   2   4  1   
  4   3   5  1   
  5   3   6  1   
  6   4   7  1   
  7   4   8  1   
  8   4  23  1   
  9   5   9  1   
 10   5  10  1   
 11   5  24  1   
 12   6  25  1   
 13   6  26  1   
 14   6  27  1   
 15   7  11  1   
 16   7  28  1   
 17   7  29  1   
 18   8  12  1   
 19   8  30  1   
 20   8  31  1   
 21   9  11  1   
 22   9  32  1   
 23   9  33  1   
 24  10  12  1   
 25  10  34  1   
 26  10  35  1   
 27  12  13  1   
 28  12  36  1   
 29  13  14  1   
 30  13  37  1   
 31  13  38  1   
 32  14  15  ar  
 33  14  16  ar  
 34  15  17  1   
 35  15  18  ar  
 36  16  19  ar  
 37  16  39  1   
 38  17  20  1   
 39  17  40  1   
 40  18  21  ar  
 41  18  22  1   
 42  19  21  ar  
 43  19  41  1   
 44  20  22  2   
 45  20  42  1   
 46  21  43  1   
 47  22  44  1   
@<TRIPOS>SUBSTRUCTURE
  1 ****   8 GROUP 4 **** **** 0

# MOE 2024.06 (io_trps.svl 2023.06)
