@<TRIPOS>MOLECULE
NONAME
50 53 1 0 0 
SMALL
USER_CHARGES


@<TRIPOS>ATOM
  1 O       -1.0670    -0.2020     0.8530 O.2   1 <1>  -0.5700 
  2 C       -1.7140     0.7230     0.3950 C.2   1 <1>   0.5440 
  3 N       -2.9640     0.4390    -0.1080 N.am  1 <1>  -0.6600 
  4 C       -1.1970     2.0810     0.4370 C.ar  1 <1>   0.0860 
  5 C       -3.2840    -0.9400    -0.5580 C.3   1 <1>   0.1400 
  6 C       -4.1460     1.1700     0.4390 C.3   1 <1>   0.1400 
  7 C       -1.5630     3.0400    -0.4870 C.ar  1 <1>  -0.1500 
  8 C       -0.2850     2.4680     1.4400 C.ar  1 <1>  -0.1500 
  9 C       -4.3310    -1.4640     0.4450 C.3   1 <1>   0.4230 
 10 C       -5.4920     0.4570     0.0890 C.3   1 <1>  -0.1600 
 11 C       -1.0870     4.3550    -0.4430 C.ar  1 <1>   0.3100 
 12 C        0.2050     3.7450     1.5080 C.ar  1 <1>  -0.1500 
 13 N       -3.9060    -2.7330     1.1350 N.4   1 <1>  -0.9590 
 14 C       -5.7870    -1.1380    -0.1190 C.3   1 <1>   0.0000 
 15 N       -1.5150     5.2420    -1.3810 N.ar  1 <1>  -0.6200 
 16 C       -0.1790     4.7240     0.5810 C.ar  1 <1>   0.3100 
 17 C       -4.0120    -3.8740     0.2470 C.3   1 <1>   0.3430 
 18 C       -2.5520    -2.6280     1.7750 C.3   1 <1>   0.2630 
 19 C       -6.1570    -2.6890    -0.4240 C.3   1 <1>  -0.1600 
 20 C       -7.2650    -0.7350    -0.6240 C.3   1 <1>   0.1200 
 21 C       -1.0120     6.4300    -1.2460 C.ar  1 <1>   0.1600 
 22 N        0.3210     5.9810     0.6880 N.ar  1 <1>  -0.6200 
 23 C       -5.4960    -3.9900     0.0810 C.3   1 <1>  -0.1600 
 24 O       -8.1190    -0.7690     0.4770 O.3   1 <1>  -0.6800 
 25 C       -0.1080     6.7940    -0.2270 C.ar  1 <1>   0.1600 
 26 H       -3.6990    -0.8960    -1.5510 H     1 <1>   0.0800 
 27 H       -2.4010    -1.5500    -0.6010 H     1 <1>   0.0800 
 28 H       -4.0440     1.2360     1.5110 H     1 <1>   0.0800 
 29 H       -4.1590     2.1780     0.0580 H     1 <1>   0.0800 
 30 H       -2.2350     2.7930    -1.2880 H     1 <1>   0.1500 
 31 H        0.0280     1.7310     2.1620 H     1 <1>   0.1500 
 32 H       -4.2530    -0.8120     1.2940 H     1 <1>   0.0800 
 33 H       -6.2010     0.8710     0.7900 H     1 <1>   0.0800 
 34 H       -5.6560     0.9460    -0.8580 H     1 <1>   0.0800 
 35 H        0.9010     4.0340     2.2760 H     1 <1>   0.1500 
 36 H       -4.5970    -2.8800     1.8840 H     1 <1>   0.4500 
 37 H       -3.5200    -3.6880    -0.6940 H     1 <1>   0.0800 
 38 H       -3.6110    -4.7650     0.7040 H     1 <1>   0.0800 
 39 H       -1.7800    -2.5470     1.0270 H     1 <1>   0.0800 
 40 H       -2.3520    -3.4970     2.3800 H     1 <1>   0.0800 
 41 H       -2.5000    -1.7510     2.4010 H     1 <1>   0.0800 
 42 H       -7.1800    -2.9260    -0.1660 H     1 <1>   0.0800 
 43 H       -6.0930    -2.7800    -1.4980 H     1 <1>   0.0800 
 44 H       -7.6890    -1.3760    -1.3830 H     1 <1>   0.0800 
 45 H       -7.4130     0.2340    -1.0700 H     1 <1>   0.0800 
 46 H       -1.2990     7.1900    -1.9510 H     1 <1>   0.1500 
 47 H       -5.7100    -4.7910    -0.6060 H     1 <1>   0.0800 
 48 H       -5.9310    -4.2740     1.0260 H     1 <1>   0.0800 
 49 H       -9.0380    -0.5440     0.2210 H     1 <1>   0.4000 
 50 H        0.2430     7.8110    -0.2130 H     1 <1>   0.1500 
@<TRIPOS>BOND
  1   1   2  2   
  2   2   3  am  
  3   2   4  1   
  4   3   5  1   
  5   3   6  1   
  6   4   7  ar  
  7   4   8  ar  
  8   5   9  1   
  9   5  26  1   
 10   5  27  1   
 11   6  10  1   
 12   6  28  1   
 13   6  29  1   
 14   7  11  ar  
 15   7  30  1   
 16   8  12  ar  
 17   8  31  1   
 18   9  13  1   
 19   9  14  1   
 20   9  32  1   
 21  10  14  1   
 22  10  33  1   
 23  10  34  1   
 24  11  15  ar  
 25  11  16  ar  
 26  12  16  ar  
 27  12  35  1   
 28  13  17  1   
 29  13  18  1   
 30  13  36  1   
 31  14  19  1   
 32  14  20  1   
 33  15  21  ar  
 34  16  22  ar  
 35  17  23  1   
 36  17  37  1   
 37  17  38  1   
 38  18  39  1   
 39  18  40  1   
 40  18  41  1   
 41  19  23  1   
 42  19  42  1   
 43  19  43  1   
 44  20  24  1   
 45  20  44  1   
 46  20  45  1   
 47  21  25  ar  
 48  21  46  1   
 49  22  25  ar  
 50  23  47  1   
 51  23  48  1   
 52  24  49  1   
 53  25  50  1   
@<TRIPOS>SUBSTRUCTURE
  1 ****   3 GROUP 4 **** **** 0

# MOE 2024.06 (io_trps.svl 2023.06)
