@<TRIPOS>MOLECULE
NONAME
53 54 1 0 0 
SMALL
USER_CHARGES


@<TRIPOS>ATOM
  1 O       -3.6240     2.4340     0.6640 O.2   1 <1>  -0.5700 
  2 C       -2.8350     1.6320     0.2090 C.2   1 <1>   0.5690 
  3 N       -3.3460     0.4650    -0.3230 N.am  1 <1>  -0.6600 
  4 C       -1.3180     2.0060     0.2800 C.3   1 <1>   0.2040 
  5 C       -2.6020    -0.8380    -0.3740 C.3   1 <1>   0.3210 
  6 C       -4.8010     0.4080    -0.6740 C.3   1 <1>   0.1400 
  7 C       -1.1640     3.5270     0.0220 C.ar  1 <1>  -0.1440 
  8 C       -0.7830     1.5950     1.6690 C.3   1 <1>  -0.2400 
  9 C       -0.4240     1.3250    -0.7830 C.3   1 <1>  -0.2400 
 10 C       -3.4650    -2.0690    -0.0830 C.2   1 <1>   0.0460 
 11 C       -5.6520     0.1930     0.5950 C.3   1 <1>   0.3430 
 12 C       -1.6630     4.0550    -1.1660 C.ar  1 <1>  -0.1500 
 13 C       -0.5470     4.4050     0.9120 C.ar  1 <1>  -0.1500 
 14 N       -4.0150    -2.2620     1.1360 N.2   1 <1>  -0.5650 
 15 C       -3.7730    -3.0950    -0.9140 C.2   1 <1>  -0.3320 
 16 N       -6.8760     1.0660     0.6720 N.4   1 <1>  -0.9590 
 17 C       -1.5510     5.4020    -1.4590 C.ar  1 <1>  -0.1500 
 18 C       -0.4350     5.7530     0.6220 C.ar  1 <1>  -0.1500 
 19 C       -4.6170    -3.4020     1.0310 C.2   1 <1>   0.0360 
 20 N       -4.5110    -3.9590    -0.1920 N.pl3 1 <1>   0.0330 
 21 C       -3.4100    -3.3630    -2.3660 C.3   1 <1>  -0.0600 
 22 C       -6.4920     2.5010     0.8720 C.3   1 <1>   0.2630 
 23 C       -7.7390     0.6090     1.7990 C.3   1 <1>   0.2630 
 24 C       -0.9360     6.2550    -0.5640 C.ar  1 <1>  -0.1500 
 25 H       -1.8190    -0.8350     0.3600 H     1 <1>   0.0800 
 26 H       -2.1520    -0.9420    -1.3440 H     1 <1>   0.0800 
 27 H       -4.9820    -0.3860    -1.3770 H     1 <1>   0.0800 
 28 H       -5.0700     1.3340    -1.1500 H     1 <1>   0.0800 
 29 H       -1.3200     2.1220     2.4400 H     1 <1>   0.0800 
 30 H        0.2650     1.8190     1.7570 H     1 <1>   0.0800 
 31 H       -0.9150     0.5430     1.8390 H     1 <1>   0.0800 
 32 H       -0.8880     1.3640    -1.7520 H     1 <1>   0.0800 
 33 H       -0.2010     0.3050    -0.5390 H     1 <1>   0.0800 
 34 H        0.5180     1.8430    -0.8470 H     1 <1>   0.0800 
 35 H       -5.0290     0.3840     1.4540 H     1 <1>   0.0800 
 36 H       -5.9440    -0.8430     0.6310 H     1 <1>   0.0800 
 37 H       -2.1500     3.4160    -1.8800 H     1 <1>   0.1500 
 38 H       -0.1420     4.0680     1.8470 H     1 <1>   0.1500 
 39 H       -7.3990     0.9790    -0.2110 H     1 <1>   0.4500 
 40 H       -1.9430     5.7880    -2.3840 H     1 <1>   0.1500 
 41 H        0.0440     6.4150     1.3230 H     1 <1>   0.1500 
 42 H       -5.1520    -3.8840     1.8320 H     1 <1>   0.1500 
 43 H       -4.8920    -4.8620    -0.4930 H     1 <1>   0.2700 
 44 H       -2.8420    -2.5510    -2.7810 H     1 <1>   0.0800 
 45 H       -4.3010    -3.4880    -2.9560 H     1 <1>   0.0800 
 46 H       -2.8200    -4.2600    -2.4400 H     1 <1>   0.0800 
 47 H       -5.8920     2.6070     1.7620 H     1 <1>   0.0800 
 48 H       -7.3690     3.1200     0.9680 H     1 <1>   0.0800 
 49 H       -5.9090     2.8580     0.0390 H     1 <1>   0.0800 
 50 H       -7.2040     0.6890     2.7320 H     1 <1>   0.0800 
 51 H       -8.0300    -0.4190     1.6560 H     1 <1>   0.0800 
 52 H       -8.6290     1.2150     1.8590 H     1 <1>   0.0800 
 53 H       -0.8480     7.3040    -0.7880 H     1 <1>   0.1500 
@<TRIPOS>BOND
  1   1   2  2   
  2   2   3  am  
  3   2   4  1   
  4   3   5  1   
  5   3   6  1   
  6   4   7  1   
  7   4   8  1   
  8   4   9  1   
  9   5  10  1   
 10   5  25  1   
 11   5  26  1   
 12   6  11  1   
 13   6  27  1   
 14   6  28  1   
 15   7  12  ar  
 16   7  13  ar  
 17   8  29  1   
 18   8  30  1   
 19   8  31  1   
 20   9  32  1   
 21   9  33  1   
 22   9  34  1   
 23  10  14  1   
 24  10  15  2   
 25  11  16  1   
 26  11  35  1   
 27  11  36  1   
 28  12  17  ar  
 29  12  37  1   
 30  13  18  ar  
 31  13  38  1   
 32  14  19  2   
 33  15  20  1   
 34  15  21  1   
 35  16  22  1   
 36  16  23  1   
 37  16  39  1   
 38  17  24  ar  
 39  17  40  1   
 40  18  24  ar  
 41  18  41  1   
 42  19  20  1   
 43  19  42  1   
 44  20  43  1   
 45  21  44  1   
 46  21  45  1   
 47  21  46  1   
 48  22  47  1   
 49  22  48  1   
 50  22  49  1   
 51  23  50  1   
 52  23  51  1   
 53  23  52  1   
 54  24  53  1   
@<TRIPOS>SUBSTRUCTURE
  1 ****   3 GROUP 4 **** **** 0

# MOE 2024.06 (io_trps.svl 2023.06)
