@<TRIPOS>MOLECULE
NONAME
35 37 1 0 0 
SMALL
USER_CHARGES


@<TRIPOS>ATOM
  1 CL       0.2530    -0.2370    -0.3800 Cl    1 <1>  -0.1770 
  2 C       -0.0470    -1.9550    -0.3080 C.ar  1 <1>   0.1770 
  3 C        1.0230    -2.8310    -0.3150 C.ar  1 <1>  -0.1500 
  4 C       -1.3500    -2.4130    -0.2440 C.ar  1 <1>  -0.1500 
  5 C        0.7790    -4.1920    -0.2580 C.ar  1 <1>  -0.1500 
  6 C       -1.5910    -3.7760    -0.1870 C.ar  1 <1>  -0.1500 
  7 C       -0.5220    -4.6710    -0.1940 C.ar  1 <1>   0.0830 
  8 O       -0.6650    -6.0180    -0.1410 O.3   1 <1>  -0.3630 
  9 C       -1.9510    -6.6240    -0.1450 C.3   1 <1>   0.1810 
 10 C       -1.8890    -8.1530    -0.1000 C.2   1 <1>   0.5690 
 11 O       -0.9520    -8.7250    -0.6130 O.2   1 <1>  -0.5700 
 12 N       -2.9090    -8.8390     0.4940 N.am  1 <1>  -0.6600 
 13 C       -4.1880    -8.2600     0.9950 C.3   1 <1>   0.2350 
 14 C       -2.9860   -10.3270     0.5430 C.3   1 <1>   0.2350 
 15 C       -5.2190    -9.3570     0.8370 C.3   1 <1>  -0.2420 
 16 C       -4.4730   -10.6450     0.5830 C.3   1 <1>  -0.2420 
 17 C       -6.4760    -9.0050     1.6370 C.2   1 <1>   0.9470 
 18 C       -5.3900   -10.0870    -0.4730 C.3   1 <1>  -0.2000 
 19 C       -4.7160   -12.0550     1.1260 C.2   1 <1>   0.9470 
 20 O       -7.5700    -8.9400     1.0600 O.co2 1 <1>  -0.9000 
 21 O       -6.3450    -8.5970     2.7990 O.co2 1 <1>  -0.9000 
 22 O       -5.2870   -12.8930     0.4150 O.co2 1 <1>  -0.9000 
 23 O       -4.2000   -12.3750     2.2060 O.co2 1 <1>  -0.9000 
 24 H        2.0270    -2.4510    -0.3650 H     1 <1>   0.1500 
 25 H       -2.1620    -1.7070    -0.2390 H     1 <1>   0.1500 
 26 H        1.5940    -4.8950    -0.2630 H     1 <1>   0.1500 
 27 H       -2.6090    -4.1160    -0.1360 H     1 <1>   0.1500 
 28 H       -2.4770    -6.2620     0.7170 H     1 <1>   0.0800 
 29 H       -2.4590    -6.3260    -1.0420 H     1 <1>   0.0800 
 30 H       -4.0780    -8.0050     2.0360 H     1 <1>   0.0800 
 31 H       -4.4890    -7.3940     0.4330 H     1 <1>   0.0800 
 32 H       -2.5200   -10.7730    -0.3180 H     1 <1>   0.0800 
 33 H       -2.5040   -10.6770     1.4400 H     1 <1>   0.0800 
 34 H       -4.9750    -9.6730    -1.3720 H     1 <1>   0.1000 
 35 H       -6.3200   -10.6020    -0.6470 H     1 <1>   0.1000 
@<TRIPOS>BOND
  1   1   2  1   
  2   2   3  ar  
  3   2   4  ar  
  4   3   5  ar  
  5   3  24  1   
  6   4   6  ar  
  7   4  25  1   
  8   5   7  ar  
  9   5  26  1   
 10   6   7  ar  
 11   6  27  1   
 12   7   8  1   
 13   8   9  1   
 14   9  10  1   
 15   9  28  1   
 16   9  29  1   
 17  10  11  2   
 18  10  12  am  
 19  12  13  1   
 20  12  14  1   
 21  13  15  1   
 22  13  30  1   
 23  13  31  1   
 24  14  16  1   
 25  14  32  1   
 26  14  33  1   
 27  15  16  1   
 28  15  17  1   
 29  15  18  1   
 30  16  18  1   
 31  16  19  1   
 32  17  20  ar  
 33  17  21  ar  
 34  18  34  1   
 35  18  35  1   
 36  19  22  ar  
 37  19  23  ar  
@<TRIPOS>SUBSTRUCTURE
  1 ****  10 GROUP 4 **** **** 0

# MOE 2024.06 (io_trps.svl 2023.06)
