@<TRIPOS>MOLECULE
NONAME
40 42 1 0 0 
SMALL
USER_CHARGES


@<TRIPOS>ATOM
  1 O       -0.7730    -0.6400     1.3950 O.co2 1 <1>  -0.9000 
  2 C       -0.5490    -1.3330     0.3900 C.2   1 <1>   1.0330 
  3 O       -1.2490    -1.1490    -0.6230 O.co2 1 <1>  -0.9000 
  4 C        0.5350    -2.2590     0.3630 C.2   1 <1>  -0.2330 
  5 C        0.4700    -3.6570     0.4340 C.2   1 <1>   0.3720 
  6 C        1.8650    -1.9930     0.2800 C.2   1 <1>   0.0870 
  7 N        1.6570    -4.1620     0.4040 N.2   1 <1>  -0.4100 
  8 N       -0.6800    -4.4650     0.5570 N.pl3 1 <1>  -0.8210 
  9 O        2.4780    -3.1510     0.3080 O.3   1 <1>  -0.0190 
 10 C        2.6380    -0.7740     0.1700 C.ar  1 <1>   0.0530 
 11 C       -0.5490    -5.9270     0.3220 C.3   1 <1>   0.2090 
 12 C       -1.9400    -3.9850    -0.0580 C.3   1 <1>   0.2090 
 13 C        4.0170    -0.7800     0.3940 C.ar  1 <1>  -0.1500 
 14 C        2.0630     0.4540    -0.1670 C.ar  1 <1>  -0.1500 
 15 C       -1.8020    -6.3540    -0.4440 C.3   1 <1>  -0.0800 
 16 C       -2.8040    -5.2270    -0.1980 C.3   1 <1>  -0.1600 
 17 C        4.7780     0.3690     0.2880 C.ar  1 <1>  -0.1500 
 18 C        2.8140     1.6090    -0.2730 C.ar  1 <1>  -0.1500 
 19 C       -2.2970    -7.7360    -0.0060 C.3   1 <1>   0.1200 
 20 C        4.1860     1.5760    -0.0460 C.ar  1 <1>   0.0820 
 21 O       -3.4410    -8.0570    -0.7140 O.3   1 <1>  -0.6800 
 22 O        4.9940     2.6600    -0.1290 O.3   1 <1>  -0.3630 
 23 C        4.4730     3.9370    -0.4200 C.3   1 <1>   0.0400 
 24 H       -0.4910    -6.4160     1.2790 H     1 <1>   0.0800 
 25 H        0.3330    -6.1630    -0.2480 H     1 <1>   0.0800 
 26 H       -1.7310    -3.5630    -1.0270 H     1 <1>   0.0800 
 27 H       -2.4150    -3.2440     0.5640 H     1 <1>   0.0800 
 28 H        4.5020    -1.7030     0.6590 H     1 <1>   0.1500 
 29 H        1.0050     0.5140    -0.3510 H     1 <1>   0.1500 
 30 H       -1.5450    -6.3840    -1.4890 H     1 <1>   0.0800 
 31 H       -3.5120    -5.1180    -0.9990 H     1 <1>   0.0800 
 32 H       -3.3280    -5.3770     0.7290 H     1 <1>   0.0800 
 33 H        5.8370     0.3400     0.4660 H     1 <1>   0.1500 
 34 H        2.3090     2.5200    -0.5320 H     1 <1>   0.1500 
 35 H       -2.5370    -7.7450     1.0440 H     1 <1>   0.0800 
 36 H       -1.5580    -8.4920    -0.2090 H     1 <1>   0.0800 
 37 H       -4.1020    -7.3450    -0.6180 H     1 <1>   0.4000 
 38 H        5.2870     4.6390    -0.4160 H     1 <1>   0.0800 
 39 H        3.7570     4.2020     0.3380 H     1 <1>   0.0800 
 40 H        4.0140     3.9130    -1.3920 H     1 <1>   0.0800 
@<TRIPOS>BOND
  1   1   2  ar  
  2   2   3  ar  
  3   2   4  1   
  4   4   5  1   
  5   4   6  2   
  6   5   7  2   
  7   5   8  1   
  8   6   9  1   
  9   6  10  1   
 10   7   9  1   
 11   8  11  1   
 12   8  12  1   
 13  10  13  ar  
 14  10  14  ar  
 15  11  15  1   
 16  11  24  1   
 17  11  25  1   
 18  12  16  1   
 19  12  26  1   
 20  12  27  1   
 21  13  17  ar  
 22  13  28  1   
 23  14  18  ar  
 24  14  29  1   
 25  15  16  1   
 26  15  19  1   
 27  15  30  1   
 28  16  31  1   
 29  16  32  1   
 30  17  20  ar  
 31  17  33  1   
 32  18  20  ar  
 33  18  34  1   
 34  19  21  1   
 35  19  35  1   
 36  19  36  1   
 37  20  22  1   
 38  21  37  1   
 39  22  23  1   
 40  23  38  1   
 41  23  39  1   
 42  23  40  1   
@<TRIPOS>SUBSTRUCTURE
  1 ****   4 GROUP 4 **** **** 0

# MOE 2024.06 (io_trps.svl 2023.06)
