@<TRIPOS>MOLECULE
NONAME
49 50 1 0 0 
SMALL
USER_CHARGES


@<TRIPOS>ATOM
  1 S       -0.1090     2.4140    -1.1250 S.o2  1 <1>   1.3330 
  2 O       -0.4980     1.7350    -2.3340 O.2   1 <1>  -0.6500 
  3 O        0.2880     3.8070    -1.1500 O.2   1 <1>  -0.6500 
  4 N        1.2100     1.5750    -0.4610 N.am  1 <1>  -0.8490 
  5 C       -1.3970     2.2350     0.1250 C.3   1 <1>  -0.0550 
  6 C        1.0420     0.1110    -0.5180 C.3   1 <1>   0.1160 
  7 C        2.4560     1.9000    -1.1730 C.3   1 <1>   0.1160 
  8 C       -1.2600     3.0760     1.4230 C.3   1 <1>  -0.0800 
  9 C       -1.6570     4.5470     1.2080 C.3   1 <1>   0.2000 
 10 C        0.1570     3.1390     2.0080 C.3   1 <1>   0.3430 
 11 O       -2.6420     4.8960     2.1210 O.3   1 <1>  -0.6800 
 12 C       -0.3950     5.3900     1.4360 C.3   1 <1>   0.3430 
 13 N        0.7240     4.4060     1.4940 N.4   1 <1>  -0.9590 
 14 C        1.9570     4.8960     2.1580 C.3   1 <1>   0.4860 
 15 C        2.3550     6.2050     1.5070 C.ar  1 <1>  -0.1440 
 16 C        2.3810     7.3710     2.2590 C.ar  1 <1>  -0.1500 
 17 C        2.6690     6.2550     0.1550 C.ar  1 <1>  -0.1500 
 18 C        2.6980     8.5750     1.6580 C.ar  1 <1>  -0.1500 
 19 C        2.9840     7.4610    -0.4440 C.ar  1 <1>  -0.1500 
 20 C        2.9910     8.6310     0.3070 C.ar  1 <1>   0.0820 
 21 O        3.2640     9.8520    -0.2070 O.3   1 <1>  -0.3620 
 22 C        3.3710    10.0500    -1.6170 C.3   1 <1>   0.0140 
 23 C        3.5380    11.5090    -2.0130 C.2   1 <1>   0.9060 
 24 O        2.5290    12.2030    -2.1970 O.co2 1 <1>  -0.9000 
 25 O        4.6790    11.9420    -2.2210 O.co2 1 <1>  -0.9000 
 26 H       -2.3400     2.4800    -0.3280 H     1 <1>   0.0800 
 27 H       -1.4640     1.2000     0.3970 H     1 <1>   0.0800 
 28 H        1.8890    -0.3780    -0.0670 H     1 <1>   0.0800 
 29 H        0.9580    -0.2220    -1.5410 H     1 <1>   0.0800 
 30 H        0.1590    -0.1960     0.0140 H     1 <1>   0.0800 
 31 H        3.2860     1.3650    -0.7420 H     1 <1>   0.0800 
 32 H        2.6660     2.9530    -1.1080 H     1 <1>   0.0800 
 33 H        2.3740     1.6340    -2.2150 H     1 <1>   0.0800 
 34 H       -1.9100     2.6220     2.1520 H     1 <1>   0.0800 
 35 H       -2.0530     4.7280     0.2210 H     1 <1>   0.0800 
 36 H        0.7560     2.2880     1.7290 H     1 <1>   0.0800 
 37 H        0.0960     3.1860     3.0840 H     1 <1>   0.0800 
 38 H       -2.3990     4.7090     3.0490 H     1 <1>   0.4000 
 39 H       -0.4740     5.9280     2.3660 H     1 <1>   0.0800 
 40 H       -0.2430     6.0870     0.6270 H     1 <1>   0.0800 
 41 H        0.9680     4.2550     0.4930 H     1 <1>   0.4500 
 42 H        1.7790     5.0500     3.2090 H     1 <1>   0.0800 
 43 H        2.7530     4.1770     2.0430 H     1 <1>   0.0800 
 44 H        2.1540     7.3640     3.3110 H     1 <1>   0.1500 
 45 H        2.6670     5.3680    -0.4530 H     1 <1>   0.1500 
 46 H        2.7200     9.4900     2.2250 H     1 <1>   0.1500 
 47 H        3.2220     7.4810    -1.4920 H     1 <1>   0.1500 
 48 H        4.2270     9.5090    -1.9700 H     1 <1>   0.0800 
 49 H        2.4770     9.6810    -2.0800 H     1 <1>   0.0800 
@<TRIPOS>BOND
  1   1   2  2   
  2   1   3  2   
  3   1   4  am  
  4   1   5  1   
  5   4   6  1   
  6   4   7  1   
  7   5   8  1   
  8   5  26  1   
  9   5  27  1   
 10   6  28  1   
 11   6  29  1   
 12   6  30  1   
 13   7  31  1   
 14   7  32  1   
 15   7  33  1   
 16   8   9  1   
 17   8  10  1   
 18   8  34  1   
 19   9  11  1   
 20   9  12  1   
 21   9  35  1   
 22  10  13  1   
 23  10  36  1   
 24  10  37  1   
 25  11  38  1   
 26  12  13  1   
 27  12  39  1   
 28  12  40  1   
 29  13  14  1   
 30  13  41  1   
 31  14  15  1   
 32  14  42  1   
 33  14  43  1   
 34  15  16  ar  
 35  15  17  ar  
 36  16  18  ar  
 37  16  44  1   
 38  17  19  ar  
 39  17  45  1   
 40  18  20  ar  
 41  18  46  1   
 42  19  20  ar  
 43  19  47  1   
 44  20  21  1   
 45  21  22  1   
 46  22  23  1   
 47  22  48  1   
 48  22  49  1   
 49  23  24  ar  
 50  23  25  ar  
@<TRIPOS>SUBSTRUCTURE
  1 ****  17 GROUP 4 **** **** 0

# MOE 2024.06 (io_trps.svl 2023.06)
