@<TRIPOS>MOLECULE
NONAME
49 52 1 0 0 
SMALL
USER_CHARGES


@<TRIPOS>ATOM
  1 CL      -1.3260    -5.8190     2.0340 Cl    1 <1>  -0.1770 
  2 C       -2.6160    -5.0280     1.1680 C.ar  1 <1>   0.1770 
  3 C       -3.3560    -4.0460     1.7950 C.ar  1 <1>  -0.1500 
  4 C       -2.8830    -5.3980    -0.1350 C.ar  1 <1>  -0.1500 
  5 C       -4.3860    -3.4310     1.1040 C.ar  1 <1>  -0.1500 
  6 C       -3.9160    -4.7800    -0.8190 C.ar  1 <1>  -0.1500 
  7 C       -4.6840    -3.7920    -0.2060 C.ar  1 <1>  -0.1080 
  8 C       -5.8730    -3.0840    -0.8910 C.3   1 <1>   0.1610 
  9 C       -7.1790    -3.1960    -0.0830 C.2   1 <1>   0.5770 
 10 C       -5.4810    -1.6330    -1.3240 C.3   1 <1>   0.0000 
 11 C       -6.1170    -3.3510    -2.4110 C.3   1 <1>   0.0000 
 12 O       -7.6870    -2.1940     0.3650 O.2   1 <1>  -0.5700 
 13 N       -7.7610    -4.4200     0.1330 N.am  1 <1>  -0.6600 
 14 C       -5.1000    -2.2210    -2.7080 C.3   1 <1>   0.0000 
 15 C       -9.0600    -4.5940     0.8350 C.3   1 <1>   0.1400 
 16 C       -7.1260    -5.7410    -0.0950 C.3   1 <1>   0.1400 
 17 C       -8.9830    -5.9960     1.4390 C.3   1 <1>   0.2000 
 18 C       -8.1240    -6.7750     0.4330 C.3   1 <1>  -0.0800 
 19 O       -8.3140    -5.8990     2.6500 O.3   1 <1>  -0.6800 
 20 C       -7.4510    -8.0570     0.9670 C.3   1 <1>  -0.0170 
 21 C       -6.4430    -8.5990    -0.0380 C.ar  1 <1>  -0.1430 
 22 C       -6.8330    -9.2400    -1.1960 C.ar  1 <1>  -0.1500 
 23 C       -5.0830    -8.4600     0.1560 C.ar  1 <1>  -0.1500 
 24 C       -5.8700    -9.6890    -2.0850 C.ar  1 <1>   0.1600 
 25 C       -4.2030    -8.9480    -0.7960 C.ar  1 <1>   0.1600 
 26 N       -4.5650    -9.5530    -1.9150 N.ar  1 <1>  -0.6200 
 27 H       -3.1280    -3.7680     2.8090 H     1 <1>   0.1500 
 28 H       -2.2880    -6.1590    -0.6070 H     1 <1>   0.1500 
 29 H       -4.9630    -2.6640     1.5960 H     1 <1>   0.1500 
 30 H       -4.0990    -5.0910    -1.8310 H     1 <1>   0.1500 
 31 H       -6.3140    -0.9550    -1.4010 H     1 <1>   0.0000 
 32 H       -4.6450    -1.2150    -0.7920 H     1 <1>   0.0000 
 33 H       -5.8330    -4.3180    -2.7800 H     1 <1>   0.0000 
 34 H       -7.1120    -3.0790    -2.7220 H     1 <1>   0.0000 
 35 H       -4.0820    -2.5680    -2.7510 H     1 <1>   0.0000 
 36 H       -5.3760    -1.5940    -3.5370 H     1 <1>   0.0000 
 37 H       -9.2190    -3.8390     1.5860 H     1 <1>   0.0800 
 38 H       -9.8540    -4.5470     0.1100 H     1 <1>   0.0800 
 39 H       -6.9160    -5.9000    -1.1390 H     1 <1>   0.0800 
 40 H       -6.2140    -5.7970     0.4720 H     1 <1>   0.0800 
 41 H       -9.9480    -6.4390     1.6140 H     1 <1>   0.0800 
 42 H       -8.7560    -7.0490    -0.3930 H     1 <1>   0.0800 
 43 H       -7.5650    -5.2790     2.5430 H     1 <1>   0.4000 
 44 H       -8.2000    -8.8010     1.1690 H     1 <1>   0.0800 
 45 H       -6.9400    -7.8580     1.8930 H     1 <1>   0.0800 
 46 H       -7.8730    -9.3940    -1.4160 H     1 <1>   0.1500 
 47 H       -4.6960    -7.9780     1.0350 H     1 <1>   0.1500 
 48 H       -6.1910   -10.1870    -2.9840 H     1 <1>   0.1500 
 49 H       -3.1460    -8.8350    -0.6250 H     1 <1>   0.1500 
@<TRIPOS>BOND
  1   1   2  1   
  2   2   3  ar  
  3   2   4  ar  
  4   3   5  ar  
  5   3  27  1   
  6   4   6  ar  
  7   4  28  1   
  8   5   7  ar  
  9   5  29  1   
 10   6   7  ar  
 11   6  30  1   
 12   7   8  1   
 13   8   9  1   
 14   8  10  1   
 15   8  11  1   
 16   9  12  2   
 17   9  13  am  
 18  10  14  1   
 19  10  31  1   
 20  10  32  1   
 21  11  14  1   
 22  11  33  1   
 23  11  34  1   
 24  13  15  1   
 25  13  16  1   
 26  14  35  1   
 27  14  36  1   
 28  15  17  1   
 29  15  37  1   
 30  15  38  1   
 31  16  18  1   
 32  16  39  1   
 33  16  40  1   
 34  17  18  1   
 35  17  19  1   
 36  17  41  1   
 37  18  20  1   
 38  18  42  1   
 39  19  43  1   
 40  20  21  1   
 41  20  44  1   
 42  20  45  1   
 43  21  22  ar  
 44  21  23  ar  
 45  22  24  ar  
 46  22  46  1   
 47  23  25  ar  
 48  23  47  1   
 49  24  26  ar  
 50  24  48  1   
 51  25  26  ar  
 52  25  49  1   
@<TRIPOS>SUBSTRUCTURE
  1 ****  16 GROUP 4 **** **** 0

# MOE 2024.06 (io_trps.svl 2023.06)
