@<TRIPOS>MOLECULE
NONAME
36 38 1 0 0 
SMALL
USER_CHARGES


@<TRIPOS>ATOM
  1 O       -0.4790     0.2930     0.8770 O.2   1 <1>  -0.5700 
  2 C       -1.4920     0.9070     0.5970 C.2   1 <1>   0.7160 
  3 N       -2.6770     0.2110     0.4930 N.am  1 <1>  -0.6600 
  4 C       -1.4230     2.3270     0.3600 C.2   1 <1>  -0.0860 
  5 C       -3.8240     0.6510    -0.3500 C.3   1 <1>   0.1400 
  6 C       -2.7530    -1.2570     0.7220 C.3   1 <1>   0.1400 
  7 C       -2.3460     3.2930     0.7720 C.2   1 <1>   0.1390 
  8 C       -0.4730     3.0650    -0.2800 C.2   1 <1>  -0.3020 
  9 C       -4.8020    -0.5230    -0.3210 C.3   1 <1>   0.2000 
 10 C       -3.8960    -1.7480    -0.1730 C.3   1 <1>  -0.0800 
 11 N       -2.0240     4.4940     0.4100 N.2   1 <1>  -0.7070 
 12 N       -0.8540     4.3500    -0.2380 N.pl3 1 <1>   0.3000 
 13 O       -5.5980    -0.3940     0.8070 O.3   1 <1>  -0.6800 
 14 C       -4.5970    -3.0170     0.3490 C.3   1 <1>   0.0200 
 15 C       -3.6920    -4.2390     0.3520 C.2   1 <1>  -0.0400 
 16 O       -4.1270    -5.3370     0.9110 O.3   1 <1>  -0.0190 
 17 C       -2.4590    -4.4830    -0.1210 C.2   1 <1>  -0.1500 
 18 N       -3.2530    -6.2980     0.8430 N.2   1 <1>  -0.4100 
 19 C       -2.2360    -5.8130     0.2260 C.2   1 <1>   0.1080 
 20 C       -0.9740    -6.5890    -0.0770 C.3   1 <1>  -0.0590 
 21 H       -4.2860     1.5480     0.0220 H     1 <1>   0.0800 
 22 H       -3.4770     0.8150    -1.3560 H     1 <1>   0.0800 
 23 H       -1.8230    -1.7400     0.4710 H     1 <1>   0.0800 
 24 H       -2.9720    -1.4370     1.7610 H     1 <1>   0.0800 
 25 H       -3.2340     3.0710     1.3400 H     1 <1>   0.1500 
 26 H        0.4360     2.7260    -0.7440 H     1 <1>   0.1500 
 27 H       -5.4410    -0.5630    -1.1870 H     1 <1>   0.0800 
 28 H       -3.4830    -1.9630    -1.1430 H     1 <1>   0.0800 
 29 H       -0.3450     5.1530    -0.6300 H     1 <1>   0.2700 
 30 H       -5.0290    -0.2110     1.5820 H     1 <1>   0.4000 
 31 H       -5.4530    -3.2310    -0.2660 H     1 <1>   0.0800 
 32 H       -4.9510    -2.8570     1.3520 H     1 <1>   0.0800 
 33 H       -1.7710    -3.8470    -0.6450 H     1 <1>   0.1500 
 34 H       -0.1320    -6.1100     0.3870 H     1 <1>   0.0800 
 35 H       -0.8190    -6.6330    -1.1390 H     1 <1>   0.0800 
 36 H       -1.0590    -7.5910     0.3050 H     1 <1>   0.0800 
@<TRIPOS>BOND
  1   1   2  2   
  2   2   3  am  
  3   2   4  1   
  4   3   5  1   
  5   3   6  1   
  6   4   7  1   
  7   4   8  2   
  8   5   9  1   
  9   5  21  1   
 10   5  22  1   
 11   6  10  1   
 12   6  23  1   
 13   6  24  1   
 14   7  11  2   
 15   7  25  1   
 16   8  12  1   
 17   8  26  1   
 18   9  10  1   
 19   9  13  1   
 20   9  27  1   
 21  10  14  1   
 22  10  28  1   
 23  11  12  1   
 24  12  29  1   
 25  13  30  1   
 26  14  15  1   
 27  14  31  1   
 28  14  32  1   
 29  15  16  1   
 30  15  17  2   
 31  16  18  1   
 32  17  19  1   
 33  17  33  1   
 34  18  19  2   
 35  19  20  1   
 36  20  34  1   
 37  20  35  1   
 38  20  36  1   
@<TRIPOS>SUBSTRUCTURE
  1 ****   6 GROUP 4 **** **** 0

# MOE 2024.06 (io_trps.svl 2023.06)
