@<TRIPOS>MOLECULE
NONAME
53 55 1 0 0 
SMALL
USER_CHARGES


@<TRIPOS>ATOM
  1 S       -0.6280     0.4220    -0.8060 S.3   1 <1>  -0.2030 
  2 C       -0.6120    -1.3320    -0.4890 C.ar  1 <1>   0.4620 
  3 C        1.0560     0.9700    -0.5130 C.ar  1 <1>   0.1020 
  4 N        0.4790    -1.8540     0.0980 N.ar  1 <1>  -0.1790 
  5 C       -1.6520    -2.1340    -0.8100 C.ar  1 <1>  -0.1500 
  6 C        1.2940     1.8710     0.5130 C.ar  1 <1>  -0.1500 
  7 C        2.0810     0.4680    -1.3040 C.ar  1 <1>  -0.1500 
  8 C        0.5290    -3.1700     0.3440 C.ar  1 <1>   0.7710 
  9 C       -1.5420    -3.5020    -0.5150 C.ar  1 <1>   0.4100 
 10 C        2.5970     2.2610     0.7770 C.ar  1 <1>  -0.1500 
 11 C        3.3850     0.8560    -1.0400 C.ar  1 <1>  -0.1500 
 12 N       -0.4470    -3.9960     0.0420 N.ar  1 <1>  -0.6200 
 13 N        1.6030    -3.7040     0.9190 N.pl3 1 <1>  -0.9000 
 14 N       -2.5570    -4.3640    -0.7910 N.pl3 1 <1>  -0.8380 
 15 C        3.6160     1.7410    -0.0010 C.ar  1 <1>   0.1900 
 16 C       -2.3280    -5.8350    -1.0370 C.3   1 <1>   0.2090 
 17 C       -3.9980    -4.0200    -0.6260 C.3   1 <1>   0.2090 
 18 F        4.8450     2.0970     0.2540 F     1 <1>  -0.1900 
 19 C       -3.1490    -6.7620    -0.0920 C.3   1 <1>   0.0000 
 20 C       -4.5580    -4.7090     0.6260 C.3   1 <1>  -0.1600 
 21 C       -3.7030    -5.9020     1.0810 C.3   1 <1>   0.2000 
 22 C       -4.3360    -7.3860    -0.8780 C.3   1 <1>   0.1200 
 23 C       -2.2480    -7.9180     0.4380 C.3   1 <1>  -0.1600 
 24 O       -4.4550    -6.6550     1.9700 O.3   1 <1>  -0.6800 
 25 O       -3.9070    -8.1810    -1.9350 O.3   1 <1>  -0.6800 
 26 C       -1.1270    -7.5100     1.4140 C.3   1 <1>  -0.1600 
 27 C       -0.2170    -8.7010     1.7260 C.3   1 <1>  -0.2400 
 28 H        1.2640    -1.2670     0.3590 H     1 <1>   0.4570 
 29 H       -2.5310    -1.7490    -1.2890 H     1 <1>   0.1500 
 30 H        0.4800     2.2650     1.0980 H     1 <1>   0.1500 
 31 H        1.8750    -0.1980    -2.1250 H     1 <1>   0.1500 
 32 H        2.8250     2.9590     1.5660 H     1 <1>   0.1500 
 33 H        4.2110     0.4960    -1.6290 H     1 <1>   0.1500 
 34 H        2.4590    -3.2470     1.2380 H     1 <1>   0.4000 
 35 H        1.5880    -4.7150     1.0940 H     1 <1>   0.4000 
 36 H       -2.5770    -6.0400    -2.0620 H     1 <1>   0.0800 
 37 H       -1.2820    -6.0640    -0.9480 H     1 <1>   0.0800 
 38 H       -4.1470    -2.9590    -0.5380 H     1 <1>   0.0800 
 39 H       -4.5340    -4.3540    -1.4980 H     1 <1>   0.0800 
 40 H       -5.5680    -5.0150     0.4240 H     1 <1>   0.0800 
 41 H       -4.5880    -3.9940     1.4280 H     1 <1>   0.0800 
 42 H       -2.8710    -5.5050     1.6370 H     1 <1>   0.0800 
 43 H       -4.9890    -6.6330    -1.2800 H     1 <1>   0.0800 
 44 H       -4.9110    -8.0240    -0.2290 H     1 <1>   0.0800 
 45 H       -2.8700    -8.6420     0.9380 H     1 <1>   0.0800 
 46 H       -1.8030    -8.4230    -0.4020 H     1 <1>   0.0800 
 47 H       -5.2120    -7.0780     1.5250 H     1 <1>   0.4000 
 48 H       -3.5990    -7.6460    -2.6920 H     1 <1>   0.4000 
 49 H       -0.5310    -6.7150     1.0030 H     1 <1>   0.0800 
 50 H       -1.5570    -7.1620     2.3380 H     1 <1>   0.0800 
 51 H        0.2570    -9.0610     0.8300 H     1 <1>   0.0800 
 52 H       -0.7870    -9.5030     2.1610 H     1 <1>   0.0800 
 53 H        0.5470    -8.4100     2.4250 H     1 <1>   0.0800 
@<TRIPOS>BOND
  1   1   2  1   
  2   1   3  1   
  3   2   4  ar  
  4   2   5  ar  
  5   3   6  ar  
  6   3   7  ar  
  7   4   8  ar  
  8   4  28  1   
  9   5   9  ar  
 10   5  29  1   
 11   6  10  ar  
 12   6  30  1   
 13   7  11  ar  
 14   7  31  1   
 15   8  12  ar  
 16   8  13  1   
 17   9  12  ar  
 18   9  14  1   
 19  10  15  ar  
 20  10  32  1   
 21  11  15  ar  
 22  11  33  1   
 23  13  34  1   
 24  13  35  1   
 25  14  16  1   
 26  14  17  1   
 27  15  18  1   
 28  16  19  1   
 29  16  36  1   
 30  16  37  1   
 31  17  20  1   
 32  17  38  1   
 33  17  39  1   
 34  19  21  1   
 35  19  22  1   
 36  19  23  1   
 37  20  21  1   
 38  20  40  1   
 39  20  41  1   
 40  21  24  1   
 41  21  42  1   
 42  22  25  1   
 43  22  43  1   
 44  22  44  1   
 45  23  26  1   
 46  23  45  1   
 47  23  46  1   
 48  24  47  1   
 49  25  48  1   
 50  26  27  1   
 51  26  49  1   
 52  26  50  1   
 53  27  51  1   
 54  27  52  1   
 55  27  53  1   
@<TRIPOS>SUBSTRUCTURE
  1 ****  12 GROUP 4 **** **** 0

# MOE 2024.06 (io_trps.svl 2023.06)
