@<TRIPOS>MOLECULE
NONAME
50 53 1 0 0 
SMALL
USER_CHARGES


@<TRIPOS>ATOM
  1 CL      -1.8320    -0.6020    -3.8800 Cl    1 <1>  -0.1230 
  2 C       -1.7310    -1.8170    -2.6190 C.2   1 <1>   0.1230 
  3 C       -0.8660    -1.8320    -1.5780 C.2   1 <1>  -0.3020 
  4 C       -2.5440    -2.9360    -2.5350 C.2   1 <1>  -0.1500 
  5 N       -1.1130    -2.9400    -0.8340 N.pl3 1 <1>   0.0480 
  6 C       -2.1600    -3.6300    -1.4110 C.2   1 <1>  -0.2370 
  7 C       -0.3590    -3.3250     0.3760 C.3   1 <1>   0.0160 
  8 C       -2.6960    -4.8600    -0.8830 C.2   1 <1>   0.7150 
  9 O       -1.9380    -5.6940    -0.4210 O.2   1 <1>  -0.5700 
 10 N       -4.0520    -5.1100    -0.8610 N.am  1 <1>  -0.6600 
 11 C       -5.0940    -4.0360    -0.9090 C.3   1 <1>   0.1400 
 12 C       -4.5960    -6.4600    -0.5460 C.3   1 <1>   0.1400 
 13 C       -5.8600    -3.9490     0.4250 C.3   1 <1>   0.1430 
 14 C       -5.3490    -6.4210     0.7900 C.3   1 <1>  -0.1600 
 15 C       -6.9350    -2.8890     0.2830 C.ar  1 <1>   0.1670 
 16 C       -6.4380    -5.3330     0.7940 C.3   1 <1>  -0.1600 
 17 C       -4.9680    -3.3670     1.5560 C.3   1 <1>  -0.1600 
 18 N       -8.0450    -3.0220    -0.3980 N.ar  1 <1>  -0.6200 
 19 C       -6.6000    -1.7450     0.9420 C.ar  1 <1>  -0.1430 
 20 C       -5.2600    -1.8580     1.6230 C.3   1 <1>  -0.0170 
 21 C       -8.8470    -1.9540    -0.3950 C.ar  1 <1>   0.7200 
 22 C       -7.4830    -0.6970     0.8870 C.ar  1 <1>   0.1600 
 23 N       -8.6100    -0.7910     0.2220 N.ar  1 <1>  -0.6200 
 24 N      -10.0310    -2.0610    -1.0990 N.pl3 1 <1>  -0.8380 
 25 C      -10.8660    -0.8720    -1.4240 C.3   1 <1>   0.1290 
 26 C      -10.5810    -3.3750    -1.5300 C.3   1 <1>   0.1290 
 27 H       -0.0970    -1.1190    -1.3440 H     1 <1>   0.1500 
 28 H       -3.3190    -3.1890    -3.2370 H     1 <1>   0.1500 
 29 H        0.2960    -2.5250     0.6670 H     1 <1>   0.0800 
 30 H        0.2210    -4.2050     0.1630 H     1 <1>   0.0800 
 31 H       -1.0470    -3.5370     1.1730 H     1 <1>   0.0800 
 32 H       -5.7870    -4.2600    -1.7020 H     1 <1>   0.0800 
 33 H       -4.6580    -3.0760    -1.1170 H     1 <1>   0.0800 
 34 H       -3.8060    -7.1910    -0.4970 H     1 <1>   0.0800 
 35 H       -5.2680    -6.7560    -1.3330 H     1 <1>   0.0800 
 36 H       -4.6410    -6.2430     1.5810 H     1 <1>   0.0800 
 37 H       -5.8000    -7.3810     0.9680 H     1 <1>   0.0800 
 38 H       -7.1910    -5.5970     0.0710 H     1 <1>   0.0800 
 39 H       -6.9190    -5.2900     1.7550 H     1 <1>   0.0800 
 40 H       -3.9220    -3.5640     1.4040 H     1 <1>   0.0800 
 41 H       -5.2560    -3.8030     2.4960 H     1 <1>   0.0800 
 42 H       -4.5230    -1.3040     1.0680 H     1 <1>   0.0800 
 43 H       -5.2970    -1.5060     2.6400 H     1 <1>   0.0800 
 44 H       -7.2640     0.2280     1.3920 H     1 <1>   0.1500 
 45 H      -10.2500     0.0040    -1.5310 H     1 <1>   0.0800 
 46 H      -11.5760    -0.7050    -0.6330 H     1 <1>   0.0800 
 47 H      -11.3920    -1.0300    -2.3490 H     1 <1>   0.0800 
 48 H      -10.2390    -4.1610    -0.8780 H     1 <1>   0.0800 
 49 H      -10.2570    -3.5880    -2.5340 H     1 <1>   0.0800 
 50 H      -11.6560    -3.3550    -1.4990 H     1 <1>   0.0800 
@<TRIPOS>BOND
  1   1   2  1   
  2   2   3  2   
  3   2   4  1   
  4   3   5  1   
  5   3  27  1   
  6   4   6  2   
  7   4  28  1   
  8   5   6  1   
  9   5   7  1   
 10   6   8  1   
 11   7  29  1   
 12   7  30  1   
 13   7  31  1   
 14   8   9  2   
 15   8  10  am  
 16  10  11  1   
 17  10  12  1   
 18  11  13  1   
 19  11  32  1   
 20  11  33  1   
 21  12  14  1   
 22  12  34  1   
 23  12  35  1   
 24  13  15  1   
 25  13  16  1   
 26  13  17  1   
 27  14  16  1   
 28  14  36  1   
 29  14  37  1   
 30  15  18  ar  
 31  15  19  ar  
 32  16  38  1   
 33  16  39  1   
 34  17  20  1   
 35  17  40  1   
 36  17  41  1   
 37  18  21  ar  
 38  19  20  1   
 39  19  22  ar  
 40  20  42  1   
 41  20  43  1   
 42  21  23  ar  
 43  21  24  1   
 44  22  23  ar  
 45  22  44  1   
 46  24  25  1   
 47  24  26  1   
 48  25  45  1   
 49  25  46  1   
 50  25  47  1   
 51  26  48  1   
 52  26  49  1   
 53  26  50  1   
@<TRIPOS>SUBSTRUCTURE
  1 ****  11 GROUP 4 **** **** 0

# MOE 2024.06 (io_trps.svl 2023.06)
