@<TRIPOS>MOLECULE
NONAME
51 54 1 0 0 
SMALL
USER_CHARGES


@<TRIPOS>ATOM
  1 O       -3.2930     2.4540    -2.8000 O.2   1 <1>  -0.5700 
  2 C       -3.2230     2.1750    -1.6170 C.2   1 <1>   0.5440 
  3 N       -4.1670     1.3280    -1.0680 N.am  1 <1>  -0.6600 
  4 C       -2.1900     2.7970    -0.8240 C.ar  1 <1>   0.0860 
  5 C       -4.2830     1.0270     0.3870 C.3   1 <1>   0.1400 
  6 C       -5.1560     0.5970    -1.9060 C.3   1 <1>   0.1400 
  7 C       -1.1350     2.0630    -0.2680 C.ar  1 <1>   0.3920 
  8 C       -2.2150     4.1640    -0.5880 C.ar  1 <1>  -0.1500 
  9 C       -4.0890    -0.4750     0.6180 C.3   1 <1>  -0.1600 
 10 C       -4.9540    -0.9080    -1.7180 C.3   1 <1>  -0.1600 
 11 O       -1.0870     0.7390    -0.5180 O.3   1 <1>  -0.3630 
 12 N       -0.1720     2.5780     0.4980 N.ar  1 <1>  -0.6200 
 13 C       -1.2190     4.7080     0.1920 C.ar  1 <1>  -0.1500 
 14 C       -5.0460    -1.3240    -0.2350 C.3   1 <1>   0.4240 
 15 C       -0.1060    -0.1020     0.0550 C.3   1 <1>   0.0400 
 16 C       -0.2370     3.8810     0.7050 C.ar  1 <1>   0.1600 
 17 O       -6.3270    -0.9410     0.2190 O.3   1 <1>  -0.5600 
 18 C       -4.7960    -2.8460    -0.0280 C.ar  1 <1>  -0.1430 
 19 C       -7.3860    -1.8080    -0.0180 C.3   1 <1>   0.1200 
 20 C       -3.5750    -3.4530    -0.3480 C.ar  1 <1>   0.0830 
 21 C       -5.8110    -3.6540     0.4830 C.ar  1 <1>  -0.1430 
 22 C       -7.1650    -3.0610     0.8150 C.3   1 <1>  -0.0170 
 23 O       -2.5710    -2.7070    -0.8740 O.3   1 <1>  -0.3630 
 24 C       -3.3840    -4.8140    -0.1290 C.ar  1 <1>  -0.1500 
 25 C       -5.6130    -5.0090     0.6930 C.ar  1 <1>  -0.1500 
 26 C       -1.6650    -3.2610    -1.8020 C.3   1 <1>   0.0400 
 27 C       -4.3990    -5.5910     0.3890 C.ar  1 <1>  -0.1500 
 28 H       -5.2610     1.3230     0.7260 H     1 <1>   0.0800 
 29 H       -3.5570     1.5760     0.9580 H     1 <1>   0.0800 
 30 H       -5.0380     0.8470    -2.9460 H     1 <1>   0.0800 
 31 H       -6.1500     0.8800    -1.6050 H     1 <1>   0.0800 
 32 H       -2.9980     4.7710    -1.0110 H     1 <1>   0.1500 
 33 H       -4.2460    -0.7080     1.6550 H     1 <1>   0.0800 
 34 H       -3.0710    -0.7130     0.3930 H     1 <1>   0.0800 
 35 H       -3.9870    -1.1490    -2.1110 H     1 <1>   0.0800 
 36 H       -5.6710    -1.4520    -2.3000 H     1 <1>   0.0800 
 37 H       -1.2010     5.7630     0.4000 H     1 <1>   0.1500 
 38 H       -0.3020    -1.1100    -0.2590 H     1 <1>   0.0800 
 39 H       -0.1700    -0.0300     1.1260 H     1 <1>   0.0800 
 40 H        0.8640     0.2140    -0.2870 H     1 <1>   0.0800 
 41 H        0.5360     4.3150     1.3170 H     1 <1>   0.1500 
 42 H       -7.4330    -2.0390    -1.0680 H     1 <1>   0.0800 
 43 H       -8.2930    -1.3120     0.2780 H     1 <1>   0.0800 
 44 H       -7.9460    -3.7680     0.6020 H     1 <1>   0.0800 
 45 H       -7.2080    -2.8110     1.8600 H     1 <1>   0.0800 
 46 H       -2.4440    -5.2820    -0.3510 H     1 <1>   0.1500 
 47 H       -6.4040    -5.6180     1.0940 H     1 <1>   0.1500 
 48 H       -1.1500    -2.4500    -2.2870 H     1 <1>   0.0800 
 49 H       -2.2140    -3.8320    -2.5300 H     1 <1>   0.0800 
 50 H       -0.9590    -3.8790    -1.2780 H     1 <1>   0.0800 
 51 H       -4.2470    -6.6420     0.5580 H     1 <1>   0.1500 
@<TRIPOS>BOND
  1   1   2  2   
  2   2   3  am  
  3   2   4  1   
  4   3   5  1   
  5   3   6  1   
  6   4   7  ar  
  7   4   8  ar  
  8   5   9  1   
  9   5  28  1   
 10   5  29  1   
 11   6  10  1   
 12   6  30  1   
 13   6  31  1   
 14   7  11  1   
 15   7  12  ar  
 16   8  13  ar  
 17   8  32  1   
 18   9  14  1   
 19   9  33  1   
 20   9  34  1   
 21  10  14  1   
 22  10  35  1   
 23  10  36  1   
 24  11  15  1   
 25  12  16  ar  
 26  13  16  ar  
 27  13  37  1   
 28  14  17  1   
 29  14  18  1   
 30  15  38  1   
 31  15  39  1   
 32  15  40  1   
 33  16  41  1   
 34  17  19  1   
 35  18  20  ar  
 36  18  21  ar  
 37  19  22  1   
 38  19  42  1   
 39  19  43  1   
 40  20  23  1   
 41  20  24  ar  
 42  21  22  1   
 43  21  25  ar  
 44  22  44  1   
 45  22  45  1   
 46  23  26  1   
 47  24  27  ar  
 48  24  46  1   
 49  25  27  ar  
 50  25  47  1   
 51  26  48  1   
 52  26  49  1   
 53  26  50  1   
 54  27  51  1   
@<TRIPOS>SUBSTRUCTURE
  1 ****   9 GROUP 4 **** **** 0

# MOE 2024.06 (io_trps.svl 2023.06)
