@<TRIPOS>MOLECULE
NONAME
64 67 1 0 0 
SMALL
USER_CHARGES


@<TRIPOS>ATOM
  1 O       -2.5300    -0.6700    -1.1660 O.2   1 <1>  -0.5700 
  2 C       -1.9890     0.4050    -1.2960 C.2   1 <1>   0.5690 
  3 N       -2.7080     1.5770    -1.2430 N.am  1 <1>  -0.6600 
  4 C       -0.4830     0.3940    -1.5410 C.3   1 <1>   0.0440 
  5 C       -2.0910     2.9270    -1.4100 C.3   1 <1>   0.1400 
  6 C       -4.1640     1.5480    -0.9220 C.3   1 <1>   0.1400 
  7 C        0.3240     1.1930    -0.5200 C.ar  1 <1>  -0.1440 
  8 C       -3.1500     3.9300    -1.8660 C.3   1 <1>  -0.1600 
  9 C       -4.5570     2.7760    -0.0970 C.3   1 <1>  -0.1600 
 10 C        1.3180     2.0650    -0.9400 C.ar  1 <1>  -0.1500 
 11 C        0.0700     1.0570     0.8360 C.ar  1 <1>  -0.1500 
 12 C       -4.2540     4.1280    -0.7960 C.3   1 <1>   0.2800 
 13 C        2.0480     2.8020    -0.0210 C.ar  1 <1>  -0.1430 
 14 C        0.7960     1.7880     1.7580 C.ar  1 <1>  -0.1500 
 15 O       -3.7030     4.9360     0.2200 O.3   1 <1>  -0.5600 
 16 C       -5.5700     4.7730    -1.3720 C.3   1 <1>   0.2000 
 17 C        1.7830     2.6590     1.3300 C.ar  1 <1>  -0.1500 
 18 C        3.1330     3.7520    -0.4940 C.3   1 <1>  -0.0970 
 19 C       -3.7620     6.3200     0.0790 C.3   1 <1>   0.1200 
 20 O       -5.3220     5.4740    -2.5640 O.3   1 <1>  -0.6800 
 21 C       -6.2470     5.7350    -0.3460 C.3   1 <1>   0.3000 
 22 C       -5.2200     6.8060     0.0790 C.3   1 <1>  -0.1600 
 23 N       -6.6360     5.0220     0.8950 N.am  1 <1>  -0.7300 
 24 C       -7.4920     6.4550    -0.8980 C.3   1 <1>  -0.2400 
 25 C       -7.6120     4.1470     1.2440 C.2   1 <1>   0.5690 
 26 O       -7.7030     3.8390     2.4040 O.2   1 <1>  -0.5700 
 27 C       -8.5790     3.5210     0.2420 C.3   1 <1>  -0.0040 
 28 C       -8.7320     2.0000     0.4140 C.3   1 <1>  -0.1950 
 29 C       -9.9280     1.2870    -0.1300 C.3   1 <1>  -0.2000 
 30 C       -9.7440     1.4310     1.3550 C.3   1 <1>  -0.2000 
 31 H       -0.1420    -0.6250    -1.5150 H     1 <1>   0.0800 
 32 H       -0.3050     0.7630    -2.5330 H     1 <1>   0.0800 
 33 H       -1.6670     3.2430    -0.4700 H     1 <1>   0.0800 
 34 H       -1.3050     2.8850    -2.1420 H     1 <1>   0.0800 
 35 H       -4.7250     1.5210    -1.8400 H     1 <1>   0.0800 
 36 H       -4.4000     0.6580    -0.3620 H     1 <1>   0.0800 
 37 H       -3.5810     3.5570    -2.7780 H     1 <1>   0.0800 
 38 H       -2.6760     4.8640    -2.1000 H     1 <1>   0.0800 
 39 H       -4.0220     2.7170     0.8360 H     1 <1>   0.0800 
 40 H       -5.5980     2.6890     0.1370 H     1 <1>   0.0800 
 41 H        1.5310     2.1720    -1.9890 H     1 <1>   0.1500 
 42 H       -0.6960     0.3820     1.1800 H     1 <1>   0.1500 
 43 H        0.5930     1.6790     2.8090 H     1 <1>   0.1500 
 44 H       -6.2530     3.9910    -1.6460 H     1 <1>   0.0800 
 45 H        2.3430     3.2220     2.0560 H     1 <1>   0.1500 
 46 H        3.2980     4.5280     0.2310 H     1 <1>   0.0800 
 47 H        2.8500     4.2110    -1.4240 H     1 <1>   0.0800 
 48 H        4.0510     3.2110    -0.6370 H     1 <1>   0.0800 
 49 H       -3.2230     6.7560     0.9020 H     1 <1>   0.0800 
 50 H       -3.2620     6.5930    -0.8330 H     1 <1>   0.0800 
 51 H       -4.6420     6.1570    -2.4160 H     1 <1>   0.4000 
 52 H       -5.4710     7.1970     1.0500 H     1 <1>   0.0800 
 53 H       -5.2620     7.6430    -0.5950 H     1 <1>   0.0800 
 54 H       -5.9720     5.1940     1.6530 H     1 <1>   0.3700 
 55 H       -7.2150     7.1330    -1.6860 H     1 <1>   0.0800 
 56 H       -7.9710     7.0250    -0.1220 H     1 <1>   0.0800 
 57 H       -8.1990     5.7700    -1.3210 H     1 <1>   0.0800 
 58 H       -9.5340     4.0000     0.3560 H     1 <1>   0.0800 
 59 H       -8.2400     3.6880    -0.7570 H     1 <1>   0.0800 
 60 H       -7.7870     1.4860     0.3620 H     1 <1>   0.1000 
 61 H      -10.7150     1.8500    -0.6010 H     1 <1>   0.1000 
 62 H       -9.7960     0.3140    -0.5720 H     1 <1>   0.1000 
 63 H       -9.4690     0.5690     1.9380 H     1 <1>   0.1000 
 64 H      -10.3740     2.1100     1.9040 H     1 <1>   0.1000 
@<TRIPOS>BOND
  1   1   2  2   
  2   2   3  am  
  3   2   4  1   
  4   3   5  1   
  5   3   6  1   
  6   4   7  1   
  7   4  31  1   
  8   4  32  1   
  9   5   8  1   
 10   5  33  1   
 11   5  34  1   
 12   6   9  1   
 13   6  35  1   
 14   6  36  1   
 15   7  10  ar  
 16   7  11  ar  
 17   8  12  1   
 18   8  37  1   
 19   8  38  1   
 20   9  12  1   
 21   9  39  1   
 22   9  40  1   
 23  10  13  ar  
 24  10  41  1   
 25  11  14  ar  
 26  11  42  1   
 27  12  15  1   
 28  12  16  1   
 29  13  17  ar  
 30  13  18  1   
 31  14  17  ar  
 32  14  43  1   
 33  15  19  1   
 34  16  20  1   
 35  16  21  1   
 36  16  44  1   
 37  17  45  1   
 38  18  46  1   
 39  18  47  1   
 40  18  48  1   
 41  19  22  1   
 42  19  49  1   
 43  19  50  1   
 44  20  51  1   
 45  21  22  1   
 46  21  23  1   
 47  21  24  1   
 48  22  52  1   
 49  22  53  1   
 50  23  25  am  
 51  23  54  1   
 52  24  55  1   
 53  24  56  1   
 54  24  57  1   
 55  25  26  2   
 56  25  27  1   
 57  27  28  1   
 58  27  58  1   
 59  27  59  1   
 60  28  29  1   
 61  28  30  1   
 62  28  60  1   
 63  29  30  1   
 64  29  61  1   
 65  29  62  1   
 66  30  63  1   
 67  30  64  1   
@<TRIPOS>SUBSTRUCTURE
  1 ****   9 GROUP 4 **** **** 0

# MOE 2024.06 (io_trps.svl 2023.06)
