@<TRIPOS>MOLECULE
NONAME
49 51 1 0 0 
SMALL
USER_CHARGES


@<TRIPOS>ATOM
  1 S        0.3180    -1.0670    -1.2900 S.3   1 <1>  -0.0800 
  2 C       -1.3000    -1.2650    -0.6990 C.2   1 <1>   0.4420 
  3 C        0.0100     0.6350    -1.3480 C.2   1 <1>   0.1980 
  4 N       -1.9140    -0.1440    -0.5900 N.2   1 <1>  -0.3380 
  5 N       -1.7040    -2.5540    -0.4350 N.am  1 <1>  -0.4940 
  6 N       -1.1620     0.9350    -0.9620 N.2   1 <1>  -0.3380 
  7 C        1.1170     1.5510    -1.8230 C.3   1 <1>   0.0200 
  8 C       -2.8940    -3.0210     0.0650 C.2   1 <1>   0.7150 
  9 C        2.0910     1.8340    -0.6830 C.3   1 <1>   0.1200 
 10 O       -3.7770    -2.2520     0.3820 O.2   1 <1>  -0.5700 
 11 C       -3.0770    -4.4390     0.2140 C.2   1 <1>   0.0550 
 12 O        3.1450     2.6200    -1.1880 O.3   1 <1>  -0.3620 
 13 O       -2.1020    -5.2710    -0.1290 O.3   1 <1>  -0.0190 
 14 C       -4.1350    -5.1400     0.6740 C.2   1 <1>  -0.1500 
 15 C        4.1870     3.0040    -0.4020 C.ar  1 <1>   0.0830 
 16 N       -2.5270    -6.4890     0.1070 N.2   1 <1>  -0.4100 
 17 C       -3.7210    -6.4450     0.5800 C.2   1 <1>   0.1080 
 18 C        5.2210     3.7130    -1.0070 C.ar  1 <1>  -0.1430 
 19 C        4.2530     2.7180     0.9610 C.ar  1 <1>  -0.1500 
 20 C       -4.5310    -7.6760     0.9700 C.3   1 <1>   0.1010 
 21 C        6.3050     4.1210    -0.2460 C.ar  1 <1>  -0.1500 
 22 C        5.1730     4.0430    -2.4920 C.3   1 <1>  -0.0970 
 23 C        5.3390     3.1300     1.7150 C.ar  1 <1>  -0.1430 
 24 C       -5.8070    -7.7790     0.1270 C.3   1 <1>  -0.2400 
 25 C       -4.8740    -7.6520     2.4650 C.3   1 <1>  -0.2400 
 26 C        6.3640     3.8310     1.1050 C.ar  1 <1>  -0.1500 
 27 C        5.4110     2.8160     3.1990 C.3   1 <1>  -0.0970 
 28 H       -1.0270    -3.2820    -0.6460 H     1 <1>   0.3700 
 29 H        0.6850     2.4770    -2.1570 H     1 <1>   0.0800 
 30 H        1.6350     1.0910    -2.6440 H     1 <1>   0.0800 
 31 H        2.5070     0.9180    -0.3000 H     1 <1>   0.0800 
 32 H        1.6010     2.3810     0.1040 H     1 <1>   0.0800 
 33 H       -5.0800    -4.7740     1.0310 H     1 <1>   0.1500 
 34 H        3.4690     2.1760     1.4510 H     1 <1>   0.1500 
 35 H       -3.9270    -8.5460     0.7760 H     1 <1>   0.0800 
 36 H        7.1110     4.6680    -0.7020 H     1 <1>   0.1500 
 37 H        4.3010     4.6340    -2.7040 H     1 <1>   0.0800 
 38 H        5.1230     3.1340    -3.0640 H     1 <1>   0.0800 
 39 H        6.0440     4.5930    -2.7960 H     1 <1>   0.0800 
 40 H       -6.4520    -6.9380     0.3060 H     1 <1>   0.0800 
 41 H       -6.3410    -8.6820     0.3670 H     1 <1>   0.0800 
 42 H       -5.5530    -7.8010    -0.9180 H     1 <1>   0.0800 
 43 H       -5.4970    -6.8080     2.7000 H     1 <1>   0.0800 
 44 H       -3.9710    -7.5860     3.0450 H     1 <1>   0.0800 
 45 H       -5.3930    -8.5520     2.7420 H     1 <1>   0.0800 
 46 H        7.2150     4.1550     1.6790 H     1 <1>   0.1500 
 47 H        4.4240     2.6990     3.6100 H     1 <1>   0.0800 
 48 H        5.9050     3.6120     3.7260 H     1 <1>   0.0800 
 49 H        5.9610     1.9050     3.3510 H     1 <1>   0.0800 
@<TRIPOS>BOND
  1   1   2  1   
  2   1   3  1   
  3   2   4  2   
  4   2   5  1   
  5   3   6  2   
  6   3   7  1   
  7   4   6  1   
  8   5   8  am  
  9   5  28  1   
 10   7   9  1   
 11   7  29  1   
 12   7  30  1   
 13   8  10  2   
 14   8  11  1   
 15   9  12  1   
 16   9  31  1   
 17   9  32  1   
 18  11  13  1   
 19  11  14  2   
 20  12  15  1   
 21  13  16  1   
 22  14  17  1   
 23  14  33  1   
 24  15  18  ar  
 25  15  19  ar  
 26  16  17  2   
 27  17  20  1   
 28  18  21  ar  
 29  18  22  1   
 30  19  23  ar  
 31  19  34  1   
 32  20  24  1   
 33  20  25  1   
 34  20  35  1   
 35  21  26  ar  
 36  21  36  1   
 37  22  37  1   
 38  22  38  1   
 39  22  39  1   
 40  23  26  ar  
 41  23  27  1   
 42  24  40  1   
 43  24  41  1   
 44  24  42  1   
 45  25  43  1   
 46  25  44  1   
 47  25  45  1   
 48  26  46  1   
 49  27  47  1   
 50  27  48  1   
 51  27  49  1   
@<TRIPOS>SUBSTRUCTURE
  1 ****   1 GROUP 4 **** **** 0

# MOE 2024.06 (io_trps.svl 2023.06)
