@<TRIPOS>MOLECULE
NONAME
53 55 1 0 0 
SMALL
USER_CHARGES


@<TRIPOS>ATOM
  1 O       -0.2490     1.0470    -0.8670 O.2   1 <1>  -0.5700 
  2 C       -0.5090     2.2270    -0.8550 C.2   1 <1>   0.5690 
  3 N       -1.3940     2.8070     0.0180 N.am  1 <1>  -0.6600 
  4 C        0.1880     3.1120    -1.8840 C.3   1 <1>   0.1810 
  5 C       -1.6730     4.2820    -0.0470 C.3   1 <1>   0.3640 
  6 C       -2.0820     2.0930     1.1290 C.3   1 <1>   0.2200 
  7 O        0.4320     4.3970    -1.3760 O.3   1 <1>  -0.5600 
  8 C       -3.1320     4.5010    -0.4560 C.ar  1 <1>  -0.1440 
  9 C       -0.7430     5.0990    -0.9900 C.3   1 <1>   0.2610 
 10 C       -1.0570     1.5950     2.1480 C.3   1 <1>  -0.2400 
 11 C       -2.9640     0.9590     0.6050 C.3   1 <1>  -0.2400 
 12 C       -3.6990     3.8020    -1.5150 C.ar  1 <1>  -0.1500 
 13 C       -3.9110     5.4210     0.2310 C.ar  1 <1>  -0.1500 
 14 C       -0.3690     6.4250    -0.3160 C.2   1 <1>   0.5690 
 15 C       -5.0180     4.0160    -1.8760 C.ar  1 <1>  -0.1500 
 16 C       -5.2300     5.6370    -0.1280 C.ar  1 <1>  -0.1500 
 17 O       -1.2410     7.1530     0.0970 O.2   1 <1>  -0.5700 
 18 N        0.9440     6.7570    -0.1910 N.am  1 <1>  -0.7300 
 19 C       -5.7850     4.9340    -1.1820 C.ar  1 <1>  -0.1500 
 20 C        1.4730     7.9860     0.4430 C.3   1 <1>   0.1400 
 21 C        1.8300     9.0140    -0.6300 C.3   1 <1>  -0.0170 
 22 C        2.3770    10.2760     0.0150 C.ar  1 <1>  -0.1440 
 23 C        1.5070    11.2420     0.4970 C.ar  1 <1>  -0.1500 
 24 C        3.7450    10.4730     0.1330 C.ar  1 <1>  -0.1500 
 25 C        1.9980    12.3920     1.0900 C.ar  1 <1>  -0.1500 
 26 C        4.2370    11.6230     0.7260 C.ar  1 <1>  -0.1500 
 27 C        3.3630    12.5840     1.2060 C.ar  1 <1>  -0.1500 
 28 H       -0.4150     3.1930    -2.7690 H     1 <1>   0.0800 
 29 H        1.1360     2.6760    -2.1430 H     1 <1>   0.0800 
 30 H       -1.5430     4.6700     0.9490 H     1 <1>   0.0800 
 31 H       -2.7310     2.7880     1.6360 H     1 <1>   0.0800 
 32 H       -1.2770     5.3370    -1.8920 H     1 <1>   0.0800 
 33 H       -0.4240     0.8410     1.7160 H     1 <1>   0.0800 
 34 H       -1.5620     1.1650     2.9920 H     1 <1>   0.0800 
 35 H       -0.4500     2.4120     2.4930 H     1 <1>   0.0800 
 36 H       -2.3750     0.1790     0.1590 H     1 <1>   0.0800 
 37 H       -3.6630     1.3360    -0.1180 H     1 <1>   0.0800 
 38 H       -3.5220     0.5300     1.4180 H     1 <1>   0.0800 
 39 H       -3.1190     3.0800    -2.0630 H     1 <1>   0.1500 
 40 H       -3.4940     5.9860     1.0490 H     1 <1>   0.1500 
 41 H       -5.4480     3.4670    -2.6960 H     1 <1>   0.1500 
 42 H       -5.8230     6.3540     0.4110 H     1 <1>   0.1500 
 43 H        1.6270     6.0930    -0.5740 H     1 <1>   0.3700 
 44 H       -6.8100     5.1010    -1.4610 H     1 <1>   0.1500 
 45 H        0.7310     8.4020     1.1040 H     1 <1>   0.0800 
 46 H        2.3440     7.7440     1.0270 H     1 <1>   0.0800 
 47 H        2.5620     8.6010    -1.3000 H     1 <1>   0.0800 
 48 H        0.9490     9.2560    -1.1980 H     1 <1>   0.0800 
 49 H        0.4430    11.1010     0.4120 H     1 <1>   0.1500 
 50 H        4.4340     9.7350    -0.2360 H     1 <1>   0.1500 
 51 H        1.3160    13.1380     1.4620 H     1 <1>   0.1500 
 52 H        5.2980    11.7710     0.8150 H     1 <1>   0.1500 
 53 H        3.7450    13.4780     1.6670 H     1 <1>   0.1500 
@<TRIPOS>BOND
  1   1   2  2   
  2   2   3  am  
  3   2   4  1   
  4   3   5  1   
  5   3   6  1   
  6   4   7  1   
  7   4  28  1   
  8   4  29  1   
  9   5   8  1   
 10   5   9  1   
 11   5  30  1   
 12   6  10  1   
 13   6  11  1   
 14   6  31  1   
 15   7   9  1   
 16   8  12  ar  
 17   8  13  ar  
 18   9  14  1   
 19   9  32  1   
 20  10  33  1   
 21  10  34  1   
 22  10  35  1   
 23  11  36  1   
 24  11  37  1   
 25  11  38  1   
 26  12  15  ar  
 27  12  39  1   
 28  13  16  ar  
 29  13  40  1   
 30  14  17  2   
 31  14  18  am  
 32  15  19  ar  
 33  15  41  1   
 34  16  19  ar  
 35  16  42  1   
 36  18  20  1   
 37  18  43  1   
 38  19  44  1   
 39  20  21  1   
 40  20  45  1   
 41  20  46  1   
 42  21  22  1   
 43  21  47  1   
 44  21  48  1   
 45  22  23  ar  
 46  22  24  ar  
 47  23  25  ar  
 48  23  49  1   
 49  24  26  ar  
 50  24  50  1   
 51  25  27  ar  
 52  25  51  1   
 53  26  27  ar  
 54  26  52  1   
 55  27  53  1   
@<TRIPOS>SUBSTRUCTURE
  1 ****  14 GROUP 4 **** **** 0

# MOE 2024.06 (io_trps.svl 2023.06)
