@<TRIPOS>MOLECULE
NONAME
62 65 1 0 0 
SMALL
USER_CHARGES


@<TRIPOS>ATOM
  1 O       -4.1200     1.4130    -1.2270 O.2   1 <1>  -0.5700 
  2 C       -2.9300     1.6900    -1.2640 C.2   1 <1>   0.5440 
  3 N       -2.0730     0.6080    -1.2870 N.am  1 <1>  -0.6600 
  4 C       -2.4730     3.0790    -1.2020 C.ar  1 <1>   0.3960 
  5 C       -2.4670    -0.6200    -2.0560 C.3   1 <1>   0.1400 
  6 C       -1.3540     0.2690    -0.0200 C.3   1 <1>   0.1400 
  7 N       -1.2200     3.3480    -0.8110 N.ar  1 <1>  -0.6200 
  8 C       -3.3700     4.0970    -1.5400 C.ar  1 <1>   0.1600 
  9 C       -3.1510    -1.6730    -1.1470 C.3   1 <1>   0.3430 
 10 C       -2.2550    -0.5920     0.9030 C.3   1 <1>   0.3430 
 11 C       -0.9330     4.6380    -0.7750 C.ar  1 <1>   0.4100 
 12 N       -3.1040     5.3940    -1.5210 N.ar  1 <1>  -0.6200 
 13 N       -3.4930    -1.0830     0.1920 N.4   1 <1>  -0.9590 
 14 N        0.3460     4.9560    -0.3510 N.pl3 1 <1>  -0.8380 
 15 C       -1.8650     5.6260    -1.1350 C.ar  1 <1>   0.1600 
 16 C       -4.3530    -1.9630     1.0320 C.3   1 <1>   0.2630 
 17 C        0.6370     6.1110     0.5390 C.3   1 <1>   0.2090 
 18 C        1.5360     4.2560    -0.9010 C.3   1 <1>   0.2090 
 19 C        1.5030     7.1400    -0.2010 C.3   1 <1>  -0.0800 
 20 C        2.4160     5.2660    -1.6450 C.3   1 <1>  -0.1600 
 21 C        2.7750     6.4760    -0.7680 C.3   1 <1>  -0.1600 
 22 C        1.8410     8.3040     0.7390 C.3   1 <1>   0.1200 
 23 O        2.5560     9.2830     0.0210 O.3   1 <1>  -0.3630 
 24 C        2.9920    10.4280     0.6090 C.ar  1 <1>   0.0820 
 25 C        3.6950    11.3310    -0.1850 C.ar  1 <1>  -0.1440 
 26 C        2.7650    10.7240     1.9520 C.ar  1 <1>  -0.1500 
 27 C        4.1600    12.5130     0.3690 C.ar  1 <1>  -0.1500 
 28 C        3.9560    11.0290    -1.6530 C.3   1 <1>  -0.0970 
 29 C        3.2340    11.9070     2.4940 C.ar  1 <1>  -0.1500 
 30 C        3.9310    12.8020     1.7030 C.ar  1 <1>  -0.1500 
 31 H       -1.5960    -1.0500    -2.5200 H     1 <1>   0.0800 
 32 H       -3.1450    -0.3440    -2.8460 H     1 <1>   0.0800 
 33 H       -1.0580     1.1620     0.5030 H     1 <1>   0.0800 
 34 H       -0.4550    -0.2720    -0.2580 H     1 <1>   0.0800 
 35 H       -4.3640     3.8180    -1.8440 H     1 <1>   0.1500 
 36 H       -2.4910    -2.5140    -1.0180 H     1 <1>   0.0800 
 37 H       -4.0440    -2.0250    -1.6360 H     1 <1>   0.0800 
 38 H       -2.5460     0.0050     1.7520 H     1 <1>   0.0800 
 39 H       -1.6830    -1.4260     1.2740 H     1 <1>   0.0800 
 40 H       -4.0170    -0.2160    -0.0610 H     1 <1>   0.4500 
 41 H       -1.5450     6.6490    -1.0990 H     1 <1>   0.1500 
 42 H       -3.8280    -2.8690     1.2870 H     1 <1>   0.0800 
 43 H       -5.2540    -2.2210     0.4990 H     1 <1>   0.0800 
 44 H       -4.6290    -1.4540     1.9420 H     1 <1>   0.0800 
 45 H        1.1620     5.7490     1.4070 H     1 <1>   0.0800 
 46 H       -0.2810     6.5640     0.8730 H     1 <1>   0.0800 
 47 H        1.2340     3.4740    -1.5780 H     1 <1>   0.0800 
 48 H        2.0880     3.8090    -0.0920 H     1 <1>   0.0800 
 49 H        0.9190     7.5340    -1.0150 H     1 <1>   0.0800 
 50 H        1.8900     5.5990    -2.5220 H     1 <1>   0.0800 
 51 H        3.3170     4.7770    -1.9710 H     1 <1>   0.0800 
 52 H        3.4070     6.1540     0.0410 H     1 <1>   0.0800 
 53 H        3.3290     7.1880    -1.3570 H     1 <1>   0.0800 
 54 H        2.4570     7.9680     1.5560 H     1 <1>   0.0800 
 55 H        0.9420     8.7600     1.1160 H     1 <1>   0.0800 
 56 H        2.2270    10.0510     2.5900 H     1 <1>   0.1500 
 57 H        4.7040    13.2180    -0.2350 H     1 <1>   0.1500 
 58 H        4.5280    10.1230    -1.7410 H     1 <1>   0.0800 
 59 H        4.5010    11.8270    -2.1250 H     1 <1>   0.0800 
 60 H        3.0220    10.8980    -2.1690 H     1 <1>   0.0800 
 61 H        3.0570    12.1330     3.5310 H     1 <1>   0.1500 
 62 H        4.2960    13.7230     2.1240 H     1 <1>   0.1500 
@<TRIPOS>BOND
  1   1   2  2   
  2   2   3  am  
  3   2   4  1   
  4   3   5  1   
  5   3   6  1   
  6   4   7  ar  
  7   4   8  ar  
  8   5   9  1   
  9   5  31  1   
 10   5  32  1   
 11   6  10  1   
 12   6  33  1   
 13   6  34  1   
 14   7  11  ar  
 15   8  12  ar  
 16   8  35  1   
 17   9  13  1   
 18   9  36  1   
 19   9  37  1   
 20  10  13  1   
 21  10  38  1   
 22  10  39  1   
 23  11  14  1   
 24  11  15  ar  
 25  12  15  ar  
 26  13  16  1   
 27  13  40  1   
 28  14  17  1   
 29  14  18  1   
 30  15  41  1   
 31  16  42  1   
 32  16  43  1   
 33  16  44  1   
 34  17  19  1   
 35  17  45  1   
 36  17  46  1   
 37  18  20  1   
 38  18  47  1   
 39  18  48  1   
 40  19  21  1   
 41  19  22  1   
 42  19  49  1   
 43  20  21  1   
 44  20  50  1   
 45  20  51  1   
 46  21  52  1   
 47  21  53  1   
 48  22  23  1   
 49  22  54  1   
 50  22  55  1   
 51  23  24  1   
 52  24  25  ar  
 53  24  26  ar  
 54  25  27  ar  
 55  25  28  1   
 56  26  29  ar  
 57  26  56  1   
 58  27  30  ar  
 59  27  57  1   
 60  28  58  1   
 61  28  59  1   
 62  28  60  1   
 63  29  30  ar  
 64  29  61  1   
 65  30  62  1   
@<TRIPOS>SUBSTRUCTURE
  1 ****  14 GROUP 4 **** **** 0

# MOE 2024.06 (io_trps.svl 2023.06)
