@<TRIPOS>MOLECULE
NONAME
48 49 1 0 0 
SMALL
USER_CHARGES


@<TRIPOS>ATOM
  1 S        0.4460     0.8300    -0.5020 S.o2  1 <1>   1.3330 
  2 O        0.4230    -0.5880    -0.7840 O.2   1 <1>  -0.6500 
  3 O       -0.5610     1.6900    -1.0810 O.2   1 <1>  -0.6500 
  4 N        0.3620     1.0260     1.1840 N.am  1 <1>  -0.8490 
  5 C        2.0730     1.4550    -0.9260 C.3   1 <1>  -0.0550 
  6 C        0.0440     2.3990     1.5940 C.3   1 <1>   0.1160 
  7 C       -0.5890     0.0950     1.7980 C.3   1 <1>   0.1160 
  8 C        3.2420     0.5650    -0.4480 C.3   1 <1>  -0.0800 
  9 C        4.6190     1.0130    -0.9140 C.3   1 <1>   0.2200 
 10 C        3.4140     0.4740     1.0730 C.3   1 <1>   0.1200 
 11 N        4.7610     2.4810    -0.7850 N.am  1 <1>  -0.7300 
 12 C        5.5000     0.3360     0.1250 C.3   1 <1>   0.1200 
 13 O        4.7900     0.4260     1.3230 O.3   1 <1>  -0.5600 
 14 C        4.6650     3.3840    -1.7940 C.2   1 <1>   0.5690 
 15 O        4.4700     3.0350    -2.9330 O.2   1 <1>  -0.5700 
 16 C        4.7810     4.8720    -1.4850 C.3   1 <1>   0.1810 
 17 O        4.5400     5.1250    -0.1070 O.3   1 <1>  -0.3630 
 18 C        4.5820     6.3850     0.3930 C.ar  1 <1>   0.0820 
 19 C        4.8040     7.5200    -0.3810 C.ar  1 <1>  -0.1500 
 20 C        4.3900     6.5200     1.7580 C.ar  1 <1>  -0.1500 
 21 C        4.8300     8.7700     0.2150 C.ar  1 <1>  -0.1500 
 22 C        4.4170     7.7710     2.3500 C.ar  1 <1>  -0.1500 
 23 C        4.6350     8.9020     1.5810 C.ar  1 <1>  -0.1440 
 24 C        4.6660    10.2750     2.2290 C.3   1 <1>  -0.0970 
 25 H        2.1350     1.5320    -1.9950 H     1 <1>   0.0800 
 26 H        2.1820     2.4450    -0.5310 H     1 <1>   0.0800 
 27 H        0.0860     2.4830     2.6660 H     1 <1>   0.0800 
 28 H       -0.9430     2.6750     1.2590 H     1 <1>   0.0800 
 29 H        0.7560     3.0890     1.1730 H     1 <1>   0.0800 
 30 H       -0.6110     0.2320     2.8650 H     1 <1>   0.0800 
 31 H       -0.2940    -0.9220     1.5960 H     1 <1>   0.0800 
 32 H       -1.5780     0.2520     1.3990 H     1 <1>   0.0800 
 33 H        3.0790    -0.4340    -0.8150 H     1 <1>   0.0800 
 34 H        4.8460     0.6950    -1.9180 H     1 <1>   0.0800 
 35 H        2.9510    -0.4100     1.4770 H     1 <1>   0.0800 
 36 H        3.0280     1.3470     1.5710 H     1 <1>   0.0800 
 37 H        4.8800     2.8210     0.1750 H     1 <1>   0.3700 
 38 H        6.4600     0.8110     0.2340 H     1 <1>   0.0800 
 39 H        5.6290    -0.7070    -0.1040 H     1 <1>   0.0800 
 40 H        4.0510     5.4100    -2.0620 H     1 <1>   0.0800 
 41 H        5.7700     5.2120    -1.7270 H     1 <1>   0.0800 
 42 H        4.9580     7.4590    -1.4410 H     1 <1>   0.1500 
 43 H        4.2220     5.6440     2.3570 H     1 <1>   0.1500 
 44 H        5.0030     9.6430    -0.3900 H     1 <1>   0.1500 
 45 H        4.2680     7.8590     3.4120 H     1 <1>   0.1500 
 46 H        4.3150    11.0240     1.5420 H     1 <1>   0.0800 
 47 H        5.6730    10.5160     2.5210 H     1 <1>   0.0800 
 48 H        4.0380    10.2940     3.1010 H     1 <1>   0.0800 
@<TRIPOS>BOND
  1   1   2  2   
  2   1   3  2   
  3   1   4  am  
  4   1   5  1   
  5   4   6  1   
  6   4   7  1   
  7   5   8  1   
  8   5  25  1   
  9   5  26  1   
 10   6  27  1   
 11   6  28  1   
 12   6  29  1   
 13   7  30  1   
 14   7  31  1   
 15   7  32  1   
 16   8   9  1   
 17   8  10  1   
 18   8  33  1   
 19   9  11  1   
 20   9  12  1   
 21   9  34  1   
 22  10  13  1   
 23  10  35  1   
 24  10  36  1   
 25  11  14  am  
 26  11  37  1   
 27  12  13  1   
 28  12  38  1   
 29  12  39  1   
 30  14  15  2   
 31  14  16  1   
 32  16  17  1   
 33  16  40  1   
 34  16  41  1   
 35  17  18  1   
 36  18  19  ar  
 37  18  20  ar  
 38  19  21  ar  
 39  19  42  1   
 40  20  22  ar  
 41  20  43  1   
 42  21  23  ar  
 43  21  44  1   
 44  22  23  ar  
 45  22  45  1   
 46  23  24  1   
 47  24  46  1   
 48  24  47  1   
 49  24  48  1   
@<TRIPOS>SUBSTRUCTURE
  1 ****  11 GROUP 4 **** **** 0

# MOE 2024.06 (io_trps.svl 2023.06)
