@<TRIPOS>MOLECULE
NONAME
53 56 1 0 0 
SMALL
USER_CHARGES


@<TRIPOS>ATOM
  1 O       -2.2180     2.2470    -1.8220 O.2   1 <1>  -0.5700 
  2 C       -2.3440     2.3840    -0.6150 C.2   1 <1>   0.5440 
  3 N       -3.2120     1.5240     0.0440 N.am  1 <1>  -0.6600 
  4 C       -1.5670     3.4190     0.0770 C.ar  1 <1>   0.3960 
  5 C       -4.3750     0.8840    -0.6460 C.3   1 <1>   0.2200 
  6 C       -2.7960     0.9340     1.3530 C.3   1 <1>   0.0600 
  7 N       -2.0100     3.9130     1.2770 N.ar  1 <1>  -0.6200 
  8 C       -0.4030     3.9000    -0.4800 C.ar  1 <1>  -0.1500 
  9 C       -5.1160     1.8550    -1.5660 C.3   1 <1>  -0.1600 
 10 C       -5.4690     0.4550     0.3350 C.3   1 <1>  -0.1600 
 11 C       -1.3010     4.8310     1.8590 C.ar  1 <1>   0.1600 
 12 C        0.3740     4.8900     0.1380 C.ar  1 <1>   0.0000 
 13 C       -6.5430     1.3100    -1.6990 C.3   1 <1>  -0.0800 
 14 C       -6.7750     0.4190    -0.4710 C.3   1 <1>  -0.0800 
 15 C       -0.0980     5.3760     1.3650 C.ar  1 <1>   0.0000 
 16 C        1.5700     5.4070    -0.3940 C.ar  1 <1>  -0.1500 
 17 C       -7.6080     2.4120    -1.6490 C.3   1 <1>  -0.1600 
 18 C       -7.9660     1.0250     0.2830 C.3   1 <1>  -0.1600 
 19 C        0.6450     6.3710     2.0300 C.ar  1 <1>  -0.1500 
 20 C        2.2750     6.3730     0.2710 C.ar  1 <1>  -0.1500 
 21 C       -7.9890     2.4810    -0.1720 C.3   1 <1>   0.4230 
 22 C        1.8080     6.8600     1.4970 C.ar  1 <1>  -0.1500 
 23 N       -9.2850     3.1680     0.1120 N.4   1 <1>  -0.9590 
 24 C      -10.4740     2.6130    -0.6140 C.3   1 <1>   0.2630 
 25 C       -9.1600     4.6360    -0.1470 C.3   1 <1>   0.2630 
 26 H       -4.0360     0.0340    -1.2150 H     1 <1>   0.0800 
 27 H       -2.8940    -0.1370     1.3250 H     1 <1>   0.0800 
 28 H       -3.4070     1.3320     2.1430 H     1 <1>   0.0800 
 29 H       -1.7680     1.1700     1.5650 H     1 <1>   0.0800 
 30 H       -0.0690     3.5120    -1.4250 H     1 <1>   0.1500 
 31 H       -5.1190     2.8300    -1.1110 H     1 <1>   0.0800 
 32 H       -4.6420     1.9160    -2.5300 H     1 <1>   0.0800 
 33 H       -5.2540    -0.5080     0.7630 H     1 <1>   0.0800 
 34 H       -5.5420     1.1890     1.1180 H     1 <1>   0.0800 
 35 H       -1.6550     5.2140     2.8000 H     1 <1>   0.1500 
 36 H       -6.6240     0.7310    -2.6050 H     1 <1>   0.0800 
 37 H       -6.9850    -0.5930    -0.7780 H     1 <1>   0.0800 
 38 H        1.9220     5.0280    -1.3380 H     1 <1>   0.1500 
 39 H       -8.4380     2.0960    -2.2520 H     1 <1>   0.0800 
 40 H       -7.2310     3.3490    -2.0190 H     1 <1>   0.0800 
 41 H       -7.8580     0.9360     1.3500 H     1 <1>   0.0800 
 42 H       -8.8550     0.5080    -0.0300 H     1 <1>   0.0800 
 43 H        0.2840     6.7440     2.9720 H     1 <1>   0.1500 
 44 H        3.1900     6.7680    -0.1360 H     1 <1>   0.1500 
 45 H       -7.1930     2.9930     0.3480 H     1 <1>   0.0800 
 46 H        2.3730     7.6200     2.0070 H     1 <1>   0.1500 
 47 H       -9.4530     3.0440     1.1210 H     1 <1>   0.4500 
 48 H      -10.3590     2.7390    -1.6780 H     1 <1>   0.0800 
 49 H      -11.3710     3.1250    -0.3050 H     1 <1>   0.0800 
 50 H      -10.5940     1.5640    -0.4010 H     1 <1>   0.0800 
 51 H       -8.9820     4.8170    -1.1950 H     1 <1>   0.0800 
 52 H       -8.3390     5.0470     0.4180 H     1 <1>   0.0800 
 53 H      -10.0650     5.1460     0.1410 H     1 <1>   0.0800 
@<TRIPOS>BOND
  1   1   2  2   
  2   2   3  am  
  3   2   4  1   
  4   3   5  1   
  5   3   6  1   
  6   4   7  ar  
  7   4   8  ar  
  8   5   9  1   
  9   5  10  1   
 10   5  26  1   
 11   6  27  1   
 12   6  28  1   
 13   6  29  1   
 14   7  11  ar  
 15   8  12  ar  
 16   8  30  1   
 17   9  13  1   
 18   9  31  1   
 19   9  32  1   
 20  10  14  1   
 21  10  33  1   
 22  10  34  1   
 23  11  15  ar  
 24  11  35  1   
 25  12  15  ar  
 26  12  16  ar  
 27  13  14  1   
 28  13  17  1   
 29  13  36  1   
 30  14  18  1   
 31  14  37  1   
 32  15  19  ar  
 33  16  20  ar  
 34  16  38  1   
 35  17  21  1   
 36  17  39  1   
 37  17  40  1   
 38  18  21  1   
 39  18  41  1   
 40  18  42  1   
 41  19  22  ar  
 42  19  43  1   
 43  20  22  ar  
 44  20  44  1   
 45  21  23  1   
 46  21  45  1   
 47  22  46  1   
 48  23  24  1   
 49  23  25  1   
 50  23  47  1   
 51  24  48  1   
 52  24  49  1   
 53  24  50  1   
 54  25  51  1   
 55  25  52  1   
 56  25  53  1   
@<TRIPOS>SUBSTRUCTURE
  1 ****   2 GROUP 4 **** **** 0

# MOE 2024.06 (io_trps.svl 2023.06)
