@<TRIPOS>MOLECULE
NONAME
38 39 1 0 0 
SMALL
USER_CHARGES


@<TRIPOS>ATOM
  1 CL       0.3120     0.2050     0.6160 Cl    1 <1>  -0.1770 
  2 C        1.8180    -0.5380     0.1230 C.ar  1 <1>   0.1770 
  3 C        2.8060     0.2600    -0.4510 C.ar  1 <1>   0.0860 
  4 C        1.9910    -1.9020     0.3350 C.ar  1 <1>  -0.1440 
  5 C        3.9910    -0.3850    -0.7870 C.ar  1 <1>   0.1900 
  6 C        2.6150     1.6660    -0.6860 C.2   1 <1>   0.5440 
  7 C        3.1910    -2.4990    -0.0280 C.ar  1 <1>  -0.1500 
  8 C        0.8870    -2.7470     0.9570 C.3   1 <1>  -0.0970 
  9 F        4.9650     0.3050    -1.3130 F     1 <1>  -0.1900 
 10 C        4.2000    -1.7370    -0.5900 C.ar  1 <1>  -0.1500 
 11 O        1.8710     2.0480    -1.5670 O.2   1 <1>  -0.5700 
 12 N        3.2690     2.5890     0.0710 N.am  1 <1>  -0.7300 
 13 C        3.2360     4.0330    -0.1740 C.3   1 <1>   0.4010 
 14 C        4.5520     4.5970     0.3310 C.2   1 <1>  -0.1810 
 15 C        2.0140     4.6400     0.5330 C.3   1 <1>  -0.1600 
 16 C        4.9340     4.7700     1.6570 C.2   1 <1>   0.1390 
 17 C        5.6150     5.0300    -0.3820 C.2   1 <1>  -0.3020 
 18 C        1.9010     6.1600     0.3380 C.3   1 <1>  -0.2400 
 19 N        6.1280     5.2650     1.7660 N.2   1 <1>  -0.7070 
 20 N        6.5500     5.4280     0.5020 N.pl3 1 <1>   0.3140 
 21 C        7.8750     5.9790     0.2000 C.3   1 <1>   0.0160 
 22 H        3.3460    -3.5540     0.1260 H     1 <1>   0.1500 
 23 H        0.6590    -2.3870     1.9450 H     1 <1>   0.0800 
 24 H        1.1810    -3.7780     1.0310 H     1 <1>   0.0800 
 25 H       -0.0030    -2.6910     0.3550 H     1 <1>   0.0800 
 26 H        5.1370    -2.1840    -0.8740 H     1 <1>   0.1500 
 27 H        4.0320     2.3040     0.6850 H     1 <1>   0.3700 
 28 H        3.1580     4.2110    -1.2340 H     1 <1>   0.0800 
 29 H        2.0580     4.4200     1.5850 H     1 <1>   0.0800 
 30 H        1.1290     4.1780     0.1330 H     1 <1>   0.0800 
 31 H        4.3200     4.5250     2.5080 H     1 <1>   0.1500 
 32 H        5.7530     5.0740    -1.4470 H     1 <1>   0.1500 
 33 H        2.7490     6.6660     0.7660 H     1 <1>   0.0800 
 34 H        1.0100     6.5250     0.8190 H     1 <1>   0.0800 
 35 H        1.8460     6.4000    -0.7090 H     1 <1>   0.0800 
 36 H        8.1160     5.7960    -0.8300 H     1 <1>   0.0800 
 37 H        8.6000     5.5040     0.8340 H     1 <1>   0.0800 
 38 H        7.8650     7.0340     0.3940 H     1 <1>   0.0800 
@<TRIPOS>BOND
  1   1   2  1   
  2   2   3  ar  
  3   2   4  ar  
  4   3   5  ar  
  5   3   6  1   
  6   4   7  ar  
  7   4   8  1   
  8   5   9  1   
  9   5  10  ar  
 10   6  11  2   
 11   6  12  am  
 12   7  10  ar  
 13   7  22  1   
 14   8  23  1   
 15   8  24  1   
 16   8  25  1   
 17  10  26  1   
 18  12  13  1   
 19  12  27  1   
 20  13  14  1   
 21  13  15  1   
 22  13  28  1   
 23  14  16  1   
 24  14  17  2   
 25  15  18  1   
 26  15  29  1   
 27  15  30  1   
 28  16  19  2   
 29  16  31  1   
 30  17  20  1   
 31  17  32  1   
 32  18  33  1   
 33  18  34  1   
 34  18  35  1   
 35  19  20  1   
 36  20  21  1   
 37  21  36  1   
 38  21  37  1   
 39  21  38  1   
@<TRIPOS>SUBSTRUCTURE
  1 ****  12 GROUP 4 **** **** 0

# MOE 2024.06 (io_trps.svl 2023.06)
