@<TRIPOS>MOLECULE
NONAME
45 47 1 0 0 
SMALL
USER_CHARGES


@<TRIPOS>ATOM
  1 CL       1.4820     0.5460    -2.8300 Cl    1 <1>  -0.1770 
  2 C        2.0820     1.1560    -1.3000 C.ar  1 <1>   0.1770 
  3 C        2.3330     0.2770    -0.2430 C.ar  1 <1>   0.1000 
  4 C        2.2930     2.5140    -1.1910 C.ar  1 <1>  -0.1500 
  5 N        2.1190    -1.0960    -0.3530 N.pl3 1 <1>  -0.8380 
  6 C        2.8220     0.8330     0.9370 C.ar  1 <1>  -0.1500 
  7 C        2.7880     3.0690    -0.0100 C.ar  1 <1>   0.0860 
  8 C        1.4110    -1.8460     0.7110 C.3   1 <1>   0.2090 
  9 C        3.2090    -1.9220    -0.9240 C.3   1 <1>   0.2090 
 10 C        3.0380     2.1940     1.0490 C.ar  1 <1>  -0.1500 
 11 C        3.0290     4.4910     0.1240 C.2   1 <1>   0.5440 
 12 C        2.3340    -3.0080     1.0480 C.3   1 <1>  -0.1600 
 13 C        3.0760    -3.2860    -0.2550 C.3   1 <1>  -0.1600 
 14 O        2.6220     5.0720     1.1130 O.2   1 <1>  -0.5700 
 15 N        3.7190     5.2180    -0.8290 N.am  1 <1>  -0.6600 
 16 C        3.6870     6.7100    -0.8220 C.3   1 <1>   0.1400 
 17 C        4.5920     4.6050    -1.8700 C.3   1 <1>   0.0600 
 18 C        4.7740     7.2730     0.0990 C.3   1 <1>   0.0210 
 19 C        4.8650     8.7860     0.0230 C.2   1 <1>   0.3350 
 20 N        4.1450     9.5490    -0.7010 N.2   1 <1>  -0.4100 
 21 N        5.7620     9.4400     0.7460 N.2   1 <1>  -0.5650 
 22 O        4.5360    10.7670    -0.4800 O.3   1 <1>  -0.0190 
 23 C        5.5030    10.6330     0.3930 C.2   1 <1>   0.2980 
 24 C        6.2100    11.8700     0.8930 C.3   1 <1>  -0.0600 
 25 H        2.0690     3.1510    -2.0260 H     1 <1>   0.1500 
 26 H        3.0370     0.1880     1.7690 H     1 <1>   0.1500 
 27 H        0.4820    -2.2130     0.3090 H     1 <1>   0.0800 
 28 H        1.2040    -1.2320     1.5710 H     1 <1>   0.0800 
 29 H        4.1610    -1.4770    -0.6870 H     1 <1>   0.0800 
 30 H        3.1020    -1.9980    -1.9930 H     1 <1>   0.0800 
 31 H        3.4070     2.6020     1.9740 H     1 <1>   0.1500 
 32 H        1.7870    -3.8640     1.4020 H     1 <1>   0.0800 
 33 H        3.0290    -2.6930     1.8070 H     1 <1>   0.0800 
 34 H        4.0340    -3.7470    -0.0940 H     1 <1>   0.0800 
 35 H        2.4800    -3.9230    -0.8850 H     1 <1>   0.0800 
 36 H        2.7220     7.0470    -0.4790 H     1 <1>   0.0800 
 37 H        3.8260     7.0760    -1.8240 H     1 <1>   0.0800 
 38 H        4.8200     3.5820    -1.6260 H     1 <1>   0.0800 
 39 H        5.5190     5.1480    -1.9380 H     1 <1>   0.0800 
 40 H        4.0960     4.6390    -2.8240 H     1 <1>   0.0800 
 41 H        5.7290     6.8670    -0.1750 H     1 <1>   0.0800 
 42 H        4.5600     6.9950     1.1140 H     1 <1>   0.0800 
 43 H        6.9720    11.5960     1.5990 H     1 <1>   0.0800 
 44 H        5.5040    12.5220     1.3730 H     1 <1>   0.0800 
 45 H        6.6650    12.3860     0.0670 H     1 <1>   0.0800 
@<TRIPOS>BOND
  1   1   2  1   
  2   2   3  ar  
  3   2   4  ar  
  4   3   5  1   
  5   3   6  ar  
  6   4   7  ar  
  7   4  25  1   
  8   5   8  1   
  9   5   9  1   
 10   6  10  ar  
 11   6  26  1   
 12   7  10  ar  
 13   7  11  1   
 14   8  12  1   
 15   8  27  1   
 16   8  28  1   
 17   9  13  1   
 18   9  29  1   
 19   9  30  1   
 20  10  31  1   
 21  11  14  2   
 22  11  15  am  
 23  12  13  1   
 24  12  32  1   
 25  12  33  1   
 26  13  34  1   
 27  13  35  1   
 28  15  16  1   
 29  15  17  1   
 30  16  18  1   
 31  16  36  1   
 32  16  37  1   
 33  17  38  1   
 34  17  39  1   
 35  17  40  1   
 36  18  19  1   
 37  18  41  1   
 38  18  42  1   
 39  19  20  2   
 40  19  21  1   
 41  20  22  1   
 42  21  23  2   
 43  22  23  1   
 44  23  24  1   
 45  24  43  1   
 46  24  44  1   
 47  24  45  1   
@<TRIPOS>SUBSTRUCTURE
  1 ****  11 GROUP 4 **** **** 0

# MOE 2024.06 (io_trps.svl 2023.06)
