@<TRIPOS>MOLECULE
NONAME
47 48 1 0 0 
SMALL
USER_CHARGES


@<TRIPOS>ATOM
  1 S        1.5950     0.3470    -1.7990 S.3   1 <1>  -0.0800 
  2 C        1.3640    -0.7900    -0.4940 C.2   1 <1>   0.1980 
  3 C        1.8360     1.6070    -0.6230 C.2   1 <1>  -0.1400 
  4 N        1.4440    -0.2830     0.6700 N.2   1 <1>  -0.5650 
  5 C        1.0670    -2.2320    -0.8720 C.3   1 <1>   0.5230 
  6 C        1.7190     1.0740     0.6070 C.2   1 <1>   0.0460 
  7 C        2.1240     2.9960    -1.1610 C.3   1 <1>  -0.0600 
  8 N       -0.4140    -2.4930    -0.9050 N.4   1 <1>  -0.9590 
  9 C        1.8590     1.7900     1.9350 C.3   1 <1>  -0.0590 
 10 C       -0.7040    -3.8780    -1.4090 C.3   1 <1>   0.3430 
 11 C       -1.0260    -2.2250     0.4350 C.3   1 <1>   0.3430 
 12 C       -2.2130    -4.1880    -1.4190 C.3   1 <1>   0.2000 
 13 C       -2.5340    -2.4910     0.3870 C.3   1 <1>  -0.1600 
 14 O       -2.3670    -5.5070    -1.8090 O.3   1 <1>  -0.6800 
 15 C       -2.8800    -3.9420    -0.0380 C.3   1 <1>   0.0000 
 16 C       -2.3160    -4.9590     0.9990 C.3   1 <1>   0.1200 
 17 C       -4.4250    -4.1290    -0.1110 C.3   1 <1>  -0.1600 
 18 O       -2.8540    -4.7580     2.2620 O.3   1 <1>  -0.6800 
 19 C       -5.1760    -3.3320    -1.1950 C.3   1 <1>  -0.1600 
 20 C       -6.6820    -3.5910    -1.1030 C.3   1 <1>  -0.2400 
 21 H        1.5340    -2.8750    -0.1450 H     1 <1>   0.0800 
 22 H        1.5040    -2.4360    -1.8350 H     1 <1>   0.0800 
 23 H        2.2580     3.6990    -0.3590 H     1 <1>   0.0800 
 24 H        1.3070     3.3300    -1.7750 H     1 <1>   0.0800 
 25 H        3.0200     2.9800    -1.7550 H     1 <1>   0.0800 
 26 H       -0.8160    -1.8090    -1.5600 H     1 <1>   0.4500 
 27 H        2.0760     2.8320     1.7920 H     1 <1>   0.0800 
 28 H        2.6570     1.3470     2.5010 H     1 <1>   0.0800 
 29 H        0.9460     1.7000     2.4940 H     1 <1>   0.0800 
 30 H       -0.3250    -3.9910    -2.4110 H     1 <1>   0.0800 
 31 H       -0.2150    -4.6010    -0.7770 H     1 <1>   0.0800 
 32 H       -0.5680    -2.8530     1.1820 H     1 <1>   0.0800 
 33 H       -0.8580    -1.1970     0.7200 H     1 <1>   0.0800 
 34 H       -2.6710    -3.5770    -2.1760 H     1 <1>   0.0800 
 35 H       -2.9530    -2.2820     1.3550 H     1 <1>   0.0800 
 36 H       -2.9730    -1.7840    -0.2920 H     1 <1>   0.0800 
 37 H       -3.3180    -5.7460    -1.8600 H     1 <1>   0.4000 
 38 H       -1.2460    -4.9040     1.0890 H     1 <1>   0.0800 
 39 H       -2.5710    -5.9660     0.7110 H     1 <1>   0.0800 
 40 H       -4.6420    -5.1740    -0.2550 H     1 <1>   0.0800 
 41 H       -4.8480    -3.8660     0.8440 H     1 <1>   0.0800 
 42 H       -2.6210    -3.8920     2.6440 H     1 <1>   0.4000 
 43 H       -5.0110    -2.2760    -1.0760 H     1 <1>   0.0800 
 44 H       -4.8510    -3.6200    -2.1790 H     1 <1>   0.0800 
 45 H       -7.0620    -3.2870    -0.1420 H     1 <1>   0.0800 
 46 H       -6.8980    -4.6370    -1.2420 H     1 <1>   0.0800 
 47 H       -7.2020    -3.0340    -1.8630 H     1 <1>   0.0800 
@<TRIPOS>BOND
  1   1   2  1   
  2   1   3  1   
  3   2   4  2   
  4   2   5  1   
  5   3   6  2   
  6   3   7  1   
  7   4   6  1   
  8   5   8  1   
  9   5  21  1   
 10   5  22  1   
 11   6   9  1   
 12   7  23  1   
 13   7  24  1   
 14   7  25  1   
 15   8  10  1   
 16   8  11  1   
 17   8  26  1   
 18   9  27  1   
 19   9  28  1   
 20   9  29  1   
 21  10  12  1   
 22  10  30  1   
 23  10  31  1   
 24  11  13  1   
 25  11  32  1   
 26  11  33  1   
 27  12  14  1   
 28  12  15  1   
 29  12  34  1   
 30  13  15  1   
 31  13  35  1   
 32  13  36  1   
 33  14  37  1   
 34  15  16  1   
 35  15  17  1   
 36  16  18  1   
 37  16  38  1   
 38  16  39  1   
 39  17  19  1   
 40  17  40  1   
 41  17  41  1   
 42  18  42  1   
 43  19  20  1   
 44  19  43  1   
 45  19  44  1   
 46  20  45  1   
 47  20  46  1   
 48  20  47  1   
@<TRIPOS>SUBSTRUCTURE
  1 ****  11 GROUP 4 **** **** 0

# MOE 2024.06 (io_trps.svl 2023.06)
