@<TRIPOS>MOLECULE
NONAME
56 60 1 0 0 
SMALL
USER_CHARGES


@<TRIPOS>ATOM
  1 N       -0.0020     0.2610     0.2710 N.ar  1 <1>  -0.6200 
  2 C       -1.1840     0.8980     0.2890 C.ar  1 <1>   0.6200 
  3 C        0.8840     0.7430    -0.5630 C.ar  1 <1>   0.1660 
  4 N       -1.4940     1.9660    -0.4590 N.ar  1 <1>  -0.6200 
  5 C       -2.2020     0.3930     1.1980 C.ar  1 <1>   0.0000 
  6 C        0.6570     1.8210    -1.3590 C.ar  1 <1>  -0.1430 
  7 C        2.2770     0.1890    -0.7460 C.3   1 <1>   0.1440 
  8 C       -0.5740     2.4190    -1.2800 C.ar  1 <1>   0.1600 
  9 C       -3.1230     1.2470     1.8120 C.ar  1 <1>  -0.1500 
 10 C       -2.3060    -0.9680     1.5000 C.ar  1 <1>  -0.1500 
 11 C        1.8620     2.1560    -2.2020 C.3   1 <1>  -0.0160 
 12 C        2.9040    -0.0270     0.6420 C.3   1 <1>   0.3430 
 13 C        2.2240    -1.1440    -1.5240 C.3   1 <1>  -0.1600 
 14 C        2.9790     1.3110    -1.5590 C.3   1 <1>  -0.1600 
 15 C       -4.0890     0.7730     2.6800 C.ar  1 <1>  -0.1500 
 16 C       -3.2690    -1.4500     2.3670 C.ar  1 <1>  -0.1500 
 17 N        4.2320    -0.7070     0.5440 N.4   1 <1>  -0.9590 
 18 C        3.5890    -1.8590    -1.5390 C.3   1 <1>  -0.1600 
 19 C       -4.1640    -0.5790     2.9610 C.ar  1 <1>  -0.1500 
 20 C        4.1730    -2.0280    -0.1330 C.3   1 <1>   0.3430 
 21 C        4.9660    -0.7670     1.8340 C.3   1 <1>   0.5240 
 22 C        6.4310    -0.4870     1.5130 C.2   1 <1>   0.1080 
 23 N        6.8060     0.0810     0.4000 N.2   1 <1>  -0.7070 
 24 C        7.5090    -0.7910     2.3350 C.2   1 <1>  -0.1500 
 25 N        8.1520     0.1620     0.4900 N.pl3 1 <1>   0.3140 
 26 C        8.5900    -0.3630     1.6500 C.2   1 <1>  -0.3020 
 27 C        8.9870     0.7640    -0.5720 C.3   1 <1>   0.0960 
 28 C        9.2000     2.2620    -0.3220 C.3   1 <1>  -0.2400 
 29 H       -0.8090     3.2750    -1.8900 H     1 <1>   0.1500 
 30 H       -3.0810     2.3030     1.6030 H     1 <1>   0.1500 
 31 H       -1.6220    -1.6610     1.0430 H     1 <1>   0.1500 
 32 H        2.0910     3.2080    -2.1740 H     1 <1>   0.0800 
 33 H        1.6870     1.8490    -3.2200 H     1 <1>   0.0800 
 34 H        2.2310    -0.6310     1.2300 H     1 <1>   0.0800 
 35 H        3.0070     0.9280     1.1320 H     1 <1>   0.0800 
 36 H        1.8870    -0.9710    -2.5320 H     1 <1>   0.0800 
 37 H        1.5010    -1.7910    -1.0540 H     1 <1>   0.0800 
 38 H        3.6550     0.9330    -2.3050 H     1 <1>   0.0800 
 39 H        3.5350     1.9480    -0.8920 H     1 <1>   0.0800 
 40 H       -4.7840     1.4560     3.1370 H     1 <1>   0.1500 
 41 H       -3.3260    -2.5030     2.5800 H     1 <1>   0.1500 
 42 H        4.8850    -0.1220    -0.0180 H     1 <1>   0.4500 
 43 H        4.2910    -1.3180    -2.1480 H     1 <1>   0.0800 
 44 H        3.4720    -2.8320    -1.9840 H     1 <1>   0.0800 
 45 H       -4.9160    -0.9510     3.6360 H     1 <1>   0.1500 
 46 H        3.5530    -2.7030     0.4350 H     1 <1>   0.0800 
 47 H        5.1650    -2.4500    -0.2050 H     1 <1>   0.0800 
 48 H        4.8540    -1.7300     2.3020 H     1 <1>   0.0800 
 49 H        4.6100    -0.0020     2.5040 H     1 <1>   0.0800 
 50 H        7.4820    -1.2610     3.3040 H     1 <1>   0.1500 
 51 H        9.6300    -0.3990     1.9210 H     1 <1>   0.1500 
 52 H        8.4950     0.6150    -1.5160 H     1 <1>   0.0800 
 53 H        9.9330     0.2540    -0.5950 H     1 <1>   0.0800 
 54 H        8.2540     2.7750    -0.3070 H     1 <1>   0.0800 
 55 H        9.8020     2.6810    -1.1090 H     1 <1>   0.0800 
 56 H        9.7050     2.4190     0.6140 H     1 <1>   0.0800 
@<TRIPOS>BOND
  1   1   2  ar  
  2   1   3  ar  
  3   2   4  ar  
  4   2   5  1   
  5   3   6  ar  
  6   3   7  1   
  7   4   8  ar  
  8   5   9  ar  
  9   5  10  ar  
 10   6   8  ar  
 11   6  11  1   
 12   7  12  1   
 13   7  13  1   
 14   7  14  1   
 15   8  29  1   
 16   9  15  ar  
 17   9  30  1   
 18  10  16  ar  
 19  10  31  1   
 20  11  14  1   
 21  11  32  1   
 22  11  33  1   
 23  12  17  1   
 24  12  34  1   
 25  12  35  1   
 26  13  18  1   
 27  13  36  1   
 28  13  37  1   
 29  14  38  1   
 30  14  39  1   
 31  15  19  ar  
 32  15  40  1   
 33  16  19  ar  
 34  16  41  1   
 35  17  20  1   
 36  17  21  1   
 37  17  42  1   
 38  18  20  1   
 39  18  43  1   
 40  18  44  1   
 41  19  45  1   
 42  20  46  1   
 43  20  47  1   
 44  21  22  1   
 45  21  48  1   
 46  21  49  1   
 47  22  23  2   
 48  22  24  1   
 49  23  25  1   
 50  24  26  2   
 51  24  50  1   
 52  25  26  1   
 53  25  27  1   
 54  26  51  1   
 55  27  28  1   
 56  27  52  1   
 57  27  53  1   
 58  28  54  1   
 59  28  55  1   
 60  28  56  1   
@<TRIPOS>SUBSTRUCTURE
  1 ****  12 GROUP 4 **** **** 0

# MOE 2024.06 (io_trps.svl 2023.06)
