@<TRIPOS>MOLECULE
NONAME
37 38 1 0 0 
SMALL
USER_CHARGES


@<TRIPOS>ATOM
  1 O       -0.5680    -0.8890     1.2070 O.3   1 <1>  -0.3630 
  2 C       -0.5500    -2.1580     0.7490 C.ar  1 <1>   0.3920 
  3 C       -0.3850     0.2030     0.3270 C.3   1 <1>   0.0400 
  4 N       -0.3640    -2.3730    -0.5510 N.ar  1 <1>  -0.6200 
  5 C       -0.7320    -3.1650     1.6860 C.ar  1 <1>  -0.1500 
  6 C       -0.3600    -3.6430    -0.9180 C.ar  1 <1>   0.1600 
  7 C       -0.7260    -4.4810     1.2820 C.ar  1 <1>  -0.1500 
  8 C       -0.5350    -4.7230    -0.0650 C.ar  1 <1>  -0.1440 
  9 C       -0.5200    -6.1460    -0.5960 C.3   1 <1>   0.2540 
 10 N       -1.8240    -6.8070    -0.4040 N.3   1 <1>  -0.8100 
 11 C       -1.7230    -8.2440    -0.7460 C.3   1 <1>   0.2900 
 12 C       -2.9200    -6.1410    -1.1570 C.3   1 <1>   0.1100 
 13 C       -2.8830    -9.0330    -0.1630 C.2   1 <1>   0.0060 
 14 C       -3.7810    -5.2150    -0.2740 C.3   1 <1>   0.1200 
 15 N       -3.3950   -10.1010    -0.6880 N.2   1 <1>  -0.5650 
 16 N       -3.4760    -8.6610     0.9880 N.pl3 1 <1>   0.0330 
 17 O       -4.4340    -5.9350     0.7210 O.3   1 <1>  -0.6800 
 18 C       -4.3750   -10.4430     0.1720 C.2   1 <1>   0.0770 
 19 C       -4.4420    -9.5710     1.2020 C.2   1 <1>  -0.3020 
 20 H       -0.4350     1.1110     0.8990 H     1 <1>   0.0800 
 21 H       -1.1660     0.1870    -0.4130 H     1 <1>   0.0800 
 22 H        0.5790     0.1120    -0.1430 H     1 <1>   0.0800 
 23 H       -0.8790    -2.9020     2.7160 H     1 <1>   0.1500 
 24 H       -0.2090    -3.8320    -1.9660 H     1 <1>   0.1500 
 25 H       -0.8750    -5.2870     1.9800 H     1 <1>   0.1500 
 26 H        0.2380    -6.6910    -0.0600 H     1 <1>   0.0800 
 27 H       -0.2570    -6.1540    -1.6410 H     1 <1>   0.0800 
 28 H       -0.8180    -8.6540    -0.3340 H     1 <1>   0.0800 
 29 H       -1.6960    -8.3760    -1.8150 H     1 <1>   0.0800 
 30 H       -3.5740    -6.8750    -1.5980 H     1 <1>   0.0800 
 31 H       -2.5100    -5.5640    -1.9680 H     1 <1>   0.0800 
 32 H       -4.5310    -4.7310    -0.8740 H     1 <1>   0.0800 
 33 H       -3.1820    -4.4560     0.1960 H     1 <1>   0.0800 
 34 H       -3.2510    -7.7980     1.5040 H     1 <1>   0.2700 
 35 H       -4.9600    -6.6550     0.3190 H     1 <1>   0.4000 
 36 H       -4.9900   -11.3110     0.0010 H     1 <1>   0.1500 
 37 H       -5.1040    -9.5470     2.0490 H     1 <1>   0.1500 
@<TRIPOS>BOND
  1   1   2  1   
  2   1   3  1   
  3   2   4  ar  
  4   2   5  ar  
  5   3  20  1   
  6   3  21  1   
  7   3  22  1   
  8   4   6  ar  
  9   5   7  ar  
 10   5  23  1   
 11   6   8  ar  
 12   6  24  1   
 13   7   8  ar  
 14   7  25  1   
 15   8   9  1   
 16   9  10  1   
 17   9  26  1   
 18   9  27  1   
 19  10  11  1   
 20  10  12  1   
 21  11  13  1   
 22  11  28  1   
 23  11  29  1   
 24  12  14  1   
 25  12  30  1   
 26  12  31  1   
 27  13  15  2   
 28  13  16  1   
 29  14  17  1   
 30  14  32  1   
 31  14  33  1   
 32  15  18  1   
 33  16  19  1   
 34  16  34  1   
 35  17  35  1   
 36  18  19  2   
 37  18  36  1   
 38  19  37  1   
@<TRIPOS>SUBSTRUCTURE
  1 ****  10 GROUP 4 **** **** 0

# MOE 2024.06 (io_trps.svl 2023.06)
