@<TRIPOS>MOLECULE
NONAME
35 34 1 0 0 
SMALL
USER_CHARGES


@<TRIPOS>ATOM
  1 O       -0.5140    -0.3800    -0.3450 O.2   1 <1>  -0.5700 
  2 C       -0.2580    -1.4230     0.2240 C.2   1 <1>   0.7800 
  3 O        0.9930    -1.8920     0.2340 O.3   1 <1>  -0.4300 
  4 N       -1.2130    -2.1720     0.8790 N.am  1 <1>  -0.6600 
  5 C        2.1370    -1.3150    -0.3580 C.3   1 <1>   0.2800 
  6 C       -2.6440    -1.7740     0.9870 C.3   1 <1>   0.2200 
  7 C       -0.8900    -3.4670     1.5480 C.3   1 <1>   0.0600 
  8 C        1.9640    -1.2340    -1.8800 C.3   1 <1>  -0.2400 
  9 C        3.2810    -2.2750    -0.0320 C.3   1 <1>  -0.2400 
 10 C        2.4300     0.0520     0.2730 C.3   1 <1>  -0.2400 
 11 C       -3.3000    -1.7370    -0.4020 C.3   1 <1>  -0.1600 
 12 C       -2.7690    -0.4620     1.7680 C.3   1 <1>  -0.2400 
 13 C       -4.8140    -1.5450    -0.3170 C.3   1 <1>   0.1200 
 14 O       -5.3380    -1.6640    -1.5890 O.3   1 <1>  -0.6800 
 15 H       -3.1540    -2.5310     1.5600 H     1 <1>   0.0800 
 16 H        0.1420    -3.7390     1.4130 H     1 <1>   0.0800 
 17 H       -1.5020    -4.2490     1.1340 H     1 <1>   0.0800 
 18 H       -1.0860    -3.3860     2.6030 H     1 <1>   0.0800 
 19 H        1.6870    -2.1950    -2.2760 H     1 <1>   0.0800 
 20 H        2.8870    -0.9290    -2.3380 H     1 <1>   0.0800 
 21 H        1.2150    -0.5120    -2.1480 H     1 <1>   0.0800 
 22 H        3.0810    -3.2470    -0.4450 H     1 <1>   0.0800 
 23 H        3.4020    -2.3630     1.0320 H     1 <1>   0.0800 
 24 H        4.2040    -1.9130    -0.4490 H     1 <1>   0.0800 
 25 H        1.6810     0.7730     0.0020 H     1 <1>   0.0800 
 26 H        3.3760     0.4220    -0.0760 H     1 <1>   0.0800 
 27 H        2.4690    -0.0320     1.3430 H     1 <1>   0.0800 
 28 H       -3.0980    -2.6720    -0.8950 H     1 <1>   0.0800 
 29 H       -2.8800    -0.9360    -0.9820 H     1 <1>   0.0800 
 30 H       -2.4050     0.3680     1.1900 H     1 <1>   0.0800 
 31 H       -2.2090    -0.5250     2.6840 H     1 <1>   0.0800 
 32 H       -3.7960    -0.2720     2.0180 H     1 <1>   0.0800 
 33 H       -5.0670    -0.5700     0.0620 H     1 <1>   0.0800 
 34 H       -5.2700    -2.3020     0.2990 H     1 <1>   0.0800 
 35 H       -4.8970    -1.0380    -2.1960 H     1 <1>   0.4000 
@<TRIPOS>BOND
  1   1   2  2   
  2   2   3  1   
  3   2   4  am  
  4   3   5  1   
  5   4   6  1   
  6   4   7  1   
  7   5   8  1   
  8   5   9  1   
  9   5  10  1   
 10   6  11  1   
 11   6  12  1   
 12   6  15  1   
 13   7  16  1   
 14   7  17  1   
 15   7  18  1   
 16   8  19  1   
 17   8  20  1   
 18   8  21  1   
 19   9  22  1   
 20   9  23  1   
 21   9  24  1   
 22  10  25  1   
 23  10  26  1   
 24  10  27  1   
 25  11  13  1   
 26  11  28  1   
 27  11  29  1   
 28  12  30  1   
 29  12  31  1   
 30  12  32  1   
 31  13  14  1   
 32  13  33  1   
 33  13  34  1   
 34  14  35  1   
@<TRIPOS>SUBSTRUCTURE
  1 ****   2 GROUP 4 **** **** 0

# MOE 2024.06 (io_trps.svl 2023.06)
