@<TRIPOS>MOLECULE
NONAME
44 45 1 0 0 
SMALL
USER_CHARGES


@<TRIPOS>ATOM
  1 S       -0.3580     0.3850    -1.0250 S.3   1 <1>  -0.0800 
  2 C        0.6410    -0.9660    -0.5510 C.2   1 <1>  -0.0450 
  3 C        0.4270     1.3830     0.1770 C.2   1 <1>   0.1980 
  4 C        1.4640    -0.5320     0.4290 C.2   1 <1>   0.0460 
  5 C        0.4450    -2.2280    -1.2080 C.2   1 <1>   0.7150 
  6 N        1.3280     0.7740     0.8410 N.2   1 <1>  -0.5650 
  7 C       -0.0160     2.8350     0.3250 C.3   1 <1>   0.1000 
  8 C        2.5390    -1.3430     1.1230 C.3   1 <1>  -0.0590 
  9 O        0.8080    -2.3710    -2.3600 O.2   1 <1>  -0.5700 
 10 N       -0.1630    -3.2850    -0.5640 N.am  1 <1>  -0.6600 
 11 C       -1.4840     2.9330     0.7610 C.3   1 <1>  -0.2400 
 12 C        0.2190     3.6290    -0.9670 C.3   1 <1>  -0.2400 
 13 C       -0.1900    -4.6190    -1.2470 C.3   1 <1>   0.3200 
 14 C       -0.6650    -3.1720     0.8520 C.3   1 <1>   0.1400 
 15 C       -1.2030    -5.5930    -0.6720 C.2   1 <1>  -0.3320 
 16 C       -1.9500    -2.3240     0.9650 C.3   1 <1>   0.1200 
 17 N       -2.5130    -5.3260    -0.5110 N.pl3 1 <1>   0.0330 
 18 C       -1.0240    -6.8580    -0.2330 C.2   1 <1>   0.0770 
 19 O       -2.7730    -2.4960    -0.1450 O.3   1 <1>  -0.6800 
 20 C       -3.0450    -6.4440     0.0230 C.2   1 <1>   0.0060 
 21 N       -2.1820    -7.3890     0.2040 N.2   1 <1>  -0.5650 
 22 C       -4.5100    -6.5570     0.3830 C.3   1 <1>  -0.0600 
 23 H        0.5910     3.2740     1.0980 H     1 <1>   0.0800 
 24 H        2.5840    -2.3410     0.7270 H     1 <1>   0.0800 
 25 H        2.3360    -1.3900     2.1770 H     1 <1>   0.0800 
 26 H        3.4930    -0.8700     0.9770 H     1 <1>   0.0800 
 27 H       -2.1350     2.5370     0.0030 H     1 <1>   0.0800 
 28 H       -1.7500     3.9590     0.9420 H     1 <1>   0.0800 
 29 H       -1.6330     2.3770     1.6690 H     1 <1>   0.0800 
 30 H       -0.3950     3.2520    -1.7660 H     1 <1>   0.0800 
 31 H        1.2510     3.5510    -1.2610 H     1 <1>   0.0800 
 32 H       -0.0150     4.6670    -0.8140 H     1 <1>   0.0800 
 33 H        0.7920    -5.0540    -1.1870 H     1 <1>   0.0800 
 34 H       -0.4180    -4.4790    -2.2910 H     1 <1>   0.0800 
 35 H        0.0930    -2.7280     1.4710 H     1 <1>   0.0800 
 36 H       -0.8500    -4.1440     1.2730 H     1 <1>   0.0800 
 37 H       -1.7030    -1.2790     1.0370 H     1 <1>   0.0800 
 38 H       -2.5050    -2.6010     1.8440 H     1 <1>   0.0800 
 39 H       -2.9860    -4.4260    -0.6780 H     1 <1>   0.2700 
 40 H       -0.1110    -7.4290    -0.2060 H     1 <1>   0.1500 
 41 H       -2.2730    -2.2420    -0.9500 H     1 <1>   0.4000 
 42 H       -4.7750    -5.7960     1.0930 H     1 <1>   0.0800 
 43 H       -4.7030    -7.5210     0.8200 H     1 <1>   0.0800 
 44 H       -5.1140    -6.4500    -0.4990 H     1 <1>   0.0800 
@<TRIPOS>BOND
  1   1   2  1   
  2   1   3  1   
  3   2   4  2   
  4   2   5  1   
  5   3   6  2   
  6   3   7  1   
  7   4   6  1   
  8   4   8  1   
  9   5   9  2   
 10   5  10  am  
 11   7  11  1   
 12   7  12  1   
 13   7  23  1   
 14   8  24  1   
 15   8  25  1   
 16   8  26  1   
 17  10  13  1   
 18  10  14  1   
 19  11  27  1   
 20  11  28  1   
 21  11  29  1   
 22  12  30  1   
 23  12  31  1   
 24  12  32  1   
 25  13  15  1   
 26  13  33  1   
 27  13  34  1   
 28  14  16  1   
 29  14  35  1   
 30  14  36  1   
 31  15  17  1   
 32  15  18  2   
 33  16  19  1   
 34  16  37  1   
 35  16  38  1   
 36  17  20  1   
 37  17  39  1   
 38  18  21  1   
 39  18  40  1   
 40  19  41  1   
 41  20  21  2   
 42  20  22  1   
 43  22  42  1   
 44  22  43  1   
 45  22  44  1   
@<TRIPOS>SUBSTRUCTURE
  1 ****  10 GROUP 4 **** **** 0

# MOE 2024.06 (io_trps.svl 2023.06)
