@<TRIPOS>MOLECULE
NONAME
55 59 1 0 0 
SMALL
USER_CHARGES


@<TRIPOS>ATOM
  1 O       -1.8740     1.7910     2.7170 O.2   1 <1>  -0.5700 
  2 C       -2.3140     1.8750     1.5840 C.2   1 <1>   0.5440 
  3 N       -3.1840     0.8980     1.1410 N.am  1 <1>  -0.6600 
  4 C       -1.8970     2.9760     0.7370 C.ar  1 <1>   0.0860 
  5 C       -3.4090     0.6330    -0.3120 C.3   1 <1>   0.1400 
  6 C       -3.7640    -0.0760     2.1120 C.3   1 <1>   0.1400 
  7 C       -0.5600     3.3240     0.6290 C.ar  1 <1>  -0.1500 
  8 C       -2.8380     3.7310     0.0030 C.ar  1 <1>  -0.1500 
  9 C       -3.6370    -0.8590    -0.5430 C.3   1 <1>  -0.1600 
 10 C       -5.0640    -0.6780     1.5730 C.3   1 <1>  -0.1600 
 11 C       -0.1640     4.3730    -0.2020 C.ar  1 <1>  -0.1520 
 12 C       -2.4590     4.7650    -0.8180 C.ar  1 <1>  -0.1500 
 13 C       -4.9030    -1.3380     0.1850 C.3   1 <1>   0.4240 
 14 N        1.0810     4.8910    -0.4720 N.pl3 1 <1>   0.0480 
 15 C       -1.1050     5.0930    -0.9310 C.ar  1 <1>   0.0000 
 16 O       -5.9600    -0.8680    -0.6160 O.3   1 <1>  -0.5600 
 17 C       -4.9100    -2.8800     0.2890 C.ar  1 <1>  -0.1430 
 18 C        0.9230     5.9150    -1.3600 C.2   1 <1>  -0.3020 
 19 C        2.3530     4.4340     0.1120 C.3   1 <1>   0.0160 
 20 C       -0.3900     6.0630    -1.6590 C.2   1 <1>  -0.1500 
 21 C       -7.1950    -1.4960    -0.4670 C.3   1 <1>   0.1200 
 22 C       -5.9400    -3.6340    -0.2670 C.ar  1 <1>  -0.1430 
 23 C       -3.8890    -3.5460     0.9580 C.ar  1 <1>  -0.1500 
 24 C       -7.0780    -2.9290    -0.9780 C.3   1 <1>  -0.0170 
 25 C       -5.9370    -5.0160    -0.1720 C.ar  1 <1>  -0.1500 
 26 C       -3.8870    -4.9250     1.0570 C.ar  1 <1>  -0.1500 
 27 C       -4.9060    -5.6710     0.4930 C.ar  1 <1>   0.0830 
 28 O       -4.8280    -7.0190     0.6320 O.3   1 <1>  -0.3630 
 29 C       -5.8000    -7.8710     0.0700 C.3   1 <1>   0.0400 
 30 H       -2.5540     0.9550    -0.8820 H     1 <1>   0.0800 
 31 H       -4.2720     1.1850    -0.6460 H     1 <1>   0.0800 
 32 H       -3.9600     0.4230     3.0460 H     1 <1>   0.0800 
 33 H       -3.0410    -0.8510     2.2990 H     1 <1>   0.0800 
 34 H        0.1750     2.7780     1.1930 H     1 <1>   0.1500 
 35 H       -3.8790     3.4810     0.1050 H     1 <1>   0.1500 
 36 H       -2.7670    -1.3860    -0.1980 H     1 <1>   0.0800 
 37 H       -3.7350    -1.0630    -1.5940 H     1 <1>   0.0800 
 38 H       -5.7860     0.1170     1.5210 H     1 <1>   0.0800 
 39 H       -5.4290    -1.4020     2.2780 H     1 <1>   0.0800 
 40 H       -3.1800     5.3350    -1.3760 H     1 <1>   0.1500 
 41 H        1.7570     6.4840    -1.7300 H     1 <1>   0.1500 
 42 H        2.5310     3.4160    -0.1810 H     1 <1>   0.0800 
 43 H        2.2920     4.4970     1.1830 H     1 <1>   0.0800 
 44 H        3.1550     5.0560    -0.2390 H     1 <1>   0.0800 
 45 H       -0.8440     6.7770    -2.3230 H     1 <1>   0.1500 
 46 H       -7.9180    -0.9470    -1.0440 H     1 <1>   0.0800 
 47 H       -7.4800    -1.4760     0.5710 H     1 <1>   0.0800 
 48 H       -3.0830    -2.9990     1.4110 H     1 <1>   0.1500 
 49 H       -6.8920    -2.9160    -2.0370 H     1 <1>   0.0800 
 50 H       -8.0040    -3.4440    -0.8020 H     1 <1>   0.0800 
 51 H       -6.7410    -5.5690    -0.6160 H     1 <1>   0.1500 
 52 H       -3.0940    -5.4340     1.5740 H     1 <1>   0.1500 
 53 H       -5.5250    -8.8850     0.2960 H     1 <1>   0.0800 
 54 H       -5.8170    -7.7260    -0.9960 H     1 <1>   0.0800 
 55 H       -6.7560    -7.6450     0.5060 H     1 <1>   0.0800 
@<TRIPOS>BOND
  1   1   2  2   
  2   2   3  am  
  3   2   4  1   
  4   3   5  1   
  5   3   6  1   
  6   4   7  ar  
  7   4   8  ar  
  8   5   9  1   
  9   5  30  1   
 10   5  31  1   
 11   6  10  1   
 12   6  32  1   
 13   6  33  1   
 14   7  11  ar  
 15   7  34  1   
 16   8  12  ar  
 17   8  35  1   
 18   9  13  1   
 19   9  36  1   
 20   9  37  1   
 21  10  13  1   
 22  10  38  1   
 23  10  39  1   
 24  11  14  1   
 25  11  15  ar  
 26  12  15  ar  
 27  12  40  1   
 28  13  16  1   
 29  13  17  1   
 30  14  18  1   
 31  14  19  1   
 32  15  20  1   
 33  16  21  1   
 34  17  22  ar  
 35  17  23  ar  
 36  18  20  2   
 37  18  41  1   
 38  19  42  1   
 39  19  43  1   
 40  19  44  1   
 41  20  45  1   
 42  21  24  1   
 43  21  46  1   
 44  21  47  1   
 45  22  24  1   
 46  22  25  ar  
 47  23  26  ar  
 48  23  48  1   
 49  24  49  1   
 50  24  50  1   
 51  25  27  ar  
 52  25  51  1   
 53  26  27  ar  
 54  26  52  1   
 55  27  28  1   
 56  28  29  1   
 57  29  53  1   
 58  29  54  1   
 59  29  55  1   
@<TRIPOS>SUBSTRUCTURE
  1 ****   5 GROUP 4 **** **** 0

# MOE 2024.06 (io_trps.svl 2023.06)
