@<TRIPOS>MOLECULE
NONAME
54 58 1 0 0 
SMALL
USER_CHARGES


@<TRIPOS>ATOM
  1 O       -0.1820    -0.0270     0.6920 O.2   1 <1>  -0.5700 
  2 C       -1.2210     0.6010     0.6300 C.2   1 <1>   0.5440 
  3 N       -2.3850    -0.0750     0.3440 N.am  1 <1>  -0.6600 
  4 C       -1.2120     2.0330     0.8340 C.ar  1 <1>   0.0860 
  5 C       -3.5890     0.5470    -0.2670 C.3   1 <1>   0.1400 
  6 C       -2.4090    -1.5470     0.1580 C.3   1 <1>   0.1400 
  7 C       -2.1290     2.6410     1.6840 C.ar  1 <1>   0.1600 
  8 C       -0.3020     2.8600     0.1970 C.ar  1 <1>  -0.1500 
  9 C       -4.2520    -0.5790    -1.0590 C.3   1 <1>   0.2000 
 10 C       -3.8030    -1.8710    -0.3820 C.3   1 <1>  -0.0800 
 11 N       -2.2310     3.9390     1.9130 N.ar  1 <1>  -0.6200 
 12 C       -0.3750     4.2190     0.4210 C.ar  1 <1>  -0.1430 
 13 O       -5.6340    -0.4810    -1.0300 O.3   1 <1>  -0.6800 
 14 C       -3.8250    -3.0820    -1.3290 C.3   1 <1>  -0.0170 
 15 C       -1.3580     4.7070     1.2800 C.ar  1 <1>   0.1670 
 16 C        0.6160     5.1350    -0.2890 C.3   1 <1>  -0.0170 
 17 C       -3.4140    -4.3560    -0.5980 C.ar  1 <1>  -0.1430 
 18 C       -1.4810     6.1970     1.5730 C.3   1 <1>  -0.0170 
 19 C        0.6990     6.5220     0.3550 C.3   1 <1>  -0.1600 
 20 C       -4.3010    -5.0610     0.2500 C.ar  1 <1>   0.0000 
 21 C       -2.1510    -4.8510    -0.7420 C.ar  1 <1>  -0.1500 
 22 C       -0.7050     7.0840     0.5900 C.3   1 <1>  -0.1600 
 23 C       -3.8080    -6.2190     0.9000 C.ar  1 <1>   0.3100 
 24 C       -5.6440    -4.6880     0.4910 C.ar  1 <1>  -0.1500 
 25 C       -1.7660    -6.0100    -0.0570 C.ar  1 <1>   0.1600 
 26 N       -2.5420    -6.6790     0.7350 N.ar  1 <1>  -0.6200 
 27 C       -4.6600    -6.9320     1.7570 C.ar  1 <1>  -0.1500 
 28 C       -6.4500    -5.4070     1.3310 C.ar  1 <1>  -0.1500 
 29 C       -5.9540    -6.5430     1.9760 C.ar  1 <1>  -0.1500 
 30 H       -4.2410     0.8970     0.5140 H     1 <1>   0.0800 
 31 H       -3.3140     1.3600    -0.9160 H     1 <1>   0.0800 
 32 H       -1.6460    -1.8210    -0.5510 H     1 <1>   0.0800 
 33 H       -2.2200    -2.0510     1.0910 H     1 <1>   0.0800 
 34 H       -2.8220     2.0060     2.2080 H     1 <1>   0.1500 
 35 H        0.4410     2.4350    -0.4560 H     1 <1>   0.1500 
 36 H       -3.9290    -0.5400    -2.0860 H     1 <1>   0.0800 
 37 H       -4.4320    -2.0620     0.4690 H     1 <1>   0.0800 
 38 H       -5.9600    -0.5180    -0.1100 H     1 <1>   0.4000 
 39 H       -3.1530    -2.9040    -2.1510 H     1 <1>   0.0800 
 40 H       -4.8060    -3.2030    -1.7540 H     1 <1>   0.0800 
 41 H        1.5940     4.6850    -0.2860 H     1 <1>   0.0800 
 42 H        0.3050     5.2400    -1.3140 H     1 <1>   0.0800 
 43 H       -2.5200     6.4750     1.5580 H     1 <1>   0.0800 
 44 H       -1.1140     6.3650     2.5700 H     1 <1>   0.0800 
 45 H        1.2190     6.4500     1.2960 H     1 <1>   0.0800 
 46 H        1.2580     7.1830    -0.2840 H     1 <1>   0.0800 
 47 H       -1.4230    -4.3720    -1.3710 H     1 <1>   0.1500 
 48 H       -1.2350     7.1260    -0.3460 H     1 <1>   0.0800 
 49 H       -0.6430     8.0840     0.9820 H     1 <1>   0.0800 
 50 H       -6.0480    -3.8210     0.0030 H     1 <1>   0.1500 
 51 H       -0.7600    -6.3660    -0.1980 H     1 <1>   0.1500 
 52 H       -4.2570    -7.8030     2.2400 H     1 <1>   0.1500 
 53 H       -7.4710    -5.1130     1.5060 H     1 <1>   0.1500 
 54 H       -6.5960    -7.1000     2.6350 H     1 <1>   0.1500 
@<TRIPOS>BOND
  1   1   2  2   
  2   2   3  am  
  3   2   4  1   
  4   3   5  1   
  5   3   6  1   
  6   4   7  ar  
  7   4   8  ar  
  8   5   9  1   
  9   5  30  1   
 10   5  31  1   
 11   6  10  1   
 12   6  32  1   
 13   6  33  1   
 14   7  11  ar  
 15   7  34  1   
 16   8  12  ar  
 17   8  35  1   
 18   9  10  1   
 19   9  13  1   
 20   9  36  1   
 21  10  14  1   
 22  10  37  1   
 23  11  15  ar  
 24  12  15  ar  
 25  12  16  1   
 26  13  38  1   
 27  14  17  1   
 28  14  39  1   
 29  14  40  1   
 30  15  18  1   
 31  16  19  1   
 32  16  41  1   
 33  16  42  1   
 34  17  20  ar  
 35  17  21  ar  
 36  18  22  1   
 37  18  43  1   
 38  18  44  1   
 39  19  22  1   
 40  19  45  1   
 41  19  46  1   
 42  20  23  ar  
 43  20  24  ar  
 44  21  25  ar  
 45  21  47  1   
 46  22  48  1   
 47  22  49  1   
 48  23  26  ar  
 49  23  27  ar  
 50  24  28  ar  
 51  24  50  1   
 52  25  26  ar  
 53  25  51  1   
 54  27  29  ar  
 55  27  52  1   
 56  28  29  ar  
 57  28  53  1   
 58  29  54  1   
@<TRIPOS>SUBSTRUCTURE
  1 ****   3 GROUP 4 **** **** 0

# MOE 2024.06 (io_trps.svl 2023.06)
