@<TRIPOS>MOLECULE
NONAME
42 44 1 0 0 
SMALL
USER_CHARGES


@<TRIPOS>ATOM
  1 S        0.0020    -0.6450    -1.4240 S.3   1 <1>  -0.0800 
  2 C       -1.5080    -1.1370    -0.7020 C.2   1 <1>  -0.1400 
  3 C       -0.5440     1.0090    -1.4100 C.2   1 <1>   0.2280 
  4 C       -2.2660    -0.0330    -0.5250 C.2   1 <1>   0.0460 
  5 C       -1.5950    -2.6410    -0.4580 C.3   1 <1>   0.0200 
  6 N       -1.7080     1.1700    -0.9270 N.2   1 <1>  -0.5650 
  7 C       -3.6610     0.1190     0.0530 C.3   1 <1>  -0.0590 
  8 C       -2.8670    -3.1110     0.2420 C.3   1 <1>   0.2090 
  9 N       -2.8250    -4.5850     0.4580 N.pl3 1 <1>  -0.8380 
 10 C       -3.9280    -5.3250     0.0680 C.ar  1 <1>   0.4100 
 11 C       -2.1410    -5.0140     1.7070 C.3   1 <1>   0.1290 
 12 N       -5.0970    -4.8760     0.5110 N.ar  1 <1>  -0.6200 
 13 C       -3.7880    -6.4690    -0.7270 C.ar  1 <1>   0.0730 
 14 C       -6.1720    -5.5620     0.1660 C.ar  1 <1>   0.1670 
 15 C       -2.5000    -6.9010    -1.1710 C.1   1 <1>   0.4840 
 16 C       -4.9260    -7.1710    -1.0750 C.ar  1 <1>  -0.1500 
 17 C       -6.1440    -6.7100    -0.6190 C.ar  1 <1>  -0.1430 
 18 C       -7.4840    -5.0120     0.7120 C.3   1 <1>  -0.0160 
 19 N       -1.4910    -7.2920    -1.5380 N.1   1 <1>  -0.5570 
 20 C       -7.4100    -7.4700    -1.0030 C.3   1 <1>  -0.0170 
 21 C       -8.7290    -5.5960     0.0300 C.3   1 <1>  -0.1600 
 22 C       -8.6010    -7.1150    -0.1080 C.3   1 <1>  -0.1600 
 23 H        0.1270     1.7530    -1.8000 H     1 <1>   0.1500 
 24 H       -0.7490    -2.9320     0.1370 H     1 <1>   0.0800 
 25 H       -1.5230    -3.1460    -1.4050 H     1 <1>   0.0800 
 26 H       -4.0970    -0.8120     0.3470 H     1 <1>   0.0800 
 27 H       -4.3000     0.5740    -0.6810 H     1 <1>   0.0800 
 28 H       -3.6200     0.7620     0.9130 H     1 <1>   0.0800 
 29 H       -3.7130    -2.8650    -0.3780 H     1 <1>   0.0800 
 30 H       -2.9780    -2.6110     1.1880 H     1 <1>   0.0800 
 31 H       -1.0860    -4.8170     1.6350 H     1 <1>   0.0800 
 32 H       -2.2840    -6.0690     1.8660 H     1 <1>   0.0800 
 33 H       -2.5490    -4.4830     2.5500 H     1 <1>   0.0800 
 34 H       -4.8600    -8.0540    -1.6870 H     1 <1>   0.1500 
 35 H       -7.4910    -3.9420     0.6040 H     1 <1>   0.0800 
 36 H       -7.5180    -5.2330     1.7640 H     1 <1>   0.0800 
 37 H       -7.2310    -8.5290    -0.9490 H     1 <1>   0.0800 
 38 H       -7.6520    -7.2280    -2.0240 H     1 <1>   0.0800 
 39 H       -8.8390    -5.1560    -0.9460 H     1 <1>   0.0800 
 40 H       -9.6030    -5.3490     0.6070 H     1 <1>   0.0800 
 41 H       -8.4610    -7.5540     0.8660 H     1 <1>   0.0800 
 42 H       -9.5030    -7.5230    -0.5300 H     1 <1>   0.0800 
@<TRIPOS>BOND
  1   1   2  1   
  2   1   3  1   
  3   2   4  2   
  4   2   5  1   
  5   3   6  2   
  6   3  23  1   
  7   4   6  1   
  8   4   7  1   
  9   5   8  1   
 10   5  24  1   
 11   5  25  1   
 12   7  26  1   
 13   7  27  1   
 14   7  28  1   
 15   8   9  1   
 16   8  29  1   
 17   8  30  1   
 18   9  10  1   
 19   9  11  1   
 20  10  12  ar  
 21  10  13  ar  
 22  11  31  1   
 23  11  32  1   
 24  11  33  1   
 25  12  14  ar  
 26  13  15  1   
 27  13  16  ar  
 28  14  17  ar  
 29  14  18  1   
 30  15  19  3   
 31  16  17  ar  
 32  16  34  1   
 33  17  20  1   
 34  18  21  1   
 35  18  35  1   
 36  18  36  1   
 37  20  22  1   
 38  20  37  1   
 39  20  38  1   
 40  21  22  1   
 41  21  39  1   
 42  21  40  1   
 43  22  41  1   
 44  22  42  1   
@<TRIPOS>SUBSTRUCTURE
  1 ****  10 GROUP 4 **** **** 0

# MOE 2024.06 (io_trps.svl 2023.06)
