@<TRIPOS>MOLECULE
NONAME
52 54 1 0 0 
SMALL
USER_CHARGES


@<TRIPOS>ATOM
  1 O       -0.3950    -0.3950    -0.0710 O.2   1 <1>  -0.5700 
  2 C       -1.3600     0.2650    -0.3840 C.2   1 <1>   0.5690 
  3 N       -2.6100    -0.0620     0.0780 N.am  1 <1>  -0.6600 
  4 C       -1.1440     1.4300    -1.3440 C.3   1 <1>   0.0440 
  5 C       -3.9080     0.5140    -0.3400 C.3   1 <1>   0.1400 
  6 C       -2.8230    -1.2080     0.9890 C.3   1 <1>   0.1400 
  7 C       -0.2240     2.5180    -0.7820 C.ar  1 <1>  -0.1440 
  8 C       -4.9370    -0.0490     0.6500 C.3   1 <1>  -0.0800 
  9 C       -4.3390    -1.3990     1.0850 C.3   1 <1>  -0.0800 
 10 C       -0.6790     3.5450     0.0420 C.ar  1 <1>  -0.1430 
 11 C        1.1220     2.4680    -1.1200 C.ar  1 <1>  -0.1500 
 12 C       -6.4130    -0.1080     0.1480 C.3   1 <1>   0.2800 
 13 C       -4.8490    -2.5370     0.1870 C.3   1 <1>  -0.1600 
 14 C        0.2150     4.5040     0.4920 C.ar  1 <1>  -0.1500 
 15 C       -2.1320     3.6460     0.4800 C.3   1 <1>  -0.0970 
 16 C        2.0130     3.4250    -0.6670 C.ar  1 <1>  -0.1430 
 17 O       -6.4480    -0.1840    -1.2320 O.3   1 <1>  -0.6800 
 18 C       -7.1030    -1.3820     0.6730 C.3   1 <1>  -0.1600 
 19 C       -7.2290     1.1390     0.5510 C.3   1 <1>  -0.1600 
 20 C       -6.3800    -2.6860     0.2720 C.3   1 <1>  -0.1600 
 21 C        1.5510     4.4480     0.1390 C.ar  1 <1>  -0.1500 
 22 C        3.4780     3.3440    -1.0530 C.3   1 <1>  -0.0970 
 23 C       -6.6950     2.4830     0.0230 C.3   1 <1>  -0.2400 
 24 H       -0.7040     1.0250    -2.2350 H     1 <1>   0.0800 
 25 H       -2.0740     1.8660    -1.6440 H     1 <1>   0.0800 
 26 H       -3.8940     1.5870    -0.3130 H     1 <1>   0.0800 
 27 H       -4.1040     0.1850    -1.3460 H     1 <1>   0.0800 
 28 H       -2.3290    -2.0870     0.6110 H     1 <1>   0.0800 
 29 H       -2.4120    -0.9620     1.9530 H     1 <1>   0.0800 
 30 H       -4.9090     0.5790     1.5220 H     1 <1>   0.0800 
 31 H       -4.6040    -1.6220     2.1040 H     1 <1>   0.0800 
 32 H        1.4840     1.6680    -1.7410 H     1 <1>   0.1500 
 33 H       -4.5760    -2.3210    -0.8320 H     1 <1>   0.0800 
 34 H       -4.3800    -3.4670     0.4580 H     1 <1>   0.0800 
 35 H       -0.1220     5.3040     1.1260 H     1 <1>   0.1500 
 36 H       -2.2850     4.5030     1.1100 H     1 <1>   0.0800 
 37 H       -2.4030     2.7690     1.0390 H     1 <1>   0.0800 
 38 H       -2.7730     3.7430    -0.3770 H     1 <1>   0.0800 
 39 H       -7.3670    -0.3260    -1.5220 H     1 <1>   0.4000 
 40 H       -7.1220    -1.3260     1.7470 H     1 <1>   0.0800 
 41 H       -8.1270    -1.4200     0.3460 H     1 <1>   0.0800 
 42 H       -8.2430     1.0170     0.2100 H     1 <1>   0.0800 
 43 H       -7.2700     1.1920     1.6250 H     1 <1>   0.0800 
 44 H       -6.6280    -3.4500     0.9890 H     1 <1>   0.0800 
 45 H       -6.7410    -3.0160    -0.6870 H     1 <1>   0.0800 
 46 H        2.2270     5.2030     0.4990 H     1 <1>   0.1500 
 47 H        4.0840     3.8970    -0.3590 H     1 <1>   0.0800 
 48 H        3.6170     3.7500    -2.0380 H     1 <1>   0.0800 
 49 H        3.8060     2.3200    -1.0480 H     1 <1>   0.0800 
 50 H       -6.5900     2.4580    -1.0480 H     1 <1>   0.0800 
 51 H       -5.7430     2.7170     0.4620 H     1 <1>   0.0800 
 52 H       -7.3810     3.2720     0.2770 H     1 <1>   0.0800 
@<TRIPOS>BOND
  1   1   2  2   
  2   2   3  am  
  3   2   4  1   
  4   3   5  1   
  5   3   6  1   
  6   4   7  1   
  7   4  24  1   
  8   4  25  1   
  9   5   8  1   
 10   5  26  1   
 11   5  27  1   
 12   6   9  1   
 13   6  28  1   
 14   6  29  1   
 15   7  10  ar  
 16   7  11  ar  
 17   8   9  1   
 18   8  12  1   
 19   8  30  1   
 20   9  13  1   
 21   9  31  1   
 22  10  14  ar  
 23  10  15  1   
 24  11  16  ar  
 25  11  32  1   
 26  12  17  1   
 27  12  18  1   
 28  12  19  1   
 29  13  20  1   
 30  13  33  1   
 31  13  34  1   
 32  14  21  ar  
 33  14  35  1   
 34  15  36  1   
 35  15  37  1   
 36  15  38  1   
 37  16  21  ar  
 38  16  22  1   
 39  17  39  1   
 40  18  20  1   
 41  18  40  1   
 42  18  41  1   
 43  19  23  1   
 44  19  42  1   
 45  19  43  1   
 46  20  44  1   
 47  20  45  1   
 48  21  46  1   
 49  22  47  1   
 50  22  48  1   
 51  22  49  1   
 52  23  50  1   
 53  23  51  1   
 54  23  52  1   
@<TRIPOS>SUBSTRUCTURE
  1 ****   3 GROUP 4 **** **** 0

# MOE 2024.06 (io_trps.svl 2023.06)
