@<TRIPOS>MOLECULE
NONAME
62 65 1 0 0 
SMALL
USER_CHARGES


@<TRIPOS>ATOM
  1 O       -0.7300     0.5860     1.6860 O.2   1 <1>  -0.5700 
  2 C       -1.6590     0.9340     0.9930 C.2   1 <1>   0.5690 
  3 N       -2.7320     0.0880     0.7980 N.am  1 <1>  -0.6600 
  4 C       -1.5230     2.3370     0.3780 C.3   1 <1>  -0.0190 
  5 C       -2.7490    -1.2220     1.5270 C.3   1 <1>   0.1400 
  6 C       -3.8790     0.3290    -0.1310 C.3   1 <1>   0.1400 
  7 C       -2.7100     3.2920     0.6180 C.3   1 <1>  -0.1600 
  8 C       -1.1260     2.3220    -1.1070 C.3   1 <1>  -0.1600 
  9 C       -4.1760    -1.7310     1.7530 C.3   1 <1>  -0.1600 
 10 C       -4.4070    -0.9950    -0.6770 C.3   1 <1>  -0.1600 
 11 C       -2.5070     4.6680    -0.0440 C.3   1 <1>   0.2800 
 12 C       -0.9670     3.7470    -1.6390 C.3   1 <1>   0.1200 
 13 C       -5.0110    -1.8400     0.4590 C.3   1 <1>   0.4240 
 14 O       -2.1220     4.4900    -1.3740 O.3   1 <1>  -0.5600 
 15 C       -1.4780     5.5460     0.6840 C.3   1 <1>  -0.2400 
 16 C       -3.8380     5.4180    -0.1050 C.3   1 <1>  -0.2400 
 17 O       -6.2510    -1.2600     0.7890 O.3   1 <1>  -0.5600 
 18 C       -5.1620    -3.3180     0.0330 C.ar  1 <1>  -0.1440 
 19 C       -7.3710    -1.6380     0.0480 C.3   1 <1>   0.1200 
 20 C       -6.4070    -3.9250    -0.0470 C.ar  1 <1>  -0.1440 
 21 C       -4.0410    -4.0780    -0.2760 C.ar  1 <1>  -0.1500 
 22 C       -7.6470    -3.1190     0.2850 C.3   1 <1>  -0.0170 
 23 C       -6.5240    -5.2520    -0.4280 C.ar  1 <1>  -0.1500 
 24 C       -4.1360    -5.4060    -0.6520 C.ar  1 <1>   0.0820 
 25 C       -5.3990    -6.0110    -0.7440 C.ar  1 <1>   0.0820 
 26 O       -2.9400    -6.0100    -0.9090 O.3   1 <1>  -0.3630 
 27 O       -5.5100    -7.3090    -1.1530 O.3   1 <1>  -0.3620 
 28 C       -2.7480    -7.3880    -0.6790 C.3   1 <1>   0.0400 
 29 C       -6.7580    -7.9070    -1.4310 C.3   1 <1>   0.0400 
 30 H       -0.6890     2.7790     0.8940 H     1 <1>   0.0800 
 31 H       -2.2670    -1.1120     2.4840 H     1 <1>   0.0800 
 32 H       -2.1830    -1.9390     0.9590 H     1 <1>   0.0800 
 33 H       -3.5790     0.9460    -0.9540 H     1 <1>   0.0800 
 34 H       -4.6660     0.8340     0.4040 H     1 <1>   0.0800 
 35 H       -2.8610     3.4180     1.6750 H     1 <1>   0.0800 
 36 H       -3.6100     2.8730     0.2190 H     1 <1>   0.0800 
 37 H       -1.8570     1.8170    -1.7080 H     1 <1>   0.0800 
 38 H       -0.1960     1.7950    -1.2230 H     1 <1>   0.0800 
 39 H       -4.6510    -1.0530     2.4400 H     1 <1>   0.0800 
 40 H       -4.1310    -2.6890     2.2370 H     1 <1>   0.0800 
 41 H       -3.5920    -1.5150    -1.1440 H     1 <1>   0.0800 
 42 H       -5.1390    -0.8140    -1.4390 H     1 <1>   0.0800 
 43 H       -0.8300     3.7330    -2.7060 H     1 <1>   0.0800 
 44 H       -0.1200     4.2410    -1.1970 H     1 <1>   0.0800 
 45 H       -0.5360     5.0490     0.8060 H     1 <1>   0.0800 
 46 H       -1.8420     5.7940     1.6640 H     1 <1>   0.0800 
 47 H       -1.3250     6.4600     0.1400 H     1 <1>   0.0800 
 48 H       -4.5590     4.8540    -0.6680 H     1 <1>   0.0800 
 49 H       -3.7030     6.3740    -0.5770 H     1 <1>   0.0800 
 50 H       -4.2240     5.5770     0.8850 H     1 <1>   0.0800 
 51 H       -7.1930    -1.4420    -0.9940 H     1 <1>   0.0800 
 52 H       -8.2030    -1.0430     0.3820 H     1 <1>   0.0800 
 53 H       -3.0590    -3.6470    -0.2270 H     1 <1>   0.1500 
 54 H       -8.4710    -3.4290    -0.3320 H     1 <1>   0.0800 
 55 H       -7.9160    -3.2740     1.3150 H     1 <1>   0.0800 
 56 H       -7.5060    -5.6800    -0.4730 H     1 <1>   0.1500 
 57 H       -1.6920    -7.5720    -0.6060 H     1 <1>   0.0800 
 58 H       -3.1550    -7.9380    -1.5080 H     1 <1>   0.0800 
 59 H       -3.2360    -7.6630     0.2400 H     1 <1>   0.0800 
 60 H       -6.5760    -8.8980    -1.8040 H     1 <1>   0.0800 
 61 H       -7.2660    -7.3230    -2.1770 H     1 <1>   0.0800 
 62 H       -7.3300    -7.9590    -0.5220 H     1 <1>   0.0800 
@<TRIPOS>BOND
  1   1   2  2   
  2   2   3  am  
  3   2   4  1   
  4   3   5  1   
  5   3   6  1   
  6   4   7  1   
  7   4   8  1   
  8   4  30  1   
  9   5   9  1   
 10   5  31  1   
 11   5  32  1   
 12   6  10  1   
 13   6  33  1   
 14   6  34  1   
 15   7  11  1   
 16   7  35  1   
 17   7  36  1   
 18   8  12  1   
 19   8  37  1   
 20   8  38  1   
 21   9  13  1   
 22   9  39  1   
 23   9  40  1   
 24  10  13  1   
 25  10  41  1   
 26  10  42  1   
 27  11  14  1   
 28  11  15  1   
 29  11  16  1   
 30  12  14  1   
 31  12  43  1   
 32  12  44  1   
 33  13  17  1   
 34  13  18  1   
 35  15  45  1   
 36  15  46  1   
 37  15  47  1   
 38  16  48  1   
 39  16  49  1   
 40  16  50  1   
 41  17  19  1   
 42  18  20  ar  
 43  18  21  ar  
 44  19  22  1   
 45  19  51  1   
 46  19  52  1   
 47  20  22  1   
 48  20  23  ar  
 49  21  24  ar  
 50  21  53  1   
 51  22  54  1   
 52  22  55  1   
 53  23  25  ar  
 54  23  56  1   
 55  24  25  ar  
 56  24  26  1   
 57  25  27  1   
 58  26  28  1   
 59  27  29  1   
 60  28  57  1   
 61  28  58  1   
 62  28  59  1   
 63  29  60  1   
 64  29  61  1   
 65  29  62  1   
@<TRIPOS>SUBSTRUCTURE
  1 ****  10 GROUP 4 **** **** 0

# MOE 2024.06 (io_trps.svl 2023.06)
