@<TRIPOS>MOLECULE
NONAME
54 57 1 0 0 
SMALL
USER_CHARGES


@<TRIPOS>ATOM
  1 O       -0.5410     0.0270    -1.3290 O.2   1 <1>  -0.5700 
  2 C       -1.4730     0.7230    -0.9890 C.2   1 <1>   0.5690 
  3 N       -2.6300     0.1010    -0.5690 N.am  1 <1>  -0.6600 
  4 C       -1.2950     2.2740    -1.1100 C.3   1 <1>   0.0610 
  5 C       -3.9860     0.6680    -0.3670 C.3   1 <1>   0.1400 
  6 C       -2.6910    -1.3830    -0.4760 C.3   1 <1>   0.1400 
  7 C       -1.9550     3.1080     0.0200 C.3   1 <1>  -0.1600 
  8 C        0.2110     2.6610    -1.0840 C.3   1 <1>  -0.1600 
  9 C       -1.8690     2.7340    -2.4650 C.3   1 <1>  -0.2400 
 10 C       -4.9300    -0.5320    -0.3830 C.3   1 <1>   0.2000 
 11 C       -4.0800    -1.7110     0.0740 C.3   1 <1>  -0.0800 
 12 C       -1.3650     2.7820     1.3990 C.3   1 <1>  -0.1600 
 13 C        0.8730     2.3780     0.2780 C.3   1 <1>  -0.1600 
 14 O       -6.0020    -0.3510     0.4770 O.3   1 <1>  -0.6800 
 15 C       -4.6330    -3.0660    -0.3950 C.3   1 <1>  -0.0170 
 16 C        0.1380     3.0870     1.4220 C.3   1 <1>  -0.1600 
 17 C       -3.7670    -4.2140     0.0940 C.ar  1 <1>   0.1660 
 18 N       -2.7390    -4.5360    -0.6300 N.ar  1 <1>  -0.6200 
 19 C       -4.1030    -4.8580     1.2950 C.ar  1 <1>  -0.1500 
 20 C       -1.9440    -5.5440    -0.1900 C.ar  1 <1>   0.3100 
 21 C       -3.3280    -5.8780     1.7570 C.ar  1 <1>  -0.1500 
 22 C       -2.2010    -6.2500     1.0060 C.ar  1 <1>   0.0000 
 23 C       -0.8180    -5.9000    -0.9480 C.ar  1 <1>  -0.1500 
 24 C       -1.3250    -7.2850     1.3910 C.ar  1 <1>  -0.1500 
 25 C        0.0220    -6.9080    -0.5550 C.ar  1 <1>  -0.1500 
 26 C       -0.2360    -7.6080     0.6280 C.ar  1 <1>  -0.1500 
 27 H       -4.0250     1.1480     0.5940 H     1 <1>   0.0800 
 28 H       -4.2390     1.3580    -1.1510 H     1 <1>   0.0800 
 29 H       -2.5600    -1.8000    -1.4610 H     1 <1>   0.0800 
 30 H       -1.9120    -1.7610     0.1660 H     1 <1>   0.0800 
 31 H       -1.7820     4.1530    -0.1750 H     1 <1>   0.0800 
 32 H       -3.0180     2.9910     0.0340 H     1 <1>   0.0800 
 33 H        0.7440     2.1260    -1.8520 H     1 <1>   0.0800 
 34 H        0.3190     3.7090    -1.3010 H     1 <1>   0.0800 
 35 H       -1.7160     3.7890    -2.6100 H     1 <1>   0.0800 
 36 H       -2.9220     2.5330    -2.5240 H     1 <1>   0.0800 
 37 H       -1.3820     2.2060    -3.2660 H     1 <1>   0.0800 
 38 H       -5.3110    -0.6850    -1.3790 H     1 <1>   0.0800 
 39 H       -4.0050    -1.7060     1.1470 H     1 <1>   0.0800 
 40 H       -1.8600     3.3690     2.1540 H     1 <1>   0.0800 
 41 H       -1.5260     1.7420     1.6320 H     1 <1>   0.0800 
 42 H        0.8790     1.3170     0.4630 H     1 <1>   0.0800 
 43 H        1.8980     2.7040     0.2530 H     1 <1>   0.0800 
 44 H       -5.6870    -0.2500     1.3960 H     1 <1>   0.4000 
 45 H       -4.6750    -3.0930    -1.4700 H     1 <1>   0.0800 
 46 H       -5.6370    -3.1910    -0.0300 H     1 <1>   0.0800 
 47 H        0.5560     2.7790     2.3650 H     1 <1>   0.0800 
 48 H        0.2840     4.1490     1.3290 H     1 <1>   0.0800 
 49 H       -4.9730    -4.5370     1.8390 H     1 <1>   0.1500 
 50 H       -3.5540    -6.3960     2.6720 H     1 <1>   0.1500 
 51 H       -0.6360    -5.3480    -1.8520 H     1 <1>   0.1500 
 52 H       -1.5290    -7.8180     2.3020 H     1 <1>   0.1500 
 53 H        0.8830    -7.1710    -1.1460 H     1 <1>   0.1500 
 54 H        0.4320    -8.3980     0.9250 H     1 <1>   0.1500 
@<TRIPOS>BOND
  1   1   2  2   
  2   2   3  am  
  3   2   4  1   
  4   3   5  1   
  5   3   6  1   
  6   4   7  1   
  7   4   8  1   
  8   4   9  1   
  9   5  10  1   
 10   5  27  1   
 11   5  28  1   
 12   6  11  1   
 13   6  29  1   
 14   6  30  1   
 15   7  12  1   
 16   7  31  1   
 17   7  32  1   
 18   8  13  1   
 19   8  33  1   
 20   8  34  1   
 21   9  35  1   
 22   9  36  1   
 23   9  37  1   
 24  10  11  1   
 25  10  14  1   
 26  10  38  1   
 27  11  15  1   
 28  11  39  1   
 29  12  16  1   
 30  12  40  1   
 31  12  41  1   
 32  13  16  1   
 33  13  42  1   
 34  13  43  1   
 35  14  44  1   
 36  15  17  1   
 37  15  45  1   
 38  15  46  1   
 39  16  47  1   
 40  16  48  1   
 41  17  18  ar  
 42  17  19  ar  
 43  18  20  ar  
 44  19  21  ar  
 45  19  49  1   
 46  20  22  ar  
 47  20  23  ar  
 48  21  22  ar  
 49  21  50  1   
 50  22  24  ar  
 51  23  25  ar  
 52  23  51  1   
 53  24  26  ar  
 54  24  52  1   
 55  25  26  ar  
 56  25  53  1   
 57  26  54  1   
@<TRIPOS>SUBSTRUCTURE
  1 ****   6 GROUP 4 **** **** 0

# MOE 2024.06 (io_trps.svl 2023.06)
