@<TRIPOS>MOLECULE
NONAME
39 41 1 0 0 
SMALL
USER_CHARGES


@<TRIPOS>ATOM
  1 CL       1.0270    -0.2040     1.9500 Cl    1 <1>  -0.1770 
  2 C        0.8230    -1.5910     0.9060 C.ar  1 <1>   0.1770 
  3 C        1.6210    -1.8100    -0.2150 C.ar  1 <1>  -0.0090 
  4 C       -0.1740    -2.4710     1.2950 C.ar  1 <1>  -0.1500 
  5 S        2.8930    -0.6220    -0.7150 S.o2  1 <1>   1.4470 
  6 C        1.4030    -3.0120    -0.8850 C.ar  1 <1>   0.1770 
  7 C       -0.3920    -3.6320     0.5800 C.ar  1 <1>  -0.1500 
  8 O        2.4740     0.7200    -0.3710 O.2   1 <1>  -0.6500 
  9 O        3.3120    -0.8470    -2.0790 O.2   1 <1>  -0.6500 
 10 N        4.1800    -1.0660     0.3060 N.am  1 <1>  -0.8490 
 11 CL       2.3770    -3.5360    -2.2380 Cl    1 <1>  -0.1770 
 12 C        0.4100    -3.9030    -0.5100 C.ar  1 <1>  -0.1500 
 13 C        4.5870    -0.0740     1.3230 C.3   1 <1>   0.1960 
 14 C        5.2570    -1.8830    -0.2870 C.3   1 <1>   0.1960 
 15 C        5.6110     1.0040     0.8730 C.3   1 <1>   0.2200 
 16 C        6.4500    -1.1330    -0.9230 C.3   1 <1>  -0.0190 
 17 N        5.6630     1.2140    -0.6060 N.am  1 <1>  -0.6600 
 18 C        7.0210     0.6990     1.4200 C.3   1 <1>   0.1200 
 19 C        6.1380     0.2520    -1.4530 C.2   1 <1>   0.5690 
 20 C        7.6870    -1.0720    -0.0140 C.3   1 <1>   0.1200 
 21 C        5.1200     2.5040    -1.1140 C.3   1 <1>   0.0600 
 22 O        7.3740    -0.6490     1.2780 O.3   1 <1>  -0.5600 
 23 O        6.3820     0.4810    -2.6150 O.2   1 <1>  -0.5700 
 24 H       -0.7740    -2.2450     2.1600 H     1 <1>   0.1500 
 25 H       -1.1680    -4.3190     0.8740 H     1 <1>   0.1500 
 26 H        0.2730    -4.8100    -1.0730 H     1 <1>   0.1500 
 27 H        3.7150     0.4320     1.6950 H     1 <1>   0.0800 
 28 H        4.9930    -0.6040     2.1670 H     1 <1>   0.0800 
 29 H        5.6380    -2.5380     0.4780 H     1 <1>   0.0800 
 30 H        4.8250    -2.5230    -1.0390 H     1 <1>   0.0800 
 31 H        5.3120     1.9330     1.3250 H     1 <1>   0.0800 
 32 H        6.7500    -1.7160    -1.7740 H     1 <1>   0.0800 
 33 H        7.0370     0.9060     2.4750 H     1 <1>   0.0800 
 34 H        7.7630     1.3180     0.9450 H     1 <1>   0.0800 
 35 H        8.4390    -0.4190    -0.4260 H     1 <1>   0.0800 
 36 H        8.1100    -2.0570     0.0780 H     1 <1>   0.0800 
 37 H        4.1450     2.6820    -0.6950 H     1 <1>   0.0800 
 38 H        5.0250     2.4750    -2.1870 H     1 <1>   0.0800 
 39 H        5.7800     3.3100    -0.8460 H     1 <1>   0.0800 
@<TRIPOS>BOND
  1   1   2  1   
  2   2   3  ar  
  3   2   4  ar  
  4   3   5  1   
  5   3   6  ar  
  6   4   7  ar  
  7   4  24  1   
  8   5   8  2   
  9   5   9  2   
 10   5  10  am  
 11   6  11  1   
 12   6  12  ar  
 13   7  12  ar  
 14   7  25  1   
 15  10  13  1   
 16  10  14  1   
 17  12  26  1   
 18  13  15  1   
 19  13  27  1   
 20  13  28  1   
 21  14  16  1   
 22  14  29  1   
 23  14  30  1   
 24  15  17  1   
 25  15  18  1   
 26  15  31  1   
 27  16  19  1   
 28  16  20  1   
 29  16  32  1   
 30  17  19  am  
 31  17  21  1   
 32  18  22  1   
 33  18  33  1   
 34  18  34  1   
 35  19  23  2   
 36  20  22  1   
 37  20  35  1   
 38  20  36  1   
 39  21  37  1   
 40  21  38  1   
 41  21  39  1   
@<TRIPOS>SUBSTRUCTURE
  1 ****  10 GROUP 4 **** **** 0

# MOE 2024.06 (io_trps.svl 2023.06)
