@<TRIPOS>MOLECULE
NONAME
51 53 1 0 0 
SMALL
USER_CHARGES


@<TRIPOS>ATOM
  1 O        2.1760     0.2980    -2.1580 O.2   1 <1>  -0.5700 
  2 C        1.4270    -0.4770    -1.6090 C.2   1 <1>   0.5690 
  3 N        0.9680    -0.3400    -0.3350 N.am  1 <1>  -0.4930 
  4 C        0.9730    -1.7240    -2.3710 C.3   1 <1>   0.1710 
  5 C        1.2620     0.6180     0.6680 C.2   1 <1>   0.0630 
  6 N       -0.1250    -2.4810    -1.6930 N.3   1 <1>  -0.8100 
  7 C        1.4890     0.3320     2.0150 C.2   1 <1>   0.1080 
  8 C        1.3710     1.9620     0.5790 C.2   1 <1>  -0.3320 
  9 C       -0.1330    -3.8990    -2.1060 C.3   1 <1>   0.2900 
 10 C       -1.4330    -1.8390    -1.9320 C.3   1 <1>   0.0300 
 11 N        1.7310     1.3960     2.7130 N.2   1 <1>  -0.7070 
 12 C        1.4680    -1.0490     2.6310 C.3   1 <1>  -0.0590 
 13 N        1.6720     2.4070     1.8260 N.pl3 1 <1>   0.3140 
 14 C        1.1980     2.8670    -0.6340 C.3   1 <1>  -0.0600 
 15 C       -1.0450    -4.7280    -1.2200 C.2   1 <1>  -0.0400 
 16 C        1.9200     3.8010     2.2540 C.3   1 <1>   0.0960 
 17 O       -2.3080    -4.8660    -1.5130 O.3   1 <1>  -0.0190 
 18 C       -0.8110    -5.4200    -0.0990 C.2   1 <1>  -0.1500 
 19 C        3.3760     4.2100     1.9960 C.3   1 <1>  -0.2400 
 20 N       -2.9340    -5.6060    -0.6500 N.2   1 <1>  -0.4100 
 21 C       -2.0550    -5.9700     0.2410 C.2   1 <1>   0.2350 
 22 C       -2.3050    -6.8060     1.4040 C.ar  1 <1>   0.3640 
 23 N       -1.2780    -7.0820     2.2210 N.ar  1 <1>  -0.6200 
 24 C       -3.5870    -7.3010     1.6500 C.ar  1 <1>  -0.1500 
 25 C       -1.5360    -7.8450     3.2680 C.ar  1 <1>   0.1600 
 26 C       -3.8430    -8.0940     2.7460 C.ar  1 <1>  -0.1500 
 27 C       -2.7780    -8.3700     3.5740 C.ar  1 <1>  -0.1500 
 28 H        0.3720    -1.1240    -0.0510 H     1 <1>   0.3700 
 29 H        1.8410    -2.3520    -2.4640 H     1 <1>   0.0800 
 30 H        0.6690    -1.4360    -3.3620 H     1 <1>   0.0800 
 31 H        0.8630    -4.2970    -2.0110 H     1 <1>   0.0800 
 32 H       -0.4360    -3.9930    -3.1360 H     1 <1>   0.0800 
 33 H       -1.3930    -0.7930    -1.6800 H     1 <1>   0.0800 
 34 H       -2.1900    -2.2950    -1.3160 H     1 <1>   0.0800 
 35 H       -1.7210    -1.9360    -2.9650 H     1 <1>   0.0800 
 36 H        2.0000    -1.7400     2.0040 H     1 <1>   0.0800 
 37 H        0.4520    -1.3770     2.7460 H     1 <1>   0.0800 
 38 H        1.9380    -1.0220     3.5970 H     1 <1>   0.0800 
 39 H        0.7480     2.3260    -1.4450 H     1 <1>   0.0800 
 40 H        2.1560     3.2310    -0.9600 H     1 <1>   0.0800 
 41 H        0.5610     3.6990    -0.3990 H     1 <1>   0.0800 
 42 H        1.7040     3.8670     3.3050 H     1 <1>   0.0800 
 43 H        1.2470     4.4500     1.7280 H     1 <1>   0.0800 
 44 H        0.0990    -5.5520     0.4560 H     1 <1>   0.1500 
 45 H        4.0390     3.5560     2.5350 H     1 <1>   0.0800 
 46 H        3.5390     5.2170     2.3330 H     1 <1>   0.0800 
 47 H        3.6020     4.1550     0.9460 H     1 <1>   0.0800 
 48 H       -4.3850    -7.0570     0.9720 H     1 <1>   0.1500 
 49 H       -0.7100    -8.0670     3.9230 H     1 <1>   0.1500 
 50 H       -4.8280    -8.4810     2.9450 H     1 <1>   0.1500 
 51 H       -2.9070    -8.9830     4.4470 H     1 <1>   0.1500 
@<TRIPOS>BOND
  1   1   2  2   
  2   2   3  am  
  3   2   4  1   
  4   3   5  1   
  5   3  28  1   
  6   4   6  1   
  7   4  29  1   
  8   4  30  1   
  9   5   7  1   
 10   5   8  2   
 11   6   9  1   
 12   6  10  1   
 13   7  11  2   
 14   7  12  1   
 15   8  13  1   
 16   8  14  1   
 17   9  15  1   
 18   9  31  1   
 19   9  32  1   
 20  10  33  1   
 21  10  34  1   
 22  10  35  1   
 23  11  13  1   
 24  12  36  1   
 25  12  37  1   
 26  12  38  1   
 27  13  16  1   
 28  14  39  1   
 29  14  40  1   
 30  14  41  1   
 31  15  17  1   
 32  15  18  2   
 33  16  19  1   
 34  16  42  1   
 35  16  43  1   
 36  17  20  1   
 37  18  21  1   
 38  18  44  1   
 39  19  45  1   
 40  19  46  1   
 41  19  47  1   
 42  20  21  2   
 43  21  22  1   
 44  22  23  ar  
 45  22  24  ar  
 46  23  25  ar  
 47  24  26  ar  
 48  24  48  1   
 49  25  27  ar  
 50  25  49  1   
 51  26  27  ar  
 52  26  50  1   
 53  27  51  1   
@<TRIPOS>SUBSTRUCTURE
  1 ****   6 GROUP 4 **** **** 0

# MOE 2024.06 (io_trps.svl 2023.06)
