@<TRIPOS>MOLECULE
NONAME
52 55 1 0 0 
SMALL
USER_CHARGES


@<TRIPOS>ATOM
  1 F       -5.4420     0.1120     0.1690 F     1 <1>  -0.1900 
  2 C       -4.7230    -0.8550     0.6730 C.ar  1 <1>   0.1900 
  3 C       -4.6430    -2.0510    -0.0110 C.ar  1 <1>  -0.1500 
  4 C       -4.0720    -0.6420     1.8730 C.ar  1 <1>  -0.1500 
  5 C       -3.8830    -3.0770     0.5260 C.ar  1 <1>   0.0830 
  6 C       -3.3100    -1.6700     2.4040 C.ar  1 <1>  -0.1500 
  7 O       -3.8440    -4.2340    -0.1790 O.3   1 <1>  -0.3630 
  8 C       -3.2140    -2.8810     1.7350 C.ar  1 <1>  -0.1500 
  9 C       -3.2010    -5.3910     0.3370 C.3   1 <1>   0.1810 
 10 C       -3.3950    -6.5970    -0.5800 C.2   1 <1>   0.5690 
 11 O       -2.3910    -7.1130    -1.0180 O.2   1 <1>  -0.5700 
 12 N       -4.6450    -7.1000    -0.8640 N.am  1 <1>  -0.6600 
 13 C       -5.9300    -6.5460    -0.3510 C.3   1 <1>   0.1400 
 14 C       -4.8290    -8.2370    -1.8090 C.3   1 <1>   0.1400 
 15 C       -6.7000    -7.6530     0.3720 C.3   1 <1>  -0.1600 
 16 C       -5.5950    -9.3620    -1.1080 C.3   1 <1>  -0.1600 
 17 C       -6.9340    -8.8750    -0.5340 C.3   1 <1>   0.4240 
 18 O       -7.6840    -8.4530    -1.6490 O.3   1 <1>  -0.5600 
 19 C       -7.6390   -10.0140     0.2350 C.ar  1 <1>  -0.1430 
 20 C       -9.0690    -8.3860    -1.5080 C.3   1 <1>   0.1200 
 21 C       -8.9080   -10.4520    -0.1320 C.ar  1 <1>  -0.1430 
 22 C       -7.0170   -10.6230     1.3200 C.ar  1 <1>  -0.1500 
 23 C       -9.6110    -9.7970    -1.3040 C.3   1 <1>  -0.0170 
 24 C       -9.5320   -11.4770     0.5610 C.ar  1 <1>  -0.1500 
 25 C       -7.6390   -11.6440     2.0140 C.ar  1 <1>  -0.1500 
 26 C       -8.8980   -12.0810     1.6420 C.ar  1 <1>   0.0830 
 27 O       -9.4370   -13.0880     2.3730 O.3   1 <1>  -0.3620 
 28 C      -10.7060   -13.6200     2.0630 C.3   1 <1>   0.0400 
 29 H       -5.1590    -2.1840    -0.9430 H     1 <1>   0.1500 
 30 H       -4.1610     0.3050     2.3740 H     1 <1>   0.1500 
 31 H       -2.7910    -1.5250     3.3370 H     1 <1>   0.1500 
 32 H       -2.6100    -3.6550     2.1710 H     1 <1>   0.1500 
 33 H       -3.6130    -5.6120     1.3030 H     1 <1>   0.0800 
 34 H       -2.1520    -5.1780     0.4250 H     1 <1>   0.0800 
 35 H       -6.5080    -6.1770    -1.1820 H     1 <1>   0.0800 
 36 H       -5.7660    -5.7290     0.3270 H     1 <1>   0.0800 
 37 H       -3.8790    -8.6090    -2.1520 H     1 <1>   0.0800 
 38 H       -5.3810    -7.8950    -2.6680 H     1 <1>   0.0800 
 39 H       -7.6390    -7.2750     0.7300 H     1 <1>   0.0800 
 40 H       -6.1320    -7.9490     1.2340 H     1 <1>   0.0800 
 41 H       -4.9720    -9.7500    -0.3260 H     1 <1>   0.0800 
 42 H       -5.7810   -10.1620    -1.8000 H     1 <1>   0.0800 
 43 H       -9.4710    -7.9550    -2.4080 H     1 <1>   0.0800 
 44 H       -9.3120    -7.7520    -0.6740 H     1 <1>   0.0800 
 45 H       -6.0390   -10.3090     1.6370 H     1 <1>   0.1500 
 46 H       -9.4470   -10.3760    -2.1950 H     1 <1>   0.0800 
 47 H      -10.6690    -9.7460    -1.1230 H     1 <1>   0.0800 
 48 H      -10.5080   -11.7960     0.2510 H     1 <1>   0.1500 
 49 H       -7.1520   -12.1110     2.8510 H     1 <1>   0.1500 
 50 H      -10.9180   -14.4060     2.7660 H     1 <1>   0.0800 
 51 H      -10.6820   -14.0190     1.0650 H     1 <1>   0.0800 
 52 H      -11.4420   -12.8420     2.1520 H     1 <1>   0.0800 
@<TRIPOS>BOND
  1   1   2  1   
  2   2   3  ar  
  3   2   4  ar  
  4   3   5  ar  
  5   3  29  1   
  6   4   6  ar  
  7   4  30  1   
  8   5   7  1   
  9   5   8  ar  
 10   6   8  ar  
 11   6  31  1   
 12   7   9  1   
 13   8  32  1   
 14   9  10  1   
 15   9  33  1   
 16   9  34  1   
 17  10  11  2   
 18  10  12  am  
 19  12  13  1   
 20  12  14  1   
 21  13  15  1   
 22  13  35  1   
 23  13  36  1   
 24  14  16  1   
 25  14  37  1   
 26  14  38  1   
 27  15  17  1   
 28  15  39  1   
 29  15  40  1   
 30  16  17  1   
 31  16  41  1   
 32  16  42  1   
 33  17  18  1   
 34  17  19  1   
 35  18  20  1   
 36  19  21  ar  
 37  19  22  ar  
 38  20  23  1   
 39  20  43  1   
 40  20  44  1   
 41  21  23  1   
 42  21  24  ar  
 43  22  25  ar  
 44  22  45  1   
 45  23  46  1   
 46  23  47  1   
 47  24  26  ar  
 48  24  48  1   
 49  25  26  ar  
 50  25  49  1   
 51  26  27  1   
 52  27  28  1   
 53  28  50  1   
 54  28  51  1   
 55  28  52  1   
@<TRIPOS>SUBSTRUCTURE
  1 ****  15 GROUP 4 **** **** 0

# MOE 2024.06 (io_trps.svl 2023.06)
