@<TRIPOS>MOLECULE
NONAME
37 38 1 0 0 
SMALL
USER_CHARGES


@<TRIPOS>ATOM
  1 CL      -0.2500    -0.6830    -1.7610 Cl    1 <1>  -0.1770 
  2 C       -1.7280    -1.3760    -1.1290 C.ar  1 <1>   0.1770 
  3 C       -1.9950    -2.7160    -1.2600 C.ar  1 <1>   0.1600 
  4 C       -2.6580    -0.5990    -0.4870 C.ar  1 <1>   0.1600 
  5 N       -3.1000    -3.2480    -0.7900 N.ar  1 <1>  -0.6200 
  6 N       -3.7710    -1.1070    -0.0080 N.ar  1 <1>  -0.6200 
  7 C       -3.9530    -2.4220    -0.1760 C.ar  1 <1>   0.7200 
  8 N       -5.1150    -2.9690     0.3220 N.pl3 1 <1>  -0.8380 
  9 C       -5.6030    -4.3440    -0.0270 C.3   1 <1>   0.2090 
 10 C       -6.0620    -2.2380     1.2130 C.3   1 <1>   0.2090 
 11 C       -6.9780    -4.2520    -0.7120 C.3   1 <1>   0.2000 
 12 C       -7.4310    -2.1340     0.5280 C.3   1 <1>  -0.1600 
 13 O       -7.4120    -5.5310    -1.0290 O.3   1 <1>  -0.6800 
 14 C       -8.0310    -3.5260     0.1710 C.3   1 <1>  -0.1060 
 15 C       -8.2960    -4.3580     1.4480 C.2   1 <1>   0.9060 
 16 C       -9.3450    -3.3460    -0.6460 C.3   1 <1>  -0.1600 
 17 O       -8.3650    -5.5950     1.3610 O.co2 1 <1>  -0.9000 
 18 O       -8.4330    -3.7910     2.5400 O.co2 1 <1>  -0.9000 
 19 C      -10.4700    -2.5960     0.0880 C.3   1 <1>  -0.1600 
 20 C      -11.7480    -2.5600    -0.7560 C.3   1 <1>  -0.2400 
 21 H       -1.2890    -3.3560    -1.7580 H     1 <1>   0.1500 
 22 H       -2.4820     0.4550    -0.3670 H     1 <1>   0.1500 
 23 H       -4.9230    -4.8450    -0.6920 H     1 <1>   0.0800 
 24 H       -5.6850    -4.9250     0.8750 H     1 <1>   0.0800 
 25 H       -6.1560    -2.7760     2.1430 H     1 <1>   0.0800 
 26 H       -5.7050    -1.2520     1.4490 H     1 <1>   0.0800 
 27 H       -6.8510    -3.7270    -1.6410 H     1 <1>   0.0800 
 28 H       -8.0890    -1.6150     1.2010 H     1 <1>   0.0800 
 29 H       -7.3260    -1.5340    -0.3580 H     1 <1>   0.0800 
 30 H       -7.8330    -5.8760    -0.1810 H     1 <1>   0.4000 
 31 H       -9.1220    -2.8330    -1.5650 H     1 <1>   0.0800 
 32 H       -9.7140    -4.3240    -0.9060 H     1 <1>   0.0800 
 33 H      -10.6800    -3.0850     1.0250 H     1 <1>   0.0800 
 34 H      -10.1670    -1.5870     0.3020 H     1 <1>   0.0800 
 35 H      -12.0880    -3.5610    -0.9540 H     1 <1>   0.0800 
 36 H      -11.5650    -2.0620    -1.6910 H     1 <1>   0.0800 
 37 H      -12.5210    -2.0330    -0.2270 H     1 <1>   0.0800 
@<TRIPOS>BOND
  1   1   2  1   
  2   2   3  ar  
  3   2   4  ar  
  4   3   5  ar  
  5   3  21  1   
  6   4   6  ar  
  7   4  22  1   
  8   5   7  ar  
  9   6   7  ar  
 10   7   8  1   
 11   8   9  1   
 12   8  10  1   
 13   9  11  1   
 14   9  23  1   
 15   9  24  1   
 16  10  12  1   
 17  10  25  1   
 18  10  26  1   
 19  11  13  1   
 20  11  14  1   
 21  11  27  1   
 22  12  14  1   
 23  12  28  1   
 24  12  29  1   
 25  13  30  1   
 26  14  15  1   
 27  14  16  1   
 28  15  17  ar  
 29  15  18  ar  
 30  16  19  1   
 31  16  31  1   
 32  16  32  1   
 33  19  20  1   
 34  19  33  1   
 35  19  34  1   
 36  20  35  1   
 37  20  36  1   
 38  20  37  1   
@<TRIPOS>SUBSTRUCTURE
  1 ****   8 GROUP 4 **** **** 0

# MOE 2024.06 (io_trps.svl 2023.06)
