@<TRIPOS>MOLECULE
NONAME
49 50 1 0 0 
SMALL
USER_CHARGES


@<TRIPOS>ATOM
  1 CL      -1.5350    -2.3270     0.0490 Cl    1 <1>  -0.1240 
  2 C       -2.5900    -0.9640    -0.2510 C.2   1 <1>  -0.0280 
  3 N       -2.3660    -0.0560    -1.2170 N.pl3 1 <1>   0.3140 
  4 C       -3.7250    -0.6370     0.3950 C.2   1 <1>  -0.1810 
  5 N       -3.3500     0.8650    -1.2160 N.2   1 <1>  -0.7070 
  6 C       -1.2490    -0.0120    -2.1700 C.3   1 <1>   0.0160 
  7 C       -4.1510     0.5210    -0.2530 C.2   1 <1>   0.1080 
  8 C       -4.3880    -1.3560     1.5420 C.3   1 <1>   0.5240 
  9 C       -5.3940     1.3310     0.0760 C.3   1 <1>   0.0210 
 10 N       -4.8090    -2.7020     1.0790 N.4   1 <1>  -0.9590 
 11 C       -5.1880     2.1850     1.3310 C.3   1 <1>  -0.2400 
 12 C       -5.6490    -2.6960    -0.1660 C.3   1 <1>   0.3430 
 13 C       -5.4930    -3.5350     2.1020 C.3   1 <1>   0.3430 
 14 C       -6.7940    -3.6920     0.0790 C.3   1 <1>   0.2000 
 15 C       -6.4010    -4.4960     1.3240 C.3   1 <1>  -0.0800 
 16 O       -7.9590    -2.9900     0.3630 O.3   1 <1>  -0.6800 
 17 C       -5.7310    -5.8570     0.9960 C.3   1 <1>  -0.0550 
 18 S       -4.2110    -5.7830     0.0410 S.o2  1 <1>   1.3330 
 19 O       -4.5400    -5.2950    -1.2770 O.2   1 <1>  -0.6500 
 20 O       -3.2770    -5.0150     0.8350 O.2   1 <1>  -0.6500 
 21 N       -3.6990    -7.3930    -0.0480 N.am  1 <1>  -0.8490 
 22 C       -2.2400    -7.5180    -0.1400 C.3   1 <1>   0.1160 
 23 C       -4.3300    -8.1510    -1.1360 C.3   1 <1>   0.1160 
 24 H       -0.3210    -0.0200    -1.6290 H     1 <1>   0.0800 
 25 H       -1.3180     0.8880    -2.7530 H     1 <1>   0.0800 
 26 H       -1.3020    -0.8660    -2.8180 H     1 <1>   0.0800 
 27 H       -5.2420    -0.7920     1.8790 H     1 <1>   0.0800 
 28 H       -3.6890    -1.4480     2.3580 H     1 <1>   0.0800 
 29 H       -5.6120     1.9790    -0.7570 H     1 <1>   0.0800 
 30 H       -6.2350     0.6760     0.2060 H     1 <1>   0.0800 
 31 H       -3.9250    -3.2010     0.8360 H     1 <1>   0.4500 
 32 H       -4.3570     2.8530     1.1810 H     1 <1>   0.0800 
 33 H       -4.9860     1.5730     2.1900 H     1 <1>   0.0800 
 34 H       -6.0670     2.7750     1.5240 H     1 <1>   0.0800 
 35 H       -6.0470    -1.7180    -0.3790 H     1 <1>   0.0800 
 36 H       -5.0520    -3.0170    -1.0040 H     1 <1>   0.0800 
 37 H       -4.7810    -4.0670     2.7150 H     1 <1>   0.0800 
 38 H       -6.1020    -2.9080     2.7330 H     1 <1>   0.0800 
 39 H       -6.9860    -4.3030    -0.7890 H     1 <1>   0.0800 
 40 H       -7.2740    -4.7190     1.9140 H     1 <1>   0.0800 
 41 H       -7.9130    -2.4730     1.1880 H     1 <1>   0.4000 
 42 H       -6.4400    -6.4630     0.4640 H     1 <1>   0.0800 
 43 H       -5.5220    -6.3640     1.9190 H     1 <1>   0.0800 
 44 H       -1.9550    -8.5560    -0.1600 H     1 <1>   0.0800 
 45 H       -1.7730    -7.0600     0.7160 H     1 <1>   0.0800 
 46 H       -1.8760    -7.0350    -1.0320 H     1 <1>   0.0800 
 47 H       -4.0280    -9.1840    -1.0910 H     1 <1>   0.0800 
 48 H       -4.0450    -7.7460    -2.0940 H     1 <1>   0.0800 
 49 H       -5.4020    -8.1100    -1.0480 H     1 <1>   0.0800 
@<TRIPOS>BOND
  1   1   2  1   
  2   2   3  1   
  3   2   4  2   
  4   3   5  1   
  5   3   6  1   
  6   4   7  1   
  7   4   8  1   
  8   5   7  2   
  9   6  24  1   
 10   6  25  1   
 11   6  26  1   
 12   7   9  1   
 13   8  10  1   
 14   8  27  1   
 15   8  28  1   
 16   9  11  1   
 17   9  29  1   
 18   9  30  1   
 19  10  12  1   
 20  10  13  1   
 21  10  31  1   
 22  11  32  1   
 23  11  33  1   
 24  11  34  1   
 25  12  14  1   
 26  12  35  1   
 27  12  36  1   
 28  13  15  1   
 29  13  37  1   
 30  13  38  1   
 31  14  15  1   
 32  14  16  1   
 33  14  39  1   
 34  15  17  1   
 35  15  40  1   
 36  16  41  1   
 37  17  18  1   
 38  17  42  1   
 39  17  43  1   
 40  18  19  2   
 41  18  20  2   
 42  18  21  am  
 43  21  22  1   
 44  21  23  1   
 45  22  44  1   
 46  22  45  1   
 47  22  46  1   
 48  23  47  1   
 49  23  48  1   
 50  23  49  1   
@<TRIPOS>SUBSTRUCTURE
  1 ****  10 GROUP 4 **** **** 0

# MOE 2024.06 (io_trps.svl 2023.06)
