@<TRIPOS>MOLECULE
NONAME
49 51 1 0 0 
SMALL
USER_CHARGES


@<TRIPOS>ATOM
  1 O       -1.0600    -0.1110     0.4410 O.2   1 <1>  -0.5700 
  2 C       -1.7120     0.7260    -0.1570 C.2   1 <1>   0.5440 
  3 N       -2.8520     0.2940    -0.8000 N.am  1 <1>  -0.6600 
  4 C       -1.3140     2.1170    -0.1420 C.ar  1 <1>   0.0860 
  5 C       -3.0050    -1.1550    -1.0980 C.3   1 <1>   0.1400 
  6 C       -4.1490     0.9980    -0.6020 C.3   1 <1>   0.1400 
  7 C       -1.5760     2.9570    -1.2220 C.ar  1 <1>   0.1600 
  8 C       -0.6550     2.6820     0.9430 C.ar  1 <1>  -0.1500 
  9 C       -3.6970    -1.8360     0.1040 C.3   1 <1>   0.4230 
 10 C       -4.8700     0.3450     0.5850 C.3   1 <1>  -0.1600 
 11 N       -1.2860     4.2430    -1.2960 N.ar  1 <1>  -0.6200 
 12 C       -0.3330     4.0190     0.8870 C.ar  1 <1>  -0.1500 
 13 N       -3.7220    -3.3560     0.0240 N.4   1 <1>  -0.9590 
 14 C       -5.0800    -1.1900     0.4240 C.3   1 <1>   0.0000 
 15 C       -0.6700     4.7610    -0.2440 C.ar  1 <1>   0.3930 
 16 C       -4.7220    -4.0000     0.9370 C.3   1 <1>   0.3430 
 17 C       -3.8410    -3.9310    -1.3560 C.3   1 <1>   0.2630 
 18 C       -5.6150    -1.7640     1.7690 C.3   1 <1>  -0.1600 
 19 C       -6.0850    -1.4800    -0.7270 C.3   1 <1>   0.1200 
 20 O       -0.3920     6.0730    -0.3560 O.3   1 <1>  -0.3630 
 21 C       -4.9970    -3.1220     2.1570 C.3   1 <1>  -0.1600 
 22 O       -7.2500    -0.7460    -0.5870 O.3   1 <1>  -0.6800 
 23 C        0.2970     6.8080     0.6300 C.3   1 <1>   0.0400 
 24 H       -3.5720    -1.2650    -2.0030 H     1 <1>   0.0800 
 25 H       -2.0310    -1.5880    -1.2520 H     1 <1>   0.0800 
 26 H       -3.9900     2.0430    -0.3930 H     1 <1>   0.0800 
 27 H       -4.7460     0.9290    -1.4970 H     1 <1>   0.0800 
 28 H       -2.0620     2.5330    -2.0840 H     1 <1>   0.1500 
 29 H       -0.4050     2.0810     1.8010 H     1 <1>   0.1500 
 30 H       -3.0720    -1.5940     0.9490 H     1 <1>   0.0800 
 31 H       -4.2790     0.5420     1.4640 H     1 <1>   0.0800 
 32 H       -5.8110     0.8460     0.7350 H     1 <1>   0.0800 
 33 H        0.1740     4.4700     1.7170 H     1 <1>   0.1500 
 34 H       -2.7960    -3.6360     0.3820 H     1 <1>   0.4500 
 35 H       -5.6510    -4.1530     0.4110 H     1 <1>   0.0800 
 36 H       -4.3600    -4.9650     1.2550 H     1 <1>   0.0800 
 37 H       -4.7720    -3.6340    -1.8100 H     1 <1>   0.0800 
 38 H       -3.8080    -5.0080    -1.3150 H     1 <1>   0.0800 
 39 H       -3.0280    -3.5940    -1.9780 H     1 <1>   0.0800 
 40 H       -5.4170    -1.0820     2.5790 H     1 <1>   0.0800 
 41 H       -6.6850    -1.8690     1.7260 H     1 <1>   0.0800 
 42 H       -6.3620    -2.5180    -0.7580 H     1 <1>   0.0800 
 43 H       -5.6760    -1.2100    -1.6840 H     1 <1>   0.0800 
 44 H       -5.6700    -3.6380     2.8210 H     1 <1>   0.0800 
 45 H       -4.0770    -2.9710     2.6960 H     1 <1>   0.0800 
 46 H       -7.7330    -0.9670     0.2340 H     1 <1>   0.4000 
 47 H        0.3970     7.8200     0.2790 H     1 <1>   0.0800 
 48 H        1.2700     6.3750     0.7740 H     1 <1>   0.0800 
 49 H       -0.2740     6.7940     1.5410 H     1 <1>   0.0800 
@<TRIPOS>BOND
  1   1   2  2   
  2   2   3  am  
  3   2   4  1   
  4   3   5  1   
  5   3   6  1   
  6   4   7  ar  
  7   4   8  ar  
  8   5   9  1   
  9   5  24  1   
 10   5  25  1   
 11   6  10  1   
 12   6  26  1   
 13   6  27  1   
 14   7  11  ar  
 15   7  28  1   
 16   8  12  ar  
 17   8  29  1   
 18   9  13  1   
 19   9  14  1   
 20   9  30  1   
 21  10  14  1   
 22  10  31  1   
 23  10  32  1   
 24  11  15  ar  
 25  12  15  ar  
 26  12  33  1   
 27  13  16  1   
 28  13  17  1   
 29  13  34  1   
 30  14  18  1   
 31  14  19  1   
 32  15  20  1   
 33  16  21  1   
 34  16  35  1   
 35  16  36  1   
 36  17  37  1   
 37  17  38  1   
 38  17  39  1   
 39  18  21  1   
 40  18  40  1   
 41  18  41  1   
 42  19  22  1   
 43  19  42  1   
 44  19  43  1   
 45  20  23  1   
 46  21  44  1   
 47  21  45  1   
 48  22  46  1   
 49  23  47  1   
 50  23  48  1   
 51  23  49  1   
@<TRIPOS>SUBSTRUCTURE
  1 ****   3 GROUP 4 **** **** 0

# MOE 2024.06 (io_trps.svl 2023.06)
