@<TRIPOS>MOLECULE
NONAME
47 50 1 0 0 
SMALL
USER_CHARGES


@<TRIPOS>ATOM
  1 F       -0.5940     0.8470     1.9260 F     1 <1>  -0.1900 
  2 C       -1.0040     1.9840     1.4230 C.ar  1 <1>   0.1900 
  3 C       -0.0770     2.8750     0.9480 C.ar  1 <1>  -0.1500 
  4 C       -2.3790     2.2290     1.3980 C.ar  1 <1>  -0.1500 
  5 C       -0.5440     4.0840     0.4180 C.ar  1 <1>   0.0000 
  6 C       -2.8370     3.4160     0.8750 C.ar  1 <1>  -0.1500 
  7 C       -1.9110     4.3490     0.3850 C.ar  1 <1>  -0.1520 
  8 C        0.0900     5.2010    -0.1470 C.2   1 <1>  -0.1500 
  9 N       -2.0970     5.5880    -0.1820 N.pl3 1 <1>   0.0480 
 10 C       -0.8620     6.1180    -0.4940 C.2   1 <1>  -0.2370 
 11 C       -3.4090     6.1980    -0.4880 C.3   1 <1>   0.0160 
 12 C       -0.6970     7.4180    -1.0930 C.2   1 <1>   0.7150 
 13 O       -1.3140     7.7030    -2.0980 O.2   1 <1>  -0.5700 
 14 N        0.1610     8.3570    -0.5580 N.am  1 <1>  -0.6600 
 15 C        0.7010     8.2320     0.8470 C.3   1 <1>   0.2200 
 16 C        0.4160     9.6160    -1.3310 C.3   1 <1>   0.1400 
 17 C        0.3980     9.4650     1.7160 C.3   1 <1>   0.1200 
 18 C        2.2190     7.9280     0.8310 C.3   1 <1>   0.3430 
 19 C        1.6020    10.4680    -0.8380 C.3   1 <1>  -0.0800 
 20 O        1.3890    10.4360     1.5610 O.3   1 <1>  -0.5600 
 21 N        2.8600     8.2650    -0.4900 N.4   1 <1>  -0.9590 
 22 C        1.2640    11.2460     0.4420 C.3   1 <1>   0.1200 
 23 C        2.9590     9.7410    -0.7340 C.3   1 <1>   0.3430 
 24 C        4.1860     7.6000    -0.6410 C.3   1 <1>   0.2630 
 25 H        0.9730     2.6550     0.9760 H     1 <1>   0.1500 
 26 H       -3.0520     1.4850     1.7850 H     1 <1>   0.1500 
 27 H       -3.8910     3.6260     0.8410 H     1 <1>   0.1500 
 28 H        1.1530     5.2660    -0.2810 H     1 <1>   0.1500 
 29 H       -3.3620     7.2600    -0.3320 H     1 <1>   0.0800 
 30 H       -4.1670     5.7830     0.1490 H     1 <1>   0.0800 
 31 H       -3.6550     6.0020    -1.5160 H     1 <1>   0.0800 
 32 H        0.2090     7.4150     1.3440 H     1 <1>   0.0800 
 33 H        0.5900     9.3520    -2.3620 H     1 <1>   0.0800 
 34 H       -0.4820    10.2120    -1.3150 H     1 <1>   0.0800 
 35 H        0.4160     9.1770     2.7530 H     1 <1>   0.0800 
 36 H       -0.5720     9.8800     1.5000 H     1 <1>   0.0800 
 37 H        2.3440     6.8770     1.0270 H     1 <1>   0.0800 
 38 H        2.7040     8.4650     1.6300 H     1 <1>   0.0800 
 39 H        1.7340    11.2320    -1.5840 H     1 <1>   0.0800 
 40 H        2.1970     7.9040    -1.1970 H     1 <1>   0.4500 
 41 H        0.2690    11.6610     0.4120 H     1 <1>   0.0800 
 42 H        1.9590    12.0590     0.5700 H     1 <1>   0.0800 
 43 H        3.5430    10.1990     0.0480 H     1 <1>   0.0800 
 44 H        3.4850     9.8950    -1.6620 H     1 <1>   0.0800 
 45 H        4.8760     7.9670     0.1020 H     1 <1>   0.0800 
 46 H        4.5950     7.7980    -1.6190 H     1 <1>   0.0800 
 47 H        4.0860     6.5330    -0.5230 H     1 <1>   0.0800 
@<TRIPOS>BOND
  1   1   2  1   
  2   2   3  ar  
  3   2   4  ar  
  4   3   5  ar  
  5   3  25  1   
  6   4   6  ar  
  7   4  26  1   
  8   5   7  ar  
  9   5   8  1   
 10   6   7  ar  
 11   6  27  1   
 12   7   9  1   
 13   8  10  2   
 14   8  28  1   
 15   9  10  1   
 16   9  11  1   
 17  10  12  1   
 18  11  29  1   
 19  11  30  1   
 20  11  31  1   
 21  12  13  2   
 22  12  14  am  
 23  14  15  1   
 24  14  16  1   
 25  15  17  1   
 26  15  18  1   
 27  15  32  1   
 28  16  19  1   
 29  16  33  1   
 30  16  34  1   
 31  17  20  1   
 32  17  35  1   
 33  17  36  1   
 34  18  21  1   
 35  18  37  1   
 36  18  38  1   
 37  19  22  1   
 38  19  23  1   
 39  19  39  1   
 40  20  22  1   
 41  21  23  1   
 42  21  24  1   
 43  21  40  1   
 44  22  41  1   
 45  22  42  1   
 46  23  43  1   
 47  23  44  1   
 48  24  45  1   
 49  24  46  1   
 50  24  47  1   
@<TRIPOS>SUBSTRUCTURE
  1 ****  10 GROUP 4 **** **** 0

# MOE 2024.06 (io_trps.svl 2023.06)
