@<TRIPOS>MOLECULE
NONAME
40 41 1 0 0 
SMALL
USER_CHARGES


@<TRIPOS>ATOM
  1 O       -1.0670    -0.4930     2.1000 O.co2 1 <1>  -0.9000 
  2 C       -2.0700    -0.3800     1.3930 C.2   1 <1>   0.9060 
  3 O       -3.2200    -0.4900     1.8320 O.co2 1 <1>  -0.9000 
  4 C       -1.8590     0.1620    -0.0320 C.3   1 <1>   0.3170 
  5 N       -1.9950     1.6820    -0.1030 N.4   1 <1>  -0.9590 
  6 C       -2.8200    -0.5250    -1.0340 C.3   1 <1>   0.1200 
  7 C       -3.4410     2.0280     0.1110 C.3   1 <1>   0.3430 
  8 C       -1.1170     2.3180     0.9110 C.3   1 <1>   0.5240 
  9 O       -3.6190     0.4160    -1.7120 O.3   1 <1>  -0.5600 
 10 C       -4.3630     1.2240    -0.8350 C.3   1 <1>   0.1200 
 11 C       -1.1930     3.8140     0.7030 C.2   1 <1>  -0.1810 
 12 C       -0.6980     4.5930    -0.2870 C.2   1 <1>  -0.3320 
 13 C       -1.8530     4.6900     1.5540 C.2   1 <1>   0.1390 
 14 N       -1.0740     5.8640    -0.0020 N.pl3 1 <1>   0.3140 
 15 C        0.1300     4.2000    -1.5030 C.3   1 <1>  -0.0600 
 16 N       -1.7960     5.9120     1.1320 N.2   1 <1>  -0.7070 
 17 C       -0.7750     7.0950    -0.7650 C.3   1 <1>   0.0960 
 18 C        0.5500     7.7190    -0.3060 C.3   1 <1>  -0.1600 
 19 C        0.8770     8.9850    -1.1050 C.3   1 <1>  -0.2400 
 20 H       -0.8540    -0.1130    -0.2930 H     1 <1>   0.0800 
 21 H       -1.7410     1.9960    -1.0410 H     1 <1>   0.4500 
 22 H       -3.4690    -1.2270    -0.5360 H     1 <1>   0.0800 
 23 H       -2.2540    -1.0660    -1.7710 H     1 <1>   0.0800 
 24 H       -3.7210     1.8010     1.1280 H     1 <1>   0.0800 
 25 H       -3.5970     3.0820    -0.0440 H     1 <1>   0.0800 
 26 H       -1.4390     2.0570     1.9080 H     1 <1>   0.0800 
 27 H       -0.1010     1.9820     0.7860 H     1 <1>   0.0800 
 28 H       -4.9640     1.8920    -1.4260 H     1 <1>   0.0800 
 29 H       -5.0190     0.5920    -0.2600 H     1 <1>   0.0800 
 30 H       -2.3620     4.4070     2.4610 H     1 <1>   0.1500 
 31 H        0.3500     3.1480    -1.4930 H     1 <1>   0.0800 
 32 H        1.0620     4.7360    -1.5050 H     1 <1>   0.0800 
 33 H       -0.4040     4.4310    -2.4080 H     1 <1>   0.0800 
 34 H       -0.7360     6.8550    -1.8100 H     1 <1>   0.0800 
 35 H       -1.5800     7.7890    -0.6040 H     1 <1>   0.0800 
 36 H        0.4760     7.9700     0.7400 H     1 <1>   0.0800 
 37 H        1.3490     7.0080    -0.4280 H     1 <1>   0.0800 
 38 H        0.1030     9.7210    -0.9780 H     1 <1>   0.0800 
 39 H        0.9750     8.7600    -2.1520 H     1 <1>   0.0800 
 40 H        1.8050     9.4070    -0.7590 H     1 <1>   0.0800 
@<TRIPOS>BOND
  1   1   2  ar  
  2   2   3  ar  
  3   2   4  1   
  4   4   5  1   
  5   4   6  1   
  6   4  20  1   
  7   5   7  1   
  8   5   8  1   
  9   5  21  1   
 10   6   9  1   
 11   6  22  1   
 12   6  23  1   
 13   7  10  1   
 14   7  24  1   
 15   7  25  1   
 16   8  11  1   
 17   8  26  1   
 18   8  27  1   
 19   9  10  1   
 20  10  28  1   
 21  10  29  1   
 22  11  12  2   
 23  11  13  1   
 24  12  14  1   
 25  12  15  1   
 26  13  16  2   
 27  13  30  1   
 28  14  16  1   
 29  14  17  1   
 30  15  31  1   
 31  15  32  1   
 32  15  33  1   
 33  17  18  1   
 34  17  34  1   
 35  17  35  1   
 36  18  19  1   
 37  18  36  1   
 38  18  37  1   
 39  19  38  1   
 40  19  39  1   
 41  19  40  1   
@<TRIPOS>SUBSTRUCTURE
  1 ****  11 GROUP 4 **** **** 0

# MOE 2024.06 (io_trps.svl 2023.06)
