@<TRIPOS>MOLECULE
NONAME
49 52 1 0 0 
SMALL
USER_CHARGES


@<TRIPOS>ATOM
  1 O       -0.1560     0.8810    -0.9290 O.2   1 <1>  -0.5700 
  2 C       -0.2010     2.0810    -0.7810 C.2   1 <1>   0.5690 
  3 N       -1.2800     2.7260    -0.2350 N.am  1 <1>  -0.5090 
  4 C        0.9980     2.8950    -1.2680 C.3   1 <1>   0.1810 
  5 C       -1.3770     4.2220    -0.2310 C.3   1 <1>   0.3640 
  6 C       -2.4150     1.9980     0.3860 C.3   1 <1>   0.0490 
  7 O        1.0060     4.2140    -0.7800 O.3   1 <1>  -0.5600 
  8 C       -2.7020     4.6600    -0.8570 C.ar  1 <1>  -0.1440 
  9 C       -0.2070     4.9100    -0.9800 C.3   1 <1>   0.2610 
 10 C       -2.7610     2.2850     1.8150 C.3   1 <1>  -0.2000 
 11 C       -2.1430     0.9750     1.4440 C.3   1 <1>  -0.2000 
 12 C       -3.4780     5.6240    -0.2260 C.ar  1 <1>   0.1600 
 13 C       -3.1550     4.1260    -2.0500 C.ar  1 <1>  -0.1500 
 14 C       -0.0600     6.3900    -0.5800 C.2   1 <1>   0.5690 
 15 N       -4.6350     6.0810    -0.6780 N.ar  1 <1>  -0.6200 
 16 C       -4.3590     4.5920    -2.5330 C.ar  1 <1>  -0.1500 
 17 O       -0.6300     6.7830     0.4150 O.2   1 <1>  -0.5700 
 18 N        0.6950     7.2540    -1.3400 N.am  1 <1>  -0.6600 
 19 C       -5.0480     5.5560    -1.8180 C.ar  1 <1>   0.1600 
 20 C        0.8730     8.6710    -0.9080 C.3   1 <1>   0.3200 
 21 C        1.5920     6.8210    -2.4510 C.3   1 <1>   0.0600 
 22 C        2.2260     8.8560    -0.2480 C.2   1 <1>  -0.0400 
 23 O        3.2990     9.0000    -0.9790 O.3   1 <1>  -0.0190 
 24 C        2.5940     8.9090     1.0400 C.2   1 <1>  -0.1500 
 25 N        4.3660     9.1450    -0.2490 N.2   1 <1>  -0.4100 
 26 C        3.9720     9.0930     0.9730 C.2   1 <1>   0.1080 
 27 C        4.8890     9.2140     2.1700 C.3   1 <1>  -0.0590 
 28 H        0.9990     2.9270    -2.3420 H     1 <1>   0.0800 
 29 H        1.9040     2.4210    -0.9360 H     1 <1>   0.0800 
 30 H       -1.3540     4.5320     0.7980 H     1 <1>   0.0800 
 31 H       -3.2150     1.8050    -0.3100 H     1 <1>   0.1000 
 32 H       -0.4230     4.8820    -2.0310 H     1 <1>   0.0800 
 33 H       -2.1650     2.9700     2.3910 H     1 <1>   0.1000 
 34 H       -3.7970     2.2940     2.1020 H     1 <1>   0.1000 
 35 H       -2.7550     0.0910     1.4680 H     1 <1>   0.1000 
 36 H       -1.1210     0.7770     1.7140 H     1 <1>   0.1000 
 37 H       -3.1290     6.0490     0.7010 H     1 <1>   0.1500 
 38 H       -2.6030     3.3710    -2.5840 H     1 <1>   0.1500 
 39 H       -4.7640     4.2130    -3.4540 H     1 <1>   0.1500 
 40 H       -5.9880     5.9120    -2.2040 H     1 <1>   0.1500 
 41 H        0.7920     9.3240    -1.7590 H     1 <1>   0.0800 
 42 H        0.1020     8.9510    -0.2110 H     1 <1>   0.0800 
 43 H        1.7790     7.6430    -3.1200 H     1 <1>   0.0800 
 44 H        1.1530     6.0200    -3.0170 H     1 <1>   0.0800 
 45 H        2.5320     6.4870    -2.0430 H     1 <1>   0.0800 
 46 H        1.9950     8.8240     1.9280 H     1 <1>   0.1500 
 47 H        4.8140     8.3320     2.7780 H     1 <1>   0.0800 
 48 H        4.6140    10.0730     2.7540 H     1 <1>   0.0800 
 49 H        5.9070     9.3260     1.8420 H     1 <1>   0.0800 
@<TRIPOS>BOND
  1   1   2  2   
  2   2   3  am  
  3   2   4  1   
  4   3   5  1   
  5   3   6  1   
  6   4   7  1   
  7   4  28  1   
  8   4  29  1   
  9   5   8  1   
 10   5   9  1   
 11   5  30  1   
 12   6  10  1   
 13   6  11  1   
 14   6  31  1   
 15   7   9  1   
 16   8  12  ar  
 17   8  13  ar  
 18   9  14  1   
 19   9  32  1   
 20  10  11  1   
 21  10  33  1   
 22  10  34  1   
 23  11  35  1   
 24  11  36  1   
 25  12  15  ar  
 26  12  37  1   
 27  13  16  ar  
 28  13  38  1   
 29  14  17  2   
 30  14  18  am  
 31  15  19  ar  
 32  16  19  ar  
 33  16  39  1   
 34  18  20  1   
 35  18  21  1   
 36  19  40  1   
 37  20  22  1   
 38  20  41  1   
 39  20  42  1   
 40  21  43  1   
 41  21  44  1   
 42  21  45  1   
 43  22  23  1   
 44  22  24  2   
 45  23  25  1   
 46  24  26  1   
 47  24  46  1   
 48  25  26  2   
 49  26  27  1   
 50  27  47  1   
 51  27  48  1   
 52  27  49  1   
@<TRIPOS>SUBSTRUCTURE
  1 ****   9 GROUP 4 **** **** 0

# MOE 2024.06 (io_trps.svl 2023.06)
