@<TRIPOS>MOLECULE
NONAME
51 53 1 0 0 
SMALL
USER_CHARGES


@<TRIPOS>ATOM
  1 S        0.7070    -0.9540     0.7400 S.o2  1 <1>   1.5010 
  2 O        1.5940    -2.0950     0.7930 O.2   1 <1>  -0.6500 
  3 O       -0.0800    -0.6140     1.9040 O.2   1 <1>  -0.6500 
  4 N       -0.3640    -1.2120    -0.5520 N.am  1 <1>  -0.8490 
  5 C        1.6440     0.4900     0.1830 C.2   1 <1>  -0.0630 
  6 C       -1.4710    -0.2320    -0.6410 C.3   1 <1>   0.1960 
  7 C       -0.9100    -2.5800    -0.5970 C.3   1 <1>   0.1960 
  8 C        2.5960     0.4890    -0.7720 C.2   1 <1>  -0.1100 
  9 C        1.4160     1.8020     0.7110 C.2   1 <1>  -0.1500 
 10 C       -2.6730    -0.5280     0.3010 C.3   1 <1>   0.2950 
 11 C       -2.0630    -2.7950     0.4130 C.3   1 <1>   0.2000 
 12 S        3.2360     2.0940    -1.0420 S.3   1 <1>  -0.0800 
 13 C        2.1700     2.7960     0.1770 C.2   1 <1>  -0.0450 
 14 O       -3.0710    -1.8610     0.1620 O.3   1 <1>  -0.5600 
 15 C       -3.9210     0.3340     0.0400 C.3   1 <1>  -0.1950 
 16 C       -2.7100    -4.1820     0.3040 C.3   1 <1>  -0.1600 
 17 C        2.2140     4.2120     0.4410 C.2   1 <1>   0.7150 
 18 C       -4.4560     0.6540    -1.3220 C.3   1 <1>  -0.2000 
 19 C       -3.8620     1.7430    -0.4700 C.3   1 <1>  -0.2000 
 20 C       -1.7610    -5.3210     0.7100 C.3   1 <1>  -0.1600 
 21 O        1.4310     4.7110     1.2260 O.2   1 <1>  -0.5700 
 22 N        3.1290     5.0110    -0.1850 N.am  1 <1>  -0.7300 
 23 C       -2.4840    -6.6730     0.6830 C.3   1 <1>  -0.1600 
 24 C        3.2810     6.4780    -0.0030 C.3   1 <1>   0.0600 
 25 C       -1.5400    -7.8100     1.0840 C.3   1 <1>  -0.2400 
 26 H       -1.1000     0.7580    -0.4430 H     1 <1>   0.0800 
 27 H       -1.8310    -0.2360    -1.6540 H     1 <1>   0.0800 
 28 H       -1.2910    -2.7680    -1.5860 H     1 <1>   0.0800 
 29 H       -0.1260    -3.2960    -0.4220 H     1 <1>   0.0800 
 30 H        2.9970    -0.3160    -1.3640 H     1 <1>   0.1500 
 31 H        0.6840     1.9630     1.4870 H     1 <1>   0.1500 
 32 H       -2.3830    -0.3770     1.3250 H     1 <1>   0.0800 
 33 H       -1.7120    -2.6500     1.4210 H     1 <1>   0.0800 
 34 H       -4.6570     0.1460     0.8020 H     1 <1>   0.1000 
 35 H       -3.5680    -4.2000     0.9540 H     1 <1>   0.0800 
 36 H       -3.0510    -4.3370    -0.7050 H     1 <1>   0.0800 
 37 H       -3.9240     0.3210    -2.1950 H     1 <1>   0.1000 
 38 H       -5.5230     0.6270    -1.4650 H     1 <1>   0.1000 
 39 H       -4.5240     2.4730    -0.0350 H     1 <1>   0.1000 
 40 H       -2.9330     2.1810    -0.7890 H     1 <1>   0.1000 
 41 H       -0.9210    -5.3620     0.0390 H     1 <1>   0.0800 
 42 H       -1.3870    -5.1390     1.7040 H     1 <1>   0.0800 
 43 H        3.7790     4.5640    -0.8340 H     1 <1>   0.3700 
 44 H       -3.3200    -6.6510     1.3610 H     1 <1>   0.0800 
 45 H       -2.8640    -6.8610    -0.3070 H     1 <1>   0.0800 
 46 H        2.5540     6.8490     0.7000 H     1 <1>   0.0800 
 47 H        3.1390     6.9790    -0.9450 H     1 <1>   0.0800 
 48 H        4.2660     6.6980     0.3710 H     1 <1>   0.0800 
 49 H       -1.1650    -7.6530     2.0810 H     1 <1>   0.0800 
 50 H       -0.7080    -7.8670     0.4050 H     1 <1>   0.0800 
 51 H       -2.0650    -8.7480     1.0610 H     1 <1>   0.0800 
@<TRIPOS>BOND
  1   1   2  2   
  2   1   3  2   
  3   1   4  am  
  4   1   5  1   
  5   4   6  1   
  6   4   7  1   
  7   5   8  2   
  8   5   9  1   
  9   6  10  1   
 10   6  26  1   
 11   6  27  1   
 12   7  11  1   
 13   7  28  1   
 14   7  29  1   
 15   8  12  1   
 16   8  30  1   
 17   9  13  2   
 18   9  31  1   
 19  10  14  1   
 20  10  15  1   
 21  10  32  1   
 22  11  14  1   
 23  11  16  1   
 24  11  33  1   
 25  12  13  1   
 26  13  17  1   
 27  15  18  1   
 28  15  19  1   
 29  15  34  1   
 30  16  20  1   
 31  16  35  1   
 32  16  36  1   
 33  17  21  2   
 34  17  22  am  
 35  18  19  1   
 36  18  37  1   
 37  18  38  1   
 38  19  39  1   
 39  19  40  1   
 40  20  23  1   
 41  20  41  1   
 42  20  42  1   
 43  22  24  1   
 44  22  43  1   
 45  23  25  1   
 46  23  44  1   
 47  23  45  1   
 48  24  46  1   
 49  24  47  1   
 50  24  48  1   
 51  25  49  1   
 52  25  50  1   
 53  25  51  1   
@<TRIPOS>SUBSTRUCTURE
  1 ****   4 GROUP 4 **** **** 0

# MOE 2024.06 (io_trps.svl 2023.06)
