@<TRIPOS>MOLECULE
NONAME
45 47 1 0 0 
SMALL
USER_CHARGES


@<TRIPOS>ATOM
  1 O       -2.5140     0.9130    -1.8800 O.2   1 <1>  -0.5700 
  2 C       -2.0960     0.8850    -0.7470 C.2   1 <1>   0.5690 
  3 N       -1.9950    -0.2820    -0.0640 N.am  1 <1>  -0.7300 
  4 C       -1.6860     2.1810    -0.0480 C.3   1 <1>  -0.0190 
  5 C       -2.3730    -1.6050    -0.6060 C.3   1 <1>   0.2200 
  6 C       -2.9120     3.0720     0.2300 C.3   1 <1>  -0.1600 
  7 C       -0.6270     2.9530    -0.8590 C.3   1 <1>  -0.1600 
  8 C       -3.7520    -1.9770    -0.0920 C.3   1 <1>  -0.0800 
  9 C       -1.5030    -2.6860     0.0240 C.3   1 <1>   0.1200 
 10 C       -2.5120     4.3810     0.9260 C.3   1 <1>  -0.1600 
 11 C       -0.2270     4.2620    -0.1620 C.3   1 <1>  -0.1600 
 12 C       -3.4350    -2.5900     1.2770 C.3   1 <1>   0.1200 
 13 C       -4.4540    -2.9740    -1.0330 C.3   1 <1>  -0.0170 
 14 O       -2.0940    -2.9880     1.2520 O.3   1 <1>  -0.5600 
 15 C       -1.4550     5.1390     0.1140 C.3   1 <1>  -0.1600 
 16 C       -5.8510    -3.3150    -0.5380 C.ar  1 <1>  -0.1440 
 17 C       -6.8980    -2.4240    -0.6570 C.ar  1 <1>  -0.1500 
 18 C       -6.1470    -4.5280     0.0520 C.ar  1 <1>  -0.1500 
 19 C       -8.1540    -2.7750    -0.1890 C.ar  1 <1>   0.1600 
 20 C       -7.4380    -4.7800     0.4870 C.ar  1 <1>   0.1600 
 21 N       -8.4480    -3.9320     0.3820 N.ar  1 <1>  -0.6200 
 22 H       -1.6880    -0.2950     0.9110 H     1 <1>   0.3700 
 23 H       -1.2460     1.9220     0.8980 H     1 <1>   0.0800 
 24 H       -2.3050    -1.5990    -1.6820 H     1 <1>   0.0800 
 25 H       -3.4000     3.3010    -0.7020 H     1 <1>   0.0800 
 26 H       -3.6150     2.5370     0.8450 H     1 <1>   0.0800 
 27 H        0.2440     2.3360    -0.9950 H     1 <1>   0.0800 
 28 H       -1.0230     3.1800    -1.8340 H     1 <1>   0.0800 
 29 H       -4.3750    -1.1060     0.0110 H     1 <1>   0.0800 
 30 H       -0.4870    -2.3670     0.1770 H     1 <1>   0.0800 
 31 H       -1.5170    -3.5810    -0.5740 H     1 <1>   0.0800 
 32 H       -3.3830     5.0020     1.0510 H     1 <1>   0.0800 
 33 H       -2.1210     4.1620     1.9050 H     1 <1>   0.0800 
 34 H        0.2670     4.0360     0.7680 H     1 <1>   0.0800 
 35 H        0.4680     4.8010    -0.7820 H     1 <1>   0.0800 
 36 H       -4.0480    -3.4430     1.5110 H     1 <1>   0.0800 
 37 H       -3.5400    -1.8540     2.0550 H     1 <1>   0.0800 
 38 H       -3.8730    -3.8750    -1.1250 H     1 <1>   0.0800 
 39 H       -4.5360    -2.5390    -2.0140 H     1 <1>   0.0800 
 40 H       -1.1540     6.0230     0.6490 H     1 <1>   0.0800 
 41 H       -1.8840     5.4520    -0.8230 H     1 <1>   0.0800 
 42 H       -6.7500    -1.4600    -1.1090 H     1 <1>   0.1500 
 43 H       -5.3890    -5.2790     0.1790 H     1 <1>   0.1500 
 44 H       -8.9580    -2.0670    -0.2900 H     1 <1>   0.1500 
 45 H       -7.6510    -5.7310     0.9450 H     1 <1>   0.1500 
@<TRIPOS>BOND
  1   1   2  2   
  2   2   3  am  
  3   2   4  1   
  4   3   5  1   
  5   3  22  1   
  6   4   6  1   
  7   4   7  1   
  8   4  23  1   
  9   5   8  1   
 10   5   9  1   
 11   5  24  1   
 12   6  10  1   
 13   6  25  1   
 14   6  26  1   
 15   7  11  1   
 16   7  27  1   
 17   7  28  1   
 18   8  12  1   
 19   8  13  1   
 20   8  29  1   
 21   9  14  1   
 22   9  30  1   
 23   9  31  1   
 24  10  15  1   
 25  10  32  1   
 26  10  33  1   
 27  11  15  1   
 28  11  34  1   
 29  11  35  1   
 30  12  14  1   
 31  12  36  1   
 32  12  37  1   
 33  13  16  1   
 34  13  38  1   
 35  13  39  1   
 36  15  40  1   
 37  15  41  1   
 38  16  17  ar  
 39  16  18  ar  
 40  17  19  ar  
 41  17  42  1   
 42  18  20  ar  
 43  18  43  1   
 44  19  21  ar  
 45  19  44  1   
 46  20  21  ar  
 47  20  45  1   
@<TRIPOS>SUBSTRUCTURE
  1 ****   8 GROUP 4 **** **** 0

# MOE 2024.06 (io_trps.svl 2023.06)
