@<TRIPOS>MOLECULE
NONAME
45 47 1 0 0 
SMALL
USER_CHARGES


@<TRIPOS>ATOM
  1 O       -0.2330     0.1600    -0.0930 O.2   1 <1>  -0.5700 
  2 C       -1.2920     0.7400    -0.1400 C.2   1 <1>   0.5690 
  3 N       -2.4730     0.0630    -0.2580 N.am  1 <1>  -0.6600 
  4 C       -1.3090     2.2570    -0.0640 C.3   1 <1>  -0.0990 
  5 C       -3.8320     0.6570    -0.2830 C.3   1 <1>   0.1400 
  6 C       -2.5440    -1.4160    -0.3320 C.3   1 <1>   0.1400 
  7 C        0.0970     2.8530     0.0030 C.3   1 <1>   0.1200 
  8 C       -4.7840    -0.5350    -0.4060 C.3   1 <1>   0.2000 
  9 C       -3.9870    -1.7590     0.0430 C.3   1 <1>  -0.0800 
 10 O       -0.0220     4.2570     0.0630 O.3   1 <1>  -0.3630 
 11 O       -5.9020    -0.3790     0.3990 O.3   1 <1>  -0.6800 
 12 C       -4.5110    -3.0640    -0.5820 C.3   1 <1>  -0.0170 
 13 C        1.0770     5.0500     0.1280 C.ar  1 <1>   0.0820 
 14 C       -3.7360    -4.2780    -0.0950 C.ar  1 <1>   0.1670 
 15 C        2.3830     4.5650     0.1440 C.ar  1 <1>  -0.1500 
 16 C        0.8590     6.4170     0.1810 C.ar  1 <1>  -0.1500 
 17 N       -2.5880    -4.5290    -0.7040 N.ar  1 <1>  -0.6200 
 18 C       -4.2420    -5.0590     0.9430 C.ar  1 <1>   0.1600 
 19 C        3.4490     5.4470     0.2110 C.ar  1 <1>  -0.1500 
 20 C        1.9250     7.2970     0.2490 C.ar  1 <1>  -0.1500 
 21 C       -1.9860    -5.5980    -0.2100 C.ar  1 <1>   0.1600 
 22 N       -3.6420    -6.1280     1.4390 N.ar  1 <1>  -0.6200 
 23 C        3.2210     6.8120     0.2640 C.ar  1 <1>  -0.1500 
 24 C       -2.4950    -6.3700     0.8270 C.ar  1 <1>   0.1600 
 25 H       -1.8050     2.6380    -0.9360 H     1 <1>   0.0800 
 26 H       -1.8530     2.5490     0.8140 H     1 <1>   0.0800 
 27 H       -4.0040     1.1960     0.6320 H     1 <1>   0.0800 
 28 H       -3.9370     1.3120    -1.1300 H     1 <1>   0.0800 
 29 H       -2.3220    -1.7280    -1.3390 H     1 <1>   0.0800 
 30 H       -1.8390    -1.8750     0.3410 H     1 <1>   0.0800 
 31 H        0.6600     2.5930    -0.8770 H     1 <1>   0.0800 
 32 H        0.6110     2.5130     0.8860 H     1 <1>   0.0800 
 33 H       -5.1130    -0.6330    -1.4270 H     1 <1>   0.0800 
 34 H       -4.0230    -1.8370     1.1150 H     1 <1>   0.0800 
 35 H       -5.6400    -0.3080     1.3380 H     1 <1>   0.4000 
 36 H       -4.4400    -3.0130    -1.6540 H     1 <1>   0.0800 
 37 H       -5.5510    -3.1810    -0.3340 H     1 <1>   0.0800 
 38 H        2.5900     3.5120     0.1040 H     1 <1>   0.1500 
 39 H       -0.1500     6.7870     0.1690 H     1 <1>   0.1500 
 40 H       -5.1850    -4.7870     1.3840 H     1 <1>   0.1500 
 41 H        4.4560     5.0700     0.2230 H     1 <1>   0.1500 
 42 H        1.7460     8.3580     0.2900 H     1 <1>   0.1500 
 43 H       -1.0430    -5.8760    -0.6450 H     1 <1>   0.1500 
 44 H        4.0510     7.4940     0.3160 H     1 <1>   0.1500 
 45 H       -1.9300    -7.2220     1.1610 H     1 <1>   0.1500 
@<TRIPOS>BOND
  1   1   2  2   
  2   2   3  am  
  3   2   4  1   
  4   3   5  1   
  5   3   6  1   
  6   4   7  1   
  7   4  25  1   
  8   4  26  1   
  9   5   8  1   
 10   5  27  1   
 11   5  28  1   
 12   6   9  1   
 13   6  29  1   
 14   6  30  1   
 15   7  10  1   
 16   7  31  1   
 17   7  32  1   
 18   8   9  1   
 19   8  11  1   
 20   8  33  1   
 21   9  12  1   
 22   9  34  1   
 23  10  13  1   
 24  11  35  1   
 25  12  14  1   
 26  12  36  1   
 27  12  37  1   
 28  13  15  ar  
 29  13  16  ar  
 30  14  17  ar  
 31  14  18  ar  
 32  15  19  ar  
 33  15  38  1   
 34  16  20  ar  
 35  16  39  1   
 36  17  21  ar  
 37  18  22  ar  
 38  18  40  1   
 39  19  23  ar  
 40  19  41  1   
 41  20  23  ar  
 42  20  42  1   
 43  21  24  ar  
 44  21  43  1   
 45  22  24  ar  
 46  23  44  1   
 47  24  45  1   
@<TRIPOS>SUBSTRUCTURE
  1 ****   2 GROUP 4 **** **** 0

# MOE 2024.06 (io_trps.svl 2023.06)
