@<TRIPOS>MOLECULE
NONAME
56 59 1 0 0 
SMALL
USER_CHARGES


@<TRIPOS>ATOM
  1 O        2.2010    -0.1110     2.3090 O.3   1 <1>  -0.6800 
  2 C        1.6390    -0.3120     1.0490 C.3   1 <1>   0.2000 
  3 C        2.1370    -1.6360     0.4640 C.3   1 <1>  -0.0800 
  4 C        2.2410     0.7130     0.0850 C.3   1 <1>   0.3430 
  5 C        3.5350    -1.3120    -0.0760 C.3   1 <1>   0.3430 
  6 C        2.1190    -2.8550     1.4100 C.3   1 <1>  -0.0160 
  7 N        3.5800     0.1630    -0.2750 N.4   1 <1>  -0.9590 
  8 C        2.7900    -4.0540     0.7480 C.ar  1 <1>  -0.1430 
  9 C        4.6390     0.8240     0.5360 C.3   1 <1>   0.5240 
 10 C        2.1750    -4.7950    -0.2900 C.ar  1 <1>   0.0000 
 11 C        4.0410    -4.4360     1.1400 C.ar  1 <1>  -0.1500 
 12 C        4.9500     2.1610    -0.1260 C.2   1 <1>   0.1080 
 13 C        2.9260    -5.8360    -0.8870 C.ar  1 <1>   0.3100 
 14 C        0.8620    -4.5710    -0.7670 C.ar  1 <1>  -0.1500 
 15 C        4.6870    -5.4990     0.4990 C.ar  1 <1>   0.1600 
 16 N        4.7540     2.3780    -1.3960 N.2   1 <1>  -0.7070 
 17 C        5.4570     3.2790     0.5250 C.2   1 <1>  -0.1500 
 18 N        4.1770    -6.1700    -0.4840 N.ar  1 <1>  -0.6200 
 19 C        2.3600    -6.5650    -1.9440 C.ar  1 <1>  -0.1500 
 20 C        0.3360    -5.3040    -1.7960 C.ar  1 <1>  -0.1500 
 21 N        5.1490     3.6560    -1.5840 N.pl3 1 <1>   0.3000 
 22 C        5.5740     4.2250    -0.4360 C.2   1 <1>  -0.3320 
 23 C        1.0950    -6.3100    -2.3980 C.ar  1 <1>  -0.1500 
 24 C        6.0720     5.6650    -0.3600 C.3   1 <1>   0.1800 
 25 C        4.9500     6.6130    -0.7960 C.3   1 <1>  -0.2400 
 26 C        6.4860     6.0120     1.0750 C.3   1 <1>  -0.2400 
 27 C        7.2840     5.8340    -1.2820 C.3   1 <1>  -0.2400 
 28 H        1.6550    -0.5280     3.0100 H     1 <1>   0.4000 
 29 H        0.5670    -0.2340     1.1210 H     1 <1>   0.0800 
 30 H        1.5250    -1.8630    -0.3910 H     1 <1>   0.0800 
 31 H        2.3050     1.6920     0.5320 H     1 <1>   0.0800 
 32 H        1.6300     0.7690    -0.8000 H     1 <1>   0.0800 
 33 H        3.7160    -1.8390    -1.0000 H     1 <1>   0.0800 
 34 H        4.2780    -1.6090     0.6460 H     1 <1>   0.0800 
 35 H        1.1090    -3.1050     1.6870 H     1 <1>   0.0800 
 36 H        2.6460    -2.6270     2.3200 H     1 <1>   0.0800 
 37 H        3.8190     0.4610    -1.2400 H     1 <1>   0.4500 
 38 H        4.3110     0.9680     1.5520 H     1 <1>   0.0800 
 39 H        5.5340     0.2260     0.5340 H     1 <1>   0.0800 
 40 H        4.5650    -3.9430     1.9380 H     1 <1>   0.1500 
 41 H        0.2500    -3.8170    -0.3110 H     1 <1>   0.1500 
 42 H        5.6720    -5.7730     0.8380 H     1 <1>   0.1500 
 43 H        5.7000     3.3560     1.5710 H     1 <1>   0.1500 
 44 H        2.9580    -7.3410    -2.3870 H     1 <1>   0.1500 
 45 H       -0.6640    -5.1250    -2.1530 H     1 <1>   0.1500 
 46 H        5.1220     4.1200    -2.5020 H     1 <1>   0.2700 
 47 H        0.6730    -6.8790    -3.2090 H     1 <1>   0.1500 
 48 H        5.2700     7.6370    -0.7130 H     1 <1>   0.0800 
 49 H        4.0850     6.4760    -0.1720 H     1 <1>   0.0800 
 50 H        4.6660     6.4330    -1.8170 H     1 <1>   0.0800 
 51 H        6.8360     7.0270     1.1310 H     1 <1>   0.0800 
 52 H        7.2770     5.3630     1.4050 H     1 <1>   0.0800 
 53 H        5.6510     5.9060     1.7440 H     1 <1>   0.0800 
 54 H        7.6730     6.8350    -1.2120 H     1 <1>   0.0800 
 55 H        7.0190     5.6480    -2.3070 H     1 <1>   0.0800 
 56 H        8.0610     5.1460    -1.0000 H     1 <1>   0.0800 
@<TRIPOS>BOND
  1   1   2  1   
  2   1  28  1   
  3   2   3  1   
  4   2   4  1   
  5   2  29  1   
  6   3   5  1   
  7   3   6  1   
  8   3  30  1   
  9   4   7  1   
 10   4  31  1   
 11   4  32  1   
 12   5   7  1   
 13   5  33  1   
 14   5  34  1   
 15   6   8  1   
 16   6  35  1   
 17   6  36  1   
 18   7   9  1   
 19   7  37  1   
 20   8  10  ar  
 21   8  11  ar  
 22   9  12  1   
 23   9  38  1   
 24   9  39  1   
 25  10  13  ar  
 26  10  14  ar  
 27  11  15  ar  
 28  11  40  1   
 29  12  16  2   
 30  12  17  1   
 31  13  18  ar  
 32  13  19  ar  
 33  14  20  ar  
 34  14  41  1   
 35  15  18  ar  
 36  15  42  1   
 37  16  21  1   
 38  17  22  2   
 39  17  43  1   
 40  19  23  ar  
 41  19  44  1   
 42  20  23  ar  
 43  20  45  1   
 44  21  22  1   
 45  21  46  1   
 46  22  24  1   
 47  23  47  1   
 48  24  25  1   
 49  24  26  1   
 50  24  27  1   
 51  25  48  1   
 52  25  49  1   
 53  25  50  1   
 54  26  51  1   
 55  26  52  1   
 56  26  53  1   
 57  27  54  1   
 58  27  55  1   
 59  27  56  1   
@<TRIPOS>SUBSTRUCTURE
  1 ****   5 GROUP 4 **** **** 0

# MOE 2024.06 (io_trps.svl 2023.06)
