@<TRIPOS>MOLECULE
NONAME
43 45 1 0 0 
SMALL
USER_CHARGES


@<TRIPOS>ATOM
  1 S        1.3710    -0.7760     0.3240 S.3   1 <1>  -0.0800 
  2 C       -0.2820    -1.0220    -0.1920 C.2   1 <1>   0.1980 
  3 C        1.8950    -1.0680    -1.3090 C.2   1 <1>  -0.1100 
  4 N       -0.4150    -1.2890    -1.4330 N.2   1 <1>  -0.5650 
  5 C       -1.3700    -0.9010     0.8690 C.3   1 <1>   0.5230 
  6 C        0.8180    -1.3160    -2.0700 C.2   1 <1>   0.0770 
  7 N       -2.7190    -0.8890     0.2230 N.4   1 <1>  -0.9590 
  8 C       -2.9820     0.4290    -0.4260 C.3   1 <1>   0.3430 
  9 C       -3.8000    -1.2650     1.1730 C.3   1 <1>   0.3430 
 10 C       -4.3210     0.3980    -1.1530 C.3   1 <1>  -0.1600 
 11 C       -5.1370    -1.3150     0.4440 C.3   1 <1>  -0.1600 
 12 C       -5.4750     0.0430    -0.1930 C.3   1 <1>   0.2800 
 13 O       -5.4180     0.9730     0.8640 O.3   1 <1>  -0.5600 
 14 C       -6.8880     0.0000    -0.8840 C.3   1 <1>   0.2000 
 15 C       -6.2010     2.1200     0.7300 C.3   1 <1>   0.1200 
 16 O       -6.9130     0.8210    -2.0240 O.3   1 <1>  -0.6800 
 17 C       -8.0260     0.4240     0.0880 C.3   1 <1>   0.2800 
 18 C       -7.6910     1.7560     0.7890 C.3   1 <1>  -0.1600 
 19 O       -8.1460    -0.5470     1.0620 O.3   1 <1>  -0.6800 
 20 C       -9.4070     0.4750    -0.5790 C.3   1 <1>  -0.2400 
 21 H        2.9480    -1.0240    -1.5230 H     1 <1>   0.1500 
 22 H       -1.2240     0.0000     1.4400 H     1 <1>   0.0800 
 23 H       -1.2890    -1.7450     1.5330 H     1 <1>   0.0800 
 24 H        0.8370    -1.5330    -3.1260 H     1 <1>   0.1500 
 25 H       -2.6580    -1.5810    -0.5400 H     1 <1>   0.4500 
 26 H       -3.0100     1.2050     0.3220 H     1 <1>   0.0800 
 27 H       -2.1980     0.6580    -1.1310 H     1 <1>   0.0800 
 28 H       -3.5940    -2.2290     1.6110 H     1 <1>   0.0800 
 29 H       -3.8630    -0.5350     1.9650 H     1 <1>   0.0800 
 30 H       -4.2820    -0.3080    -1.9630 H     1 <1>   0.0800 
 31 H       -4.4890     1.3660    -1.5880 H     1 <1>   0.0800 
 32 H       -5.8930    -1.5870     1.1550 H     1 <1>   0.0800 
 33 H       -5.1150    -2.0850    -0.3060 H     1 <1>   0.0800 
 34 H       -7.0820    -0.9970    -1.2390 H     1 <1>   0.0800 
 35 H       -5.9470     2.7940     1.5300 H     1 <1>   0.0800 
 36 H       -5.9590     2.5920    -0.2080 H     1 <1>   0.0800 
 37 H       -7.7750     0.7420    -2.4770 H     1 <1>   0.4000 
 38 H       -8.2200     2.5590     0.3080 H     1 <1>   0.0800 
 39 H       -8.0170     1.7410     1.8140 H     1 <1>   0.0800 
 40 H       -8.8560    -0.2980     1.6840 H     1 <1>   0.4000 
 41 H       -9.4370     1.2420    -1.3320 H     1 <1>   0.0800 
 42 H      -10.1690     0.7020     0.1460 H     1 <1>   0.0800 
 43 H       -9.6330    -0.4670    -1.0450 H     1 <1>   0.0800 
@<TRIPOS>BOND
  1   1   2  1   
  2   1   3  1   
  3   2   4  2   
  4   2   5  1   
  5   3   6  2   
  6   3  21  1   
  7   4   6  1   
  8   5   7  1   
  9   5  22  1   
 10   5  23  1   
 11   6  24  1   
 12   7   8  1   
 13   7   9  1   
 14   7  25  1   
 15   8  10  1   
 16   8  26  1   
 17   8  27  1   
 18   9  11  1   
 19   9  28  1   
 20   9  29  1   
 21  10  12  1   
 22  10  30  1   
 23  10  31  1   
 24  11  12  1   
 25  11  32  1   
 26  11  33  1   
 27  12  13  1   
 28  12  14  1   
 29  13  15  1   
 30  14  16  1   
 31  14  17  1   
 32  14  34  1   
 33  15  18  1   
 34  15  35  1   
 35  15  36  1   
 36  16  37  1   
 37  17  18  1   
 38  17  19  1   
 39  17  20  1   
 40  18  38  1   
 41  18  39  1   
 42  19  40  1   
 43  20  41  1   
 44  20  42  1   
 45  20  43  1   
@<TRIPOS>SUBSTRUCTURE
  1 ****  10 GROUP 4 **** **** 0

# MOE 2024.06 (io_trps.svl 2023.06)
