@<TRIPOS>MOLECULE
NONAME
58 61 1 0 0 
SMALL
USER_CHARGES


@<TRIPOS>ATOM
  1 O       -1.8120     0.6280    -1.8320 O.2   1 <1>  -0.5700 
  2 C       -2.5210     0.9790    -0.9050 C.2   1 <1>   0.7160 
  3 N       -3.5440     0.1420    -0.4990 N.am  1 <1>  -0.6600 
  4 C       -2.2720     2.2490    -0.2990 C.2   1 <1>  -0.0860 
  5 C       -4.5230     0.4930     0.5740 C.3   1 <1>   0.1400 
  6 C       -3.9190    -1.0650    -1.2880 C.3   1 <1>   0.1400 
  7 C       -3.0850     3.3790    -0.4260 C.2   1 <1>   0.3720 
  8 C       -1.2670     2.6710     0.5130 C.2   1 <1>   0.0870 
  9 C       -4.2000    -0.1360     1.9540 C.3   1 <1>   0.0000 
 10 C       -3.5230    -2.3500    -0.5610 C.3   1 <1>  -0.1600 
 11 N       -2.6260     4.3610     0.2670 N.2   1 <1>  -0.4100 
 12 N       -4.2560     3.4410    -1.1930 N.pl3 1 <1>  -0.8210 
 13 O       -1.5290     3.9170     0.8210 O.3   1 <1>  -0.0190 
 14 C       -0.1030     2.0200     1.0600 C.ar  1 <1>   0.0530 
 15 C       -3.5380    -1.5340     1.8730 C.3   1 <1>  -0.1600 
 16 C       -3.2570     0.7850     2.7460 C.3   1 <1>  -0.2400 
 17 C       -5.5140    -0.2380     2.7510 C.3   1 <1>  -0.2400 
 18 C       -4.1470    -2.4870     0.8330 C.3   1 <1>   0.2000 
 19 C       -4.0320     3.3520    -2.6690 C.3   1 <1>   0.2090 
 20 C       -5.1800     4.5740    -0.8810 C.3   1 <1>   0.2090 
 21 C        0.6250     1.0710     0.3430 C.ar  1 <1>  -0.1500 
 22 C        0.3330     2.3210     2.3510 C.ar  1 <1>  -0.1500 
 23 O       -3.8970    -3.7740     1.2540 O.3   1 <1>  -0.6800 
 24 C       -5.3730     3.2990    -3.4220 C.3   1 <1>   0.1200 
 25 C       -6.4730     4.4690    -1.7090 C.3   1 <1>   0.1200 
 26 C        1.7250     0.4400     0.8930 C.ar  1 <1>  -0.1500 
 27 C        1.4330     1.6950     2.9070 C.ar  1 <1>  -0.1500 
 28 O       -6.1870     4.3870    -3.0790 O.3   1 <1>  -0.5600 
 29 C        2.1310     0.7490     2.1780 C.ar  1 <1>  -0.1500 
 30 H       -5.4960     0.1590     0.2590 H     1 <1>   0.0800 
 31 H       -4.6020     1.5590     0.6790 H     1 <1>   0.0800 
 32 H       -3.4370    -1.0480    -2.2510 H     1 <1>   0.0800 
 33 H       -4.9800    -1.0620    -1.4670 H     1 <1>   0.0800 
 34 H       -2.4510    -2.3910    -0.4990 H     1 <1>   0.0800 
 35 H       -3.8520    -3.1750    -1.1680 H     1 <1>   0.0800 
 36 H       -3.5970    -1.9880     2.8470 H     1 <1>   0.0800 
 37 H       -2.4930    -1.4150     1.6450 H     1 <1>   0.0800 
 38 H       -2.2950     0.8300     2.2730 H     1 <1>   0.0800 
 39 H       -3.1130     0.4150     3.7460 H     1 <1>   0.0800 
 40 H       -3.6520     1.7840     2.8080 H     1 <1>   0.0800 
 41 H       -6.2130    -0.8910     2.2600 H     1 <1>   0.0800 
 42 H       -5.9710     0.7310     2.8510 H     1 <1>   0.0800 
 43 H       -5.3330    -0.6260     3.7380 H     1 <1>   0.0800 
 44 H       -5.2170    -2.3790     0.7860 H     1 <1>   0.0800 
 45 H       -3.4630     2.4710    -2.9070 H     1 <1>   0.0800 
 46 H       -3.4710     4.2090    -3.0010 H     1 <1>   0.0800 
 47 H       -4.6950     5.5110    -1.0980 H     1 <1>   0.0800 
 48 H       -5.4230     4.5580     0.1670 H     1 <1>   0.0800 
 49 H        0.3360     0.8240    -0.6620 H     1 <1>   0.1500 
 50 H       -0.2030     3.0540     2.9280 H     1 <1>   0.1500 
 51 H       -2.9350    -3.9060     1.3500 H     1 <1>   0.4000 
 52 H       -5.8970     2.3890    -3.1860 H     1 <1>   0.0800 
 53 H       -5.2040     3.3370    -4.4830 H     1 <1>   0.0800 
 54 H       -7.0840     5.3400    -1.5540 H     1 <1>   0.0800 
 55 H       -7.0310     3.5960    -1.4210 H     1 <1>   0.0800 
 56 H        2.2680    -0.2910     0.3190 H     1 <1>   0.1500 
 57 H        1.7470     1.9420     3.9060 H     1 <1>   0.1500 
 58 H        2.9880     0.2590     2.6080 H     1 <1>   0.1500 
@<TRIPOS>BOND
  1   1   2  2   
  2   2   3  am  
  3   2   4  1   
  4   3   5  1   
  5   3   6  1   
  6   4   7  1   
  7   4   8  2   
  8   5   9  1   
  9   5  30  1   
 10   5  31  1   
 11   6  10  1   
 12   6  32  1   
 13   6  33  1   
 14   7  11  2   
 15   7  12  1   
 16   8  13  1   
 17   8  14  1   
 18   9  15  1   
 19   9  16  1   
 20   9  17  1   
 21  10  18  1   
 22  10  34  1   
 23  10  35  1   
 24  11  13  1   
 25  12  19  1   
 26  12  20  1   
 27  14  21  ar  
 28  14  22  ar  
 29  15  18  1   
 30  15  36  1   
 31  15  37  1   
 32  16  38  1   
 33  16  39  1   
 34  16  40  1   
 35  17  41  1   
 36  17  42  1   
 37  17  43  1   
 38  18  23  1   
 39  18  44  1   
 40  19  24  1   
 41  19  45  1   
 42  19  46  1   
 43  20  25  1   
 44  20  47  1   
 45  20  48  1   
 46  21  26  ar  
 47  21  49  1   
 48  22  27  ar  
 49  22  50  1   
 50  23  51  1   
 51  24  28  1   
 52  24  52  1   
 53  24  53  1   
 54  25  28  1   
 55  25  54  1   
 56  25  55  1   
 57  26  29  ar  
 58  26  56  1   
 59  27  29  ar  
 60  27  57  1   
 61  29  58  1   
@<TRIPOS>SUBSTRUCTURE
  1 ****   4 GROUP 4 **** **** 0

# MOE 2024.06 (io_trps.svl 2023.06)
