@<TRIPOS>MOLECULE
NONAME
43 44 1 0 0 
SMALL
USER_CHARGES


@<TRIPOS>ATOM
  1 O        0.2630     0.9070    -1.0450 O.2   1 <1>  -0.5700 
  2 C       -0.5870     1.6740    -0.6690 C.2   1 <1>   0.5690 
  3 N       -1.9210     1.4840    -0.7290 N.am  1 <1>  -0.6600 
  4 C       -0.2650     3.0140    -0.0730 C.3   1 <1>  -0.0990 
  5 C       -2.6780     2.6450    -0.2260 C.3   1 <1>   0.1400 
  6 C       -2.5790     0.2980    -1.3170 C.3   1 <1>   0.2780 
  7 C       -1.6150     3.4700     0.5200 C.3   1 <1>  -0.0190 
  8 C       -3.4710    -0.3590    -0.2800 C.2   1 <1>  -0.2880 
  9 C       -1.8520     4.9730     0.4630 C.2   1 <1>   0.5690 
 10 C       -3.2470    -1.5520     0.2810 C.2   1 <1>  -0.3000 
 11 O       -2.9340     5.3810     0.1180 O.2   1 <1>  -0.5700 
 12 N       -0.8170     5.7920     0.8220 N.am  1 <1>  -0.4940 
 13 C       -0.6740     7.2010     0.7860 C.2   1 <1>  -0.0880 
 14 N       -1.6280     8.1570     0.9870 N.pl3 1 <1>   0.3140 
 15 C        0.4830     7.8670     0.5520 C.2   1 <1>  -0.1810 
 16 N       -1.1070     9.3990     0.8840 N.2   1 <1>  -0.7070 
 17 C       -3.0370     7.9970     1.3650 C.3   1 <1>   0.0160 
 18 C        0.1450     9.2160     0.6190 C.2   1 <1>   0.1080 
 19 C        1.8590     7.2890     0.2650 C.3   1 <1>   0.0210 
 20 C        1.0900    10.3790     0.4160 C.3   1 <1>  -0.0590 
 21 C        2.0150     7.0020    -1.2290 C.3   1 <1>  -0.2400 
 22 H        0.0620     3.6620    -0.8650 H     1 <1>   0.0800 
 23 H        0.4990     2.9200     0.6760 H     1 <1>   0.0800 
 24 H       -3.4700     2.3450     0.4390 H     1 <1>   0.0800 
 25 H       -3.0880     3.1860    -1.0630 H     1 <1>   0.0800 
 26 H       -1.8260    -0.4010    -1.6440 H     1 <1>   0.0800 
 27 H       -3.1580     0.5930    -2.1740 H     1 <1>   0.0800 
 28 H       -1.6520     3.1720     1.5530 H     1 <1>   0.0800 
 29 H       -4.3280     0.2410    -0.0320 H     1 <1>   0.1500 
 30 H       -3.8920    -2.0030     1.0140 H     1 <1>   0.1500 
 31 H       -2.3970    -2.1750     0.0560 H     1 <1>   0.1500 
 32 H        0.0540     5.3100     1.0360 H     1 <1>   0.3700 
 33 H       -3.1360     7.1620     2.0320 H     1 <1>   0.0800 
 34 H       -3.6190     7.8300     0.4790 H     1 <1>   0.0800 
 35 H       -3.3750     8.8910     1.8540 H     1 <1>   0.0800 
 36 H        1.9930     6.3800     0.8240 H     1 <1>   0.0800 
 37 H        2.6190     7.9810     0.5850 H     1 <1>   0.0800 
 38 H        1.6990    10.2150    -0.4530 H     1 <1>   0.0800 
 39 H        1.7180    10.4890     1.2800 H     1 <1>   0.0800 
 40 H        0.5270    11.2840     0.2780 H     1 <1>   0.0800 
 41 H        1.2650     6.3020    -1.5520 H     1 <1>   0.0800 
 42 H        2.9870     6.5900    -1.4300 H     1 <1>   0.0800 
 43 H        1.8990     7.9100    -1.7930 H     1 <1>   0.0800 
@<TRIPOS>BOND
  1   1   2  2   
  2   2   3  am  
  3   2   4  1   
  4   3   5  1   
  5   3   6  1   
  6   4   7  1   
  7   4  22  1   
  8   4  23  1   
  9   5   7  1   
 10   5  24  1   
 11   5  25  1   
 12   6   8  1   
 13   6  26  1   
 14   6  27  1   
 15   7   9  1   
 16   7  28  1   
 17   8  10  2   
 18   8  29  1   
 19   9  11  2   
 20   9  12  am  
 21  10  30  1   
 22  10  31  1   
 23  12  13  1   
 24  12  32  1   
 25  13  14  1   
 26  13  15  2   
 27  14  16  1   
 28  14  17  1   
 29  15  18  1   
 30  15  19  1   
 31  16  18  2   
 32  17  33  1   
 33  17  34  1   
 34  17  35  1   
 35  18  20  1   
 36  19  21  1   
 37  19  36  1   
 38  19  37  1   
 39  20  38  1   
 40  20  39  1   
 41  20  40  1   
 42  21  41  1   
 43  21  42  1   
 44  21  43  1   
@<TRIPOS>SUBSTRUCTURE
  1 ****   9 GROUP 4 **** **** 0

# MOE 2024.06 (io_trps.svl 2023.06)
