@<TRIPOS>MOLECULE
NONAME
46 49 1 0 0 
SMALL
USER_CHARGES


@<TRIPOS>ATOM
  1 O       -0.3290    -0.5620     0.2740 O.2   1 <1>  -0.5700 
  2 C       -0.3360    -1.7660     0.1990 C.2   1 <1>   0.5690 
  3 N       -1.1350    -2.5110     0.9990 N.am  1 <1>  -0.5470 
  4 C        0.5830    -2.4910    -0.7840 C.3   1 <1>   0.1810 
  5 C       -1.2100    -3.8960     0.8890 C.ar  1 <1>   0.1170 
  6 O        0.1680    -3.8290    -1.0820 O.3   1 <1>  -0.3630 
  7 C       -0.5470    -4.5370    -0.1620 C.ar  1 <1>   0.0830 
  8 C       -1.9300    -4.6640     1.7920 C.ar  1 <1>  -0.1500 
  9 C       -0.6140    -5.9090    -0.2980 C.ar  1 <1>  -0.1500 
 10 C       -1.9890    -6.0390     1.6480 C.ar  1 <1>  -0.1500 
 11 C       -1.3410    -6.6940     0.5980 C.ar  1 <1>   0.0860 
 12 C       -1.4010    -8.1340     0.4400 C.2   1 <1>   0.5440 
 13 O       -0.3820    -8.7570     0.2100 O.2   1 <1>  -0.5700 
 14 N       -2.5870    -8.8280     0.5310 N.am  1 <1>  -0.6600 
 15 C       -3.9310    -8.2380     0.2980 C.3   1 <1>   0.1400 
 16 C       -2.6420   -10.3070     0.4100 C.3   1 <1>   0.1400 
 17 C       -4.7760    -9.3930    -0.2370 C.3   1 <1>   0.2000 
 18 C       -4.1290   -10.6550     0.3270 C.3   1 <1>  -0.0800 
 19 O       -6.0940    -9.2990     0.1810 O.3   1 <1>  -0.6800 
 20 C       -4.4210   -11.9120    -0.5050 C.3   1 <1>   0.0210 
 21 C       -3.6830   -13.1120     0.0530 C.2   1 <1>   0.1080 
 22 N       -3.9220   -13.5980     1.2320 N.2   1 <1>  -0.7070 
 23 C       -2.6800   -13.8100    -0.6100 C.2   1 <1>  -0.1500 
 24 N       -3.0680   -14.6320     1.3520 N.pl3 1 <1>   0.3000 
 25 C       -2.3040   -14.7790     0.2500 C.2   1 <1>  -0.3320 
 26 C       -1.2440   -15.8530     0.0840 C.3   1 <1>  -0.0600 
 27 H       -1.7100    -2.0000     1.6690 H     1 <1>   0.3700 
 28 H        1.5700    -2.5440    -0.3660 H     1 <1>   0.0800 
 29 H        0.6230    -1.9480    -1.7090 H     1 <1>   0.0800 
 30 H       -2.4400    -4.1870     2.6100 H     1 <1>   0.1500 
 31 H       -0.0940    -6.3870    -1.1100 H     1 <1>   0.1500 
 32 H       -2.5380    -6.6260     2.3640 H     1 <1>   0.1500 
 33 H       -4.3270    -7.8820     1.2320 H     1 <1>   0.0800 
 34 H       -3.8800    -7.4370    -0.4190 H     1 <1>   0.0800 
 35 H       -2.1250   -10.6060    -0.4870 H     1 <1>   0.0800 
 36 H       -2.1760   -10.7780     1.2590 H     1 <1>   0.0800 
 37 H       -4.7580    -9.3870    -1.3140 H     1 <1>   0.0800 
 38 H       -4.4690   -10.8150     1.3360 H     1 <1>   0.0800 
 39 H       -6.1600    -9.4960     1.1360 H     1 <1>   0.4000 
 40 H       -4.1280   -11.7560    -1.5280 H     1 <1>   0.0800 
 41 H       -5.4770   -12.1180    -0.4870 H     1 <1>   0.0800 
 42 H       -2.3020   -13.6000    -1.5950 H     1 <1>   0.1500 
 43 H       -3.0320   -15.2150     2.1970 H     1 <1>   0.2700 
 44 H       -0.7730   -15.7610    -0.8790 H     1 <1>   0.0800 
 45 H       -1.6880   -16.8290     0.1570 H     1 <1>   0.0800 
 46 H       -0.4900   -15.7520     0.8440 H     1 <1>   0.0800 
@<TRIPOS>BOND
  1   1   2  2   
  2   2   3  am  
  3   2   4  1   
  4   3   5  1   
  5   3  27  1   
  6   4   6  1   
  7   4  28  1   
  8   4  29  1   
  9   5   7  ar  
 10   5   8  ar  
 11   6   7  1   
 12   7   9  ar  
 13   8  10  ar  
 14   8  30  1   
 15   9  11  ar  
 16   9  31  1   
 17  10  11  ar  
 18  10  32  1   
 19  11  12  1   
 20  12  13  2   
 21  12  14  am  
 22  14  15  1   
 23  14  16  1   
 24  15  17  1   
 25  15  33  1   
 26  15  34  1   
 27  16  18  1   
 28  16  35  1   
 29  16  36  1   
 30  17  18  1   
 31  17  19  1   
 32  17  37  1   
 33  18  20  1   
 34  18  38  1   
 35  19  39  1   
 36  20  21  1   
 37  20  40  1   
 38  20  41  1   
 39  21  22  2   
 40  21  23  1   
 41  22  24  1   
 42  23  25  2   
 43  23  42  1   
 44  24  25  1   
 45  24  43  1   
 46  25  26  1   
 47  26  44  1   
 48  26  45  1   
 49  26  46  1   
@<TRIPOS>SUBSTRUCTURE
  1 ****  14 GROUP 4 **** **** 0

# MOE 2024.06 (io_trps.svl 2023.06)
