@<TRIPOS>MOLECULE
NONAME
48 50 1 0 0 
SMALL
USER_CHARGES


@<TRIPOS>ATOM
  1 O       -2.1400     0.6600    -1.5670 O.2   1 <1>  -0.5700 
  2 C       -1.5510     0.4110    -0.5160 C.2   1 <1>   0.5690 
  3 N       -1.4990    -0.8590    -0.0350 N.am  1 <1>  -0.7300 
  4 C       -0.8750     1.5370     0.2890 C.3   1 <1>   0.2010 
  5 C       -2.1510    -2.0170    -0.6850 C.3   1 <1>   0.2200 
  6 N       -1.1120     2.8700    -0.2670 N.am  1 <1>  -0.7300 
  7 C       -3.5530    -2.1720    -0.1210 C.3   1 <1>  -0.0800 
  8 C       -1.4890    -3.3110    -0.2290 C.3   1 <1>   0.1200 
  9 C       -0.7380     4.0170     0.3450 C.2   1 <1>   0.5690 
 10 C       -3.3200    -3.0240     1.1330 C.3   1 <1>   0.1200 
 11 C       -4.4950    -2.8560    -1.1310 C.3   1 <1>  -0.0170 
 12 O       -2.0520    -3.6030     1.0130 O.3   1 <1>  -0.5600 
 13 O       -0.1600     4.0100     1.4030 O.2   1 <1>  -0.5700 
 14 C       -1.0570     5.3390    -0.3270 C.3   1 <1>  -0.0990 
 15 C       -5.9310    -2.8810    -0.6200 C.ar  1 <1>  -0.1440 
 16 C       -2.5610     5.6560    -0.3310 C.3   1 <1>  -0.2400 
 17 C       -6.7530    -1.7280    -0.6220 C.ar  1 <1>   0.0000 
 18 C       -6.4690    -4.0380    -0.1380 C.ar  1 <1>  -0.1500 
 19 C       -8.0650    -1.8560    -0.1040 C.ar  1 <1>   0.3100 
 20 C       -6.3540    -0.4600    -1.1080 C.ar  1 <1>  -0.1500 
 21 C       -7.7830    -4.0580     0.3450 C.ar  1 <1>   0.1600 
 22 N       -8.5630    -3.0240     0.3750 N.ar  1 <1>  -0.6200 
 23 C       -8.9010    -0.7280    -0.0830 C.ar  1 <1>  -0.1500 
 24 C       -7.1950     0.6190    -1.0730 C.ar  1 <1>  -0.1500 
 25 C       -8.4850     0.4870    -0.5540 C.ar  1 <1>  -0.1500 
 26 H       -1.0940    -1.0690     0.8810 H     1 <1>   0.3700 
 27 H        0.1970     1.3430     0.3180 H     1 <1>   0.0800 
 28 H       -1.2520     1.5010     1.3110 H     1 <1>   0.0800 
 29 H       -2.1310    -1.9020    -1.7560 H     1 <1>   0.0800 
 30 H       -1.6160     2.9020    -1.1420 H     1 <1>   0.3700 
 31 H       -3.9660    -1.2170     0.1490 H     1 <1>   0.0800 
 32 H       -0.4210    -3.2230    -0.1330 H     1 <1>   0.0800 
 33 H       -1.7310    -4.1190    -0.8970 H     1 <1>   0.0800 
 34 H       -4.0490    -3.8070     1.2490 H     1 <1>   0.0800 
 35 H       -3.3150    -2.4100     2.0170 H     1 <1>   0.0800 
 36 H       -4.1590    -3.8610    -1.3190 H     1 <1>   0.0800 
 37 H       -4.4670    -2.3360    -2.0720 H     1 <1>   0.0800 
 38 H       -0.5310     6.1200     0.1920 H     1 <1>   0.0800 
 39 H       -0.6880     5.3110    -1.3360 H     1 <1>   0.0800 
 40 H       -2.9320     5.6900     0.6790 H     1 <1>   0.0800 
 41 H       -3.1060     4.9040    -0.8740 H     1 <1>   0.0800 
 42 H       -2.7360     6.6110    -0.7950 H     1 <1>   0.0800 
 43 H       -5.9090    -4.9550    -0.1120 H     1 <1>   0.1500 
 44 H       -5.3690    -0.3310    -1.5160 H     1 <1>   0.1500 
 45 H       -8.1680    -4.9920     0.7180 H     1 <1>   0.1500 
 46 H       -9.8890    -0.8550     0.3190 H     1 <1>   0.1500 
 47 H       -6.8760     1.5780    -1.4450 H     1 <1>   0.1500 
 48 H       -9.1370     1.3430    -0.5320 H     1 <1>   0.1500 
@<TRIPOS>BOND
  1   1   2  2   
  2   2   3  am  
  3   2   4  1   
  4   3   5  1   
  5   3  26  1   
  6   4   6  1   
  7   4  27  1   
  8   4  28  1   
  9   5   7  1   
 10   5   8  1   
 11   5  29  1   
 12   6   9  am  
 13   6  30  1   
 14   7  10  1   
 15   7  11  1   
 16   7  31  1   
 17   8  12  1   
 18   8  32  1   
 19   8  33  1   
 20   9  13  2   
 21   9  14  1   
 22  10  12  1   
 23  10  34  1   
 24  10  35  1   
 25  11  15  1   
 26  11  36  1   
 27  11  37  1   
 28  14  16  1   
 29  14  38  1   
 30  14  39  1   
 31  15  17  ar  
 32  15  18  ar  
 33  16  40  1   
 34  16  41  1   
 35  16  42  1   
 36  17  19  ar  
 37  17  20  ar  
 38  18  21  ar  
 39  18  43  1   
 40  19  22  ar  
 41  19  23  ar  
 42  20  24  ar  
 43  20  44  1   
 44  21  22  ar  
 45  21  45  1   
 46  23  25  ar  
 47  23  46  1   
 48  24  25  ar  
 49  24  47  1   
 50  25  48  1   
@<TRIPOS>SUBSTRUCTURE
  1 ****   7 GROUP 4 **** **** 0

# MOE 2024.06 (io_trps.svl 2023.06)
