@<TRIPOS>MOLECULE
NONAME
50 53 1 0 0 
SMALL
USER_CHARGES


@<TRIPOS>ATOM
  1 O       -0.2360     0.5620    -1.0140 O.2   1 <1>  -0.5700 
  2 C       -0.1870     1.7630    -0.8180 C.2   1 <1>   0.5440 
  3 N       -1.3720     2.4580    -0.6820 N.am  1 <1>  -0.6600 
  4 C        1.1040     2.4170    -0.7190 C.ar  1 <1>   0.0860 
  5 C       -2.6640     1.8050    -1.0420 C.3   1 <1>   0.1400 
  6 C       -1.4510     3.7950    -0.0220 C.3   1 <1>   0.1400 
  7 C        2.1090     1.8820     0.0940 C.ar  1 <1>  -0.1500 
  8 C        1.3880     3.5920    -1.4290 C.ar  1 <1>  -0.1500 
  9 C       -3.7520     2.8540    -1.2850 C.3   1 <1>  -0.1600 
 10 C       -2.7260     3.8700     0.8150 C.3   1 <1>  -0.1600 
 11 C        3.3290     2.5190     0.1960 C.ar  1 <1>  -0.1440 
 12 C        2.6130     4.2290    -1.3230 C.ar  1 <1>  -0.1500 
 13 C       -3.9890     3.7790    -0.0680 C.3   1 <1>   0.2800 
 14 C        3.5730     3.6740    -0.4990 C.ar  1 <1>   0.0820 
 15 C        4.5570     2.1680     0.9820 C.3   1 <1>  -0.0160 
 16 O       -4.2050     5.0470    -0.6260 O.3   1 <1>  -0.5600 
 17 C       -5.2080     3.3100     0.7700 C.3   1 <1>  -0.1600 
 18 O        4.8010     4.1620    -0.2880 O.3   1 <1>  -0.3630 
 19 C        5.5120     3.3150     0.6050 C.3   1 <1>   0.1200 
 20 C       -4.9260     6.0090     0.0950 C.3   1 <1>   0.1200 
 21 C       -6.5280     3.9960     0.3930 C.3   1 <1>   0.2800 
 22 C       -6.3480     5.5390     0.4710 C.3   1 <1>   0.2000 
 23 O       -6.8510     3.6510    -0.9050 O.3   1 <1>  -0.6800 
 24 C       -7.6920     3.4620     1.2390 C.3   1 <1>  -0.2400 
 25 O       -6.6040     6.0140     1.7620 O.3   1 <1>  -0.6800 
 26 H       -2.5270     1.2140    -1.9330 H     1 <1>   0.0800 
 27 H       -2.9550     1.1430    -0.2450 H     1 <1>   0.0800 
 28 H       -0.5960     3.9460     0.6130 H     1 <1>   0.0800 
 29 H       -1.4640     4.5660    -0.7740 H     1 <1>   0.0800 
 30 H        1.9190     0.9710     0.6330 H     1 <1>   0.1500 
 31 H        0.6320     4.0030    -2.0750 H     1 <1>   0.1500 
 32 H       -4.6590     2.3530    -1.5630 H     1 <1>   0.0800 
 33 H       -3.4460     3.4400    -2.1340 H     1 <1>   0.0800 
 34 H       -2.7310     4.7780     1.3890 H     1 <1>   0.0800 
 35 H       -2.7030     3.0520     1.5130 H     1 <1>   0.0800 
 36 H        2.8310     5.1310    -1.8650 H     1 <1>   0.1500 
 37 H        4.9570     1.2170     0.6790 H     1 <1>   0.0800 
 38 H        4.3570     2.1630     2.0380 H     1 <1>   0.0800 
 39 H       -5.3070     2.2410     0.7150 H     1 <1>   0.0800 
 40 H       -5.0170     3.5320     1.8040 H     1 <1>   0.0800 
 41 H        6.3860     2.9510     0.0950 H     1 <1>   0.0800 
 42 H        5.7940     3.8960     1.4650 H     1 <1>   0.0800 
 43 H       -4.3580     6.2590     0.9720 H     1 <1>   0.0800 
 44 H       -4.9960     6.8820    -0.5280 H     1 <1>   0.0800 
 45 H       -7.0680     6.0100    -0.1750 H     1 <1>   0.0800 
 46 H       -7.0530     2.7000    -0.9550 H     1 <1>   0.4000 
 47 H       -7.5080     3.6270     2.2850 H     1 <1>   0.0800 
 48 H       -7.8260     2.4060     1.0890 H     1 <1>   0.0800 
 49 H       -8.6000     3.9760     0.9770 H     1 <1>   0.0800 
 50 H       -6.0180     5.5770     2.4070 H     1 <1>   0.4000 
@<TRIPOS>BOND
  1   1   2  2   
  2   2   3  am  
  3   2   4  1   
  4   3   5  1   
  5   3   6  1   
  6   4   7  ar  
  7   4   8  ar  
  8   5   9  1   
  9   5  26  1   
 10   5  27  1   
 11   6  10  1   
 12   6  28  1   
 13   6  29  1   
 14   7  11  ar  
 15   7  30  1   
 16   8  12  ar  
 17   8  31  1   
 18   9  13  1   
 19   9  32  1   
 20   9  33  1   
 21  10  13  1   
 22  10  34  1   
 23  10  35  1   
 24  11  14  ar  
 25  11  15  1   
 26  12  14  ar  
 27  12  36  1   
 28  13  16  1   
 29  13  17  1   
 30  14  18  1   
 31  15  19  1   
 32  15  37  1   
 33  15  38  1   
 34  16  20  1   
 35  17  21  1   
 36  17  39  1   
 37  17  40  1   
 38  18  19  1   
 39  19  41  1   
 40  19  42  1   
 41  20  22  1   
 42  20  43  1   
 43  20  44  1   
 44  21  22  1   
 45  21  23  1   
 46  21  24  1   
 47  22  25  1   
 48  22  45  1   
 49  23  46  1   
 50  24  47  1   
 51  24  48  1   
 52  24  49  1   
 53  25  50  1   
@<TRIPOS>SUBSTRUCTURE
  1 ****   6 GROUP 4 **** **** 0

# MOE 2024.06 (io_trps.svl 2023.06)
