@<TRIPOS>MOLECULE
NONAME
46 49 1 0 0 
SMALL
USER_CHARGES


@<TRIPOS>ATOM
  1 S       -0.3800    -0.1220     0.8020 S.3   1 <1>  -0.0800 
  2 C       -1.3780    -0.8290    -0.4730 C.2   1 <1>  -0.0450 
  3 C       -0.6090     1.5020     0.1890 C.2   1 <1>  -0.1400 
  4 C       -1.5770    -2.2580    -0.4860 C.2   1 <1>   0.7150 
  5 C       -1.8150     0.1730    -1.2810 C.2   1 <1>  -0.1500 
  6 C       -1.3870     1.4800    -0.9080 C.2   1 <1>  -0.1500 
  7 C        0.0670     2.6290     0.9390 C.3   1 <1>  -0.0600 
  8 O       -0.7030    -3.0050    -0.0810 O.2   1 <1>  -0.5700 
  9 N       -2.7480    -2.8120    -0.9580 N.am  1 <1>  -0.6600 
 10 C       -4.0790    -2.1460    -0.8180 C.3   1 <1>   0.1400 
 11 C       -2.8550    -4.2680    -1.2810 C.3   1 <1>   0.1400 
 12 C       -4.9810    -2.9170     0.1660 C.3   1 <1>   0.1900 
 13 C       -3.7870    -4.9840    -0.2910 C.3   1 <1>   0.1100 
 14 N       -5.1180    -4.3380    -0.2430 N.3   1 <1>  -0.8100 
 15 C       -6.3650    -2.2470     0.2660 C.3   1 <1>   0.1200 
 16 C       -6.0370    -5.0410     0.6840 C.3   1 <1>   0.3330 
 17 O       -7.1850    -2.9440     1.1600 O.3   1 <1>  -0.5600 
 18 C       -6.3000    -6.4720     0.2160 C.ar  1 <1>  -0.1430 
 19 C       -7.3790    -4.2860     0.7990 C.3   1 <1>   0.1200 
 20 C       -6.2080    -7.5250     1.1140 C.ar  1 <1>  -0.1500 
 21 C       -6.6360    -6.7390    -1.1040 C.ar  1 <1>  -0.1500 
 22 C       -6.4490    -8.8240     0.7000 C.ar  1 <1>  -0.1500 
 23 C       -6.8780    -8.0370    -1.5200 C.ar  1 <1>  -0.1500 
 24 C       -6.7850    -9.0800    -0.6180 C.ar  1 <1>  -0.1500 
 25 H       -2.4310     0.0270    -2.1500 H     1 <1>   0.1500 
 26 H       -1.6780     2.3440    -1.4800 H     1 <1>   0.1500 
 27 H       -0.1450     3.5710     0.4660 H     1 <1>   0.0800 
 28 H        1.1310     2.4760     0.9480 H     1 <1>   0.0800 
 29 H       -0.2890     2.6600     1.9530 H     1 <1>   0.0800 
 30 H       -3.9630    -1.1400    -0.4570 H     1 <1>   0.0800 
 31 H       -4.5550    -2.1050    -1.7820 H     1 <1>   0.0800 
 32 H       -3.2500    -4.3800    -2.2760 H     1 <1>   0.0800 
 33 H       -1.8860    -4.7350    -1.2600 H     1 <1>   0.0800 
 34 H       -4.5220    -2.8690     1.1400 H     1 <1>   0.0800 
 35 H       -3.3340    -4.9770     0.6860 H     1 <1>   0.0800 
 36 H       -3.8880    -6.0090    -0.6040 H     1 <1>   0.0800 
 37 H       -6.8470    -2.2230    -0.6960 H     1 <1>   0.0800 
 38 H       -6.2690    -1.2410     0.6340 H     1 <1>   0.0800 
 39 H       -5.5910    -5.0700     1.6630 H     1 <1>   0.0800 
 40 H       -7.9930    -4.7440     1.5540 H     1 <1>   0.0800 
 41 H       -7.9060    -4.3170    -0.1380 H     1 <1>   0.0800 
 42 H       -5.9480    -7.3420     2.1420 H     1 <1>   0.1500 
 43 H       -6.7040    -5.9300    -1.8110 H     1 <1>   0.1500 
 44 H       -6.3750    -9.6360     1.4030 H     1 <1>   0.1500 
 45 H       -7.1380    -8.2320    -2.5460 H     1 <1>   0.1500 
 46 H       -6.9720   -10.0900    -0.9400 H     1 <1>   0.1500 
@<TRIPOS>BOND
  1   1   2  1   
  2   1   3  1   
  3   2   4  1   
  4   2   5  2   
  5   3   6  2   
  6   3   7  1   
  7   4   8  2   
  8   4   9  am  
  9   5   6  1   
 10   5  25  1   
 11   6  26  1   
 12   7  27  1   
 13   7  28  1   
 14   7  29  1   
 15   9  10  1   
 16   9  11  1   
 17  10  12  1   
 18  10  30  1   
 19  10  31  1   
 20  11  13  1   
 21  11  32  1   
 22  11  33  1   
 23  12  14  1   
 24  12  15  1   
 25  12  34  1   
 26  13  14  1   
 27  13  35  1   
 28  13  36  1   
 29  14  16  1   
 30  15  17  1   
 31  15  37  1   
 32  15  38  1   
 33  16  18  1   
 34  16  19  1   
 35  16  39  1   
 36  17  19  1   
 37  18  20  ar  
 38  18  21  ar  
 39  19  40  1   
 40  19  41  1   
 41  20  22  ar  
 42  20  42  1   
 43  21  23  ar  
 44  21  43  1   
 45  22  24  ar  
 46  22  44  1   
 47  23  24  ar  
 48  23  45  1   
 49  24  46  1   
@<TRIPOS>SUBSTRUCTURE
  1 ****  12 GROUP 4 **** **** 0

# MOE 2024.06 (io_trps.svl 2023.06)
