@<TRIPOS>MOLECULE
NONAME
43 45 1 0 0 
SMALL
USER_CHARGES


@<TRIPOS>ATOM
  1 S        1.0460    -0.2000    -1.4170 S.3   1 <1>  -0.0800 
  2 C        0.2140    -1.7330    -1.5310 C.2   1 <1>  -0.1100 
  3 C        1.9790    -0.7660    -0.0480 C.2   1 <1>  -0.1100 
  4 C        0.6210    -2.6070    -0.5760 C.2   1 <1>  -0.0860 
  5 C        1.6420    -2.0300     0.2620 C.2   1 <1>  -0.1500 
  6 C        0.1390    -3.9590    -0.3770 C.2   1 <1>   0.7160 
  7 O        0.7770    -4.7640     0.2820 O.2   1 <1>  -0.5700 
  8 N       -1.0730    -4.3770    -0.8840 N.am  1 <1>  -0.6600 
  9 C       -1.3230    -5.8290    -1.0480 C.3   1 <1>   0.1400 
 10 C       -2.3150    -3.6070    -0.5840 C.3   1 <1>   0.1400 
 11 C       -2.0610    -6.2390     0.2340 C.3   1 <1>   0.4230 
 12 C       -3.1580    -4.3130     0.5150 C.3   1 <1>  -0.1600 
 13 N       -1.6940    -7.5680     0.8420 N.4   1 <1>  -0.9590 
 14 C       -3.6020    -5.8270     0.1290 C.3   1 <1>   0.0000 
 15 C       -1.9230    -8.7110    -0.0530 C.3   1 <1>   0.3430 
 16 C       -0.2910    -7.5450     1.3680 C.3   1 <1>   0.2630 
 17 C       -4.0680    -7.3060    -0.3290 C.3   1 <1>  -0.1600 
 18 C       -5.1390    -5.3670     0.1100 C.3   1 <1>   0.1200 
 19 C       -3.1310    -8.3960    -0.9120 C.3   1 <1>  -0.1600 
 20 O       -5.5680    -5.2720     1.4320 O.3   1 <1>  -0.6800 
 21 H       -0.5100    -1.8380    -2.3190 H     1 <1>   0.1500 
 22 H        2.6910    -0.0840     0.3820 H     1 <1>   0.1500 
 23 H        2.0780    -2.6040     1.0630 H     1 <1>   0.1500 
 24 H       -1.9280    -5.9900    -1.9220 H     1 <1>   0.0800 
 25 H       -0.3930    -6.3570    -1.1580 H     1 <1>   0.0800 
 26 H       -2.0630    -2.6130    -0.2510 H     1 <1>   0.0800 
 27 H       -2.8950    -3.5120    -1.4870 H     1 <1>   0.0800 
 28 H       -1.5930    -5.5980     0.9570 H     1 <1>   0.0800 
 29 H       -2.6390    -4.2700     1.4600 H     1 <1>   0.0800 
 30 H       -3.9270    -3.5860     0.7240 H     1 <1>   0.0800 
 31 H       -2.3370    -7.6760     1.6400 H     1 <1>   0.4500 
 32 H       -1.0650    -8.8800    -0.6840 H     1 <1>   0.0800 
 33 H       -2.1020    -9.6000     0.5310 H     1 <1>   0.0800 
 34 H        0.4130    -7.4130     0.5620 H     1 <1>   0.0800 
 35 H       -0.0640    -8.4660     1.8810 H     1 <1>   0.0800 
 36 H       -0.1640    -6.7260     2.0580 H     1 <1>   0.0800 
 37 H       -4.6000    -7.7600     0.4950 H     1 <1>   0.0800 
 38 H       -4.7500    -7.2530    -1.1640 H     1 <1>   0.0800 
 39 H       -5.8870    -5.9890    -0.3510 H     1 <1>   0.0800 
 40 H       -5.3020    -4.4230    -0.3860 H     1 <1>   0.0800 
 41 H       -2.7890    -8.0980    -1.8880 H     1 <1>   0.0800 
 42 H       -3.6870    -9.3060    -1.0600 H     1 <1>   0.0800 
 43 H       -6.5020    -4.9810     1.4830 H     1 <1>   0.4000 
@<TRIPOS>BOND
  1   1   2  1   
  2   1   3  1   
  3   2   4  2   
  4   2  21  1   
  5   3   5  2   
  6   3  22  1   
  7   4   5  1   
  8   4   6  1   
  9   5  23  1   
 10   6   7  2   
 11   6   8  am  
 12   8   9  1   
 13   8  10  1   
 14   9  11  1   
 15   9  24  1   
 16   9  25  1   
 17  10  12  1   
 18  10  26  1   
 19  10  27  1   
 20  11  13  1   
 21  11  14  1   
 22  11  28  1   
 23  12  14  1   
 24  12  29  1   
 25  12  30  1   
 26  13  15  1   
 27  13  16  1   
 28  13  31  1   
 29  14  17  1   
 30  14  18  1   
 31  15  19  1   
 32  15  32  1   
 33  15  33  1   
 34  16  34  1   
 35  16  35  1   
 36  16  36  1   
 37  17  19  1   
 38  17  37  1   
 39  17  38  1   
 40  18  20  1   
 41  18  39  1   
 42  18  40  1   
 43  19  41  1   
 44  19  42  1   
 45  20  43  1   
@<TRIPOS>SUBSTRUCTURE
  1 ****   8 GROUP 4 **** **** 0

# MOE 2024.06 (io_trps.svl 2023.06)
