@<TRIPOS>MOLECULE
NONAME
47 49 1 0 0 
SMALL
USER_CHARGES


@<TRIPOS>ATOM
  1 O       -0.1340    -0.7100     1.2210 O.2   1 <1>  -0.5700 
  2 C       -0.2590    -1.7770     0.6710 C.2   1 <1>   0.6900 
  3 N       -0.3830    -2.9250     1.3820 N.am  1 <1>  -0.4900 
  4 N       -0.2840    -1.8690    -0.6920 N.am  1 <1>  -0.5390 
  5 C       -0.5260    -4.1530     0.8010 C.2   1 <1>   0.6160 
  6 C       -0.4300    -3.0730    -1.3420 C.2   1 <1>  -0.0410 
  7 O       -0.6100    -5.1070     1.5480 O.2   1 <1>  -0.5700 
  8 C       -0.5710    -4.2330    -0.6330 C.2   1 <1>   0.0290 
  9 C       -0.7220    -5.5060    -1.2720 C.2   1 <1>   0.6160 
 10 O        0.1010    -5.8170    -2.1140 O.2   1 <1>  -0.5700 
 11 N       -1.7800    -6.3640    -1.0330 N.am  1 <1>  -0.6600 
 12 C       -1.7660    -7.7860    -1.5160 C.3   1 <1>   0.1400 
 13 C       -3.0550    -5.9460    -0.3910 C.3   1 <1>   0.1400 
 14 C       -2.0410    -8.7810    -0.3620 C.3   1 <1>   0.0000 
 15 C       -3.3760    -6.8770     0.7770 C.3   1 <1>  -0.1600 
 16 C       -3.3690    -8.3340     0.3100 C.3   1 <1>   0.2000 
 17 C       -2.2910   -10.1950    -0.9470 C.3   1 <1>   0.1200 
 18 C       -0.8560    -8.7860     0.6570 C.3   1 <1>  -0.0170 
 19 O       -3.6780    -9.1300     1.3990 O.3   1 <1>  -0.6800 
 20 O       -1.3210   -10.5520    -1.8730 O.3   1 <1>  -0.6800 
 21 C        0.4220    -9.4610     0.1700 C.ar  1 <1>  -0.1440 
 22 C        0.6620   -10.7960     0.4650 C.ar  1 <1>  -0.1500 
 23 C        1.3590    -8.7570    -0.5700 C.ar  1 <1>  -0.1500 
 24 C        1.8090   -11.4220     0.0100 C.ar  1 <1>  -0.1500 
 25 C        2.5060    -9.3800    -1.0270 C.ar  1 <1>  -0.1500 
 26 C        2.7320   -10.7140    -0.7390 C.ar  1 <1>  -0.1500 
 27 H       -0.3320    -2.8670     2.3930 H     1 <1>   0.3700 
 28 H       -0.1650    -0.9770    -1.1810 H     1 <1>   0.3700 
 29 H       -0.4230    -3.0720    -2.4220 H     1 <1>   0.1500 
 30 H       -2.5230    -7.8960    -2.2730 H     1 <1>   0.0800 
 31 H       -0.8250    -8.0190    -1.9820 H     1 <1>   0.0800 
 32 H       -3.0020    -4.9300    -0.0410 H     1 <1>   0.0800 
 33 H       -3.8430    -6.0000    -1.1230 H     1 <1>   0.0800 
 34 H       -4.3500    -6.6290     1.1590 H     1 <1>   0.0800 
 35 H       -2.6570    -6.7240     1.5610 H     1 <1>   0.0800 
 36 H       -4.1720    -8.4620    -0.3980 H     1 <1>   0.0800 
 37 H       -3.2380   -10.2320    -1.4590 H     1 <1>   0.0800 
 38 H       -2.3020   -10.9340    -0.1650 H     1 <1>   0.0800 
 39 H       -0.6150    -7.7780     0.9450 H     1 <1>   0.0800 
 40 H       -1.1560    -9.2920     1.5560 H     1 <1>   0.0800 
 41 H       -3.1030    -8.9020     2.1540 H     1 <1>   0.4000 
 42 H       -0.4270   -10.4780    -1.4630 H     1 <1>   0.4000 
 43 H       -0.0470   -11.3590     1.0470 H     1 <1>   0.1500 
 44 H        1.2010    -7.7170    -0.7980 H     1 <1>   0.1500 
 45 H        1.9850   -12.4580     0.2390 H     1 <1>   0.1500 
 46 H        3.2220    -8.8240    -1.6060 H     1 <1>   0.1500 
 47 H        3.6240   -11.1990    -1.0960 H     1 <1>   0.1500 
@<TRIPOS>BOND
  1   1   2  2   
  2   2   3  am  
  3   2   4  am  
  4   3   5  am  
  5   3  27  1   
  6   4   6  1   
  7   4  28  1   
  8   5   7  2   
  9   5   8  1   
 10   6   8  2   
 11   6  29  1   
 12   8   9  1   
 13   9  10  2   
 14   9  11  am  
 15  11  12  1   
 16  11  13  1   
 17  12  14  1   
 18  12  30  1   
 19  12  31  1   
 20  13  15  1   
 21  13  32  1   
 22  13  33  1   
 23  14  16  1   
 24  14  17  1   
 25  14  18  1   
 26  15  16  1   
 27  15  34  1   
 28  15  35  1   
 29  16  19  1   
 30  16  36  1   
 31  17  20  1   
 32  17  37  1   
 33  17  38  1   
 34  18  21  1   
 35  18  39  1   
 36  18  40  1   
 37  19  41  1   
 38  20  42  1   
 39  21  22  ar  
 40  21  23  ar  
 41  22  24  ar  
 42  22  43  1   
 43  23  25  ar  
 44  23  44  1   
 45  24  26  ar  
 46  24  45  1   
 47  25  26  ar  
 48  25  46  1   
 49  26  47  1   
@<TRIPOS>SUBSTRUCTURE
  1 ****  11 GROUP 4 **** **** 0

# MOE 2024.06 (io_trps.svl 2023.06)
