@<TRIPOS>MOLECULE
NONAME
45 47 1 0 0 
SMALL
USER_CHARGES


@<TRIPOS>ATOM
  1 O       -0.7220    -2.7630     0.1010 O.co2 1 <1>  -0.9000 
  2 C        0.0070    -3.2290     0.9870 C.2   1 <1>   1.0330 
  3 O       -0.5780    -3.8890     1.8670 O.co2 1 <1>  -0.9000 
  4 C        1.4060    -3.3730     0.7780 C.2   1 <1>  -0.2330 
  5 C        1.9780    -4.6380     0.7340 C.2   1 <1>   0.3720 
  6 C        2.4410    -2.5400     0.4940 C.2   1 <1>   0.0870 
  7 N        3.2170    -4.5890     0.4120 N.2   1 <1>  -0.4100 
  8 N        1.2700    -5.8050     0.9870 N.pl3 1 <1>  -0.8520 
  9 O        3.4850    -3.3140     0.2830 O.3   1 <1>  -0.0190 
 10 C        2.5750    -1.1050     0.3880 C.ar  1 <1>   0.0530 
 11 C        0.7920    -6.5150    -0.2250 C.3   1 <1>   0.2890 
 12 C        3.8340    -0.5010     0.4360 C.ar  1 <1>  -0.1500 
 13 C        1.4750    -0.2580     0.2360 C.ar  1 <1>  -0.1500 
 14 C       -0.3680    -5.7540    -0.9210 C.3   1 <1>   0.3430 
 15 C        0.3160    -7.9190     0.1920 C.3   1 <1>  -0.1600 
 16 C        3.9860     0.8700     0.3410 C.ar  1 <1>  -0.1500 
 17 C        1.6170     1.1140     0.1410 C.ar  1 <1>  -0.1500 
 18 N       -1.5730    -5.5920    -0.0280 N.4   1 <1>  -0.9590 
 19 C       -1.2100    -8.0160     0.4320 C.3   1 <1>  -0.1600 
 20 C        2.8820     1.6910     0.1930 C.ar  1 <1>   0.0830 
 21 C       -1.8310    -6.7040     0.9290 C.3   1 <1>   0.3430 
 22 C       -2.7620    -5.0920    -0.7590 C.3   1 <1>   0.2630 
 23 O        3.1100     3.0230     0.1070 O.3   1 <1>  -0.3620 
 24 C        2.0510     3.9400    -0.0510 C.3   1 <1>   0.0400 
 25 H        0.4640    -5.5200     1.5730 H     1 <1>   0.4000 
 26 H        1.6210    -6.6090    -0.9080 H     1 <1>   0.0800 
 27 H        4.7090    -1.1150     0.5540 H     1 <1>   0.1500 
 28 H        0.4860    -0.6720     0.1860 H     1 <1>   0.1500 
 29 H       -0.6520    -6.3070    -1.7990 H     1 <1>   0.0800 
 30 H       -0.0200    -4.7840    -1.2380 H     1 <1>   0.0800 
 31 H        0.8510    -8.2220     1.0770 H     1 <1>   0.0800 
 32 H        0.5780    -8.6160    -0.5840 H     1 <1>   0.0800 
 33 H        4.9640     1.3140     0.3810 H     1 <1>   0.1500 
 34 H        0.7340     1.7120     0.0260 H     1 <1>   0.1500 
 35 H       -1.3270    -4.7760     0.5970 H     1 <1>   0.4500 
 36 H       -1.4040    -8.7920     1.1520 H     1 <1>   0.0800 
 37 H       -1.7040    -8.2990    -0.4810 H     1 <1>   0.0800 
 38 H       -2.8910    -6.8240     1.0800 H     1 <1>   0.0800 
 39 H       -1.3890    -6.4490     1.8790 H     1 <1>   0.0800 
 40 H       -3.1020    -5.8210    -1.4750 H     1 <1>   0.0800 
 41 H       -2.5090    -4.1770    -1.2720 H     1 <1>   0.0800 
 42 H       -3.5570    -4.8770    -0.0640 H     1 <1>   0.0800 
 43 H        2.4690     4.9290    -0.0990 H     1 <1>   0.0800 
 44 H        1.3930     3.8610     0.7960 H     1 <1>   0.0800 
 45 H        1.5300     3.7170    -0.9660 H     1 <1>   0.0800 
@<TRIPOS>BOND
  1   1   2  ar  
  2   2   3  ar  
  3   2   4  1   
  4   4   5  1   
  5   4   6  2   
  6   5   7  2   
  7   5   8  1   
  8   6   9  1   
  9   6  10  1   
 10   7   9  1   
 11   8  11  1   
 12   8  25  1   
 13  10  12  ar  
 14  10  13  ar  
 15  11  14  1   
 16  11  15  1   
 17  11  26  1   
 18  12  16  ar  
 19  12  27  1   
 20  13  17  ar  
 21  13  28  1   
 22  14  18  1   
 23  14  29  1   
 24  14  30  1   
 25  15  19  1   
 26  15  31  1   
 27  15  32  1   
 28  16  20  ar  
 29  16  33  1   
 30  17  20  ar  
 31  17  34  1   
 32  18  21  1   
 33  18  22  1   
 34  18  35  1   
 35  19  21  1   
 36  19  36  1   
 37  19  37  1   
 38  20  23  1   
 39  21  38  1   
 40  21  39  1   
 41  22  40  1   
 42  22  41  1   
 43  22  42  1   
 44  23  24  1   
 45  24  43  1   
 46  24  44  1   
 47  24  45  1   
@<TRIPOS>SUBSTRUCTURE
  1 ****   4 GROUP 4 **** **** 0

# MOE 2024.06 (io_trps.svl 2023.06)
