@<TRIPOS>MOLECULE
NONAME
44 46 1 0 0 
SMALL
USER_CHARGES


@<TRIPOS>ATOM
  1 O       -1.0220     0.1950    -2.9690 O.2   1 <1>  -0.5700 
  2 C       -1.5570     0.8580    -2.1110 C.2   1 <1>   0.5690 
  3 N       -2.2270     0.2690    -1.0730 N.am  1 <1>  -0.6600 
  4 C       -1.4760     2.3750    -2.2330 C.3   1 <1>   0.0440 
  5 C       -2.8290     0.9620     0.0940 C.3   1 <1>   0.1400 
  6 C       -2.3520    -1.2020    -0.9330 C.3   1 <1>   0.1400 
  7 C       -0.7200     3.0360    -1.0840 C.ar  1 <1>  -0.1440 
  8 C       -3.5620    -0.1350     0.8620 C.3   1 <1>   0.2000 
  9 C       -2.8460    -1.4330     0.4970 C.3   1 <1>  -0.0800 
 10 C        0.5440     2.5850    -0.7340 C.ar  1 <1>  -0.1500 
 11 C       -1.2870     4.0900    -0.3800 C.ar  1 <1>  -0.1500 
 12 O       -3.5100     0.0780     2.2300 O.3   1 <1>  -0.6800 
 13 C       -3.7400    -2.6730     0.6480 C.3   1 <1>   0.0210 
 14 C        1.2240     3.1820     0.3150 C.ar  1 <1>   0.0830 
 15 C       -0.6030     4.6830     0.6690 C.ar  1 <1>  -0.1500 
 16 C       -3.0360    -3.9210     0.1510 C.2   1 <1>   0.1080 
 17 O        2.4460     2.7490     0.6570 O.3   1 <1>  -0.5320 
 18 C        0.6560     4.2280     1.0190 C.ar  1 <1>  -0.1500 
 19 N       -1.9830    -4.4120     0.7270 N.2   1 <1>  -0.7070 
 20 C       -3.4230    -4.6630    -0.9600 C.2   1 <1>  -0.1500 
 21 N       -1.6680    -5.4950    -0.0080 N.pl3 1 <1>   0.3000 
 22 C       -2.5240    -5.6670    -1.0370 C.2   1 <1>  -0.3320 
 23 C       -2.4290    -6.7960    -2.0470 C.3   1 <1>  -0.0600 
 24 H       -0.9800     2.6180    -3.1540 H     1 <1>   0.0800 
 25 H       -2.4760     2.7590    -2.2960 H     1 <1>   0.0800 
 26 H       -2.0440     1.3870     0.6960 H     1 <1>   0.0800 
 27 H       -3.5130     1.7280    -0.2270 H     1 <1>   0.0800 
 28 H       -3.0670    -1.5610    -1.6530 H     1 <1>   0.0800 
 29 H       -1.4050    -1.6880    -1.1030 H     1 <1>   0.0800 
 30 H       -4.5950    -0.1580     0.5620 H     1 <1>   0.0800 
 31 H       -1.9720    -1.5530     1.1150 H     1 <1>   0.0800 
 32 H        0.9940     1.7720    -1.2750 H     1 <1>   0.1500 
 33 H       -2.2630     4.4590    -0.6410 H     1 <1>   0.1500 
 34 H       -2.5900    -0.0060     2.5500 H     1 <1>   0.4000 
 35 H       -4.6530    -2.5400     0.0980 H     1 <1>   0.0800 
 36 H       -3.9910    -2.8090     1.6850 H     1 <1>   0.0800 
 37 H       -1.0480     5.4990     1.2120 H     1 <1>   0.1500 
 38 H        2.7620     2.0220     0.0920 H     1 <1>   0.4500 
 39 H        1.2000     4.6780     1.8300 H     1 <1>   0.1500 
 40 H       -4.2610    -4.4590    -1.6020 H     1 <1>   0.1500 
 41 H       -0.8650    -6.0950     0.2180 H     1 <1>   0.2700 
 42 H       -3.2230    -6.7150    -2.7680 H     1 <1>   0.0800 
 43 H       -2.5120    -7.7470    -1.5510 H     1 <1>   0.0800 
 44 H       -1.4890    -6.7510    -2.5680 H     1 <1>   0.0800 
@<TRIPOS>BOND
  1   1   2  2   
  2   2   3  am  
  3   2   4  1   
  4   3   5  1   
  5   3   6  1   
  6   4   7  1   
  7   4  24  1   
  8   4  25  1   
  9   5   8  1   
 10   5  26  1   
 11   5  27  1   
 12   6   9  1   
 13   6  28  1   
 14   6  29  1   
 15   7  10  ar  
 16   7  11  ar  
 17   8   9  1   
 18   8  12  1   
 19   8  30  1   
 20   9  13  1   
 21   9  31  1   
 22  10  14  ar  
 23  10  32  1   
 24  11  15  ar  
 25  11  33  1   
 26  12  34  1   
 27  13  16  1   
 28  13  35  1   
 29  13  36  1   
 30  14  17  1   
 31  14  18  ar  
 32  15  18  ar  
 33  15  37  1   
 34  16  19  2   
 35  16  20  1   
 36  17  38  1   
 37  18  39  1   
 38  19  21  1   
 39  20  22  2   
 40  20  40  1   
 41  21  22  1   
 42  21  41  1   
 43  22  23  1   
 44  23  42  1   
 45  23  43  1   
 46  23  44  1   
@<TRIPOS>SUBSTRUCTURE
  1 ****   3 GROUP 4 **** **** 0

# MOE 2024.06 (io_trps.svl 2023.06)
