@<TRIPOS>MOLECULE
NONAME
38 40 1 0 0 
SMALL
USER_CHARGES


@<TRIPOS>ATOM
  1 CL      -0.4390    -0.6080     1.2560 Cl    1 <1>  -0.1770 
  2 C       -1.7240    -1.0930     0.1650 C.ar  1 <1>   0.1770 
  3 C       -2.5210    -0.1940    -0.5580 C.ar  1 <1>   0.0820 
  4 C       -1.9130    -2.4570     0.0510 C.ar  1 <1>  -0.1500 
  5 O       -2.4640     1.1640    -0.5570 O.3   1 <1>  -0.3630 
  6 C       -3.4990    -0.7240    -1.3880 C.ar  1 <1>  -0.1500 
  7 C       -2.8980    -2.9890    -0.7770 C.ar  1 <1>   0.0860 
  8 C       -1.5900     1.9340     0.2310 C.3   1 <1>   0.1200 
  9 C       -3.6830    -2.0900    -1.4970 C.ar  1 <1>  -0.1500 
 10 C       -3.0760    -4.4220    -0.8850 C.2   1 <1>   0.5440 
 11 C       -1.8870     3.4060    -0.0420 C.3   1 <1>  -0.2400 
 12 O       -2.1360    -5.1090    -1.2430 O.2   1 <1>  -0.5700 
 13 N       -4.2720    -5.0180    -0.5860 N.am  1 <1>  -0.6600 
 14 C       -5.4100    -4.3590     0.1150 C.3   1 <1>   0.2350 
 15 C       -4.4760    -6.4940    -0.6000 C.3   1 <1>   0.2350 
 16 C       -6.5400    -5.3700     0.0950 C.3   1 <1>  -0.2420 
 17 C       -5.9590    -6.6960    -0.3370 C.3   1 <1>  -0.2420 
 18 C       -7.6100    -4.9890     1.1230 C.2   1 <1>   0.9470 
 19 C       -6.9820    -6.0040    -1.2010 C.3   1 <1>  -0.2000 
 20 C       -6.2370    -8.1200     0.1530 C.2   1 <1>   0.9470 
 21 O       -8.7850    -4.8410     0.7580 O.co2 1 <1>  -0.9000 
 22 O       -7.2500    -4.6580     2.2610 O.co2 1 <1>  -0.9000 
 23 O       -6.9580    -8.8660    -0.5240 O.co2 1 <1>  -0.9000 
 24 O       -5.6110    -8.5500     1.1310 O.co2 1 <1>  -0.9000 
 25 H       -1.2890    -3.1310     0.6100 H     1 <1>   0.1500 
 26 H       -4.1200    -0.0500    -1.9530 H     1 <1>   0.1500 
 27 H       -1.7660     1.7000     1.2660 H     1 <1>   0.0800 
 28 H       -0.5780     1.6970    -0.0480 H     1 <1>   0.0800 
 29 H       -4.4460    -2.4790    -2.1510 H     1 <1>   0.1500 
 30 H       -2.9050     3.6330     0.2210 H     1 <1>   0.0800 
 31 H       -1.7260     3.6290    -1.0810 H     1 <1>   0.0800 
 32 H       -1.2340     4.0240     0.5480 H     1 <1>   0.0800 
 33 H       -5.1230    -4.1430     1.1310 H     1 <1>   0.0800 
 34 H       -5.7160    -3.4550    -0.3770 H     1 <1>   0.0800 
 35 H       -4.1910    -6.9140    -1.5480 H     1 <1>   0.0800 
 36 H       -3.8920    -6.9420     0.1860 H     1 <1>   0.0800 
 37 H       -6.6800    -5.5730    -2.1360 H     1 <1>   0.1000 
 38 H       -7.9700    -6.4330    -1.2420 H     1 <1>   0.1000 
@<TRIPOS>BOND
  1   1   2  1   
  2   2   3  ar  
  3   2   4  ar  
  4   3   5  1   
  5   3   6  ar  
  6   4   7  ar  
  7   4  25  1   
  8   5   8  1   
  9   6   9  ar  
 10   6  26  1   
 11   7   9  ar  
 12   7  10  1   
 13   8  11  1   
 14   8  27  1   
 15   8  28  1   
 16   9  29  1   
 17  10  12  2   
 18  10  13  am  
 19  11  30  1   
 20  11  31  1   
 21  11  32  1   
 22  13  14  1   
 23  13  15  1   
 24  14  16  1   
 25  14  33  1   
 26  14  34  1   
 27  15  17  1   
 28  15  35  1   
 29  15  36  1   
 30  16  17  1   
 31  16  18  1   
 32  16  19  1   
 33  17  19  1   
 34  17  20  1   
 35  18  21  ar  
 36  18  22  ar  
 37  19  37  1   
 38  19  38  1   
 39  20  23  ar  
 40  20  24  ar  
@<TRIPOS>SUBSTRUCTURE
  1 ****  14 GROUP 4 **** **** 0

# MOE 2024.06 (io_trps.svl 2023.06)
