@<TRIPOS>MOLECULE
NONAME
44 46 1 0 0 
SMALL
USER_CHARGES


@<TRIPOS>ATOM
  1 O        1.2950     1.4760    -1.4610 O.3   1 <1>  -0.0190 
  2 N        2.1110     0.4730    -1.3490 N.2   1 <1>  -0.4100 
  3 C        0.8530     1.8750    -0.2980 C.2   1 <1>  -0.0400 
  4 C        2.1760     0.2000    -0.0950 C.2   1 <1>   0.1080 
  5 C        1.3860     1.0790     0.6410 C.2   1 <1>  -0.1500 
  6 C       -0.0730     3.0730    -0.2130 C.3   1 <1>   0.0200 
  7 C        3.0040    -0.9230     0.4900 C.3   1 <1>  -0.0590 
  8 C        0.4480     4.2160    -1.1080 C.3   1 <1>  -0.0800 
  9 C       -0.2390     5.5660    -0.9300 C.3   1 <1>   0.2000 
 10 C        1.9430     4.5050    -0.9150 C.3   1 <1>   0.3430 
 11 O       -0.3590     5.8410     0.4380 O.3   1 <1>  -0.5600 
 12 C        0.7980     6.5190    -1.5240 C.3   1 <1>   0.3430 
 13 N        2.1320     5.9830    -1.0780 N.4   1 <1>  -0.9590 
 14 C       -1.4870     6.5860     0.7890 C.3   1 <1>   0.0400 
 15 C        2.5730     6.5710     0.2260 C.3   1 <1>   0.4860 
 16 C        2.5650     8.0800     0.1500 C.ar  1 <1>  -0.1440 
 17 C        3.4960     8.7890    -0.5770 C.ar  1 <1>   0.1600 
 18 C        1.5990     8.8080     0.8070 C.ar  1 <1>   0.1600 
 19 N        3.4510    10.0920    -0.6770 N.ar  1 <1>  -0.6200 
 20 N        1.5310    10.1110     0.7200 N.ar  1 <1>  -0.6200 
 21 C        2.4590    10.6800    -0.0290 C.ar  1 <1>   0.7200 
 22 N        2.3960    12.0060    -0.1340 N.pl3 1 <1>  -0.9000 
 23 H        1.2620     1.0810     1.7090 H     1 <1>   0.1500 
 24 H       -1.0580     2.7820    -0.5360 H     1 <1>   0.0800 
 25 H       -0.1390     3.3800     0.8160 H     1 <1>   0.0800 
 26 H        3.6880    -0.5350     1.2210 H     1 <1>   0.0800 
 27 H        3.5640    -1.4100    -0.2880 H     1 <1>   0.0800 
 28 H        2.3590    -1.6460     0.9550 H     1 <1>   0.0800 
 29 H        0.3200     3.9120    -2.1330 H     1 <1>   0.0800 
 30 H       -1.2010     5.6140    -1.4160 H     1 <1>   0.0800 
 31 H        2.5220     3.9530    -1.6390 H     1 <1>   0.0800 
 32 H        2.2440     4.1950     0.0730 H     1 <1>   0.0800 
 33 H        0.6240     7.5350    -1.2130 H     1 <1>   0.0800 
 34 H        0.7350     6.4720    -2.5990 H     1 <1>   0.0800 
 35 H        2.8410     6.1810    -1.7960 H     1 <1>   0.4500 
 36 H       -1.4670     6.7520     1.8530 H     1 <1>   0.0800 
 37 H       -2.3760     6.0320     0.5350 H     1 <1>   0.0800 
 38 H       -1.4740     7.5330     0.2760 H     1 <1>   0.0800 
 39 H        1.9040     6.2540     1.0100 H     1 <1>   0.0800 
 40 H        3.5640     6.2260     0.4720 H     1 <1>   0.0800 
 41 H        4.2950     8.2850    -1.0950 H     1 <1>   0.1500 
 42 H        0.8560     8.3130     1.4130 H     1 <1>   0.1500 
 43 H        1.8500    12.4840     0.5780 H     1 <1>   0.4000 
 44 H        3.2460    12.4690    -0.4450 H     1 <1>   0.4000 
@<TRIPOS>BOND
  1   1   2  1   
  2   1   3  1   
  3   2   4  2   
  4   3   5  2   
  5   3   6  1   
  6   4   5  1   
  7   4   7  1   
  8   5  23  1   
  9   6   8  1   
 10   6  24  1   
 11   6  25  1   
 12   7  26  1   
 13   7  27  1   
 14   7  28  1   
 15   8   9  1   
 16   8  10  1   
 17   8  29  1   
 18   9  11  1   
 19   9  12  1   
 20   9  30  1   
 21  10  13  1   
 22  10  31  1   
 23  10  32  1   
 24  11  14  1   
 25  12  13  1   
 26  12  33  1   
 27  12  34  1   
 28  13  15  1   
 29  13  35  1   
 30  14  36  1   
 31  14  37  1   
 32  14  38  1   
 33  15  16  1   
 34  15  39  1   
 35  15  40  1   
 36  16  17  ar  
 37  16  18  ar  
 38  17  19  ar  
 39  17  41  1   
 40  18  20  ar  
 41  18  42  1   
 42  19  21  ar  
 43  20  21  ar  
 44  21  22  1   
 45  22  43  1   
 46  22  44  1   
@<TRIPOS>SUBSTRUCTURE
  1 ****  13 GROUP 4 **** **** 0

# MOE 2024.06 (io_trps.svl 2023.06)
