@<TRIPOS>MOLECULE
NONAME
46 49 1 0 0 
SMALL
USER_CHARGES


@<TRIPOS>ATOM
  1 S        4.7850    -1.1700     0.3170 S.3   1 <1>  -0.4600 
  2 C        4.5040     0.1550    -0.8940 C.3   1 <1>   0.0700 
  3 C        4.5830    -0.3000     1.8990 C.3   1 <1>   0.0700 
  4 C        3.1740     0.8520    -0.5780 C.3   1 <1>   0.1400 
  5 C        3.2420     0.4420     1.8990 C.3   1 <1>   0.1400 
  6 N        3.1980     1.4450     0.7930 N.am  1 <1>  -0.6600 
  7 C        3.2810     2.8010     1.0320 C.2   1 <1>   0.7160 
  8 O        3.3210     3.2000     2.1830 O.2   1 <1>  -0.5700 
  9 C        3.4000     3.7350    -0.0390 C.2   1 <1>  -0.0860 
 10 C        2.3690     4.4830    -0.6110 C.2   1 <1>   0.3720 
 11 C        4.4850     4.0590    -0.7860 C.2   1 <1>   0.0870 
 12 N        2.8020     5.1750    -1.6070 N.2   1 <1>  -0.4100 
 13 N        1.0360     4.4630    -0.1870 N.pl3 1 <1>  -0.8210 
 14 O        4.0800     4.9110    -1.6930 O.3   1 <1>  -0.0190 
 15 C        5.8530     3.6100    -0.7410 C.ar  1 <1>   0.0530 
 16 C        0.7980     5.1720     1.1080 C.3   1 <1>   0.2090 
 17 C        0.0280     4.8980    -1.2020 C.3   1 <1>   0.2090 
 18 C        6.4590     3.2250     0.4550 C.ar  1 <1>  -0.1500 
 19 C        6.6150     3.5250    -1.9060 C.ar  1 <1>  -0.1500 
 20 C       -0.6660     5.0160     1.5570 C.3   1 <1>   0.1200 
 21 C       -1.4020     4.7500    -0.6530 C.3   1 <1>   0.1200 
 22 C        7.7590     2.7570     0.4850 C.ar  1 <1>  -0.1500 
 23 C        7.9170     3.0600    -1.8820 C.ar  1 <1>  -0.1500 
 24 O       -1.5490     5.4430     0.5560 O.3   1 <1>  -0.5600 
 25 C        8.4910     2.6710    -0.6860 C.ar  1 <1>  -0.1500 
 26 H        4.4830    -0.3040    -1.8660 H     1 <1>   0.0800 
 27 H        5.3330     0.8360    -0.8310 H     1 <1>   0.0800 
 28 H        5.4060     0.3840     2.0060 H     1 <1>   0.0800 
 29 H        4.6190    -1.0420     2.6770 H     1 <1>   0.0800 
 30 H        2.3750     0.1340    -0.6370 H     1 <1>   0.0800 
 31 H        2.9830     1.6070    -1.3190 H     1 <1>   0.0800 
 32 H        3.1050     0.9220     2.8520 H     1 <1>   0.0800 
 33 H        2.4400    -0.2650     1.7720 H     1 <1>   0.0800 
 34 H        1.0250     6.2190     0.9930 H     1 <1>   0.0800 
 35 H        1.4400     4.7760     1.8720 H     1 <1>   0.0800 
 36 H        0.1350     4.2990    -2.0900 H     1 <1>   0.0800 
 37 H        0.2000     5.9270    -1.4700 H     1 <1>   0.0800 
 38 H        5.9120     3.2960     1.3790 H     1 <1>   0.1500 
 39 H        6.1810     3.8250    -2.8430 H     1 <1>   0.1500 
 40 H       -0.8500     5.6120     2.4330 H     1 <1>   0.0800 
 41 H       -0.8770     3.9860     1.7870 H     1 <1>   0.0800 
 42 H       -1.6330     3.7130    -0.4860 H     1 <1>   0.0800 
 43 H       -2.1110     5.1570    -1.3520 H     1 <1>   0.0800 
 44 H        8.2050     2.4620     1.4190 H     1 <1>   0.1500 
 45 H        8.4860     3.0010    -2.7940 H     1 <1>   0.1500 
 46 H        9.5040     2.3070    -0.6640 H     1 <1>   0.1500 
@<TRIPOS>BOND
  1   1   2  1   
  2   1   3  1   
  3   2   4  1   
  4   2  26  1   
  5   2  27  1   
  6   3   5  1   
  7   3  28  1   
  8   3  29  1   
  9   4   6  1   
 10   4  30  1   
 11   4  31  1   
 12   5   6  1   
 13   5  32  1   
 14   5  33  1   
 15   6   7  am  
 16   7   8  2   
 17   7   9  1   
 18   9  10  1   
 19   9  11  2   
 20  10  12  2   
 21  10  13  1   
 22  11  14  1   
 23  11  15  1   
 24  12  14  1   
 25  13  16  1   
 26  13  17  1   
 27  15  18  ar  
 28  15  19  ar  
 29  16  20  1   
 30  16  34  1   
 31  16  35  1   
 32  17  21  1   
 33  17  36  1   
 34  17  37  1   
 35  18  22  ar  
 36  18  38  1   
 37  19  23  ar  
 38  19  39  1   
 39  20  24  1   
 40  20  40  1   
 41  20  41  1   
 42  21  24  1   
 43  21  42  1   
 44  21  43  1   
 45  22  25  ar  
 46  22  44  1   
 47  23  25  ar  
 48  23  45  1   
 49  25  46  1   
@<TRIPOS>SUBSTRUCTURE
  1 ****   9 GROUP 4 **** **** 0

# MOE 2024.06 (io_trps.svl 2023.06)
