@<TRIPOS>MOLECULE
NONAME
57 59 1 0 0 
SMALL
USER_CHARGES


@<TRIPOS>ATOM
  1 O       -0.0890    -0.8640    -1.1290 O.2   1 <1>  -0.5700 
  2 C       -0.9690    -0.0320    -1.1120 C.2   1 <1>   0.5690 
  3 N       -2.0460    -0.1690    -0.2720 N.am  1 <1>  -0.6600 
  4 C       -0.8500     1.1720    -2.0680 C.3   1 <1>   0.1710 
  5 C       -3.2610     0.6830    -0.2380 C.3   1 <1>   0.1400 
  6 C       -2.1950    -1.3370     0.6300 C.3   1 <1>   0.1400 
  7 N        0.0150     2.3040    -1.6210 N.3   1 <1>  -0.8100 
  8 C       -4.1840     0.0290     0.8010 C.3   1 <1>  -0.0800 
  9 C       -3.6960    -1.4360     0.9120 C.3   1 <1>  -0.0800 
 10 C       -0.4290     2.8670    -0.3330 C.3   1 <1>   0.2530 
 11 C        1.4280     1.8940    -1.5700 C.3   1 <1>   0.0300 
 12 C       -5.7500     0.3850     0.6450 C.3   1 <1>   0.2800 
 13 C       -4.3560    -2.4240    -0.0480 C.3   1 <1>  -0.1600 
 14 C        0.3440     4.1260     0.0360 C.ar  1 <1>  -0.1440 
 15 O       -7.1030     0.6550     0.5450 O.3   1 <1>  -0.6800 
 16 C       -6.0110    -0.6670    -0.5280 C.3   1 <1>  -0.1600 
 17 C       -5.7790     1.5580     1.7420 C.3   1 <1>  -0.1600 
 18 C       -5.8410    -2.1300    -0.1120 C.3   1 <1>  -0.1600 
 19 C        0.9980     4.2200     1.2550 C.ar  1 <1>  -0.1500 
 20 C        0.3960     5.1980    -0.8410 C.ar  1 <1>  -0.1500 
 21 C       -5.8280     2.9760     1.1200 C.3   1 <1>  -0.2400 
 22 C        1.6880     5.3720     1.5930 C.ar  1 <1>  -0.1500 
 23 C        1.0850     6.3500    -0.5030 C.ar  1 <1>  -0.1500 
 24 C        1.7330     6.4440     0.7170 C.ar  1 <1>  -0.1440 
 25 C        2.4900     7.7070     1.0870 C.3   1 <1>  -0.0970 
 26 H       -1.8300     1.5570    -2.2750 H     1 <1>   0.0800 
 27 H       -0.4660     0.8030    -3.0010 H     1 <1>   0.0800 
 28 H       -3.0130     1.6820     0.0700 H     1 <1>   0.0800 
 29 H       -3.6970     0.7210    -1.2180 H     1 <1>   0.0800 
 30 H       -1.8070    -2.2330     0.1750 H     1 <1>   0.0800 
 31 H       -1.6540    -1.1420     1.5400 H     1 <1>   0.0800 
 32 H       -3.7570     0.3810     1.7150 H     1 <1>   0.0800 
 33 H       -3.8580    -1.7960     1.9140 H     1 <1>   0.0800 
 34 H       -1.4670     3.1330    -0.4080 H     1 <1>   0.0800 
 35 H       -0.3220     2.1290     0.4440 H     1 <1>   0.0800 
 36 H        2.0560     2.7480    -1.3810 H     1 <1>   0.0800 
 37 H        1.7220     1.4660    -2.5130 H     1 <1>   0.0800 
 38 H        1.5870     1.1660    -0.7930 H     1 <1>   0.0800 
 39 H       -3.9330    -2.3230    -1.0350 H     1 <1>   0.0800 
 40 H       -4.1880    -3.4340     0.2820 H     1 <1>   0.0800 
 41 H       -7.2500     1.5610     0.8730 H     1 <1>   0.4000 
 42 H       -6.9640    -0.6520    -1.0540 H     1 <1>   0.0800 
 43 H       -5.3430    -0.4780    -1.3440 H     1 <1>   0.0800 
 44 H       -6.5900     1.4510     2.4570 H     1 <1>   0.0800 
 45 H       -4.9690     1.6230     2.4390 H     1 <1>   0.0800 
 46 H       -6.3170    -2.3040     0.8390 H     1 <1>   0.0800 
 47 H       -6.2980    -2.7750    -0.8430 H     1 <1>   0.0800 
 48 H        0.9750     3.3970     1.9460 H     1 <1>   0.1500 
 49 H       -0.1000     5.1280    -1.7940 H     1 <1>   0.1500 
 50 H       -6.7140     3.1450     0.5320 H     1 <1>   0.0800 
 51 H       -4.9720     3.1340     0.4880 H     1 <1>   0.0800 
 52 H       -5.8060     3.7160     1.9010 H     1 <1>   0.0800 
 53 H        2.1900     5.4290     2.5420 H     1 <1>   0.1500 
 54 H        1.1150     7.1700    -1.1980 H     1 <1>   0.1500 
 55 H        2.4870     7.8490     2.1530 H     1 <1>   0.0800 
 56 H        2.0340     8.5660     0.6290 H     1 <1>   0.0800 
 57 H        3.5080     7.6310     0.7490 H     1 <1>   0.0800 
@<TRIPOS>BOND
  1   1   2  2   
  2   2   3  am  
  3   2   4  1   
  4   3   5  1   
  5   3   6  1   
  6   4   7  1   
  7   4  26  1   
  8   4  27  1   
  9   5   8  1   
 10   5  28  1   
 11   5  29  1   
 12   6   9  1   
 13   6  30  1   
 14   6  31  1   
 15   7  10  1   
 16   7  11  1   
 17   8   9  1   
 18   8  12  1   
 19   8  32  1   
 20   9  13  1   
 21   9  33  1   
 22  10  14  1   
 23  10  34  1   
 24  10  35  1   
 25  11  36  1   
 26  11  37  1   
 27  11  38  1   
 28  12  15  1   
 29  12  16  1   
 30  12  17  1   
 31  13  18  1   
 32  13  39  1   
 33  13  40  1   
 34  14  19  ar  
 35  14  20  ar  
 36  15  41  1   
 37  16  18  1   
 38  16  42  1   
 39  16  43  1   
 40  17  21  1   
 41  17  44  1   
 42  17  45  1   
 43  18  46  1   
 44  18  47  1   
 45  19  22  ar  
 46  19  48  1   
 47  20  23  ar  
 48  20  49  1   
 49  21  50  1   
 50  21  51  1   
 51  21  52  1   
 52  22  24  ar  
 53  22  53  1   
 54  23  24  ar  
 55  23  54  1   
 56  24  25  1   
 57  25  55  1   
 58  25  56  1   
 59  25  57  1   
@<TRIPOS>SUBSTRUCTURE
  1 ****   5 GROUP 4 **** **** 0

# MOE 2024.06 (io_trps.svl 2023.06)
