@<TRIPOS>MOLECULE
NONAME
45 46 1 0 0 
SMALL
USER_CHARGES


@<TRIPOS>ATOM
  1 S        0.0480     2.0280    -0.1940 S.3   1 <1>  -0.0800 
  2 C        1.2430     2.7340    -1.2560 C.2   1 <1>   0.1980 
  3 C        1.3290     1.3490     0.7680 C.2   1 <1>  -0.1400 
  4 N        2.4460     2.4950    -0.9190 N.2   1 <1>  -0.5650 
  5 C        0.7410     3.5360    -2.4340 C.3   1 <1>  -0.0600 
  6 C        2.5080     1.7020     0.2250 C.2   1 <1>   0.0460 
  7 C        0.9040     0.5240     1.9690 C.3   1 <1>  -0.0600 
  8 C        3.8960     1.3210     0.7510 C.3   1 <1>   0.6040 
  9 N        4.7670     2.5300     0.8350 N.4   1 <1>  -0.9590 
 10 C        4.5360     0.3040    -0.1940 C.3   1 <1>  -0.2400 
 11 C        6.1370     2.2850     1.3980 C.3   1 <1>   0.3430 
 12 C        4.0990     3.6700     1.5390 C.3   1 <1>   0.2630 
 13 C        7.2490     2.7590     0.4490 C.3   1 <1>   0.1400 
 14 N        7.0450     4.1760     0.0320 N.am  1 <1>  -0.4200 
 15 C        6.3680     4.4610    -1.1300 C.2   1 <1>   0.6900 
 16 C        7.5270     5.2050     0.8180 C.2   1 <1>   0.6160 
 17 O        5.7310     3.5990    -1.6990 O.2   1 <1>  -0.5700 
 18 N        6.3570     5.7450    -1.5950 N.am  1 <1>  -0.5390 
 19 O        7.9140     4.9560     1.9440 O.2   1 <1>  -0.5700 
 20 C        7.5000     6.5310     0.2970 C.2   1 <1>  -0.1360 
 21 C        6.9260     6.7920    -0.8990 C.2   1 <1>  -0.0290 
 22 C        6.8530     8.1650    -1.5370 C.3   1 <1>  -0.1020 
 23 H        0.1330     2.9130    -3.0640 H     1 <1>   0.0800 
 24 H        1.5730     3.9030    -3.0060 H     1 <1>   0.0800 
 25 H        0.1570     4.3680    -2.0880 H     1 <1>   0.0800 
 26 H        0.2960    -0.3020     1.6460 H     1 <1>   0.0800 
 27 H        0.3240     1.1310     2.6430 H     1 <1>   0.0800 
 28 H        1.7560     0.1380     2.4970 H     1 <1>   0.0800 
 29 H        3.7850     0.8820     1.7280 H     1 <1>   0.0800 
 30 H        4.8520     2.8170    -0.1660 H     1 <1>   0.4500 
 31 H        4.7160     0.7480    -1.1580 H     1 <1>   0.0800 
 32 H        3.8570    -0.5190    -0.3350 H     1 <1>   0.0800 
 33 H        5.4500    -0.0930     0.2030 H     1 <1>   0.0800 
 34 H        6.2770     1.2360     1.5950 H     1 <1>   0.0800 
 35 H        6.2450     2.8050     2.3360 H     1 <1>   0.0800 
 36 H        3.8720     3.4040     2.5580 H     1 <1>   0.0800 
 37 H        3.1820     3.9360     1.0370 H     1 <1>   0.0800 
 38 H        4.7440     4.5340     1.5420 H     1 <1>   0.0800 
 39 H        7.2800     2.1240    -0.4190 H     1 <1>   0.0800 
 40 H        8.2010     2.6660     0.9450 H     1 <1>   0.0800 
 41 H        5.8840     5.8830    -2.4910 H     1 <1>   0.3700 
 42 H        7.9530     7.2910     0.9060 H     1 <1>   0.1500 
 43 H        7.3550     8.1580    -2.4880 H     1 <1>   0.0800 
 44 H        7.3240     8.9010    -0.9090 H     1 <1>   0.0800 
 45 H        5.8270     8.4510    -1.6870 H     1 <1>   0.0800 
@<TRIPOS>BOND
  1   1   2  1   
  2   1   3  1   
  3   2   4  2   
  4   2   5  1   
  5   3   6  2   
  6   3   7  1   
  7   4   6  1   
  8   5  23  1   
  9   5  24  1   
 10   5  25  1   
 11   6   8  1   
 12   7  26  1   
 13   7  27  1   
 14   7  28  1   
 15   8   9  1   
 16   8  10  1   
 17   8  29  1   
 18   9  11  1   
 19   9  12  1   
 20   9  30  1   
 21  10  31  1   
 22  10  32  1   
 23  10  33  1   
 24  11  13  1   
 25  11  34  1   
 26  11  35  1   
 27  12  36  1   
 28  12  37  1   
 29  12  38  1   
 30  13  14  1   
 31  13  39  1   
 32  13  40  1   
 33  14  15  am  
 34  14  16  am  
 35  15  17  2   
 36  15  18  am  
 37  16  19  2   
 38  16  20  1   
 39  18  21  1   
 40  18  41  1   
 41  20  21  2   
 42  20  42  1   
 43  21  22  1   
 44  22  43  1   
 45  22  44  1   
 46  22  45  1   
@<TRIPOS>SUBSTRUCTURE
  1 ****   9 GROUP 4 **** **** 0

# MOE 2024.06 (io_trps.svl 2023.06)
