@<TRIPOS>MOLECULE
NONAME
45 47 1 0 0 
SMALL
USER_CHARGES


@<TRIPOS>ATOM
  1 F       -0.7670     0.4590    -0.5010 F     1 <1>  -0.3400 
  2 C        0.4570     0.9620    -0.3910 C.3   1 <1>   1.1640 
  3 F        0.8330     1.3010    -1.6180 F     1 <1>  -0.3400 
  4 F        0.3220     2.1040     0.2750 F     1 <1>  -0.3400 
  5 C        1.4300    -0.0360     0.2720 C.ar  1 <1>  -0.1440 
  6 C        1.8060    -1.2450    -0.3320 C.ar  1 <1>  -0.1440 
  7 C        1.9600     0.2720     1.5250 C.ar  1 <1>  -0.1500 
  8 C        2.7070    -2.0810     0.3160 C.ar  1 <1>  -0.1500 
  9 C        1.2810    -1.7200    -1.6990 C.3   1 <1>   0.0450 
 10 C        2.8460    -0.5760     2.1620 C.ar  1 <1>  -0.1500 
 11 C        3.2230    -1.7540     1.5540 C.ar  1 <1>  -0.1500 
 12 C        0.9020    -3.1960    -1.7290 C.2   1 <1>   0.5690 
 13 O        1.5930    -3.9410    -2.3830 O.2   1 <1>  -0.5700 
 14 N       -0.1900    -3.6530    -1.0400 N.am  1 <1>  -0.6600 
 15 C       -1.0410    -2.8640    -0.1140 C.3   1 <1>   0.1400 
 16 C       -0.5620    -5.0880    -0.9890 C.3   1 <1>   0.1400 
 17 C       -1.9540    -3.8870     0.5670 C.3   1 <1>   0.2000 
 18 C       -1.3020    -5.2500     0.3390 C.3   1 <1>  -0.0800 
 19 O       -2.0640    -3.6400     1.9260 O.3   1 <1>  -0.6800 
 20 C       -2.3200    -6.4030     0.3570 C.3   1 <1>  -0.0170 
 21 C       -1.6500    -7.7490     0.1410 C.ar  1 <1>   0.1670 
 22 N       -1.4680    -8.1210    -1.1160 N.ar  1 <1>  -0.6200 
 23 C       -1.2660    -8.5070     1.2380 C.ar  1 <1>  -0.1500 
 24 C       -0.8780    -9.2930    -1.2880 C.ar  1 <1>   0.1600 
 25 C       -0.6540    -9.7270     1.0440 C.ar  1 <1>  -0.1500 
 26 C       -0.4580   -10.1210    -0.2610 C.ar  1 <1>  -0.1500 
 27 H        1.6940     1.1860     2.0300 H     1 <1>   0.1500 
 28 H        3.0220    -3.0050    -0.1420 H     1 <1>   0.1500 
 29 H        2.0510    -1.5560    -2.4310 H     1 <1>   0.0800 
 30 H        0.4200    -1.1740    -2.0230 H     1 <1>   0.0800 
 31 H        3.2440    -0.3170     3.1280 H     1 <1>   0.1500 
 32 H        3.9180    -2.4170     2.0400 H     1 <1>   0.1500 
 33 H       -0.4250    -2.3650     0.6130 H     1 <1>   0.0800 
 34 H       -1.6250    -2.1480    -0.6650 H     1 <1>   0.0800 
 35 H       -1.2080    -5.3150    -1.8200 H     1 <1>   0.0800 
 36 H        0.3080    -5.7230    -1.0360 H     1 <1>   0.0800 
 37 H       -2.9380    -3.8430     0.1320 H     1 <1>   0.0800 
 38 H       -0.5560    -5.4230     1.0950 H     1 <1>   0.0800 
 39 H       -1.1820    -3.6710     2.3460 H     1 <1>   0.4000 
 40 H       -3.0600    -6.2540    -0.4100 H     1 <1>   0.0800 
 41 H       -2.8330    -6.4070     1.3020 H     1 <1>   0.0800 
 42 H       -1.4430    -8.1470     2.2350 H     1 <1>   0.1500 
 43 H       -0.7190    -9.6110    -2.3040 H     1 <1>   0.1500 
 44 H       -0.3430   -10.3410     1.8720 H     1 <1>   0.1500 
 45 H        0.0140   -11.0600    -0.4850 H     1 <1>   0.1500 
@<TRIPOS>BOND
  1   1   2  1   
  2   2   3  1   
  3   2   4  1   
  4   2   5  1   
  5   5   6  ar  
  6   5   7  ar  
  7   6   8  ar  
  8   6   9  1   
  9   7  10  ar  
 10   7  27  1   
 11   8  11  ar  
 12   8  28  1   
 13   9  12  1   
 14   9  29  1   
 15   9  30  1   
 16  10  11  ar  
 17  10  31  1   
 18  11  32  1   
 19  12  13  2   
 20  12  14  am  
 21  14  15  1   
 22  14  16  1   
 23  15  17  1   
 24  15  33  1   
 25  15  34  1   
 26  16  18  1   
 27  16  35  1   
 28  16  36  1   
 29  17  18  1   
 30  17  19  1   
 31  17  37  1   
 32  18  20  1   
 33  18  38  1   
 34  19  39  1   
 35  20  21  1   
 36  20  40  1   
 37  20  41  1   
 38  21  22  ar  
 39  21  23  ar  
 40  22  24  ar  
 41  23  25  ar  
 42  23  42  1   
 43  24  26  ar  
 44  24  43  1   
 45  25  26  ar  
 46  25  44  1   
 47  26  45  1   
@<TRIPOS>SUBSTRUCTURE
  1 ****  14 GROUP 4 **** **** 0

# MOE 2024.06 (io_trps.svl 2023.06)
