@<TRIPOS>MOLECULE
NONAME
34 35 1 0 0 
SMALL
USER_CHARGES


@<TRIPOS>ATOM
  1 N        0.2800     1.0600    -0.5800 N.ar  1 <1>  -0.6200 
  2 C        0.6390     2.1870     0.0280 C.ar  1 <1>   0.7710 
  3 C       -0.9990     0.8360    -0.7590 C.ar  1 <1>   0.4100 
  4 N       -0.2810     3.0920     0.4160 N.ar  1 <1>  -0.1790 
  5 N        1.9630     2.4260     0.2600 N.pl3 1 <1>  -0.8380 
  6 N       -1.3140    -0.3130    -1.3580 N.pl3 1 <1>  -0.9000 
  7 C       -1.9930     1.7400    -0.3530 C.ar  1 <1>  -0.1500 
  8 C       -1.6080     2.8930     0.2410 C.ar  1 <1>   0.2110 
  9 C        2.5120     3.4280     1.2390 C.3   1 <1>   0.2090 
 10 C        3.0140     1.5490    -0.3490 C.3   1 <1>   0.2090 
 11 C        2.9860     4.7260     0.5700 C.3   1 <1>   0.0960 
 12 C        3.3360     0.3930     0.5960 C.3   1 <1>  -0.2400 
 13 N        1.8630     5.5310     0.0510 N.pl3 1 <1>   0.3140 
 14 N        0.6930     5.6770     0.7190 N.2   1 <1>  -0.7070 
 15 C        1.8720     6.2700    -1.0740 C.2   1 <1>  -0.3020 
 16 C        0.0150     6.5360     0.0120 C.2   1 <1>   0.1390 
 17 C        0.6980     6.9300    -1.1300 C.2   1 <1>  -0.1500 
 18 H        0.0840     3.9900     0.7590 H     1 <1>   0.4570 
 19 H       -2.2610    -0.6340    -1.5690 H     1 <1>   0.4000 
 20 H       -0.5710    -0.9570    -1.6430 H     1 <1>   0.4000 
 21 H       -3.0240     1.4960    -0.5300 H     1 <1>   0.1500 
 22 H       -2.3000     3.6510     0.5720 H     1 <1>   0.1500 
 23 H        3.3550     2.9910     1.7460 H     1 <1>   0.0800 
 24 H        1.7890     3.6520     2.0060 H     1 <1>   0.0800 
 25 H        3.9060     2.1190    -0.5440 H     1 <1>   0.0800 
 26 H        2.6750     1.1550    -1.2940 H     1 <1>   0.0800 
 27 H        3.6650     4.5040    -0.2320 H     1 <1>   0.0800 
 28 H        3.5050     5.3270     1.2940 H     1 <1>   0.0800 
 29 H        3.7320     0.7480     1.5290 H     1 <1>   0.0800 
 30 H        4.0720    -0.2450     0.1410 H     1 <1>   0.0800 
 31 H        2.4550    -0.1950     0.7810 H     1 <1>   0.0800 
 32 H        2.7020     6.3000    -1.7580 H     1 <1>   0.1500 
 33 H       -0.9640     6.9030     0.2810 H     1 <1>   0.1500 
 34 H        0.3470     7.6240    -1.8760 H     1 <1>   0.1500 
@<TRIPOS>BOND
  1   1   2  ar  
  2   1   3  ar  
  3   2   4  ar  
  4   2   5  1   
  5   3   6  1   
  6   3   7  ar  
  7   4   8  ar  
  8   4  18  1   
  9   5   9  1   
 10   5  10  1   
 11   6  19  1   
 12   6  20  1   
 13   7   8  ar  
 14   7  21  1   
 15   8  22  1   
 16   9  11  1   
 17   9  23  1   
 18   9  24  1   
 19  10  12  1   
 20  10  25  1   
 21  10  26  1   
 22  11  13  1   
 23  11  27  1   
 24  11  28  1   
 25  12  29  1   
 26  12  30  1   
 27  12  31  1   
 28  13  14  1   
 29  13  15  1   
 30  14  16  2   
 31  15  17  2   
 32  15  32  1   
 33  16  17  1   
 34  16  33  1   
 35  17  34  1   
@<TRIPOS>SUBSTRUCTURE
  1 ****   2 GROUP 4 **** **** 0

# MOE 2024.06 (io_trps.svl 2023.06)
