@<TRIPOS>MOLECULE
NONAME
62 65 1 0 0 
SMALL
USER_CHARGES


@<TRIPOS>ATOM
  1 CL       0.7880     1.6870    -1.1520 Cl    1 <1>  -0.1770 
  2 C        1.7710     0.3860    -0.5200 C.ar  1 <1>   0.1770 
  3 C        2.6630     0.6220     0.5160 C.ar  1 <1>  -0.1440 
  4 C        1.6360    -0.8690    -1.0860 C.ar  1 <1>  -0.1500 
  5 C        3.4390    -0.4330     0.9750 C.ar  1 <1>  -0.1500 
  6 C        2.8060     1.9980     1.1400 C.3   1 <1>   0.2840 
  7 C        2.4120    -1.9140    -0.6150 C.ar  1 <1>  -0.1500 
  8 C        3.3120    -1.6940     0.4140 C.ar  1 <1>  -0.1500 
  9 N        3.6720     2.8160     0.2710 N.am  1 <1>  -0.7300 
 10 C        4.8360     3.3880     0.6610 C.2   1 <1>   0.5690 
 11 O        5.2310     3.3110     1.7990 O.2   1 <1>  -0.5700 
 12 C        5.6600     4.1460    -0.3760 C.3   1 <1>  -0.0190 
 13 C        7.1230     3.6580    -0.4010 C.3   1 <1>  -0.1600 
 14 C        5.5980     5.6650    -0.1240 C.3   1 <1>  -0.1600 
 15 C        7.9660     4.4730    -1.3810 C.3   1 <1>   0.2090 
 16 C        6.4830     6.4460    -1.0980 C.3   1 <1>   0.2090 
 17 N        7.8720     5.9120    -1.0140 N.pl3 1 <1>  -0.8380 
 18 C        8.9170     6.6730    -0.5980 C.ar  1 <1>   0.4100 
 19 N        8.8830     7.9640    -0.8680 N.ar  1 <1>  -0.6200 
 20 C        9.9930     6.1040     0.1090 C.ar  1 <1>  -0.1500 
 21 C        9.8950     8.7230    -0.4800 C.ar  1 <1>   0.7710 
 22 C       11.0230     6.8920     0.4970 C.ar  1 <1>   0.2180 
 23 N       10.9470     8.2050     0.1800 N.ar  1 <1>  -0.1790 
 24 N        9.8780    10.0550    -0.7610 N.pl3 1 <1>  -0.8380 
 25 C       12.2370     6.3810     1.2640 C.3   1 <1>  -0.0170 
 26 C       10.8170    11.1140    -0.2490 C.3   1 <1>   0.2090 
 27 C        8.8250    10.6640    -1.6570 C.3   1 <1>   0.2090 
 28 C       13.5360     6.5390     0.4630 C.3   1 <1>  -0.2400 
 29 C       10.0400    12.3050     0.3450 C.3   1 <1>   0.1200 
 30 C        8.1620    11.8820    -0.9920 C.3   1 <1>   0.1200 
 31 O        9.1290    12.8070    -0.5850 O.3   1 <1>  -0.5600 
 32 H        0.9340    -1.0220    -1.8860 H     1 <1>   0.1500 
 33 H        4.1470    -0.2760     1.7720 H     1 <1>   0.1500 
 34 H        3.2370     1.9150     2.1240 H     1 <1>   0.0800 
 35 H        1.8450     2.4710     1.2390 H     1 <1>   0.0800 
 36 H        2.3160    -2.8960    -1.0480 H     1 <1>   0.1500 
 37 H        3.9170    -2.5060     0.7790 H     1 <1>   0.1500 
 38 H        3.3640     2.8640    -0.7000 H     1 <1>   0.3700 
 39 H        5.2360     3.9550    -1.3460 H     1 <1>   0.0800 
 40 H        7.1510     2.6200    -0.6800 H     1 <1>   0.0800 
 41 H        7.5520     3.7440     0.5830 H     1 <1>   0.0800 
 42 H        5.9240     5.8760     0.8800 H     1 <1>   0.0800 
 43 H        4.5820     6.0060    -0.2140 H     1 <1>   0.0800 
 44 H        7.5900     4.3410    -2.3820 H     1 <1>   0.0800 
 45 H        8.9870     4.1340    -1.3720 H     1 <1>   0.0800 
 46 H        6.4520     7.4920    -0.8430 H     1 <1>   0.0800 
 47 H        6.1190     6.3360    -2.1060 H     1 <1>   0.0800 
 48 H        9.9670     5.0570     0.3390 H     1 <1>   0.1500 
 49 H       11.6920     8.8490     0.4010 H     1 <1>   0.4570 
 50 H       12.0980     5.3370     1.4930 H     1 <1>   0.0800 
 51 H       12.3210     6.9030     2.2010 H     1 <1>   0.0800 
 52 H       11.4230    11.4760    -1.0630 H     1 <1>   0.0800 
 53 H       11.4730    10.7310     0.5100 H     1 <1>   0.0800 
 54 H        8.0550     9.9580    -1.9160 H     1 <1>   0.0800 
 55 H        9.2850    10.9830    -2.5770 H     1 <1>   0.0800 
 56 H       13.4640     6.0180    -0.4780 H     1 <1>   0.0800 
 57 H       14.3570     6.1150     1.0150 H     1 <1>   0.0800 
 58 H       13.7620     7.5720     0.2710 H     1 <1>   0.0800 
 59 H       10.7160    13.1030     0.5990 H     1 <1>   0.0800 
 60 H        9.5020    12.0130     1.2300 H     1 <1>   0.0800 
 61 H        7.5850    11.5810    -0.1350 H     1 <1>   0.0800 
 62 H        7.5100    12.3760    -1.6900 H     1 <1>   0.0800 
@<TRIPOS>BOND
  1   1   2  1   
  2   2   3  ar  
  3   2   4  ar  
  4   3   5  ar  
  5   3   6  1   
  6   4   7  ar  
  7   4  32  1   
  8   5   8  ar  
  9   5  33  1   
 10   6   9  1   
 11   6  34  1   
 12   6  35  1   
 13   7   8  ar  
 14   7  36  1   
 15   8  37  1   
 16   9  10  am  
 17   9  38  1   
 18  10  11  2   
 19  10  12  1   
 20  12  13  1   
 21  12  14  1   
 22  12  39  1   
 23  13  15  1   
 24  13  40  1   
 25  13  41  1   
 26  14  16  1   
 27  14  42  1   
 28  14  43  1   
 29  15  17  1   
 30  15  44  1   
 31  15  45  1   
 32  16  17  1   
 33  16  46  1   
 34  16  47  1   
 35  17  18  1   
 36  18  19  ar  
 37  18  20  ar  
 38  19  21  ar  
 39  20  22  ar  
 40  20  48  1   
 41  21  23  ar  
 42  21  24  1   
 43  22  23  ar  
 44  22  25  1   
 45  23  49  1   
 46  24  26  1   
 47  24  27  1   
 48  25  28  1   
 49  25  50  1   
 50  25  51  1   
 51  26  29  1   
 52  26  52  1   
 53  26  53  1   
 54  27  30  1   
 55  27  54  1   
 56  27  55  1   
 57  28  56  1   
 58  28  57  1   
 59  28  58  1   
 60  29  31  1   
 61  29  59  1   
 62  29  60  1   
 63  30  31  1   
 64  30  61  1   
 65  30  62  1   
@<TRIPOS>SUBSTRUCTURE
  1 ****  17 GROUP 4 **** **** 0

# MOE 2024.06 (io_trps.svl 2023.06)
