@<TRIPOS>MOLECULE
NONAME
52 55 1 0 0 
SMALL
USER_CHARGES


@<TRIPOS>ATOM
  1 O        2.0350     1.7560    -1.4960 O.3   1 <1>  -0.0190 
  2 N        2.9630     0.8730    -1.2760 N.2   1 <1>  -0.4100 
  3 C        1.1540     1.7860    -0.5310 C.2   1 <1>  -0.0400 
  4 C        2.6620     0.3060    -0.1630 C.2   1 <1>   0.1080 
  5 C        1.5010     0.8580     0.3730 C.2   1 <1>  -0.1500 
  6 C        0.0150     2.7860    -0.5810 C.3   1 <1>   0.0200 
  7 C        3.4680    -0.8080     0.4690 C.3   1 <1>  -0.0590 
  8 C        0.5480     4.1840    -0.9560 C.3   1 <1>  -0.0800 
  9 C       -0.4280     5.3510    -0.8060 C.3   1 <1>   0.2000 
 10 C        1.7690     4.6210    -0.1480 C.3   1 <1>   0.3430 
 11 O       -1.1130     5.2520     0.4020 O.3   1 <1>  -0.6800 
 12 C        0.4830     6.5840    -0.7710 C.3   1 <1>   0.3430 
 13 N        1.8200     6.1010    -0.2900 N.4   1 <1>  -0.9590 
 14 C        2.3340     6.8270     0.8970 C.3   1 <1>   0.4860 
 15 C        2.5270     8.2760     0.5050 C.ar  1 <1>  -0.1430 
 16 C        3.4260     8.6090    -0.5100 C.ar  1 <1>   0.0830 
 17 C        1.8060     9.2680     1.1550 C.ar  1 <1>  -0.1500 
 18 O        4.0950     7.5900    -1.1150 O.3   1 <1>  -0.3630 
 19 C        3.5980     9.9440    -0.8720 C.ar  1 <1>  -0.1500 
 20 C        1.9890    10.5850     0.7810 C.ar  1 <1>  -0.1430 
 21 C        5.1910     7.8490    -1.9710 C.3   1 <1>   0.0400 
 22 C        2.8700    10.9160    -0.2160 C.ar  1 <1>  -0.1430 
 23 C        1.3170    11.8120     1.3490 C.3   1 <1>  -0.0170 
 24 C        2.9020    12.4080    -0.4470 C.3   1 <1>  -0.0170 
 25 C        2.1390    12.9730     0.7640 C.3   1 <1>  -0.1600 
 26 H        1.0300     0.5740     1.2960 H     1 <1>   0.1500 
 27 H       -0.7040     2.4670    -1.3160 H     1 <1>   0.0800 
 28 H       -0.4740     2.7920     0.3770 H     1 <1>   0.0800 
 29 H        3.7780    -0.5230     1.4580 H     1 <1>   0.0800 
 30 H        4.3420    -1.0110    -0.1240 H     1 <1>   0.0800 
 31 H        2.8730    -1.7010     0.5260 H     1 <1>   0.0800 
 32 H        0.8570     4.1450    -1.9870 H     1 <1>   0.0800 
 33 H       -1.1550     5.4010    -1.5990 H     1 <1>   0.0800 
 34 H        2.6700     4.1530    -0.5140 H     1 <1>   0.0800 
 35 H        1.6280     4.3520     0.8860 H     1 <1>   0.0800 
 36 H       -0.5190     5.2040     1.1740 H     1 <1>   0.4000 
 37 H        0.0700     7.3490    -0.1340 H     1 <1>   0.0800 
 38 H        0.5880     6.9810    -1.7680 H     1 <1>   0.0800 
 39 H        2.5140     6.3460    -1.0210 H     1 <1>   0.4500 
 40 H        1.6410     6.7510     1.7180 H     1 <1>   0.0800 
 41 H        3.2840     6.4160     1.1990 H     1 <1>   0.0800 
 42 H        1.1110     9.0390     1.9450 H     1 <1>   0.1500 
 43 H        4.2770    10.2440    -1.6480 H     1 <1>   0.1500 
 44 H        5.6320     6.9090    -2.2530 H     1 <1>   0.0800 
 45 H        5.9150     8.4460    -1.4440 H     1 <1>   0.0800 
 46 H        4.8400     8.3630    -2.8490 H     1 <1>   0.0800 
 47 H        0.2990    11.8590     1.0050 H     1 <1>   0.0800 
 48 H        1.3410    11.8180     2.4250 H     1 <1>   0.0800 
 49 H        3.9100    12.7820    -0.4870 H     1 <1>   0.0800 
 50 H        2.3880    12.6420    -1.3620 H     1 <1>   0.0800 
 51 H        2.8530    13.2980     1.5010 H     1 <1>   0.0800 
 52 H        1.5170    13.8060     0.4900 H     1 <1>   0.0800 
@<TRIPOS>BOND
  1   1   2  1   
  2   1   3  1   
  3   2   4  2   
  4   3   5  2   
  5   3   6  1   
  6   4   5  1   
  7   4   7  1   
  8   5  26  1   
  9   6   8  1   
 10   6  27  1   
 11   6  28  1   
 12   7  29  1   
 13   7  30  1   
 14   7  31  1   
 15   8   9  1   
 16   8  10  1   
 17   8  32  1   
 18   9  11  1   
 19   9  12  1   
 20   9  33  1   
 21  10  13  1   
 22  10  34  1   
 23  10  35  1   
 24  11  36  1   
 25  12  13  1   
 26  12  37  1   
 27  12  38  1   
 28  13  14  1   
 29  13  39  1   
 30  14  15  1   
 31  14  40  1   
 32  14  41  1   
 33  15  16  ar  
 34  15  17  ar  
 35  16  18  1   
 36  16  19  ar  
 37  17  20  ar  
 38  17  42  1   
 39  18  21  1   
 40  19  22  ar  
 41  19  43  1   
 42  20  22  ar  
 43  20  23  1   
 44  21  44  1   
 45  21  45  1   
 46  21  46  1   
 47  22  24  1   
 48  23  25  1   
 49  23  47  1   
 50  23  48  1   
 51  24  25  1   
 52  24  49  1   
 53  24  50  1   
 54  25  51  1   
 55  25  52  1   
@<TRIPOS>SUBSTRUCTURE
  1 ****  13 GROUP 4 **** **** 0

# MOE 2024.06 (io_trps.svl 2023.06)
