@<TRIPOS>MOLECULE
NONAME
39 41 1 0 0 
SMALL
USER_CHARGES


@<TRIPOS>ATOM
  1 S       -2.4480    -0.4520     2.7190 S.3   1 <1>  -0.0800 
  2 C       -2.5910    -1.5100     1.3280 C.2   1 <1>  -0.1100 
  3 C       -2.8020     0.9550     1.7340 C.2   1 <1>  -0.1100 
  4 C       -2.8960    -0.8100     0.2170 C.2   1 <1>  -0.1810 
  5 C       -3.0100     0.6000     0.4530 C.2   1 <1>  -0.1500 
  6 C       -3.1100    -1.3830    -1.1810 C.3   1 <1>   0.0820 
  7 C       -3.3630    -2.8860    -1.1950 C.2   1 <1>   0.5690 
  8 O       -2.5170    -3.6030    -1.6740 O.2   1 <1>  -0.5700 
  9 N       -4.5260    -3.4030    -0.6870 N.am  1 <1>  -0.6600 
 10 C       -5.6370    -2.6370    -0.0640 C.3   1 <1>   0.1400 
 11 C       -4.7750    -4.8610    -0.5940 C.3   1 <1>   0.1400 
 12 C       -6.6820    -3.6910     0.2990 C.3   1 <1>   0.2000 
 13 C       -5.9130    -5.0040     0.4180 C.3   1 <1>  -0.0800 
 14 O       -7.3130    -3.3950     1.4960 O.3   1 <1>  -0.6800 
 15 C       -6.7940    -6.2400     0.1850 C.3   1 <1>   0.0200 
 16 C       -5.9700    -7.5120     0.2340 C.2   1 <1>  -0.0400 
 17 O       -5.3490    -7.8460     1.3340 O.3   1 <1>  -0.0190 
 18 C       -5.7090    -8.4510    -0.6880 C.2   1 <1>  -0.1500 
 19 N       -4.6840    -8.9560     1.1970 N.2   1 <1>  -0.4100 
 20 C       -4.8830    -9.3440    -0.0120 C.2   1 <1>   0.1080 
 21 C       -4.2930   -10.6020    -0.6090 C.3   1 <1>  -0.0590 
 22 H       -2.4290    -2.5620     1.4900 H     1 <1>   0.1500 
 23 H       -2.8140     1.9120     2.2250 H     1 <1>   0.1500 
 24 H       -3.2410     1.2830    -0.3470 H     1 <1>   0.1500 
 25 H       -2.2420    -1.1730    -1.7780 H     1 <1>   0.0800 
 26 H       -3.9480    -0.8980    -1.6450 H     1 <1>   0.0800 
 27 H       -5.2780    -2.1370     0.8180 H     1 <1>   0.0800 
 28 H       -6.0420    -1.9230    -0.7600 H     1 <1>   0.0800 
 29 H       -5.0690    -5.2260    -1.5640 H     1 <1>   0.0800 
 30 H       -3.8900    -5.3840    -0.2700 H     1 <1>   0.0800 
 31 H       -7.4300    -3.7410    -0.4740 H     1 <1>   0.0800 
 32 H       -5.4610    -5.0670     1.3930 H     1 <1>   0.0800 
 33 H       -6.6680    -3.3840     2.2300 H     1 <1>   0.4000 
 34 H       -7.2800    -6.1720    -0.7720 H     1 <1>   0.0800 
 35 H       -7.5560    -6.2870     0.9440 H     1 <1>   0.0800 
 36 H       -6.0360    -8.5290    -1.7080 H     1 <1>   0.1500 
 37 H       -5.0790   -11.2430    -0.9600 H     1 <1>   0.0800 
 38 H       -3.7210   -11.1270     0.1340 H     1 <1>   0.0800 
 39 H       -3.6470   -10.3470    -1.4290 H     1 <1>   0.0800 
@<TRIPOS>BOND
  1   1   2  1   
  2   1   3  1   
  3   2   4  2   
  4   2  22  1   
  5   3   5  2   
  6   3  23  1   
  7   4   5  1   
  8   4   6  1   
  9   5  24  1   
 10   6   7  1   
 11   6  25  1   
 12   6  26  1   
 13   7   8  2   
 14   7   9  am  
 15   9  10  1   
 16   9  11  1   
 17  10  12  1   
 18  10  27  1   
 19  10  28  1   
 20  11  13  1   
 21  11  29  1   
 22  11  30  1   
 23  12  13  1   
 24  12  14  1   
 25  12  31  1   
 26  13  15  1   
 27  13  32  1   
 28  14  33  1   
 29  15  16  1   
 30  15  34  1   
 31  15  35  1   
 32  16  17  1   
 33  16  18  2   
 34  17  19  1   
 35  18  20  1   
 36  18  36  1   
 37  19  20  2   
 38  20  21  1   
 39  21  37  1   
 40  21  38  1   
 41  21  39  1   
@<TRIPOS>SUBSTRUCTURE
  1 ****  11 GROUP 4 **** **** 0

# MOE 2024.06 (io_trps.svl 2023.06)
