@<TRIPOS>MOLECULE
NONAME
48 49 1 0 0 
SMALL
USER_CHARGES


@<TRIPOS>ATOM
  1 F       -2.0670    -0.3850    -0.2110 F     1 <1>  -0.3400 
  2 C       -1.8490    -1.6910    -0.2270 C.3   1 <1>   1.3000 
  3 F       -1.2880    -1.9970    -1.3900 F     1 <1>  -0.3400 
  4 F       -0.9880    -1.9740     0.7420 F     1 <1>  -0.3400 
  5 O       -3.0700    -2.3870    -0.0480 O.3   1 <1>  -0.3630 
  6 C       -3.0340    -3.7310    -0.0330 C.ar  1 <1>   0.0820 
  7 C       -3.1830    -4.4420    -1.2130 C.ar  1 <1>  -0.1500 
  8 C       -2.8680    -4.4060     1.1670 C.ar  1 <1>  -0.1500 
  9 C       -3.1750    -5.8240    -1.1870 C.ar  1 <1>  -0.1500 
 10 C       -2.8610    -5.7880     1.1820 C.ar  1 <1>  -0.1500 
 11 C       -3.0340    -6.5270     0.0100 C.ar  1 <1>   0.0860 
 12 C       -3.0900    -7.9740     0.0240 C.2   1 <1>   0.5440 
 13 O       -2.2420    -8.6090    -0.5680 O.2   1 <1>  -0.5700 
 14 N       -4.1210    -8.6420     0.6510 N.am  1 <1>  -0.6600 
 15 C       -4.1770   -10.1400     0.6460 C.3   1 <1>   0.3210 
 16 C       -5.3480    -7.9660     1.1600 C.3   1 <1>   0.1400 
 17 C       -5.2240   -10.6530    -0.3420 C.2   1 <1>   0.0460 
 18 C       -6.2460    -7.5390    -0.0160 C.3   1 <1>   0.3430 
 19 N       -6.5420   -10.6560    -0.0360 N.2   1 <1>  -0.5650 
 20 C       -5.0180   -11.1660    -1.5780 C.2   1 <1>  -0.3320 
 21 N       -7.1330    -6.3720     0.3140 N.4   1 <1>  -0.9590 
 22 C       -7.0980   -11.1950    -1.0730 C.2   1 <1>   0.0360 
 23 N       -6.2260   -11.5250    -2.0480 N.pl3 1 <1>   0.0330 
 24 C       -3.7360   -11.3610    -2.3720 C.3   1 <1>  -0.0600 
 25 C       -8.2020    -6.2490    -0.7230 C.3   1 <1>   0.2630 
 26 C       -6.3590    -5.0930     0.4210 C.3   1 <1>   0.2630 
 27 H       -3.2940    -3.9160    -2.1470 H     1 <1>   0.1500 
 28 H       -2.7360    -3.8500     2.0810 H     1 <1>   0.1500 
 29 H       -3.2710    -6.3800    -2.1060 H     1 <1>   0.1500 
 30 H       -2.7130    -6.3120     2.1110 H     1 <1>   0.1500 
 31 H       -4.4220   -10.4940     1.6320 H     1 <1>   0.0800 
 32 H       -3.2160   -10.5520     0.3940 H     1 <1>   0.0800 
 33 H       -5.0600    -7.1180     1.7500 H     1 <1>   0.0800 
 34 H       -5.8940    -8.6420     1.7960 H     1 <1>   0.0800 
 35 H       -6.8530    -8.3810    -0.3040 H     1 <1>   0.0800 
 36 H       -5.6220    -7.2830    -0.8550 H     1 <1>   0.0800 
 37 H       -7.5930    -6.5700     1.2170 H     1 <1>   0.4500 
 38 H       -8.1550   -11.3800    -1.1710 H     1 <1>   0.1500 
 39 H       -6.4380   -11.9720    -2.9450 H     1 <1>   0.2700 
 40 H       -2.8900   -10.9630    -1.8400 H     1 <1>   0.0800 
 41 H       -3.8030   -10.8520    -3.3170 H     1 <1>   0.0800 
 42 H       -3.5640   -12.4070    -2.5510 H     1 <1>   0.0800 
 43 H       -7.7650    -6.0560    -1.6900 H     1 <1>   0.0800 
 44 H       -8.8700    -5.4390    -0.4790 H     1 <1>   0.0800 
 45 H       -8.7750    -7.1610    -0.7790 H     1 <1>   0.0800 
 46 H       -5.8580    -4.8790    -0.5100 H     1 <1>   0.0800 
 47 H       -5.6170    -5.1620     1.1990 H     1 <1>   0.0800 
 48 H       -7.0200    -4.2730     0.6520 H     1 <1>   0.0800 
@<TRIPOS>BOND
  1   1   2  1   
  2   2   3  1   
  3   2   4  1   
  4   2   5  1   
  5   5   6  1   
  6   6   7  ar  
  7   6   8  ar  
  8   7   9  ar  
  9   7  27  1   
 10   8  10  ar  
 11   8  28  1   
 12   9  11  ar  
 13   9  29  1   
 14  10  11  ar  
 15  10  30  1   
 16  11  12  1   
 17  12  13  2   
 18  12  14  am  
 19  14  15  1   
 20  14  16  1   
 21  15  17  1   
 22  15  31  1   
 23  15  32  1   
 24  16  18  1   
 25  16  33  1   
 26  16  34  1   
 27  17  19  1   
 28  17  20  2   
 29  18  21  1   
 30  18  35  1   
 31  18  36  1   
 32  19  22  2   
 33  20  23  1   
 34  20  24  1   
 35  21  25  1   
 36  21  26  1   
 37  21  37  1   
 38  22  23  1   
 39  22  38  1   
 40  23  39  1   
 41  24  40  1   
 42  24  41  1   
 43  24  42  1   
 44  25  43  1   
 45  25  44  1   
 46  25  45  1   
 47  26  46  1   
 48  26  47  1   
 49  26  48  1   
@<TRIPOS>SUBSTRUCTURE
  1 ****  11 GROUP 4 **** **** 0

# MOE 2024.06 (io_trps.svl 2023.06)
