@<TRIPOS>MOLECULE
NONAME
44 45 1 0 0 
SMALL
USER_CHARGES


@<TRIPOS>ATOM
  1 S       -0.1200     0.9180    -0.3710 S.3   1 <1>  -0.0800 
  2 C        0.9460    -0.4750    -0.3600 C.2   1 <1>   0.4620 
  3 C        1.2790     1.9490    -0.2520 C.2   1 <1>  -0.1100 
  4 N        2.1890    -0.1880    -0.2780 N.2   1 <1>  -0.5650 
  5 N        0.4050    -1.7140    -0.4370 N.pl3 1 <1>  -0.8840 
  6 C        2.3810     1.1800    -0.2160 C.2   1 <1>   0.0460 
  7 C        3.8270     1.6390    -0.1150 C.3   1 <1>   0.0210 
  8 C        3.9910     3.1670    -0.1390 C.3   1 <1>  -0.1600 
  9 C        5.4650     3.5610    -0.0530 C.3   1 <1>   0.1400 
 10 N        5.5720     5.0340    -0.0840 N.am  1 <1>  -0.7300 
 11 C        6.1090     5.7990     0.9030 C.2   1 <1>   0.5690 
 12 O        6.5400     5.3180     1.9220 O.2   1 <1>  -0.5700 
 13 C        6.1610     7.3150     0.7250 C.3   1 <1>  -0.0190 
 14 C        4.7560     7.9240     0.5530 C.3   1 <1>  -0.1600 
 15 C        7.1050     7.7330    -0.4300 C.3   1 <1>  -0.1600 
 16 C        4.7880     9.4660     0.5320 C.3   1 <1>   0.2000 
 17 C        6.8000     9.1300    -1.0060 C.3   1 <1>  -0.1600 
 18 O        3.7600     9.9060    -0.3210 O.3   1 <1>  -0.5600 
 19 C        6.1440    10.0380     0.0380 C.3   1 <1>   0.2000 
 20 C        2.4970     9.9740     0.2630 C.3   1 <1>   0.0400 
 21 O        5.9320    11.2710    -0.5430 O.3   1 <1>  -0.6800 
 22 H        1.1160     3.0100    -0.2210 H     1 <1>   0.1500 
 23 H       -0.6010    -1.8720    -0.4910 H     1 <1>   0.4000 
 24 H        1.0190    -2.5290    -0.4230 H     1 <1>   0.4000 
 25 H        4.2420     1.2460     0.7960 H     1 <1>   0.0800 
 26 H        4.3720     1.2080    -0.9370 H     1 <1>   0.0800 
 27 H        3.4670     3.5910     0.7000 H     1 <1>   0.0800 
 28 H        3.5690     3.5520    -1.0500 H     1 <1>   0.0800 
 29 H        6.0130     3.1490    -0.8830 H     1 <1>   0.0800 
 30 H        5.8950     3.1800     0.8590 H     1 <1>   0.0800 
 31 H        5.2200     5.4890    -0.9270 H     1 <1>   0.3700 
 32 H        6.5690     7.7150     1.6380 H     1 <1>   0.0800 
 33 H        4.1250     7.5950     1.3590 H     1 <1>   0.0800 
 34 H        4.3370     7.5660    -0.3720 H     1 <1>   0.0800 
 35 H        8.1160     7.7130    -0.0600 H     1 <1>   0.0800 
 36 H        7.0520     7.0210    -1.2360 H     1 <1>   0.0800 
 37 H        4.6130     9.8550     1.5210 H     1 <1>   0.0800 
 38 H        6.1260     9.0280    -1.8390 H     1 <1>   0.0800 
 39 H        7.7100     9.5810    -1.3620 H     1 <1>   0.0800 
 40 H        6.8180    10.1740     0.8660 H     1 <1>   0.0800 
 41 H        1.8020    10.3180    -0.4820 H     1 <1>   0.0800 
 42 H        2.5210    10.6720     1.0820 H     1 <1>   0.0800 
 43 H        2.2040     8.9970     0.6060 H     1 <1>   0.0800 
 44 H        5.0240    11.2350    -0.9230 H     1 <1>   0.4000 
@<TRIPOS>BOND
  1   1   2  1   
  2   1   3  1   
  3   2   4  2   
  4   2   5  1   
  5   3   6  2   
  6   3  22  1   
  7   4   6  1   
  8   5  23  1   
  9   5  24  1   
 10   6   7  1   
 11   7   8  1   
 12   7  25  1   
 13   7  26  1   
 14   8   9  1   
 15   8  27  1   
 16   8  28  1   
 17   9  10  1   
 18   9  29  1   
 19   9  30  1   
 20  10  11  am  
 21  10  31  1   
 22  11  12  2   
 23  11  13  1   
 24  13  14  1   
 25  13  15  1   
 26  13  32  1   
 27  14  16  1   
 28  14  33  1   
 29  14  34  1   
 30  15  17  1   
 31  15  35  1   
 32  15  36  1   
 33  16  18  1   
 34  16  19  1   
 35  16  37  1   
 36  17  19  1   
 37  17  38  1   
 38  17  39  1   
 39  18  20  1   
 40  19  21  1   
 41  19  40  1   
 42  20  41  1   
 43  20  42  1   
 44  20  43  1   
 45  21  44  1   
@<TRIPOS>SUBSTRUCTURE
  1 ****  10 GROUP 4 **** **** 0

# MOE 2024.06 (io_trps.svl 2023.06)
