@<TRIPOS>MOLECULE
NONAME
39 41 1 0 0 
SMALL
USER_CHARGES


@<TRIPOS>ATOM
  1 S        0.0670    -0.1810    -0.7650 S.3   1 <1>  -0.0800 
  2 C       -1.4350     0.3860    -0.0290 C.2   1 <1>   0.3250 
  3 C        0.6510     1.4460    -0.8640 C.2   1 <1>  -0.1100 
  4 N       -1.4380     1.6760     0.1010 N.2   1 <1>  -0.5650 
  5 C       -2.4480    -0.6030     0.3280 C.ar  1 <1>   0.6730 
  6 C       -0.2830     2.2680    -0.3600 C.2   1 <1>   0.0460 
  7 N       -3.5990    -0.1630     0.8610 N.ar  1 <1>  -0.6200 
  8 N       -2.1790    -1.9020     0.1050 N.ar  1 <1>  -0.6200 
  9 C       -0.2160     3.7820    -0.2360 C.3   1 <1>   0.0210 
 10 C       -4.5030    -1.0570     1.1780 C.ar  1 <1>   0.1600 
 11 C       -3.1000    -2.7750     0.4320 C.ar  1 <1>   0.1600 
 12 C        0.9960     4.3860    -0.9480 C.3   1 <1>   0.1400 
 13 C       -4.2990    -2.3980     0.9810 C.ar  1 <1>  -0.1500 
 14 N        0.9830     5.8620    -0.8150 N.am  1 <1>  -0.7300 
 15 C        1.8310     6.6170    -0.0530 C.2   1 <1>   0.6160 
 16 O        2.7000     6.0320     0.5670 O.2   1 <1>  -0.5700 
 17 C        1.6480     8.0600     0.0040 C.2   1 <1>   0.0910 
 18 O        0.4330     8.4670    -0.5130 O.3   1 <1>  -0.3570 
 19 C        2.5000     9.0110     0.4870 C.2   1 <1>  -0.0620 
 20 C       -0.0470     9.7370    -0.1170 C.3   1 <1>   0.1200 
 21 O        2.1950    10.3250     0.4960 O.3   1 <1>  -0.3570 
 22 C        3.8870     8.8040     1.0780 C.3   1 <1>  -0.1020 
 23 C        1.0760    10.7670    -0.2400 C.3   1 <1>   0.1200 
 24 H        1.6270     1.6040    -1.2850 H     1 <1>   0.1500 
 25 H       -0.1800     4.0370     0.8080 H     1 <1>   0.0800 
 26 H       -1.1150     4.1940    -0.6580 H     1 <1>   0.0800 
 27 H       -5.4280    -0.7090     1.6060 H     1 <1>   0.1500 
 28 H       -2.8920    -3.8180     0.2570 H     1 <1>   0.1500 
 29 H        0.9750     4.1270    -1.9930 H     1 <1>   0.0800 
 30 H        1.9010     3.9890    -0.5190 H     1 <1>   0.0800 
 31 H       -5.0460    -3.1230     1.2440 H     1 <1>   0.1500 
 32 H        0.2260     6.3680    -1.2810 H     1 <1>   0.3700 
 33 H       -0.3850     9.6690     0.9020 H     1 <1>   0.0800 
 34 H       -0.8760     9.9950    -0.7510 H     1 <1>   0.0800 
 35 H        4.5800     9.4790     0.6100 H     1 <1>   0.0800 
 36 H        4.2570     7.8080     0.9350 H     1 <1>   0.0800 
 37 H        3.8630     9.0140     2.1310 H     1 <1>   0.0800 
 38 H        0.7730    11.7200     0.1530 H     1 <1>   0.0800 
 39 H        1.3740    10.8820    -1.2670 H     1 <1>   0.0800 
@<TRIPOS>BOND
  1   1   2  1   
  2   1   3  1   
  3   2   4  2   
  4   2   5  1   
  5   3   6  2   
  6   3  24  1   
  7   4   6  1   
  8   5   7  ar  
  9   5   8  ar  
 10   6   9  1   
 11   7  10  ar  
 12   8  11  ar  
 13   9  12  1   
 14   9  25  1   
 15   9  26  1   
 16  10  13  ar  
 17  10  27  1   
 18  11  13  ar  
 19  11  28  1   
 20  12  14  1   
 21  12  29  1   
 22  12  30  1   
 23  13  31  1   
 24  14  15  am  
 25  14  32  1   
 26  15  16  2   
 27  15  17  1   
 28  17  18  1   
 29  17  19  2   
 30  18  20  1   
 31  19  21  1   
 32  19  22  1   
 33  20  23  1   
 34  20  33  1   
 35  20  34  1   
 36  21  23  1   
 37  22  35  1   
 38  22  36  1   
 39  22  37  1   
 40  23  38  1   
 41  23  39  1   
@<TRIPOS>SUBSTRUCTURE
  1 ****   9 GROUP 4 **** **** 0

# MOE 2024.06 (io_trps.svl 2023.06)
