@<TRIPOS>MOLECULE
NONAME
54 58 1 0 0 
SMALL
USER_CHARGES


@<TRIPOS>ATOM
  1 O        0.4230     0.5550     0.0350 O.2   1 <1>  -0.5700 
  2 C       -0.2060     1.5950    -0.0810 C.2   1 <1>   0.5440 
  3 N       -1.5920     1.5160    -0.0070 N.am  1 <1>  -0.6600 
  4 C        0.5430     2.8310    -0.3310 C.ar  1 <1>   0.3960 
  5 C       -2.5260     2.6140    -0.4150 C.3   1 <1>   0.1400 
  6 C       -2.2920     0.2530     0.3730 C.3   1 <1>   0.1400 
  7 N        0.2020     3.9950     0.3080 N.ar  1 <1>  -0.6200 
  8 C        1.6070     2.8090    -1.2040 C.ar  1 <1>  -0.1500 
  9 C       -3.5300     2.9380     0.7080 C.3   1 <1>   0.1440 
 10 C       -3.3130     0.5250     1.4860 C.3   1 <1>  -0.1600 
 11 C        0.9000     5.0590     0.0530 C.ar  1 <1>   0.1600 
 12 C        2.3680     3.9500    -1.4920 C.ar  1 <1>   0.0000 
 13 C       -4.4540     4.0350     0.2150 C.ar  1 <1>   0.1670 
 14 C       -4.2880     1.6540     1.1080 C.3   1 <1>  -0.1600 
 15 C       -2.8440     3.6080     1.9290 C.3   1 <1>  -0.1600 
 16 C        1.9940     5.1300    -0.8340 C.ar  1 <1>   0.0000 
 17 C        3.4580     3.9740    -2.3830 C.ar  1 <1>  -0.1500 
 18 N       -5.4140     3.8830    -0.6630 N.ar  1 <1>  -0.6200 
 19 C       -4.1550     5.2340     0.7870 C.ar  1 <1>  -0.1430 
 20 C       -2.9930     5.1270     1.7440 C.3   1 <1>  -0.0170 
 21 C        2.7230     6.3080    -1.0890 C.ar  1 <1>  -0.1500 
 22 C        4.1500     5.1310    -2.6140 C.ar  1 <1>  -0.1500 
 23 C       -6.0980     4.9920    -0.9570 C.ar  1 <1>   0.7200 
 24 C       -4.9100     6.3200     0.4240 C.ar  1 <1>   0.1600 
 25 C        3.7790     6.3110    -1.9610 C.ar  1 <1>  -0.1500 
 26 N       -5.8840     6.2100    -0.4480 N.ar  1 <1>  -0.6200 
 27 N       -7.1190     4.8680    -1.8790 N.pl3 1 <1>  -0.8380 
 28 C       -7.6720     3.5440    -2.2740 C.3   1 <1>   0.1290 
 29 C       -7.7560     6.0530    -2.5170 C.3   1 <1>   0.1290 
 30 H       -3.0760     2.2880    -1.2820 H     1 <1>   0.0800 
 31 H       -1.9960     3.5030    -0.6970 H     1 <1>   0.0800 
 32 H       -1.5890    -0.4880     0.7120 H     1 <1>   0.0800 
 33 H       -2.7930    -0.1390    -0.4950 H     1 <1>   0.0800 
 34 H        1.8730     1.8850    -1.6850 H     1 <1>   0.1500 
 35 H       -2.7810     0.7790     2.3860 H     1 <1>   0.0800 
 36 H       -3.8660    -0.3770     1.6810 H     1 <1>   0.0800 
 37 H        0.6280     5.9690     0.5580 H     1 <1>   0.1500 
 38 H       -4.8870     1.3310     0.2750 H     1 <1>   0.0800 
 39 H       -4.9570     1.8580     1.9250 H     1 <1>   0.0800 
 40 H       -1.8150     3.3170     2.0380 H     1 <1>   0.0800 
 41 H       -3.3660     3.3320     2.8280 H     1 <1>   0.0800 
 42 H        3.7380     3.0620    -2.8800 H     1 <1>   0.1500 
 43 H       -2.1100     5.5400     1.2890 H     1 <1>   0.0800 
 44 H       -3.1930     5.6230     2.6770 H     1 <1>   0.0800 
 45 H        2.4370     7.2140    -0.5840 H     1 <1>   0.1500 
 46 H        4.9840     5.1500    -3.2960 H     1 <1>   0.1500 
 47 H       -4.7120     7.2880     0.8500 H     1 <1>   0.1500 
 48 H        4.3340     7.2130    -2.1540 H     1 <1>   0.1500 
 49 H       -7.5610     2.8340    -1.4720 H     1 <1>   0.0800 
 50 H       -7.1470     3.1790    -3.1390 H     1 <1>   0.0800 
 51 H       -8.7190     3.6320    -2.5030 H     1 <1>   0.0800 
 52 H       -7.0560     6.8680    -2.5840 H     1 <1>   0.0800 
 53 H       -8.6010     6.3660    -1.9300 H     1 <1>   0.0800 
 54 H       -8.0830     5.8070    -3.5120 H     1 <1>   0.0800 
@<TRIPOS>BOND
  1   1   2  2   
  2   2   3  am  
  3   2   4  1   
  4   3   5  1   
  5   3   6  1   
  6   4   7  ar  
  7   4   8  ar  
  8   5   9  1   
  9   5  30  1   
 10   5  31  1   
 11   6  10  1   
 12   6  32  1   
 13   6  33  1   
 14   7  11  ar  
 15   8  12  ar  
 16   8  34  1   
 17   9  13  1   
 18   9  14  1   
 19   9  15  1   
 20  10  14  1   
 21  10  35  1   
 22  10  36  1   
 23  11  16  ar  
 24  11  37  1   
 25  12  16  ar  
 26  12  17  ar  
 27  13  18  ar  
 28  13  19  ar  
 29  14  38  1   
 30  14  39  1   
 31  15  20  1   
 32  15  40  1   
 33  15  41  1   
 34  16  21  ar  
 35  17  22  ar  
 36  17  42  1   
 37  18  23  ar  
 38  19  20  1   
 39  19  24  ar  
 40  20  43  1   
 41  20  44  1   
 42  21  25  ar  
 43  21  45  1   
 44  22  25  ar  
 45  22  46  1   
 46  23  26  ar  
 47  23  27  1   
 48  24  26  ar  
 49  24  47  1   
 50  25  48  1   
 51  27  28  1   
 52  27  29  1   
 53  28  49  1   
 54  28  50  1   
 55  28  51  1   
 56  29  52  1   
 57  29  53  1   
 58  29  54  1   
@<TRIPOS>SUBSTRUCTURE
  1 ****   5 GROUP 4 **** **** 0

# MOE 2024.06 (io_trps.svl 2023.06)
