@<TRIPOS>MOLECULE
NONAME
48 51 1 0 0 
SMALL
USER_CHARGES


@<TRIPOS>ATOM
  1 O       -0.5000     0.7860    -1.4290 O.2   1 <1>  -0.5700 
  2 C       -1.4610     1.1220    -0.7590 C.2   1 <1>   0.6160 
  3 N       -2.5210     0.2430    -0.6250 N.am  1 <1>  -0.6600 
  4 C       -1.4720     2.4420    -0.2010 C.2   1 <1>   0.0290 
  5 C       -3.7520     0.5680     0.1580 C.3   1 <1>   0.1400 
  6 C       -2.4370    -1.1260    -1.2190 C.3   1 <1>   0.1400 
  7 C       -1.2870     2.5920     1.2090 C.2   1 <1>   0.6160 
  8 C       -1.6290     3.5690    -0.9720 C.2   1 <1>  -0.1500 
  9 C       -4.3420    -0.7070     0.7550 C.3   1 <1>  -0.1600 
 10 C       -3.8280    -1.6760    -1.5510 C.3   1 <1>  -0.1600 
 11 O       -1.1640     1.6660     1.9970 O.2   1 <1>  -0.5700 
 12 N       -1.2750     3.8570     1.7350 N.am  1 <1>  -0.5390 
 13 C       -1.6160     4.8510    -0.3820 C.2   1 <1>  -0.1500 
 14 C       -4.8070    -1.6640    -0.3570 C.3   1 <1>   0.4240 
 15 C       -1.4380     4.9780     0.9620 C.2   1 <1>  -0.0410 
 16 O       -5.9990    -1.1290    -0.8860 O.3   1 <1>  -0.5600 
 17 C       -5.0090    -3.0960     0.1890 C.ar  1 <1>  -0.1430 
 18 C       -7.1990    -1.4480    -0.2500 C.3   1 <1>   0.1200 
 19 C       -6.2590    -3.7070     0.1730 C.ar  1 <1>  -0.1430 
 20 C       -3.9330    -3.8070     0.7090 C.ar  1 <1>  -0.1500 
 21 C       -7.4470    -2.9470    -0.3810 C.3   1 <1>  -0.0170 
 22 C       -6.4260    -4.9950     0.6560 C.ar  1 <1>  -0.1500 
 23 C       -4.0970    -5.0910     1.1940 C.ar  1 <1>  -0.1500 
 24 C       -5.3410    -5.6960     1.1720 C.ar  1 <1>   0.0830 
 25 O       -5.4180    -6.9570     1.6650 O.3   1 <1>  -0.3620 
 26 C       -6.6350    -7.6680     1.6730 C.3   1 <1>   0.0400 
 27 H       -4.4730     1.0340    -0.4930 H     1 <1>   0.0800 
 28 H       -3.5270     1.2500     0.9570 H     1 <1>   0.0800 
 29 H       -1.9370    -1.7740    -0.5200 H     1 <1>   0.0800 
 30 H       -1.8490    -1.1010    -2.1210 H     1 <1>   0.0800 
 31 H       -1.7560     3.4880    -2.0380 H     1 <1>   0.1500 
 32 H       -5.1570    -0.4650     1.4080 H     1 <1>   0.0800 
 33 H       -3.5860    -1.1690     1.3620 H     1 <1>   0.0800 
 34 H       -3.7250    -2.6780    -1.9250 H     1 <1>   0.0800 
 35 H       -4.2220    -1.0800    -2.3550 H     1 <1>   0.0800 
 36 H       -1.1260     3.8960     2.7450 H     1 <1>   0.3700 
 37 H       -1.7440     5.7140    -1.0130 H     1 <1>   0.1500 
 38 H       -1.4180     5.9400     1.4510 H     1 <1>   0.1500 
 39 H       -7.9840    -0.8930    -0.7330 H     1 <1>   0.0800 
 40 H       -7.1450    -1.1560     0.7830 H     1 <1>   0.0800 
 41 H       -2.9520    -3.3680     0.7410 H     1 <1>   0.1500 
 42 H       -7.5880    -3.1980    -1.4170 H     1 <1>   0.0800 
 43 H       -8.3400    -3.2060     0.1570 H     1 <1>   0.0800 
 44 H       -7.4020    -5.4390     0.6260 H     1 <1>   0.1500 
 45 H       -3.2610    -5.6340     1.5940 H     1 <1>   0.1500 
 46 H       -6.4510    -8.6380     2.1000 H     1 <1>   0.0800 
 47 H       -6.9850    -7.7740     0.6620 H     1 <1>   0.0800 
 48 H       -7.3470    -7.1330     2.2760 H     1 <1>   0.0800 
@<TRIPOS>BOND
  1   1   2  2   
  2   2   3  am  
  3   2   4  1   
  4   3   5  1   
  5   3   6  1   
  6   4   7  1   
  7   4   8  2   
  8   5   9  1   
  9   5  27  1   
 10   5  28  1   
 11   6  10  1   
 12   6  29  1   
 13   6  30  1   
 14   7  11  2   
 15   7  12  am  
 16   8  13  1   
 17   8  31  1   
 18   9  14  1   
 19   9  32  1   
 20   9  33  1   
 21  10  14  1   
 22  10  34  1   
 23  10  35  1   
 24  12  15  1   
 25  12  36  1   
 26  13  15  2   
 27  13  37  1   
 28  14  16  1   
 29  14  17  1   
 30  15  38  1   
 31  16  18  1   
 32  17  19  ar  
 33  17  20  ar  
 34  18  21  1   
 35  18  39  1   
 36  18  40  1   
 37  19  21  1   
 38  19  22  ar  
 39  20  23  ar  
 40  20  41  1   
 41  21  42  1   
 42  21  43  1   
 43  22  24  ar  
 44  22  44  1   
 45  23  24  ar  
 46  23  45  1   
 47  24  25  1   
 48  25  26  1   
 49  26  46  1   
 50  26  47  1   
 51  26  48  1   
@<TRIPOS>SUBSTRUCTURE
  1 ****   9 GROUP 4 **** **** 0

# MOE 2024.06 (io_trps.svl 2023.06)
