@<TRIPOS>MOLECULE
NONAME
52 53 1 0 0 
SMALL
USER_CHARGES


@<TRIPOS>ATOM
  1 O        1.1930    -0.2160     2.0900 O.co2 1 <1>  -0.9000 
  2 C        1.5560    -0.3370     0.9150 C.2   1 <1>   0.9060 
  3 O        1.1590    -1.2750     0.2080 O.co2 1 <1>  -0.9000 
  4 C        2.5630     0.6380     0.3000 C.3   1 <1>  -0.1060 
  5 C        3.7860    -0.2520    -0.0700 C.3   1 <1>   0.2000 
  6 C        3.0520     1.7090     1.3140 C.3   1 <1>  -0.1600 
  7 C        1.8840     1.3260    -0.9310 C.3   1 <1>  -0.0160 
  8 O        3.7620    -0.6010    -1.4150 O.3   1 <1>  -0.6800 
  9 C        5.1640     0.3380     0.3140 C.3   1 <1>   0.1100 
 10 C        4.1830     2.5790     0.7390 C.3   1 <1>   0.1100 
 11 C        0.9100     2.4630    -0.6180 C.ar  1 <1>  -0.1430 
 12 N        5.3000     1.8030     0.1370 N.3   1 <1>  -0.8100 
 13 C        1.1900     3.7560    -1.0390 C.ar  1 <1>  -0.1500 
 14 C       -0.2650     2.2230     0.0790 C.ar  1 <1>  -0.1500 
 15 C        5.5560     2.1510    -1.2960 C.3   1 <1>   0.1710 
 16 C        0.3150     4.7920    -0.7620 C.ar  1 <1>  -0.1500 
 17 C       -1.1410     3.2570     0.3590 C.ar  1 <1>  -0.1500 
 18 C        6.0280     3.5920    -1.5260 C.2   1 <1>   0.5690 
 19 C       -0.8520     4.5430    -0.0610 C.ar  1 <1>  -0.1500 
 20 O        5.8730     4.1160    -2.6040 O.2   1 <1>  -0.5700 
 21 N        6.6140     4.2360    -0.4860 N.am  1 <1>  -0.7300 
 22 C        7.1360     5.6160    -0.4720 C.3   1 <1>   0.1400 
 23 C        8.4620     5.6790     0.3030 C.3   1 <1>  -0.0800 
 24 C        8.3000     5.2430     1.7690 C.3   1 <1>  -0.2400 
 25 C        9.0320     7.1020     0.2510 C.3   1 <1>  -0.2400 
 26 H        3.7130    -1.1850     0.4660 H     1 <1>   0.0800 
 27 H        3.4020     1.2250     2.2100 H     1 <1>   0.0800 
 28 H        2.2350     2.3360     1.6210 H     1 <1>   0.0800 
 29 H        2.6380     1.7140    -1.5820 H     1 <1>   0.0800 
 30 H        1.3500     0.5880    -1.5050 H     1 <1>   0.0800 
 31 H        2.9020    -1.0590    -1.5580 H     1 <1>   0.4000 
 32 H        5.9400    -0.1810    -0.2210 H     1 <1>   0.0800 
 33 H        5.3180     0.1300     1.3580 H     1 <1>   0.0800 
 34 H        4.5790     3.1900     1.5310 H     1 <1>   0.0800 
 35 H        3.7630     3.2450     0.0060 H     1 <1>   0.0800 
 36 H        2.0920     3.9610    -1.5870 H     1 <1>   0.1500 
 37 H       -0.5010     1.2250     0.4130 H     1 <1>   0.1500 
 38 H        6.3260     1.5070    -1.6790 H     1 <1>   0.0800 
 39 H        4.6790     1.9780    -1.8860 H     1 <1>   0.0800 
 40 H        0.5440     5.7890    -1.0920 H     1 <1>   0.1500 
 41 H       -2.0430     3.0510     0.9060 H     1 <1>   0.1500 
 42 H       -1.5340     5.3460     0.1580 H     1 <1>   0.1500 
 43 H        6.6300     3.7140     0.3960 H     1 <1>   0.3700 
 44 H        7.2880     5.9480    -1.4860 H     1 <1>   0.0800 
 45 H        6.4080     6.2610    -0.0120 H     1 <1>   0.0800 
 46 H        9.1650     5.0210    -0.1810 H     1 <1>   0.0800 
 47 H        7.5660     5.8530     2.2660 H     1 <1>   0.0800 
 48 H        9.2350     5.3390     2.2910 H     1 <1>   0.0800 
 49 H        7.9920     4.2150     1.8310 H     1 <1>   0.0800 
 50 H        8.3620     7.7980     0.7250 H     1 <1>   0.0800 
 51 H        9.1800     7.4070    -0.7700 H     1 <1>   0.0800 
 52 H        9.9820     7.1420     0.7540 H     1 <1>   0.0800 
@<TRIPOS>BOND
  1   1   2  ar  
  2   2   3  ar  
  3   2   4  1   
  4   4   5  1   
  5   4   6  1   
  6   4   7  1   
  7   5   8  1   
  8   5   9  1   
  9   5  26  1   
 10   6  10  1   
 11   6  27  1   
 12   6  28  1   
 13   7  11  1   
 14   7  29  1   
 15   7  30  1   
 16   8  31  1   
 17   9  12  1   
 18   9  32  1   
 19   9  33  1   
 20  10  12  1   
 21  10  34  1   
 22  10  35  1   
 23  11  13  ar  
 24  11  14  ar  
 25  12  15  1   
 26  13  16  ar  
 27  13  36  1   
 28  14  17  ar  
 29  14  37  1   
 30  15  18  1   
 31  15  38  1   
 32  15  39  1   
 33  16  19  ar  
 34  16  40  1   
 35  17  19  ar  
 36  17  41  1   
 37  18  20  2   
 38  18  21  am  
 39  19  42  1   
 40  21  22  1   
 41  21  43  1   
 42  22  23  1   
 43  22  44  1   
 44  22  45  1   
 45  23  24  1   
 46  23  25  1   
 47  23  46  1   
 48  24  47  1   
 49  24  48  1   
 50  24  49  1   
 51  25  50  1   
 52  25  51  1   
 53  25  52  1   
@<TRIPOS>SUBSTRUCTURE
  1 ****  10 GROUP 4 **** **** 0

# MOE 2024.06 (io_trps.svl 2023.06)
