@<TRIPOS>MOLECULE
NONAME
34 36 1 0 0 
SMALL
USER_CHARGES


@<TRIPOS>ATOM
  1 F       -4.0520     2.6100     2.0370 F     1 <1>  -0.1900 
  2 C       -3.8090     1.6800     1.1540 C.ar  1 <1>   0.1900 
  3 C       -2.5650     1.0820     1.1480 C.ar  1 <1>  -0.1500 
  4 C       -4.8060     1.3370     0.2560 C.ar  1 <1>  -0.1500 
  5 C       -2.3450     0.1120     0.1910 C.ar  1 <1>   0.1900 
  6 C       -4.5580     0.3560    -0.6990 C.ar  1 <1>  -0.1440 
  7 F       -1.1800    -0.4750     0.1490 F     1 <1>  -0.1900 
  8 C       -3.3130    -0.2600    -0.7280 C.ar  1 <1>  -0.1500 
  9 C       -5.6350    -0.0480    -1.7020 C.3   1 <1>   0.0440 
 10 C       -5.9040    -1.5460    -1.7120 C.2   1 <1>   0.5690 
 11 O       -5.5860    -2.1610    -2.7060 O.2   1 <1>  -0.5700 
 12 N       -6.4830    -2.1500    -0.6370 N.am  1 <1>  -0.6600 
 13 C       -6.9410    -1.4860     0.6170 C.3   1 <1>   0.2350 
 14 C       -6.8620    -3.5890    -0.6030 C.3   1 <1>   0.2350 
 15 C       -8.0640    -2.3590     1.1410 C.3   1 <1>  -0.2420 
 16 C       -8.0040    -3.6720     0.3980 C.3   1 <1>  -0.2420 
 17 C       -8.3760    -1.9930     2.5940 C.2   1 <1>   0.9470 
 18 C       -9.2060    -2.7760     0.2480 C.3   1 <1>  -0.2000 
 19 C       -8.1960    -5.1080     0.8900 C.2   1 <1>   0.9470 
 20 O       -9.5090    -1.5890     2.8890 O.co2 1 <1>  -0.9000 
 21 O       -7.4430    -1.9250     3.4060 O.co2 1 <1>  -0.9000 
 22 O       -7.2100    -5.7400     1.2940 O.co2 1 <1>  -0.9000 
 23 O       -9.2910    -5.6660     0.7320 O.co2 1 <1>  -0.9000 
 24 H       -1.8060     1.3570     1.8550 H     1 <1>   0.1500 
 25 H       -5.7590     1.8320     0.3160 H     1 <1>   0.1500 
 26 H       -3.0910    -1.0280    -1.4490 H     1 <1>   0.1500 
 27 H       -5.3170     0.2470    -2.6850 H     1 <1>   0.0800 
 28 H       -6.5570     0.4630    -1.4990 H     1 <1>   0.0800 
 29 H       -6.1290    -1.4660     1.3250 H     1 <1>   0.0800 
 30 H       -7.3000    -0.4890     0.4430 H     1 <1>   0.0800 
 31 H       -7.1720    -3.9370    -1.5730 H     1 <1>   0.0800 
 32 H       -6.0220    -4.1700    -0.2610 H     1 <1>   0.0800 
 33 H       -9.3730    -2.2620    -0.6790 H     1 <1>   0.1000 
 34 H      -10.1240    -3.0890     0.7180 H     1 <1>   0.1000 
@<TRIPOS>BOND
  1   1   2  1   
  2   2   3  ar  
  3   2   4  ar  
  4   3   5  ar  
  5   3  24  1   
  6   4   6  ar  
  7   4  25  1   
  8   5   7  1   
  9   5   8  ar  
 10   6   8  ar  
 11   6   9  1   
 12   8  26  1   
 13   9  10  1   
 14   9  27  1   
 15   9  28  1   
 16  10  11  2   
 17  10  12  am  
 18  12  13  1   
 19  12  14  1   
 20  13  15  1   
 21  13  29  1   
 22  13  30  1   
 23  14  16  1   
 24  14  31  1   
 25  14  32  1   
 26  15  16  1   
 27  15  17  1   
 28  15  18  1   
 29  16  18  1   
 30  16  19  1   
 31  17  20  ar  
 32  17  21  ar  
 33  18  33  1   
 34  18  34  1   
 35  19  22  ar  
 36  19  23  ar  
@<TRIPOS>SUBSTRUCTURE
  1 ****  13 GROUP 4 **** **** 0

# MOE 2024.06 (io_trps.svl 2023.06)
