@<TRIPOS>MOLECULE
NONAME
43 46 1 0 0 
SMALL
USER_CHARGES


@<TRIPOS>ATOM
  1 S       -1.4480    -0.0990     2.1050 S.3   1 <1>  -0.0800 
  2 C       -1.3490     0.8010     0.6000 C.2   1 <1>  -0.1400 
  3 C       -2.5450    -1.2620     1.3720 C.2   1 <1>  -0.1100 
  4 C       -2.1090     0.2330    -0.3450 C.2   1 <1>  -0.1810 
  5 C       -0.4930     2.0470     0.4440 C.3   1 <1>   0.4600 
  6 C       -2.7910    -0.9480     0.0850 C.2   1 <1>  -0.1500 
  7 C       -2.1760     0.8520    -1.7230 C.3   1 <1>   0.0210 
  8 O       -0.4920     2.4340    -0.9180 O.3   1 <1>  -0.5600 
  9 C       -1.0060     3.2200     1.2970 C.3   1 <1>  -0.1600 
 10 C        0.9670     1.7590     0.7940 C.3   1 <1>  -0.1600 
 11 C       -1.6980     2.3160    -1.6450 C.3   1 <1>   0.1200 
 12 C        0.0490     4.3000     1.5540 C.3   1 <1>   0.3430 
 13 C        1.8730     2.9570     0.4920 C.3   1 <1>   0.3430 
 14 N        1.1050     4.2340     0.5130 N.4   1 <1>  -0.9590 
 15 C        1.9260     5.4690     0.4170 C.3   1 <1>   0.5230 
 16 C        1.0890     6.5550    -0.2510 C.2   1 <1>   0.0070 
 17 N       -0.0290     6.3120    -0.8670 N.2   1 <1>  -0.5650 
 18 N        1.4450     7.8650    -0.2690 N.pl3 1 <1>   0.0480 
 19 C       -0.4260     7.5190    -1.3070 C.2   1 <1>   0.0770 
 20 C        0.4590     8.4730    -0.9500 C.2   1 <1>  -0.3020 
 21 C        2.6310     8.5360     0.2990 C.3   1 <1>   0.0160 
 22 H       -2.8940    -2.0700     1.9900 H     1 <1>   0.1500 
 23 H       -3.4280    -1.5000    -0.5830 H     1 <1>   0.1500 
 24 H       -3.1860     0.8270    -2.0910 H     1 <1>   0.0800 
 25 H       -1.5540     0.2980    -2.4030 H     1 <1>   0.0800 
 26 H       -1.3240     2.8490     2.2550 H     1 <1>   0.0800 
 27 H       -1.8720     3.6610     0.8410 H     1 <1>   0.0800 
 28 H        1.3080     0.9000     0.2440 H     1 <1>   0.0800 
 29 H        1.0420     1.5140     1.8370 H     1 <1>   0.0800 
 30 H       -2.4470     2.9250    -1.1710 H     1 <1>   0.0800 
 31 H       -1.5240     2.7010    -2.6350 H     1 <1>   0.0800 
 32 H        0.4920     4.1500     2.5250 H     1 <1>   0.0800 
 33 H       -0.4270     5.2690     1.5400 H     1 <1>   0.0800 
 34 H        2.3020     2.8270    -0.4890 H     1 <1>   0.0800 
 35 H        2.6750     2.9860     1.2110 H     1 <1>   0.0800 
 36 H        0.5560     4.2570    -0.3730 H     1 <1>   0.4500 
 37 H        2.7960     5.2840    -0.1900 H     1 <1>   0.0800 
 38 H        2.2410     5.7860     1.3960 H     1 <1>   0.0800 
 39 H       -1.3390     7.6450    -1.8670 H     1 <1>   0.1500 
 40 H        0.4340     9.5310    -1.1470 H     1 <1>   0.1500 
 41 H        3.5240     8.1190    -0.1300 H     1 <1>   0.0800 
 42 H        2.6430     8.4110     1.3670 H     1 <1>   0.0800 
 43 H        2.5920     9.5860     0.0700 H     1 <1>   0.0800 
@<TRIPOS>BOND
  1   1   2  1   
  2   1   3  1   
  3   2   4  2   
  4   2   5  1   
  5   3   6  2   
  6   3  22  1   
  7   4   6  1   
  8   4   7  1   
  9   5   8  1   
 10   5   9  1   
 11   5  10  1   
 12   6  23  1   
 13   7  11  1   
 14   7  24  1   
 15   7  25  1   
 16   8  11  1   
 17   9  12  1   
 18   9  26  1   
 19   9  27  1   
 20  10  13  1   
 21  10  28  1   
 22  10  29  1   
 23  11  30  1   
 24  11  31  1   
 25  12  14  1   
 26  12  32  1   
 27  12  33  1   
 28  13  14  1   
 29  13  34  1   
 30  13  35  1   
 31  14  15  1   
 32  14  36  1   
 33  15  16  1   
 34  15  37  1   
 35  15  38  1   
 36  16  17  2   
 37  16  18  1   
 38  17  19  1   
 39  18  20  1   
 40  18  21  1   
 41  19  20  2   
 42  19  39  1   
 43  20  40  1   
 44  21  41  1   
 45  21  42  1   
 46  21  43  1   
@<TRIPOS>SUBSTRUCTURE
  1 ****   9 GROUP 4 **** **** 0

# MOE 2024.06 (io_trps.svl 2023.06)
