@<TRIPOS>MOLECULE
NONAME
44 46 1 0 0 
SMALL
USER_CHARGES


@<TRIPOS>ATOM
  1 S        0.1310    -0.0640     1.6790 S.o2  1 <1>   1.5000 
  2 O        0.4920     1.1530     2.3770 O.2   1 <1>  -0.6500 
  3 O       -0.3650    -1.1870     2.4470 O.2   1 <1>  -0.6500 
  4 N       -1.0670     0.3560     0.5560 N.am  1 <1>  -0.8490 
  5 C        1.5230    -0.6010     0.6560 C.2   1 <1>  -0.0220 
  6 C       -2.3820     0.4900     1.1980 C.3   1 <1>   0.1960 
  7 C       -0.7340     1.5800    -0.1780 C.3   1 <1>   0.1960 
  8 S        1.2020    -1.7040    -0.6810 S.3   1 <1>  -0.0800 
  9 C        2.8450    -0.3340     0.7030 C.2   1 <1>  -0.1500 
 10 C       -3.5030     0.6560     0.1540 C.3   1 <1>   0.0000 
 11 C       -1.7510     1.8230    -1.2970 C.3   1 <1>  -0.1600 
 12 C        2.8950    -1.7510    -1.1320 C.2   1 <1>  -0.1100 
 13 C        3.6260    -0.9800    -0.3090 C.2   1 <1>  -0.1810 
 14 C       -4.8710     0.7640     0.8520 C.3   1 <1>   0.2000 
 15 C       -3.1870     1.8780    -0.7500 C.3   1 <1>  -0.1600 
 16 C       -3.7020    -0.6130    -0.6950 C.3   1 <1>  -0.1600 
 17 C        5.1260    -0.7710    -0.3830 C.3   1 <1>  -0.0590 
 18 O       -5.1060     2.0520     1.3380 O.3   1 <1>  -0.5600 
 19 C       -5.9020     0.3600    -0.2040 C.3   1 <1>  -0.1600 
 20 C       -5.1600    -0.5740    -1.1710 C.3   1 <1>  -0.1600 
 21 C       -6.1720     2.1610     2.2270 C.3   1 <1>   0.0400 
 22 H       -2.5890    -0.3870     1.7880 H     1 <1>   0.0800 
 23 H       -2.3790     1.3400     1.8620 H     1 <1>   0.0800 
 24 H       -0.7280     2.4230     0.4960 H     1 <1>   0.0800 
 25 H        0.2470     1.4910    -0.6130 H     1 <1>   0.0800 
 26 H        3.3080     0.3110     1.4310 H     1 <1>   0.1500 
 27 H       -1.5210     2.7520    -1.7870 H     1 <1>   0.0800 
 28 H       -1.6550     1.0420    -2.0290 H     1 <1>   0.0800 
 29 H        3.1640    -2.3610    -1.9760 H     1 <1>   0.1500 
 30 H       -4.9030     0.0690     1.6750 H     1 <1>   0.0800 
 31 H       -3.8860     1.9450    -1.5640 H     1 <1>   0.0800 
 32 H       -3.2820     2.7810    -0.1710 H     1 <1>   0.0800 
 33 H       -3.0130    -0.6870    -1.5160 H     1 <1>   0.0800 
 34 H       -3.5660    -1.4820    -0.0730 H     1 <1>   0.0800 
 35 H        5.3460     0.2710    -0.5320 H     1 <1>   0.0800 
 36 H        5.5430    -1.3320    -1.2000 H     1 <1>   0.0800 
 37 H        5.5880    -1.0990     0.5310 H     1 <1>   0.0800 
 38 H       -6.7390    -0.1390     0.2480 H     1 <1>   0.0800 
 39 H       -6.2410     1.2310    -0.7370 H     1 <1>   0.0800 
 40 H       -5.5870    -1.5620    -1.1710 H     1 <1>   0.0800 
 41 H       -5.2100    -0.1750    -2.1700 H     1 <1>   0.0800 
 42 H       -6.2340     3.1860     2.5480 H     1 <1>   0.0800 
 43 H       -5.9940     1.5260     3.0770 H     1 <1>   0.0800 
 44 H       -7.0850     1.8840     1.7290 H     1 <1>   0.0800 
@<TRIPOS>BOND
  1   1   2  2   
  2   1   3  2   
  3   1   4  am  
  4   1   5  1   
  5   4   6  1   
  6   4   7  1   
  7   5   8  1   
  8   5   9  2   
  9   6  10  1   
 10   6  22  1   
 11   6  23  1   
 12   7  11  1   
 13   7  24  1   
 14   7  25  1   
 15   8  12  1   
 16   9  13  1   
 17   9  26  1   
 18  10  14  1   
 19  10  15  1   
 20  10  16  1   
 21  11  15  1   
 22  11  27  1   
 23  11  28  1   
 24  12  13  2   
 25  12  29  1   
 26  13  17  1   
 27  14  18  1   
 28  14  19  1   
 29  14  30  1   
 30  15  31  1   
 31  15  32  1   
 32  16  20  1   
 33  16  33  1   
 34  16  34  1   
 35  17  35  1   
 36  17  36  1   
 37  17  37  1   
 38  18  21  1   
 39  19  20  1   
 40  19  38  1   
 41  19  39  1   
 42  20  40  1   
 43  20  41  1   
 44  21  42  1   
 45  21  43  1   
 46  21  44  1   
@<TRIPOS>SUBSTRUCTURE
  1 ****   4 GROUP 4 **** **** 0

# MOE 2024.06 (io_trps.svl 2023.06)
