@<TRIPOS>MOLECULE
NONAME
64 66 1 0 0 
SMALL
USER_CHARGES


@<TRIPOS>ATOM
  1 O        0.7450     0.2930    -1.8820 O.2   1 <1>  -0.5700 
  2 C        0.9830    -0.8250    -1.4990 C.2   1 <1>   0.5690 
  3 N        2.0200    -1.2300    -0.7080 N.am  1 <1>  -0.4770 
  4 C        0.0810    -1.9760    -1.8480 C.3   1 <1>  -0.0990 
  5 C        3.1310    -0.4750    -0.2830 C.ar  1 <1>   0.1170 
  6 C        1.9370    -2.6870    -0.4670 C.3   1 <1>   0.1400 
  7 C        0.4830    -3.0420    -0.8190 C.3   1 <1>  -0.0190 
  8 C        3.7060     0.4800    -1.1140 C.ar  1 <1>  -0.1500 
  9 C        3.6940    -0.6650     0.9750 C.ar  1 <1>  -0.1500 
 10 C        0.2830    -4.4730    -1.3090 C.2   1 <1>   0.5690 
 11 C        4.8080     1.2110    -0.7080 C.ar  1 <1>  -0.1500 
 12 C        4.7970     0.0640     1.3830 C.ar  1 <1>  -0.1500 
 13 O        1.2340    -5.0300    -1.7990 O.2   1 <1>  -0.5700 
 14 N       -0.9340    -5.1050    -1.2000 N.am  1 <1>  -0.6600 
 15 C        5.3680     1.0100     0.5450 C.ar  1 <1>  -0.1430 
 16 C       -1.0210    -6.5590    -1.5790 C.3   1 <1>   0.3210 
 17 C       -2.2270    -4.4610    -0.8060 C.3   1 <1>   0.1400 
 18 C        6.5850     1.8080     1.0090 C.3   1 <1>   0.0630 
 19 C       -0.7160    -7.4720    -0.3910 C.2   1 <1>   0.0460 
 20 C       -2.7560    -5.0200     0.5280 C.3   1 <1>   0.3430 
 21 C        6.2680     3.3050     1.0670 C.3   1 <1>  -0.2400 
 22 C        7.7910     1.5410     0.1030 C.3   1 <1>  -0.2400 
 23 N       -1.6330    -7.7100     0.5760 N.2   1 <1>  -0.5650 
 24 C        0.4260    -8.1570    -0.1420 C.2   1 <1>  -0.3320 
 25 N       -3.8270    -4.1770     1.1610 N.4   1 <1>  -0.9590 
 26 C       -1.0350    -8.5330     1.3760 C.2   1 <1>   0.0360 
 27 N        0.2210    -8.8420     0.9970 N.pl3 1 <1>   0.0330 
 28 C        1.7390    -8.2330    -0.9060 C.3   1 <1>  -0.0600 
 29 C       -4.1420    -4.7420     2.5100 C.3   1 <1>   0.2630 
 30 C       -5.0710    -4.1220     0.3290 C.3   1 <1>   0.2630 
 31 H        0.3070    -2.2950    -2.8490 H     1 <1>   0.0800 
 32 H       -0.9500    -1.6880    -1.7730 H     1 <1>   0.0800 
 33 H        2.1590    -2.9370     0.5550 H     1 <1>   0.0800 
 34 H        2.6410    -3.1780    -1.1180 H     1 <1>   0.0800 
 35 H       -0.0850    -2.8970     0.0800 H     1 <1>   0.0800 
 36 H        3.2890     0.6550    -2.0890 H     1 <1>   0.1500 
 37 H        3.2690    -1.3800     1.6520 H     1 <1>   0.1500 
 38 H        5.2260     1.9420    -1.3770 H     1 <1>   0.1500 
 39 H        5.2080    -0.1080     2.3620 H     1 <1>   0.1500 
 40 H       -0.3280    -6.7710    -2.3740 H     1 <1>   0.0800 
 41 H       -2.0030    -6.7870    -1.9530 H     1 <1>   0.0800 
 42 H       -2.9500    -4.6430    -1.5820 H     1 <1>   0.0800 
 43 H       -2.0990    -3.4000    -0.7170 H     1 <1>   0.0800 
 44 H        6.8470     1.4900     2.0040 H     1 <1>   0.0800 
 45 H       -1.9240    -5.1120     1.2080 H     1 <1>   0.0800 
 46 H       -3.1490    -6.0070     0.3530 H     1 <1>   0.0800 
 47 H        6.0450     3.6880     0.0870 H     1 <1>   0.0800 
 48 H        7.1050     3.8490     1.4670 H     1 <1>   0.0800 
 49 H        5.4150     3.4730     1.7010 H     1 <1>   0.0800 
 50 H        7.6020     1.8870    -0.8980 H     1 <1>   0.0800 
 51 H        7.9950     0.4860     0.0680 H     1 <1>   0.0800 
 52 H        8.6620     2.0460     0.4820 H     1 <1>   0.0800 
 53 H       -3.4650    -3.2210     1.2960 H     1 <1>   0.4500 
 54 H       -1.4760    -8.9510     2.2650 H     1 <1>   0.1500 
 55 H        0.8750    -9.4720     1.4720 H     1 <1>   0.2700 
 56 H        1.6940    -7.6530    -1.8100 H     1 <1>   0.0800 
 57 H        1.9590    -9.2520    -1.1700 H     1 <1>   0.0800 
 58 H        2.5410    -7.8470    -0.3030 H     1 <1>   0.0800 
 59 H       -4.5120    -5.7510     2.4160 H     1 <1>   0.0800 
 60 H       -4.8920    -4.1440     3.0030 H     1 <1>   0.0800 
 61 H       -3.2570    -4.7600     3.1260 H     1 <1>   0.0800 
 62 H       -5.4590    -5.1150     0.1700 H     1 <1>   0.0800 
 63 H       -4.8660    -3.6740    -0.6300 H     1 <1>   0.0800 
 64 H       -5.8260    -3.5340     0.8250 H     1 <1>   0.0800 
@<TRIPOS>BOND
  1   1   2  2   
  2   2   3  am  
  3   2   4  1   
  4   3   5  1   
  5   3   6  1   
  6   4   7  1   
  7   4  31  1   
  8   4  32  1   
  9   5   8  ar  
 10   5   9  ar  
 11   6   7  1   
 12   6  33  1   
 13   6  34  1   
 14   7  10  1   
 15   7  35  1   
 16   8  11  ar  
 17   8  36  1   
 18   9  12  ar  
 19   9  37  1   
 20  10  13  2   
 21  10  14  am  
 22  11  15  ar  
 23  11  38  1   
 24  12  15  ar  
 25  12  39  1   
 26  14  16  1   
 27  14  17  1   
 28  15  18  1   
 29  16  19  1   
 30  16  40  1   
 31  16  41  1   
 32  17  20  1   
 33  17  42  1   
 34  17  43  1   
 35  18  21  1   
 36  18  22  1   
 37  18  44  1   
 38  19  23  1   
 39  19  24  2   
 40  20  25  1   
 41  20  45  1   
 42  20  46  1   
 43  21  47  1   
 44  21  48  1   
 45  21  49  1   
 46  22  50  1   
 47  22  51  1   
 48  22  52  1   
 49  23  26  2   
 50  24  27  1   
 51  24  28  1   
 52  25  29  1   
 53  25  30  1   
 54  25  53  1   
 55  26  27  1   
 56  26  54  1   
 57  27  55  1   
 58  28  56  1   
 59  28  57  1   
 60  28  58  1   
 61  29  59  1   
 62  29  60  1   
 63  29  61  1   
 64  30  62  1   
 65  30  63  1   
 66  30  64  1   
@<TRIPOS>SUBSTRUCTURE
  1 ****   7 GROUP 4 **** **** 0

# MOE 2024.06 (io_trps.svl 2023.06)
