@<TRIPOS>MOLECULE
NONAME
51 53 1 0 0 
SMALL
USER_CHARGES


@<TRIPOS>ATOM
  1 O       -1.0660     0.2920    -0.9050 O.2   1 <1>  -0.5700 
  2 C       -1.2840     0.4150     0.2840 C.2   1 <1>   0.5440 
  3 N       -1.6980    -0.6870     0.9740 N.am  1 <1>  -0.7300 
  4 C       -1.1110     1.6950     0.9520 C.ar  1 <1>   0.0860 
  5 C       -1.8580    -2.0470     0.4050 C.3   1 <1>   0.2200 
  6 C       -0.2810     2.6740     0.4070 C.ar  1 <1>  -0.1500 
  7 C       -1.7570     2.0020     2.1520 C.ar  1 <1>  -0.1500 
  8 C       -3.3270    -2.3830     0.1820 C.3   1 <1>  -0.0800 
  9 C       -1.5000    -3.0670     1.4760 C.3   1 <1>   0.1200 
 10 C       -0.0830     3.9020     1.0180 C.ar  1 <1>   0.0730 
 11 C       -1.5720     3.2210     2.7770 C.ar  1 <1>  -0.1500 
 12 C       -3.7800    -2.8810     1.5600 C.3   1 <1>   0.1200 
 13 C       -4.1950    -1.2540    -0.4040 C.3   1 <1>  -0.0160 
 14 O       -2.6210    -3.1250     2.3040 O.3   1 <1>  -0.5600 
 15 C        0.7800     4.8800     0.4300 C.1   1 <1>  -0.0730 
 16 C       -0.7370     4.1660     2.2110 C.ar  1 <1>  -0.1500 
 17 C       -5.6080    -1.7440    -0.6760 C.ar  1 <1>  -0.1440 
 18 C        1.4990     5.6950    -0.0570 C.1   1 <1>  -0.2000 
 19 C       -6.6490    -1.5100     0.2000 C.ar  1 <1>  -0.1500 
 20 C       -5.9220    -2.4520    -1.8180 C.ar  1 <1>  -0.1500 
 21 C        2.3970     6.7090    -0.6730 C.3   1 <1>   0.4800 
 22 C       -7.9150    -1.9870    -0.0970 C.ar  1 <1>   0.1600 
 23 C       -7.2220    -2.8840    -2.0210 C.ar  1 <1>   0.1600 
 24 O        2.4900     7.7640     0.1960 O.3   1 <1>  -0.6800 
 25 C        3.8030     6.1540    -0.8650 C.3   1 <1>  -0.2400 
 26 C        1.8100     7.2440    -1.9740 C.3   1 <1>  -0.2400 
 27 N       -8.2260    -2.6710    -1.1860 N.ar  1 <1>  -0.6200 
 28 H       -1.8640    -0.6450     1.9810 H     1 <1>   0.3700 
 29 H       -1.2630    -2.1620    -0.4860 H     1 <1>   0.0800 
 30 H        0.2250     2.4690    -0.5210 H     1 <1>   0.1500 
 31 H       -2.4190     1.2850     2.6030 H     1 <1>   0.1500 
 32 H       -3.3700    -3.2210    -0.4910 H     1 <1>   0.0800 
 33 H       -0.6340    -2.7870     2.0490 H     1 <1>   0.0800 
 34 H       -1.3560    -4.0420     1.0440 H     1 <1>   0.0800 
 35 H       -2.0780     3.4390     3.7020 H     1 <1>   0.1500 
 36 H       -4.3490    -3.7920     1.4860 H     1 <1>   0.0800 
 37 H       -4.3530    -2.1360     2.0850 H     1 <1>   0.0800 
 38 H       -3.7540    -0.9070    -1.3230 H     1 <1>   0.0800 
 39 H       -4.2310    -0.4170     0.2700 H     1 <1>   0.0800 
 40 H       -0.5880     5.1160     2.6940 H     1 <1>   0.1500 
 41 H       -6.4900    -0.9610     1.1100 H     1 <1>   0.1500 
 42 H       -5.1680    -2.6700    -2.5520 H     1 <1>   0.1500 
 43 H       -8.7150    -1.7960     0.5980 H     1 <1>   0.1500 
 44 H       -7.4470    -3.4350    -2.9180 H     1 <1>   0.1500 
 45 H        3.0730     8.4390    -0.1890 H     1 <1>   0.4000 
 46 H        3.7690     5.3080    -1.5280 H     1 <1>   0.0800 
 47 H        4.2000     5.8240     0.0780 H     1 <1>   0.0800 
 48 H        4.4540     6.8940    -1.2910 H     1 <1>   0.0800 
 49 H        1.6990     6.4390    -2.6780 H     1 <1>   0.0800 
 50 H        2.4500     7.9900    -2.4070 H     1 <1>   0.0800 
 51 H        0.8370     7.6660    -1.7920 H     1 <1>   0.0800 
@<TRIPOS>BOND
  1   1   2  2   
  2   2   3  am  
  3   2   4  1   
  4   3   5  1   
  5   3  28  1   
  6   4   6  ar  
  7   4   7  ar  
  8   5   8  1   
  9   5   9  1   
 10   5  29  1   
 11   6  10  ar  
 12   6  30  1   
 13   7  11  ar  
 14   7  31  1   
 15   8  12  1   
 16   8  13  1   
 17   8  32  1   
 18   9  14  1   
 19   9  33  1   
 20   9  34  1   
 21  10  15  1   
 22  10  16  ar  
 23  11  16  ar  
 24  11  35  1   
 25  12  14  1   
 26  12  36  1   
 27  12  37  1   
 28  13  17  1   
 29  13  38  1   
 30  13  39  1   
 31  15  18  3   
 32  16  40  1   
 33  17  19  ar  
 34  17  20  ar  
 35  18  21  1   
 36  19  22  ar  
 37  19  41  1   
 38  20  23  ar  
 39  20  42  1   
 40  21  24  1   
 41  21  25  1   
 42  21  26  1   
 43  22  27  ar  
 44  22  43  1   
 45  23  27  ar  
 46  23  44  1   
 47  24  45  1   
 48  25  46  1   
 49  25  47  1   
 50  25  48  1   
 51  26  49  1   
 52  26  50  1   
 53  26  51  1   
@<TRIPOS>SUBSTRUCTURE
  1 ****   2 GROUP 4 **** **** 0

# MOE 2024.06 (io_trps.svl 2023.06)
