@<TRIPOS>MOLECULE
NONAME
52 55 1 0 0 
SMALL
USER_CHARGES


@<TRIPOS>ATOM
  1 O        0.8080    -0.5290    -1.3350 O.3   1 <1>  -0.5600 
  2 C        1.8570    -0.9620    -0.4970 C.3   1 <1>   0.4240 
  3 C       -0.4910    -0.8820    -0.9770 C.3   1 <1>   0.1200 
  4 C        1.6130    -2.3960     0.0210 C.ar  1 <1>  -0.1440 
  5 C        1.9840     0.0350     0.6680 C.3   1 <1>  -0.1600 
  6 C        3.1180    -0.9180    -1.3720 C.3   1 <1>  -0.1600 
  7 C       -0.6360    -2.3970    -1.0880 C.3   1 <1>  -0.0160 
  8 C        0.4350    -3.0770    -0.2590 C.ar  1 <1>  -0.1440 
  9 C        2.5740    -3.0380     0.7920 C.ar  1 <1>  -0.1500 
 10 C        2.3200     1.4440     0.1800 C.3   1 <1>   0.2090 
 11 C        3.4370     0.5030    -1.8330 C.3   1 <1>   0.2090 
 12 C        0.2320    -4.3630     0.2150 C.ar  1 <1>  -0.1500 
 13 C        2.3920    -4.3250     1.2680 C.ar  1 <1>   0.0830 
 14 N        3.5600     1.3790    -0.6370 N.pl3 1 <1>  -0.8380 
 15 C        1.1960    -5.0040     0.9890 C.ar  1 <1>   0.0830 
 16 O        3.4320    -4.8220     1.9960 O.3   1 <1>  -0.3630 
 17 C        4.7680     1.8880    -0.1990 C.ar  1 <1>   0.7200 
 18 O        0.9900    -6.2580     1.4890 O.3   1 <1>  -0.3630 
 19 C        3.7720    -6.1890     1.9320 C.3   1 <1>   0.0400 
 20 N        4.7210     2.8810     0.6880 N.ar  1 <1>  -0.6200 
 21 N        5.8750     1.3400    -0.6980 N.ar  1 <1>  -0.6200 
 22 C       -0.2550    -6.9130     1.3870 C.3   1 <1>   0.0400 
 23 C        5.8740     3.3580     1.0960 C.ar  1 <1>   0.1600 
 24 C        7.0140     1.8350    -0.2700 C.ar  1 <1>   0.1600 
 25 C        7.0830     2.8640     0.6420 C.ar  1 <1>   0.0830 
 26 O        8.3130     3.3160     1.0270 O.3   1 <1>  -0.3620 
 27 C        8.4260     4.3930     1.9320 C.3   1 <1>   0.0400 
 28 H       -1.1650    -0.3890    -1.6550 H     1 <1>   0.0800 
 29 H       -0.6880    -0.5460     0.0250 H     1 <1>   0.0800 
 30 H        2.7730    -0.2810     1.3250 H     1 <1>   0.0800 
 31 H        1.0810     0.0500     1.2460 H     1 <1>   0.0800 
 32 H        2.9810    -1.5570    -2.2240 H     1 <1>   0.0800 
 33 H        3.9670    -1.2830    -0.8250 H     1 <1>   0.0800 
 34 H       -0.5380    -2.6910    -2.1180 H     1 <1>   0.0800 
 35 H       -1.6130    -2.6840    -0.7440 H     1 <1>   0.0800 
 36 H        3.4960    -2.5430     1.0360 H     1 <1>   0.1500 
 37 H        2.4380     2.0980     1.0260 H     1 <1>   0.0800 
 38 H        1.5180     1.8280    -0.4270 H     1 <1>   0.0800 
 39 H        2.6440     0.8740    -2.4590 H     1 <1>   0.0800 
 40 H        4.3410     0.5080    -2.4170 H     1 <1>   0.0800 
 41 H       -0.6910    -4.8520    -0.0300 H     1 <1>   0.1500 
 42 H        4.7960    -6.2940     2.2390 H     1 <1>   0.0800 
 43 H        3.6510    -6.5350     0.9200 H     1 <1>   0.0800 
 44 H        3.1340    -6.7360     2.6010 H     1 <1>   0.0800 
 45 H       -0.1850    -7.8460     1.9160 H     1 <1>   0.0800 
 46 H       -0.4680    -7.0980     0.3490 H     1 <1>   0.0800 
 47 H       -1.0130    -6.2950     1.8350 H     1 <1>   0.0800 
 48 H        5.8450     4.1600     1.8080 H     1 <1>   0.1500 
 49 H        7.9270     1.4150    -0.6520 H     1 <1>   0.1500 
 50 H        9.4720     4.5920     2.0850 H     1 <1>   0.0800 
 51 H        7.9680     4.1180     2.8660 H     1 <1>   0.0800 
 52 H        7.9500     5.2600     1.5080 H     1 <1>   0.0800 
@<TRIPOS>BOND
  1   1   2  1   
  2   1   3  1   
  3   2   4  1   
  4   2   5  1   
  5   2   6  1   
  6   3   7  1   
  7   3  28  1   
  8   3  29  1   
  9   4   8  ar  
 10   4   9  ar  
 11   5  10  1   
 12   5  30  1   
 13   5  31  1   
 14   6  11  1   
 15   6  32  1   
 16   6  33  1   
 17   7   8  1   
 18   7  34  1   
 19   7  35  1   
 20   8  12  ar  
 21   9  13  ar  
 22   9  36  1   
 23  10  14  1   
 24  10  37  1   
 25  10  38  1   
 26  11  14  1   
 27  11  39  1   
 28  11  40  1   
 29  12  15  ar  
 30  12  41  1   
 31  13  15  ar  
 32  13  16  1   
 33  14  17  1   
 34  15  18  1   
 35  16  19  1   
 36  17  20  ar  
 37  17  21  ar  
 38  18  22  1   
 39  19  42  1   
 40  19  43  1   
 41  19  44  1   
 42  20  23  ar  
 43  21  24  ar  
 44  22  45  1   
 45  22  46  1   
 46  22  47  1   
 47  23  25  ar  
 48  23  48  1   
 49  24  25  ar  
 50  24  49  1   
 51  25  26  1   
 52  26  27  1   
 53  27  50  1   
 54  27  51  1   
 55  27  52  1   
@<TRIPOS>SUBSTRUCTURE
  1 ****   2 GROUP 4 **** **** 0

# MOE 2024.06 (io_trps.svl 2023.06)
