@<TRIPOS>MOLECULE
NONAME
49 51 1 0 0 
SMALL
USER_CHARGES


@<TRIPOS>ATOM
  1 CL      -4.0530     0.0500     2.5440 Cl    1 <1>  -0.1770 
  2 C       -3.1850     0.9850     1.3370 C.ar  1 <1>   0.1770 
  3 C       -2.6860     2.2390     1.6690 C.ar  1 <1>   0.0830 
  4 C       -3.0180     0.4600     0.0630 C.ar  1 <1>  -0.1440 
  5 O       -2.8650     2.7450     2.9030 O.3   1 <1>  -0.5320 
  6 C       -2.0030     2.9770     0.7170 C.ar  1 <1>  -0.1500 
  7 C       -2.3290     1.2090    -0.8830 C.ar  1 <1>  -0.1500 
  8 C       -3.5780    -0.9040    -0.2890 C.3   1 <1>   0.4860 
  9 C       -1.8260     2.4580    -0.5550 C.ar  1 <1>  -0.1500 
 10 N       -5.0620    -0.8630    -0.1840 N.4   1 <1>  -0.9590 
 11 C       -5.6710    -2.2340    -0.2560 C.3   1 <1>   0.3430 
 12 C       -5.6750     0.0710    -1.1740 C.3   1 <1>   0.3430 
 13 C       -7.1250    -2.3160     0.2650 C.3   1 <1>   0.1400 
 14 C       -6.7560     0.9150    -0.5050 C.3   1 <1>  -0.1600 
 15 N       -8.0130    -1.2130    -0.2400 N.am  1 <1>  -0.6600 
 16 C       -7.7350     0.1220     0.3640 C.3   1 <1>   0.1400 
 17 C       -9.1410    -1.3630    -1.0230 C.2   1 <1>   0.5690 
 18 O       -9.6550    -0.3970    -1.5320 O.2   1 <1>  -0.5700 
 19 C       -9.7960    -2.7060    -1.3250 C.3   1 <1>   0.1570 
 20 N      -10.0020    -3.5170    -0.1060 N.pl3 1 <1>   0.0480 
 21 C       -9.7160    -4.8290     0.0870 C.2   1 <1>   0.0060 
 22 C      -10.4160    -3.0790     1.0990 C.2   1 <1>  -0.3020 
 23 N       -9.8890    -5.2230     1.3040 N.2   1 <1>  -0.5650 
 24 C       -9.2390    -5.7690    -1.0050 C.3   1 <1>  -0.0600 
 25 C      -10.3410    -4.1290     1.9420 C.2   1 <1>   0.0770 
 26 H       -2.4370     3.6100     3.0450 H     1 <1>   0.4500 
 27 H       -1.6070     3.9490     0.9570 H     1 <1>   0.1500 
 28 H       -2.1690     0.8340    -1.8810 H     1 <1>   0.1500 
 29 H       -3.1800    -1.6320     0.4010 H     1 <1>   0.0800 
 30 H       -3.2810    -1.1810    -1.2870 H     1 <1>   0.0800 
 31 H       -1.2900     3.0330    -1.2940 H     1 <1>   0.1500 
 32 H       -5.2560    -0.4760     0.7510 H     1 <1>   0.4500 
 33 H       -5.0770    -2.9220     0.3240 H     1 <1>   0.0800 
 34 H       -5.6530    -2.5770    -1.2770 H     1 <1>   0.0800 
 35 H       -6.1140    -0.4910    -1.9830 H     1 <1>   0.0800 
 36 H       -4.9290     0.7300    -1.5900 H     1 <1>   0.0800 
 37 H       -7.1220    -2.2970     1.3410 H     1 <1>   0.0800 
 38 H       -7.5080    -3.2760    -0.0220 H     1 <1>   0.0800 
 39 H       -7.3180     1.4090    -1.2780 H     1 <1>   0.0800 
 40 H       -6.3020     1.6890     0.0880 H     1 <1>   0.0800 
 41 H       -8.6530     0.6800     0.4700 H     1 <1>   0.0800 
 42 H       -7.3330    -0.0070     1.3550 H     1 <1>   0.0800 
 43 H       -9.1850    -3.2440    -2.0220 H     1 <1>   0.0800 
 44 H      -10.7550    -2.5330    -1.7770 H     1 <1>   0.0800 
 45 H      -10.7360    -2.0700     1.2920 H     1 <1>   0.1500 
 46 H       -9.9500    -5.7890    -1.8100 H     1 <1>   0.0800 
 47 H       -9.1500    -6.7650    -0.6090 H     1 <1>   0.0800 
 48 H       -8.2800    -5.4630    -1.3770 H     1 <1>   0.0800 
 49 H      -10.5960    -4.1590     2.9890 H     1 <1>   0.1500 
@<TRIPOS>BOND
  1   1   2  1   
  2   2   3  ar  
  3   2   4  ar  
  4   3   5  1   
  5   3   6  ar  
  6   4   7  ar  
  7   4   8  1   
  8   5  26  1   
  9   6   9  ar  
 10   6  27  1   
 11   7   9  ar  
 12   7  28  1   
 13   8  10  1   
 14   8  29  1   
 15   8  30  1   
 16   9  31  1   
 17  10  11  1   
 18  10  12  1   
 19  10  32  1   
 20  11  13  1   
 21  11  33  1   
 22  11  34  1   
 23  12  14  1   
 24  12  35  1   
 25  12  36  1   
 26  13  15  1   
 27  13  37  1   
 28  13  38  1   
 29  14  16  1   
 30  14  39  1   
 31  14  40  1   
 32  15  16  1   
 33  15  17  am  
 34  16  41  1   
 35  16  42  1   
 36  17  18  2   
 37  17  19  1   
 38  19  20  1   
 39  19  43  1   
 40  19  44  1   
 41  20  21  1   
 42  20  22  1   
 43  21  23  2   
 44  21  24  1   
 45  22  25  2   
 46  22  45  1   
 47  23  25  1   
 48  24  46  1   
 49  24  47  1   
 50  24  48  1   
 51  25  49  1   
@<TRIPOS>SUBSTRUCTURE
  1 ****  10 GROUP 4 **** **** 0

# MOE 2024.06 (io_trps.svl 2023.06)
