@<TRIPOS>MOLECULE
NONAME
57 59 1 0 0 
SMALL
USER_CHARGES


@<TRIPOS>ATOM
  1 O        4.2000     1.3810     1.4300 O.co2 1 <1>  -0.9000 
  2 C        3.3460     0.5720     1.0420 C.2   1 <1>   0.9060 
  3 O        3.5370    -0.6400     1.1180 O.co2 1 <1>  -0.9000 
  4 C        2.1660     1.0670     0.1920 C.3   1 <1>  -0.1060 
  5 C        2.4440     0.4650    -1.2050 C.3   1 <1>   0.2000 
  6 C        2.1760     2.6270     0.0510 C.3   1 <1>  -0.1600 
  7 C        0.8640     0.5470     0.8610 C.3   1 <1>  -0.0160 
  8 O        1.5340     0.9660    -2.1380 O.3   1 <1>  -0.6800 
  9 C        3.8710     0.8530    -1.6710 C.3   1 <1>   0.3430 
 10 C        3.1810     3.1580    -0.9910 C.3   1 <1>   0.3430 
 11 C       -0.4080     0.6900     0.0290 C.ar  1 <1>  -0.1440 
 12 N        4.3090     2.2010    -1.1530 N.4   1 <1>  -0.9590 
 13 C       -0.8090    -0.3450    -0.8040 C.ar  1 <1>  -0.1500 
 14 C       -1.1820     1.8380     0.1010 C.ar  1 <1>  -0.1500 
 15 C        5.4970     2.7350    -1.8450 C.3   1 <1>   0.5240 
 16 C       -1.9500    -0.2210    -1.5770 C.ar  1 <1>  -0.1500 
 17 C       -2.3240     1.9630    -0.6710 C.ar  1 <1>  -0.1500 
 18 C        5.9010     4.0440    -1.2040 C.2   1 <1>  -0.1810 
 19 C       -2.7060     0.9350    -1.5140 C.ar  1 <1>  -0.1500 
 20 C        5.7950     5.3050    -1.7810 C.2   1 <1>   0.1080 
 21 C        6.4090     4.2670     0.0290 C.2   1 <1>  -0.3320 
 22 N        6.1890     6.2380    -0.9800 N.2   1 <1>  -0.7070 
 23 C        5.2840     5.6170    -3.1710 C.3   1 <1>  -0.0590 
 24 N        6.5780     5.6050     0.1450 N.pl3 1 <1>   0.3140 
 25 C        6.7410     3.2670     1.1300 C.3   1 <1>  -0.0600 
 26 C        7.0840     6.3560     1.3180 C.3   1 <1>   0.2340 
 27 C        8.6050     6.3000     1.4020 C.2   1 <1>  -0.2880 
 28 C        9.3100     5.8380     2.4400 C.2   1 <1>  -0.3000 
 29 H        2.3440    -0.6080    -1.1900 H     1 <1>   0.0800 
 30 H        2.3850     3.0780     1.0050 H     1 <1>   0.0800 
 31 H        1.2100     2.9830    -0.2510 H     1 <1>   0.0800 
 32 H        0.9850    -0.4970     1.0990 H     1 <1>   0.0800 
 33 H        0.7300     1.0520     1.8010 H     1 <1>   0.0800 
 34 H        0.6200     0.8460    -1.7830 H     1 <1>   0.4000 
 35 H        3.8960     0.8300    -2.7460 H     1 <1>   0.0800 
 36 H        4.5560     0.1080    -1.2970 H     1 <1>   0.0800 
 37 H        3.5430     4.1220    -0.6730 H     1 <1>   0.0800 
 38 H        2.6810     3.2740    -1.9390 H     1 <1>   0.0800 
 39 H        4.5980     2.0320    -0.1540 H     1 <1>   0.4500 
 40 H       -0.2320    -1.2530    -0.8540 H     1 <1>   0.1500 
 41 H       -0.9010     2.6400     0.7610 H     1 <1>   0.1500 
 42 H        6.3120     2.0350    -1.7600 H     1 <1>   0.0800 
 43 H        5.2790     2.8900    -2.8870 H     1 <1>   0.0800 
 44 H       -2.2510    -1.0260    -2.2250 H     1 <1>   0.1500 
 45 H       -2.9180     2.8590    -0.6130 H     1 <1>   0.1500 
 46 H       -3.5940     1.0320    -2.1150 H     1 <1>   0.1500 
 47 H        4.3910     5.0600    -3.3810 H     1 <1>   0.0800 
 48 H        6.0390     5.3780    -3.8960 H     1 <1>   0.0800 
 49 H        5.0590     6.6660    -3.2440 H     1 <1>   0.0800 
 50 H        6.6370     2.2560     0.7810 H     1 <1>   0.0800 
 51 H        6.0740     3.3960     1.9660 H     1 <1>   0.0800 
 52 H        7.7530     3.4010     1.4680 H     1 <1>   0.0800 
 53 H        6.7650     7.3780     1.2220 H     1 <1>   0.0800 
 54 H        6.6410     5.9440     2.2050 H     1 <1>   0.0800 
 55 H        9.0690     6.6830     0.5080 H     1 <1>   0.1500 
 56 H       10.3870     5.8130     2.4670 H     1 <1>   0.1500 
 57 H        8.8790     5.4480     3.3470 H     1 <1>   0.1500 
@<TRIPOS>BOND
  1   1   2  ar  
  2   2   3  ar  
  3   2   4  1   
  4   4   5  1   
  5   4   6  1   
  6   4   7  1   
  7   5   8  1   
  8   5   9  1   
  9   5  29  1   
 10   6  10  1   
 11   6  30  1   
 12   6  31  1   
 13   7  11  1   
 14   7  32  1   
 15   7  33  1   
 16   8  34  1   
 17   9  12  1   
 18   9  35  1   
 19   9  36  1   
 20  10  12  1   
 21  10  37  1   
 22  10  38  1   
 23  11  13  ar  
 24  11  14  ar  
 25  12  15  1   
 26  12  39  1   
 27  13  16  ar  
 28  13  40  1   
 29  14  17  ar  
 30  14  41  1   
 31  15  18  1   
 32  15  42  1   
 33  15  43  1   
 34  16  19  ar  
 35  16  44  1   
 36  17  19  ar  
 37  17  45  1   
 38  18  20  1   
 39  18  21  2   
 40  19  46  1   
 41  20  22  2   
 42  20  23  1   
 43  21  24  1   
 44  21  25  1   
 45  22  24  1   
 46  23  47  1   
 47  23  48  1   
 48  23  49  1   
 49  24  26  1   
 50  25  50  1   
 51  25  51  1   
 52  25  52  1   
 53  26  27  1   
 54  26  53  1   
 55  26  54  1   
 56  27  28  2   
 57  27  55  1   
 58  28  56  1   
 59  28  57  1   
@<TRIPOS>SUBSTRUCTURE
  1 ****  10 GROUP 4 **** **** 0

# MOE 2024.06 (io_trps.svl 2023.06)
