@<TRIPOS>MOLECULE
NONAME
55 57 1 0 0 
SMALL
USER_CHARGES


@<TRIPOS>ATOM
  1 O       -0.2450     1.0160    -0.8970 O.co2 1 <1>  -0.9000 
  2 C       -0.1940     1.6030     0.1960 C.2   1 <1>   0.9060 
  3 O        0.7730     1.5220     0.9560 O.co2 1 <1>  -0.9000 
  4 C       -1.4990     2.2730     0.6920 C.3   1 <1>   0.4600 
  5 N       -2.7290     1.4600     0.3180 N.4   1 <1>  -0.9590 
  6 C       -1.6810     3.6920     0.1530 C.ar  1 <1>  -0.1430 
  7 C       -4.0220     2.1360     0.6010 C.3   1 <1>   0.3430 
  8 C       -2.6110     0.0820     0.8660 C.3   1 <1>   0.3430 
  9 C       -1.9950     4.7240     1.0270 C.ar  1 <1>  -0.1500 
 10 C       -1.5630     3.9660    -1.2040 C.ar  1 <1>  -0.1500 
 11 C       -5.1730     1.2830     0.0820 C.3   1 <1>  -0.1600 
 12 C       -3.7580    -0.7820     0.3510 C.3   1 <1>  -0.1600 
 13 C       -2.2110     6.0110     0.5650 C.ar  1 <1>   0.0830 
 14 C       -1.7570     5.2520    -1.6760 C.ar  1 <1>  -0.1500 
 15 C       -5.1140    -0.1350     0.6470 C.3   1 <1>   0.2000 
 16 O       -2.5580     6.9330     1.5030 O.3   1 <1>  -0.3630 
 17 C       -2.0660     6.2800    -0.8020 C.ar  1 <1>   0.0830 
 18 O       -6.1060    -0.8520     0.0000 O.3   1 <1>  -0.5600 
 19 C       -3.5760     7.8680     1.2130 C.3   1 <1>   0.0400 
 20 O       -2.1960     7.5220    -1.3220 O.3   1 <1>  -0.3630 
 21 C       -6.6090    -1.9650     0.6790 C.3   1 <1>   0.2640 
 22 C       -1.0530     8.3380    -1.2040 C.3   1 <1>   0.0400 
 23 C       -7.6420    -2.6540    -0.1980 C.ar  1 <1>  -0.1430 
 24 C       -8.6920    -1.9310    -0.7430 C.ar  1 <1>  -0.1500 
 25 C       -7.5510    -4.0150    -0.4550 C.ar  1 <1>  -0.1500 
 26 C       -9.6410    -2.5580    -1.5320 C.ar  1 <1>  -0.1500 
 27 C       -8.4990    -4.6430    -1.2440 C.ar  1 <1>  -0.1500 
 28 C       -9.5450    -3.9150    -1.7830 C.ar  1 <1>  -0.1500 
 29 H       -1.4190     2.3250     1.7620 H     1 <1>   0.0800 
 30 H       -2.5980     1.3550    -0.7030 H     1 <1>   0.4500 
 31 H       -4.0490     3.1010     0.1190 H     1 <1>   0.0800 
 32 H       -4.1270     2.2850     1.6630 H     1 <1>   0.0800 
 33 H       -2.6310     0.1150     1.9430 H     1 <1>   0.0800 
 34 H       -1.6730    -0.3580     0.5580 H     1 <1>   0.0800 
 35 H       -2.0810     4.5430     2.0840 H     1 <1>   0.1500 
 36 H       -1.3080     3.1830    -1.9020 H     1 <1>   0.1500 
 37 H       -5.1280     1.2510    -0.9920 H     1 <1>   0.0800 
 38 H       -6.1040     1.7410     0.3650 H     1 <1>   0.0800 
 39 H       -3.6940    -1.7450     0.8230 H     1 <1>   0.0800 
 40 H       -3.6400    -0.9190    -0.7100 H     1 <1>   0.0800 
 41 H       -1.6570     5.4640    -2.7250 H     1 <1>   0.1500 
 42 H       -5.3170    -0.1170     1.7060 H     1 <1>   0.0800 
 43 H       -3.9840     8.2190     2.1430 H     1 <1>   0.0800 
 44 H       -4.3420     7.3880     0.6300 H     1 <1>   0.0800 
 45 H       -3.1520     8.6930     0.6720 H     1 <1>   0.0800 
 46 H       -7.0690    -1.6320     1.5930 H     1 <1>   0.0800 
 47 H       -5.7990    -2.6370     0.9020 H     1 <1>   0.0800 
 48 H       -1.2740     9.2950    -1.6390 H     1 <1>   0.0800 
 49 H       -0.2370     7.8720    -1.7280 H     1 <1>   0.0800 
 50 H       -0.8090     8.4510    -0.1610 H     1 <1>   0.0800 
 51 H       -8.7690    -0.8740    -0.5570 H     1 <1>   0.1500 
 52 H       -6.7440    -4.5940    -0.0440 H     1 <1>   0.1500 
 53 H      -10.4520    -1.9890    -1.9520 H     1 <1>   0.1500 
 54 H       -8.4230    -5.6980    -1.4400 H     1 <1>   0.1500 
 55 H      -10.2820    -4.4030    -2.3970 H     1 <1>   0.1500 
@<TRIPOS>BOND
  1   1   2  ar  
  2   2   3  ar  
  3   2   4  1   
  4   4   5  1   
  5   4   6  1   
  6   4  29  1   
  7   5   7  1   
  8   5   8  1   
  9   5  30  1   
 10   6   9  ar  
 11   6  10  ar  
 12   7  11  1   
 13   7  31  1   
 14   7  32  1   
 15   8  12  1   
 16   8  33  1   
 17   8  34  1   
 18   9  13  ar  
 19   9  35  1   
 20  10  14  ar  
 21  10  36  1   
 22  11  15  1   
 23  11  37  1   
 24  11  38  1   
 25  12  15  1   
 26  12  39  1   
 27  12  40  1   
 28  13  16  1   
 29  13  17  ar  
 30  14  17  ar  
 31  14  41  1   
 32  15  18  1   
 33  15  42  1   
 34  16  19  1   
 35  17  20  1   
 36  18  21  1   
 37  19  43  1   
 38  19  44  1   
 39  19  45  1   
 40  20  22  1   
 41  21  23  1   
 42  21  46  1   
 43  21  47  1   
 44  22  48  1   
 45  22  49  1   
 46  22  50  1   
 47  23  24  ar  
 48  23  25  ar  
 49  24  26  ar  
 50  24  51  1   
 51  25  27  ar  
 52  25  52  1   
 53  26  28  ar  
 54  26  53  1   
 55  27  28  ar  
 56  27  54  1   
 57  28  55  1   
@<TRIPOS>SUBSTRUCTURE
  1 ****   7 GROUP 4 **** **** 0

# MOE 2024.06 (io_trps.svl 2023.06)
