@<TRIPOS>MOLECULE
NONAME
64 67 1 0 0 
SMALL
USER_CHARGES


@<TRIPOS>ATOM
  1 O        2.1260    -1.5850     1.3200 O.2   1 <1>  -0.5700 
  2 C        1.5460    -1.4730     0.2680 C.2   1 <1>   0.5690 
  3 N        1.3100    -0.2740    -0.3180 N.am  1 <1>  -0.7300 
  4 C        1.0430    -2.7220    -0.4160 C.3   1 <1>  -0.0990 
  5 C        1.7310     1.0320     0.2170 C.3   1 <1>   0.2200 
  6 C       -0.2820    -3.1900     0.2020 C.3   1 <1>  -0.0990 
  7 C        0.4630     1.8200     0.5670 C.3   1 <1>  -0.1600 
  8 C        2.6400     1.6980    -0.8240 C.3   1 <1>  -0.1600 
  9 C       -0.8000    -4.4280    -0.4930 C.2   1 <1>   0.5690 
 10 C        0.7030     3.2550     1.0640 C.3   1 <1>  -0.1600 
 11 C        3.3970     2.9070    -0.2540 C.3   1 <1>  -0.1600 
 12 O       -1.3890    -4.3070    -1.5390 O.2   1 <1>  -0.5700 
 13 N       -0.5900    -5.6380     0.0760 N.am  1 <1>  -0.7300 
 14 C        1.1310     4.2030    -0.0650 C.3   1 <1>  -0.1600 
 15 C        2.6430     4.2430    -0.3380 C.3   1 <1>  -0.1600 
 16 C       -1.0810    -6.9130    -0.4910 C.3   1 <1>   0.2200 
 17 C       -2.4600    -7.2060     0.0700 C.3   1 <1>  -0.0800 
 18 C       -0.2650    -8.0840     0.0460 C.3   1 <1>   0.1200 
 19 C       -2.1310    -7.9070     1.3910 C.3   1 <1>   0.1200 
 20 C       -3.2790    -8.1000    -0.8810 C.3   1 <1>  -0.0170 
 21 O       -0.8470    -8.4470     1.2620 O.3   1 <1>  -0.5600 
 22 C       -4.7120    -8.2670    -0.3890 C.ar  1 <1>  -0.1440 
 23 C       -5.6760    -7.2370    -0.5100 C.ar  1 <1>   0.0000 
 24 C       -5.1070    -9.4370     0.1920 C.ar  1 <1>  -0.1500 
 25 C       -6.9740    -7.4910    -0.0020 C.ar  1 <1>   0.3100 
 26 C       -5.4310    -5.9760    -1.1030 C.ar  1 <1>  -0.1500 
 27 C       -6.4200    -9.5860     0.6550 C.ar  1 <1>   0.1600 
 28 N       -7.3290    -8.6660     0.5750 N.ar  1 <1>  -0.6200 
 29 C       -7.9490    -6.4850    -0.0980 C.ar  1 <1>  -0.1500 
 30 C       -6.4050    -5.0180    -1.1810 C.ar  1 <1>  -0.1500 
 31 C       -7.6810    -5.2720    -0.6720 C.ar  1 <1>  -0.1500 
 32 H        0.8040    -0.2310    -1.2010 H     1 <1>   0.3700 
 33 H        0.9100    -2.5320    -1.4660 H     1 <1>   0.0800 
 34 H        1.7860    -3.4920    -0.3100 H     1 <1>   0.0800 
 35 H        2.2980     0.8730     1.1200 H     1 <1>   0.0800 
 36 H       -1.0190    -2.4140     0.1090 H     1 <1>   0.0800 
 37 H       -0.1430    -3.3920     1.2490 H     1 <1>   0.0800 
 38 H       -0.1910     1.8490    -0.2860 H     1 <1>   0.0800 
 39 H       -0.0460     1.2820     1.3480 H     1 <1>   0.0800 
 40 H        3.3770     0.9720    -1.1220 H     1 <1>   0.0800 
 41 H        2.0810     1.9810    -1.6980 H     1 <1>   0.0800 
 42 H       -0.2280     3.6190     1.4640 H     1 <1>   0.0800 
 43 H        1.4200     3.2680     1.8680 H     1 <1>   0.0800 
 44 H        3.6620     2.7100     0.7720 H     1 <1>   0.0800 
 45 H        4.3230     3.0190    -0.7920 H     1 <1>   0.0800 
 46 H       -0.1500    -5.7170     0.9960 H     1 <1>   0.3700 
 47 H        0.6110     3.9410    -0.9700 H     1 <1>   0.0800 
 48 H        0.8200     5.2020     0.1890 H     1 <1>   0.0800 
 49 H        3.1010     4.9230     0.3600 H     1 <1>   0.0800 
 50 H        2.7890     4.6610    -1.3190 H     1 <1>   0.0800 
 51 H       -1.0630    -6.8650    -1.5680 H     1 <1>   0.0800 
 52 H       -3.0030    -6.2960     0.2530 H     1 <1>   0.0800 
 53 H        0.7700    -7.8350     0.1990 H     1 <1>   0.0800 
 54 H       -0.3400    -8.9310    -0.6140 H     1 <1>   0.0800 
 55 H       -2.8220    -8.6940     1.6350 H     1 <1>   0.0800 
 56 H       -2.1020    -7.1960     2.1990 H     1 <1>   0.0800 
 57 H       -2.8100    -9.0650    -0.9670 H     1 <1>   0.0800 
 58 H       -3.2960    -7.6710    -1.8680 H     1 <1>   0.0800 
 59 H       -4.4320   -10.2640     0.3120 H     1 <1>   0.1500 
 60 H       -4.4600    -5.7550    -1.5060 H     1 <1>   0.1500 
 61 H       -6.6890   -10.5250     1.1080 H     1 <1>   0.1500 
 62 H       -8.9230    -6.7040     0.2990 H     1 <1>   0.1500 
 63 H       -6.2020    -4.0620    -1.6340 H     1 <1>   0.1500 
 64 H       -8.4380    -4.5100    -0.7380 H     1 <1>   0.1500 
@<TRIPOS>BOND
  1   1   2  2   
  2   2   3  am  
  3   2   4  1   
  4   3   5  1   
  5   3  32  1   
  6   4   6  1   
  7   4  33  1   
  8   4  34  1   
  9   5   7  1   
 10   5   8  1   
 11   5  35  1   
 12   6   9  1   
 13   6  36  1   
 14   6  37  1   
 15   7  10  1   
 16   7  38  1   
 17   7  39  1   
 18   8  11  1   
 19   8  40  1   
 20   8  41  1   
 21   9  12  2   
 22   9  13  am  
 23  10  14  1   
 24  10  42  1   
 25  10  43  1   
 26  11  15  1   
 27  11  44  1   
 28  11  45  1   
 29  13  16  1   
 30  13  46  1   
 31  14  15  1   
 32  14  47  1   
 33  14  48  1   
 34  15  49  1   
 35  15  50  1   
 36  16  17  1   
 37  16  18  1   
 38  16  51  1   
 39  17  19  1   
 40  17  20  1   
 41  17  52  1   
 42  18  21  1   
 43  18  53  1   
 44  18  54  1   
 45  19  21  1   
 46  19  55  1   
 47  19  56  1   
 48  20  22  1   
 49  20  57  1   
 50  20  58  1   
 51  22  23  ar  
 52  22  24  ar  
 53  23  25  ar  
 54  23  26  ar  
 55  24  27  ar  
 56  24  59  1   
 57  25  28  ar  
 58  25  29  ar  
 59  26  30  ar  
 60  26  60  1   
 61  27  28  ar  
 62  27  61  1   
 63  29  31  ar  
 64  29  62  1   
 65  30  31  ar  
 66  30  63  1   
 67  31  64  1   
@<TRIPOS>SUBSTRUCTURE
  1 ****   9 GROUP 4 **** **** 0

# MOE 2024.06 (io_trps.svl 2023.06)
