@<TRIPOS>MOLECULE
NONAME
40 42 1 0 0 
SMALL
USER_CHARGES


@<TRIPOS>ATOM
  1 CL       0.3730     1.1660    -1.6240 Cl    1 <1>  -0.1770 
  2 C        1.7300     1.4990    -0.5730 C.ar  1 <1>   0.1770 
  3 C        2.5680     0.4820    -0.1470 C.ar  1 <1>   0.1900 
  4 C        1.9640     2.7990    -0.1710 C.ar  1 <1>  -0.1500 
  5 F        2.3530    -0.7480    -0.5280 F     1 <1>  -0.1900 
  6 C        3.6430     0.7420     0.6820 C.ar  1 <1>  -0.1500 
  7 C        3.0450     3.0970     0.6620 C.ar  1 <1>   0.0860 
  8 C        3.8720     2.0490     1.0800 C.ar  1 <1>  -0.1500 
  9 C        3.3160     4.4550     1.0800 C.2   1 <1>   0.5440 
 10 O        3.0950     4.7690     2.2340 O.2   1 <1>  -0.5700 
 11 N        3.8500     5.4030     0.2220 N.am  1 <1>  -0.6600 
 12 C        4.1550     6.7690     0.7590 C.3   1 <1>   0.1400 
 13 C        4.4550     5.0230    -1.0950 C.3   1 <1>   0.1400 
 14 C        5.6390     6.9620     1.1730 C.3   1 <1>   0.4230 
 15 C        5.9610     5.3490    -1.2300 C.3   1 <1>  -0.0800 
 16 N        6.5080     7.4680     0.0470 N.4   1 <1>  -0.9590 
 17 C        6.3000     5.7210     1.8370 C.3   1 <1>   0.1200 
 18 C        6.8980     4.6070    -0.2510 C.3   1 <1>   0.1200 
 19 C        6.2100     6.8580    -1.2840 C.3   1 <1>   0.3430 
 20 C        6.4770     8.9610    -0.0410 C.3   1 <1>   0.2630 
 21 O        6.3910     4.5610     1.0450 O.3   1 <1>  -0.5600 
 22 H        1.3070     3.5850    -0.4980 H     1 <1>   0.1500 
 23 H        4.2820    -0.0610     1.0070 H     1 <1>   0.1500 
 24 H        4.7040     2.2760     1.7270 H     1 <1>   0.1500 
 25 H        3.8650     7.5120     0.0390 H     1 <1>   0.0800 
 26 H        3.5490     6.9520     1.6300 H     1 <1>   0.0800 
 27 H        4.3340     3.9680    -1.2660 H     1 <1>   0.0800 
 28 H        3.9070     5.5270    -1.8730 H     1 <1>   0.0800 
 29 H        5.6340     7.7270     1.9310 H     1 <1>   0.0800 
 30 H        6.2310     4.9960    -2.2100 H     1 <1>   0.0800 
 31 H        7.4650     7.1820     0.2960 H     1 <1>   0.4500 
 32 H        5.7200     5.4490     2.7030 H     1 <1>   0.0800 
 33 H        7.2900     5.9660     2.1780 H     1 <1>   0.0800 
 34 H        7.8860     5.0320    -0.2270 H     1 <1>   0.0800 
 35 H        6.9900     3.5810    -0.5680 H     1 <1>   0.0800 
 36 H        5.3440     7.3340    -1.7170 H     1 <1>   0.0800 
 37 H        7.0430     7.0460    -1.9420 H     1 <1>   0.0800 
 38 H        5.4850     9.3030    -0.2930 H     1 <1>   0.0800 
 39 H        7.1620     9.3060    -0.7990 H     1 <1>   0.0800 
 40 H        6.7630     9.3990     0.9020 H     1 <1>   0.0800 
@<TRIPOS>BOND
  1   1   2  1   
  2   2   3  ar  
  3   2   4  ar  
  4   3   5  1   
  5   3   6  ar  
  6   4   7  ar  
  7   4  22  1   
  8   6   8  ar  
  9   6  23  1   
 10   7   8  ar  
 11   7   9  1   
 12   8  24  1   
 13   9  10  2   
 14   9  11  am  
 15  11  12  1   
 16  11  13  1   
 17  12  14  1   
 18  12  25  1   
 19  12  26  1   
 20  13  15  1   
 21  13  27  1   
 22  13  28  1   
 23  14  16  1   
 24  14  17  1   
 25  14  29  1   
 26  15  18  1   
 27  15  19  1   
 28  15  30  1   
 29  16  19  1   
 30  16  20  1   
 31  16  31  1   
 32  17  21  1   
 33  17  32  1   
 34  17  33  1   
 35  18  21  1   
 36  18  34  1   
 37  18  35  1   
 38  19  36  1   
 39  19  37  1   
 40  20  38  1   
 41  20  39  1   
 42  20  40  1   
@<TRIPOS>SUBSTRUCTURE
  1 ****  11 GROUP 4 **** **** 0

# MOE 2024.06 (io_trps.svl 2023.06)
