@<TRIPOS>MOLECULE
NONAME
52 55 1 0 0 
SMALL
USER_CHARGES


@<TRIPOS>ATOM
  1 O        0.0750    -0.7330     0.6200 O.3   1 <1>  -0.1650 
  2 C       -0.7820    -1.2390    -0.2990 C.ar  1 <1>   0.3920 
  3 C        1.2580    -0.1260     0.3250 C.ar  1 <1>   0.0830 
  4 N       -0.6950    -0.8100    -1.5470 N.ar  1 <1>  -0.6200 
  5 C       -1.7170    -2.1690     0.1030 C.ar  1 <1>  -0.1440 
  6 C        1.6140     1.0680     0.9560 C.ar  1 <1>   0.1670 
  7 C        2.1410    -0.7040    -0.5710 C.ar  1 <1>  -0.1500 
  8 C       -1.5670    -1.3410    -2.3760 C.ar  1 <1>   0.4700 
  9 C       -2.5600    -2.6720    -0.8790 C.ar  1 <1>   0.4100 
 10 C       -1.8210    -2.6200     1.5630 C.3   1 <1>  -0.0970 
 11 N        2.7630     1.6980     0.7550 N.ar  1 <1>  -0.6200 
 12 C        0.6860     1.7470     1.9480 C.3   1 <1>  -0.0960 
 13 C        3.3320    -0.0480    -0.7890 C.ar  1 <1>  -0.1500 
 14 N       -2.4900    -2.2420    -2.1250 N.ar  1 <1>  -0.6200 
 15 N       -3.4970    -3.6520    -0.6100 N.pl3 1 <1>  -0.8380 
 16 C        3.5890     1.1310    -0.1100 C.ar  1 <1>   0.1600 
 17 C       -4.7210    -3.7840    -1.4580 C.3   1 <1>   0.2090 
 18 C       -3.0040    -5.0240    -0.2930 C.3   1 <1>   0.2090 
 19 C       -5.2730    -5.1650    -1.1180 C.3   1 <1>   0.2000 
 20 C       -4.0040    -5.9950    -0.9290 C.3   1 <1>  -0.0800 
 21 O       -5.9460    -5.0650     0.0920 O.3   1 <1>  -0.6800 
 22 C       -4.1760    -7.3110    -0.1460 C.3   1 <1>   0.0210 
 23 C       -2.8440    -8.0000     0.0890 C.2   1 <1>   0.1080 
 24 N       -1.9520    -8.1630    -0.8400 N.2   1 <1>  -0.7070 
 25 C       -2.4300    -8.5230     1.3090 C.2   1 <1>  -0.1500 
 26 N       -0.9380    -8.8050    -0.2310 N.pl3 1 <1>   0.3000 
 27 C       -1.2020    -9.0320     1.0730 C.2   1 <1>  -0.3320 
 28 C       -0.2530    -9.7350     2.0260 C.3   1 <1>  -0.0600 
 29 H        1.9040    -1.6240    -1.0750 H     1 <1>   0.1500 
 30 H       -1.5160    -0.9940    -3.3950 H     1 <1>   0.1500 
 31 H       -2.8440    -2.8280     1.8190 H     1 <1>   0.0800 
 32 H       -1.4680    -1.8600     2.2360 H     1 <1>   0.0800 
 33 H       -1.2370    -3.5100     1.7110 H     1 <1>   0.0800 
 34 H       -0.3120     1.3560     1.8990 H     1 <1>   0.0800 
 35 H        0.6450     2.8000     1.7340 H     1 <1>   0.0800 
 36 H        1.0690     1.6130     2.9420 H     1 <1>   0.0800 
 37 H        4.0560    -0.4440    -1.4770 H     1 <1>   0.1500 
 38 H        4.5240     1.6350    -0.2870 H     1 <1>   0.1500 
 39 H       -5.4320    -3.0030    -1.2490 H     1 <1>   0.0800 
 40 H       -4.4540    -3.7560    -2.5000 H     1 <1>   0.0800 
 41 H       -2.0140    -5.1840    -0.6870 H     1 <1>   0.0800 
 42 H       -2.9860    -5.1550     0.7750 H     1 <1>   0.0800 
 43 H       -5.9430    -5.5580    -1.8630 H     1 <1>   0.0800 
 44 H       -3.6240    -6.2380    -1.9060 H     1 <1>   0.0800 
 45 H       -5.4150    -4.4760     0.6680 H     1 <1>   0.4000 
 46 H       -4.8150    -7.9740    -0.7000 H     1 <1>   0.0800 
 47 H       -4.6380    -7.1250     0.8060 H     1 <1>   0.0800 
 48 H       -2.9900    -8.5120     2.2270 H     1 <1>   0.1500 
 49 H       -0.0830    -9.0740    -0.7320 H     1 <1>   0.2700 
 50 H       -0.6910    -9.7970     3.0060 H     1 <1>   0.0800 
 51 H        0.6720    -9.1920     2.0980 H     1 <1>   0.0800 
 52 H       -0.0490   -10.7320     1.6790 H     1 <1>   0.0800 
@<TRIPOS>BOND
  1   1   2  1   
  2   1   3  1   
  3   2   4  ar  
  4   2   5  ar  
  5   3   6  ar  
  6   3   7  ar  
  7   4   8  ar  
  8   5   9  ar  
  9   5  10  1   
 10   6  11  ar  
 11   6  12  1   
 12   7  13  ar  
 13   7  29  1   
 14   8  14  ar  
 15   8  30  1   
 16   9  14  ar  
 17   9  15  1   
 18  10  31  1   
 19  10  32  1   
 20  10  33  1   
 21  11  16  ar  
 22  12  34  1   
 23  12  35  1   
 24  12  36  1   
 25  13  16  ar  
 26  13  37  1   
 27  15  17  1   
 28  15  18  1   
 29  16  38  1   
 30  17  19  1   
 31  17  39  1   
 32  17  40  1   
 33  18  20  1   
 34  18  41  1   
 35  18  42  1   
 36  19  20  1   
 37  19  21  1   
 38  19  43  1   
 39  20  22  1   
 40  20  44  1   
 41  21  45  1   
 42  22  23  1   
 43  22  46  1   
 44  22  47  1   
 45  23  24  2   
 46  23  25  1   
 47  24  26  1   
 48  25  27  2   
 49  25  48  1   
 50  26  27  1   
 51  26  49  1   
 52  27  28  1   
 53  28  50  1   
 54  28  51  1   
 55  28  52  1   
@<TRIPOS>SUBSTRUCTURE
  1 ****   5 GROUP 4 **** **** 0

# MOE 2024.06 (io_trps.svl 2023.06)
