@<TRIPOS>MOLECULE
NONAME
59 60 1 0 0 
SMALL
USER_CHARGES


@<TRIPOS>ATOM
  1 O       -1.6260     0.6150     2.0110 O.2   1 <1>  -0.5700 
  2 C       -2.3260     1.1500     1.1830 C.2   1 <1>   0.5690 
  3 N       -3.5090     0.5720     0.7920 N.am  1 <1>  -0.6600 
  4 C       -1.7880     2.4350     0.4890 C.3   1 <1>   0.4840 
  5 C       -3.5070    -0.9250     0.7030 C.3   1 <1>   0.3210 
  6 C       -4.6340     1.3020     0.1130 C.3   1 <1>   0.1400 
  7 N       -0.5750     2.1960    -0.3780 N.4   1 <1>  -0.9590 
  8 C       -1.4910     3.5680     1.4770 C.3   1 <1>  -0.2400 
  9 C       -2.8710    -1.3720    -0.6130 C.2   1 <1>   0.0460 
 10 C       -6.0270     0.8630     0.6240 C.3   1 <1>   0.3430 
 11 C       -0.9140     1.2570    -1.4840 C.3   1 <1>   0.3430 
 12 C        0.5750     1.6340     0.3890 C.3   1 <1>   0.3430 
 13 N       -3.3270    -0.9210    -1.8040 N.2   1 <1>  -0.5650 
 14 C       -1.8410    -2.2340    -0.7940 C.2   1 <1>  -0.3320 
 15 N       -6.9800     0.4390    -0.4640 N.4   1 <1>  -0.9590 
 16 C       -0.0010     1.4630    -2.6940 C.3   1 <1>  -0.1600 
 17 C        1.8840     2.2840    -0.0570 C.3   1 <1>  -0.1600 
 18 C       -2.5950    -1.5410    -2.6740 C.2   1 <1>   0.0360 
 19 N       -1.6710    -2.3540    -2.1240 N.pl3 1 <1>   0.0330 
 20 C       -0.9840    -3.0020     0.2020 C.3   1 <1>  -0.0600 
 21 C       -8.3190     0.1140     0.1220 C.3   1 <1>   0.2630 
 22 C       -6.4870    -0.7280    -1.2710 C.3   1 <1>   0.2630 
 23 C        1.5100     1.3320    -2.4290 C.3   1 <1>  -0.1600 
 24 C        2.0700     2.4780    -1.5730 C.3   1 <1>  -0.1600 
 25 H       -2.5710     2.7870    -0.1570 H     1 <1>   0.0800 
 26 H       -4.5040    -1.3150     0.7610 H     1 <1>   0.0800 
 27 H       -2.9600    -1.3430     1.5300 H     1 <1>   0.0800 
 28 H       -4.5600     1.1620    -0.9510 H     1 <1>   0.0800 
 29 H       -4.5390     2.3550     0.3100 H     1 <1>   0.0800 
 30 H       -0.2640     3.0840    -0.7860 H     1 <1>   0.4500 
 31 H       -0.7710     3.2670     2.2170 H     1 <1>   0.0800 
 32 H       -2.3940     3.8320     1.9980 H     1 <1>   0.0800 
 33 H       -1.1360     4.4420     0.9620 H     1 <1>   0.0800 
 34 H       -6.4620     1.6900     1.1630 H     1 <1>   0.0800 
 35 H       -5.9050     0.0550     1.3250 H     1 <1>   0.0800 
 36 H       -1.9340     1.4100    -1.7990 H     1 <1>   0.0800 
 37 H       -0.8340     0.2380    -1.1370 H     1 <1>   0.0800 
 38 H        0.6270     0.5680     0.2340 H     1 <1>   0.0800 
 39 H        0.4470     1.7960     1.4470 H     1 <1>   0.0800 
 40 H       -7.1140     1.2300    -1.1150 H     1 <1>   0.4500 
 41 H       -0.2100     2.4210    -3.1380 H     1 <1>   0.0800 
 42 H       -0.2730     0.7230    -3.4270 H     1 <1>   0.0800 
 43 H        2.6840     1.6620     0.3070 H     1 <1>   0.0800 
 44 H        1.9910     3.2350     0.4340 H     1 <1>   0.0800 
 45 H       -2.6950    -1.4410    -3.7430 H     1 <1>   0.1500 
 46 H       -1.0020    -2.9570    -2.6180 H     1 <1>   0.2700 
 47 H       -1.2350    -2.7420     1.2150 H     1 <1>   0.0800 
 48 H        0.0570    -2.7800     0.0480 H     1 <1>   0.0800 
 49 H       -1.1310    -4.0610     0.0790 H     1 <1>   0.0800 
 50 H       -8.2400    -0.7190     0.8020 H     1 <1>   0.0800 
 51 H       -9.0160    -0.1450    -0.6590 H     1 <1>   0.0800 
 52 H       -8.7100     0.9630     0.6600 H     1 <1>   0.0800 
 53 H       -6.2480    -1.5610    -0.6300 H     1 <1>   0.0800 
 54 H       -5.6070    -0.4580    -1.8290 H     1 <1>   0.0800 
 55 H       -7.2420    -1.0430    -1.9740 H     1 <1>   0.0800 
 56 H        2.0100     1.3620    -3.3840 H     1 <1>   0.0800 
 57 H        1.7420     0.3780    -1.9860 H     1 <1>   0.0800 
 58 H        3.1270     2.5640    -1.7660 H     1 <1>   0.0800 
 59 H        1.6290     3.4100    -1.8850 H     1 <1>   0.0800 
@<TRIPOS>BOND
  1   1   2  2   
  2   2   3  am  
  3   2   4  1   
  4   3   5  1   
  5   3   6  1   
  6   4   7  1   
  7   4   8  1   
  8   4  25  1   
  9   5   9  1   
 10   5  26  1   
 11   5  27  1   
 12   6  10  1   
 13   6  28  1   
 14   6  29  1   
 15   7  11  1   
 16   7  12  1   
 17   7  30  1   
 18   8  31  1   
 19   8  32  1   
 20   8  33  1   
 21   9  13  1   
 22   9  14  2   
 23  10  15  1   
 24  10  34  1   
 25  10  35  1   
 26  11  16  1   
 27  11  36  1   
 28  11  37  1   
 29  12  17  1   
 30  12  38  1   
 31  12  39  1   
 32  13  18  2   
 33  14  19  1   
 34  14  20  1   
 35  15  21  1   
 36  15  22  1   
 37  15  40  1   
 38  16  23  1   
 39  16  41  1   
 40  16  42  1   
 41  17  24  1   
 42  17  43  1   
 43  17  44  1   
 44  18  19  1   
 45  18  45  1   
 46  19  46  1   
 47  20  47  1   
 48  20  48  1   
 49  20  49  1   
 50  21  50  1   
 51  21  51  1   
 52  21  52  1   
 53  22  53  1   
 54  22  54  1   
 55  22  55  1   
 56  23  24  1   
 57  23  56  1   
 58  23  57  1   
 59  24  58  1   
 60  24  59  1   
@<TRIPOS>SUBSTRUCTURE
  1 ****   3 GROUP 4 **** **** 0

# MOE 2024.06 (io_trps.svl 2023.06)
