@<TRIPOS>MOLECULE
NONAME
44 47 1 0 0 
SMALL
USER_CHARGES


@<TRIPOS>ATOM
  1 O        1.4280    -0.8290    -2.3390 O.2   1 <1>  -0.5700 
  2 C        2.0220    -1.1040    -1.3150 C.2   1 <1>   0.5440 
  3 N        2.8980    -0.1640    -0.7990 N.am  1 <1>  -0.6600 
  4 C        1.7740    -2.3740    -0.6640 C.ar  1 <1>   0.0860 
  5 C        3.3730    -0.2210     0.6370 C.3   1 <1>   0.2200 
  6 C        3.1640     1.0740    -1.6060 C.3   1 <1>   0.1400 
  7 C        0.4690    -2.7300    -0.2860 C.ar  1 <1>  -0.1520 
  8 C        2.7810    -3.2800    -0.3580 C.ar  1 <1>  -0.1500 
  9 C        2.9750     1.0250     1.4450 C.3   1 <1>   0.1200 
 10 C        4.9000    -0.4640     0.7100 C.3   1 <1>   0.3430 
 11 C        4.2810     1.9920    -1.0750 C.3   1 <1>  -0.0800 
 12 N       -0.7140    -2.0780    -0.5180 N.pl3 1 <1>   0.0330 
 13 C        0.1980    -3.8930     0.4260 C.ar  1 <1>   0.0000 
 14 C        2.5200    -4.4600     0.3430 C.ar  1 <1>  -0.1500 
 15 O        3.9330     2.0310     1.3080 O.3   1 <1>  -0.5600 
 16 N        5.5930    -0.1450    -0.5880 N.4   1 <1>  -0.9590 
 17 C        3.8360     2.7970     0.1550 C.3   1 <1>   0.1200 
 18 C        5.6560     1.3250    -0.8680 C.3   1 <1>   0.3430 
 19 C       -1.7160    -2.8000     0.0670 C.2   1 <1>  -0.3020 
 20 C        1.2390    -4.7650     0.7450 C.ar  1 <1>  -0.1500 
 21 C       -1.1950    -3.9050     0.6510 C.2   1 <1>  -0.1500 
 22 C        6.9470    -0.7690    -0.6580 C.3   1 <1>   0.2630 
 23 H        2.8900    -1.0420     1.1360 H     1 <1>   0.0800 
 24 H        3.4120     0.7730    -2.6100 H     1 <1>   0.0800 
 25 H        2.2460     1.6360    -1.6730 H     1 <1>   0.0800 
 26 H        3.7880    -3.0800    -0.6700 H     1 <1>   0.1500 
 27 H        2.9470     0.7730     2.4910 H     1 <1>   0.0800 
 28 H        2.0020     1.3920     1.1630 H     1 <1>   0.0800 
 29 H        5.0550    -1.5020     0.9480 H     1 <1>   0.0800 
 30 H        5.3210     0.1190     1.5130 H     1 <1>   0.0800 
 31 H        4.4260     2.7350    -1.8390 H     1 <1>   0.0800 
 32 H       -0.8140    -1.2370    -1.1000 H     1 <1>   0.2700 
 33 H        3.3260    -5.1390     0.5660 H     1 <1>   0.1500 
 34 H        4.9740    -0.5420    -1.3150 H     1 <1>   0.4500 
 35 H        2.8280     3.1640     0.0550 H     1 <1>   0.0800 
 36 H        4.4860     3.6450     0.2920 H     1 <1>   0.0800 
 37 H        6.1720     1.8270    -0.0640 H     1 <1>   0.0800 
 38 H        6.2320     1.4750    -1.7660 H     1 <1>   0.0800 
 39 H       -2.7440    -2.4830     0.0240 H     1 <1>   0.1500 
 40 H        1.0200    -5.6670     1.2890 H     1 <1>   0.1500 
 41 H       -1.7120    -4.6790     1.1900 H     1 <1>   0.1500 
 42 H        7.5880    -0.3590     0.1060 H     1 <1>   0.0800 
 43 H        7.3950    -0.5830    -1.6210 H     1 <1>   0.0800 
 44 H        6.8760    -1.8350    -0.5140 H     1 <1>   0.0800 
@<TRIPOS>BOND
  1   1   2  2   
  2   2   3  am  
  3   2   4  1   
  4   3   5  1   
  5   3   6  1   
  6   4   7  ar  
  7   4   8  ar  
  8   5   9  1   
  9   5  10  1   
 10   5  23  1   
 11   6  11  1   
 12   6  24  1   
 13   6  25  1   
 14   7  12  1   
 15   7  13  ar  
 16   8  14  ar  
 17   8  26  1   
 18   9  15  1   
 19   9  27  1   
 20   9  28  1   
 21  10  16  1   
 22  10  29  1   
 23  10  30  1   
 24  11  17  1   
 25  11  18  1   
 26  11  31  1   
 27  12  19  1   
 28  12  32  1   
 29  13  20  ar  
 30  13  21  1   
 31  14  20  ar  
 32  14  33  1   
 33  15  17  1   
 34  16  18  1   
 35  16  22  1   
 36  16  34  1   
 37  17  35  1   
 38  17  36  1   
 39  18  37  1   
 40  18  38  1   
 41  19  21  2   
 42  19  39  1   
 43  20  40  1   
 44  21  41  1   
 45  22  42  1   
 46  22  43  1   
 47  22  44  1   
@<TRIPOS>SUBSTRUCTURE
  1 ****   3 GROUP 4 **** **** 0

# MOE 2024.06 (io_trps.svl 2023.06)
