@<TRIPOS>MOLECULE
NONAME
44 45 1 0 0 
SMALL
USER_CHARGES


@<TRIPOS>ATOM
  1 S        0.4240     0.2780    -1.3440 S.o2  1 <1>   1.3330 
  2 O       -0.4170     1.1770    -2.1000 O.2   1 <1>  -0.6500 
  3 O        0.6460    -1.0690    -1.8200 O.2   1 <1>  -0.6500 
  4 N       -0.2330     0.1750     0.2200 N.am  1 <1>  -0.8490 
  5 C        2.0240     1.0470    -1.0800 C.3   1 <1>  -0.0550 
  6 C       -1.1970    -0.9230     0.3420 C.3   1 <1>   0.1160 
  7 C       -0.8510     1.4270     0.6730 C.3   1 <1>   0.1160 
  8 C        3.0540     0.1420    -0.3680 C.3   1 <1>  -0.0800 
  9 C        4.4540     0.7260    -0.2630 C.3   1 <1>   0.2200 
 10 C        2.7270    -0.2120     1.0880 C.3   1 <1>   0.1200 
 11 N        4.4020     2.1500     0.1530 N.am  1 <1>  -0.7300 
 12 C        5.0060    -0.0960     0.8930 C.3   1 <1>   0.1200 
 13 O        3.9410    -0.2130     1.7850 O.3   1 <1>  -0.5600 
 14 C        4.5720     3.2210    -0.6780 C.2   1 <1>   0.5440 
 15 O        4.7180     2.9980    -1.8630 O.2   1 <1>  -0.5700 
 16 C        4.5700     4.5810    -0.1790 C.ar  1 <1>   0.0860 
 17 C        3.9850     4.9180     1.0410 C.ar  1 <1>   0.1600 
 18 C        5.1450     5.6230    -0.8980 C.ar  1 <1>  -0.1500 
 19 N        3.9360     6.1250     1.5770 N.ar  1 <1>  -0.6200 
 20 C        5.1070     6.8900    -0.3620 C.ar  1 <1>  -0.1500 
 21 C        4.4960     7.0980     0.8730 C.ar  1 <1>   0.3930 
 22 O        4.4250     8.3110     1.4510 O.3   1 <1>  -0.3620 
 23 C        4.9480     9.4820     0.8650 C.3   1 <1>   0.0400 
 24 H        2.4300     1.3160    -2.0370 H     1 <1>   0.0800 
 25 H        1.8910     1.9540    -0.5260 H     1 <1>   0.0800 
 26 H       -1.5870    -0.9700     1.3440 H     1 <1>   0.0800 
 27 H       -0.7160    -1.8630     0.1250 H     1 <1>   0.0800 
 28 H       -2.0110    -0.7850    -0.3510 H     1 <1>   0.0800 
 29 H       -1.1680     1.3330     1.6980 H     1 <1>   0.0800 
 30 H       -1.7060     1.6680     0.0630 H     1 <1>   0.0800 
 31 H       -0.1440     2.2360     0.6100 H     1 <1>   0.0800 
 32 H        3.1250    -0.7820    -0.9170 H     1 <1>   0.0800 
 33 H        5.0300     0.6060    -1.1660 H     1 <1>   0.0800 
 34 H        2.2720    -1.1850     1.1710 H     1 <1>   0.0800 
 35 H        2.0920     0.5250     1.5480 H     1 <1>   0.0800 
 36 H        4.3280     2.2640     1.1670 H     1 <1>   0.3700 
 37 H        5.8430     0.3710     1.3800 H     1 <1>   0.0800 
 38 H        5.2750    -1.0860     0.5660 H     1 <1>   0.0800 
 39 H        3.5170     4.1390     1.6150 H     1 <1>   0.1500 
 40 H        5.6080     5.4310    -1.8520 H     1 <1>   0.1500 
 41 H        5.5490     7.7010    -0.9070 H     1 <1>   0.1500 
 42 H        4.7530    10.3020     1.5320 H     1 <1>   0.0800 
 43 H        4.4570     9.6520    -0.0760 H     1 <1>   0.0800 
 44 H        6.0090     9.3640     0.7340 H     1 <1>   0.0800 
@<TRIPOS>BOND
  1   1   2  2   
  2   1   3  2   
  3   1   4  am  
  4   1   5  1   
  5   4   6  1   
  6   4   7  1   
  7   5   8  1   
  8   5  24  1   
  9   5  25  1   
 10   6  26  1   
 11   6  27  1   
 12   6  28  1   
 13   7  29  1   
 14   7  30  1   
 15   7  31  1   
 16   8   9  1   
 17   8  10  1   
 18   8  32  1   
 19   9  11  1   
 20   9  12  1   
 21   9  33  1   
 22  10  13  1   
 23  10  34  1   
 24  10  35  1   
 25  11  14  am  
 26  11  36  1   
 27  12  13  1   
 28  12  37  1   
 29  12  38  1   
 30  14  15  2   
 31  14  16  1   
 32  16  17  ar  
 33  16  18  ar  
 34  17  19  ar  
 35  17  39  1   
 36  18  20  ar  
 37  18  40  1   
 38  19  21  ar  
 39  20  21  ar  
 40  20  41  1   
 41  21  22  1   
 42  22  23  1   
 43  23  42  1   
 44  23  43  1   
 45  23  44  1   
@<TRIPOS>SUBSTRUCTURE
  1 ****  11 GROUP 4 **** **** 0

# MOE 2024.06 (io_trps.svl 2023.06)
