@<TRIPOS>MOLECULE
NONAME
41 43 1 0 0 
SMALL
USER_CHARGES


@<TRIPOS>ATOM
  1 O        0.1710    -0.5770    -0.2080 O.3   1 <1>  -0.6800 
  2 C        1.2190    -1.1990    -0.8490 C.3   1 <1>   0.2000 
  3 C        1.5770    -2.4920    -0.1270 C.3   1 <1>  -0.1600 
  4 C        2.4670    -0.3310    -0.7480 C.3   1 <1>  -0.1600 
  5 C        3.0720    -2.6930    -0.4140 C.3   1 <1>  -0.0800 
  6 C        3.6350    -1.3230    -0.8070 C.3   1 <1>  -0.0800 
  7 C        3.9120    -3.1590     0.7860 C.3   1 <1>  -0.1600 
  8 C        4.7810    -1.0370     0.1760 C.3   1 <1>  -0.1600 
  9 C        5.2440    -2.4030     0.6870 C.3   1 <1>   0.4230 
 10 N        6.2240    -2.9660    -0.3120 N.4   1 <1>  -0.9590 
 11 C        7.6350    -2.8220     0.1910 C.3   1 <1>   0.5230 
 12 C        5.9990    -4.3880    -0.7250 C.3   1 <1>   0.2630 
 13 C        8.0080    -1.3840     0.5020 C.2   1 <1>   0.0060 
 14 N        8.6770    -0.5560    -0.3090 N.pl3 1 <1>   0.0330 
 15 N        7.7100    -0.8080     1.6130 N.2   1 <1>  -0.3380 
 16 C        8.7470     0.5700     0.3990 C.2   1 <1>   0.0060 
 17 N        8.1720     0.4380     1.5430 N.2   1 <1>  -0.3380 
 18 C        9.4210     1.8380    -0.0850 C.3   1 <1>  -0.0600 
 19 H       -0.6330    -1.1270    -0.2570 H     1 <1>   0.4000 
 20 H        0.9560    -1.3790    -1.8790 H     1 <1>   0.0800 
 21 H        1.4070    -2.3650     0.9280 H     1 <1>   0.0800 
 22 H        0.9920    -3.3190    -0.4890 H     1 <1>   0.0800 
 23 H        2.5090     0.3840    -1.5500 H     1 <1>   0.0800 
 24 H        2.4550     0.1910     0.1940 H     1 <1>   0.0800 
 25 H        3.1880    -3.3670    -1.2450 H     1 <1>   0.0800 
 26 H        4.0090    -1.3760    -1.8160 H     1 <1>   0.0800 
 27 H        3.9960    -4.2270     0.8630 H     1 <1>   0.0800 
 28 H        3.4410    -2.8230     1.6940 H     1 <1>   0.0800 
 29 H        4.4070    -0.4910     1.0250 H     1 <1>   0.0800 
 30 H        5.5610    -0.4440    -0.2660 H     1 <1>   0.0800 
 31 H        5.7030    -2.3160     1.6600 H     1 <1>   0.0800 
 32 H        6.1200    -2.3640    -1.1360 H     1 <1>   0.4500 
 33 H        7.7490    -3.3970     1.0960 H     1 <1>   0.0800 
 34 H        8.3260    -3.2150    -0.5370 H     1 <1>   0.0800 
 35 H        6.0570    -5.0400     0.1320 H     1 <1>   0.0800 
 36 H        6.7400    -4.6950    -1.4450 H     1 <1>   0.0800 
 37 H        5.0250    -4.4990    -1.1740 H     1 <1>   0.0800 
 38 H        9.0660    -0.7100    -1.2430 H     1 <1>   0.2700 
 39 H        8.9450     2.1970    -0.9800 H     1 <1>   0.0800 
 40 H       10.4610     1.6560    -0.2810 H     1 <1>   0.0800 
 41 H        9.3450     2.6000     0.6710 H     1 <1>   0.0800 
@<TRIPOS>BOND
  1   1   2  1   
  2   1  19  1   
  3   2   3  1   
  4   2   4  1   
  5   2  20  1   
  6   3   5  1   
  7   3  21  1   
  8   3  22  1   
  9   4   6  1   
 10   4  23  1   
 11   4  24  1   
 12   5   6  1   
 13   5   7  1   
 14   5  25  1   
 15   6   8  1   
 16   6  26  1   
 17   7   9  1   
 18   7  27  1   
 19   7  28  1   
 20   8   9  1   
 21   8  29  1   
 22   8  30  1   
 23   9  10  1   
 24   9  31  1   
 25  10  11  1   
 26  10  12  1   
 27  10  32  1   
 28  11  13  1   
 29  11  33  1   
 30  11  34  1   
 31  12  35  1   
 32  12  36  1   
 33  12  37  1   
 34  13  14  1   
 35  13  15  2   
 36  14  16  1   
 37  14  38  1   
 38  15  17  1   
 39  16  17  2   
 40  16  18  1   
 41  18  39  1   
 42  18  40  1   
 43  18  41  1   
@<TRIPOS>SUBSTRUCTURE
  1 ****   8 GROUP 4 **** **** 0

# MOE 2024.06 (io_trps.svl 2023.06)
