@<TRIPOS>MOLECULE
NONAME
48 50 1 0 0 
SMALL
USER_CHARGES


@<TRIPOS>ATOM
  1 O        1.7510     1.2240     0.8010 O.2   1 <1>  -0.5700 
  2 C        2.1870     0.3920     0.0270 C.2   1 <1>   0.5440 
  3 N        2.5520     0.8310    -1.2410 N.am  1 <1>  -0.6600 
  4 C        2.3440    -0.9920     0.4830 C.ar  1 <1>   0.3960 
  5 C        3.0430    -0.0740    -2.3320 C.3   1 <1>   0.1400 
  6 C        2.5690     2.2820    -1.5860 C.3   1 <1>   0.1400 
  7 N        3.4910    -1.6580     0.2230 N.ar  1 <1>  -0.6200 
  8 C        1.3040    -1.5800     1.1940 C.ar  1 <1>  -0.1500 
  9 C        4.5770    -0.2490    -2.2870 C.3   1 <1>   0.3430 
 10 C        3.9490     2.8860    -1.2910 C.3   1 <1>  -0.1600 
 11 C        3.5690    -2.8980     0.6820 C.ar  1 <1>   0.1600 
 12 C        1.4000    -2.8720     1.6540 C.ar  1 <1>   0.0830 
 13 N        5.2230     0.7820    -1.4180 N.4   1 <1>  -0.9590 
 14 C        5.1250     2.1650    -1.9570 C.3   1 <1>   0.3430 
 15 C        2.5760    -3.5460     1.3870 C.ar  1 <1>  -0.1500 
 16 O        0.3520    -3.3870     2.3290 O.3   1 <1>  -0.3630 
 17 C        6.5830     0.4040    -0.9530 C.3   1 <1>   0.5230 
 18 C        0.3790    -4.6940     2.8600 C.3   1 <1>   0.0400 
 19 C        6.9210     1.1960     0.2950 C.2   1 <1>  -0.0400 
 20 O        7.2330     2.4740     0.1830 O.3   1 <1>  -0.2800 
 21 C        6.9600     0.8130     1.5900 C.2   1 <1>  -0.1500 
 22 C        7.4750     2.9350     1.3920 C.2   1 <1>  -0.0400 
 23 C        7.3230     1.9570     2.3100 C.2   1 <1>  -0.1500 
 24 C        7.8610     4.3890     1.5580 C.3   1 <1>  -0.0600 
 25 H        2.7590     0.3300    -3.2880 H     1 <1>   0.0800 
 26 H        2.5720    -1.0390    -2.2520 H     1 <1>   0.0800 
 27 H        1.8200     2.8060    -1.0130 H     1 <1>   0.0800 
 28 H        2.3190     2.4120    -2.6250 H     1 <1>   0.0800 
 29 H        0.4100    -1.0160     1.3930 H     1 <1>   0.1500 
 30 H        4.9820    -0.2140    -3.2850 H     1 <1>   0.0800 
 31 H        4.7820    -1.2270    -1.8850 H     1 <1>   0.0800 
 32 H        4.1040     2.9210    -0.2260 H     1 <1>   0.0800 
 33 H        3.9440     3.9060    -1.6310 H     1 <1>   0.0800 
 34 H        4.4810    -3.4380     0.4870 H     1 <1>   0.1500 
 35 H        4.6360     0.8000    -0.5660 H     1 <1>   0.4500 
 36 H        6.0300     2.7110    -1.7440 H     1 <1>   0.0800 
 37 H        4.9920     2.1440    -3.0260 H     1 <1>   0.0800 
 38 H        2.7330    -4.5560     1.7160 H     1 <1>   0.1500 
 39 H        7.3160     0.5930    -1.7190 H     1 <1>   0.0800 
 40 H        6.6000    -0.6440    -0.7060 H     1 <1>   0.0800 
 41 H       -0.5580    -4.8720     3.3560 H     1 <1>   0.0800 
 42 H        1.1860    -4.7680     3.5670 H     1 <1>   0.0800 
 43 H        0.5040    -5.3960     2.0550 H     1 <1>   0.0800 
 44 H        6.7590    -0.1490     2.0300 H     1 <1>   0.1500 
 45 H        7.4470     2.0110     3.3780 H     1 <1>   0.1500 
 46 H        8.7620     4.5920     1.0070 H     1 <1>   0.0800 
 47 H        8.0300     4.6120     2.5950 H     1 <1>   0.0800 
 48 H        7.0750     5.0210     1.1880 H     1 <1>   0.0800 
@<TRIPOS>BOND
  1   1   2  2   
  2   2   3  am  
  3   2   4  1   
  4   3   5  1   
  5   3   6  1   
  6   4   7  ar  
  7   4   8  ar  
  8   5   9  1   
  9   5  25  1   
 10   5  26  1   
 11   6  10  1   
 12   6  27  1   
 13   6  28  1   
 14   7  11  ar  
 15   8  12  ar  
 16   8  29  1   
 17   9  13  1   
 18   9  30  1   
 19   9  31  1   
 20  10  14  1   
 21  10  32  1   
 22  10  33  1   
 23  11  15  ar  
 24  11  34  1   
 25  12  15  ar  
 26  12  16  1   
 27  13  14  1   
 28  13  17  1   
 29  13  35  1   
 30  14  36  1   
 31  14  37  1   
 32  15  38  1   
 33  16  18  1   
 34  17  19  1   
 35  17  39  1   
 36  17  40  1   
 37  18  41  1   
 38  18  42  1   
 39  18  43  1   
 40  19  20  1   
 41  19  21  2   
 42  20  22  1   
 43  21  23  1   
 44  21  44  1   
 45  22  23  2   
 46  22  24  1   
 47  23  45  1   
 48  24  46  1   
 49  24  47  1   
 50  24  48  1   
@<TRIPOS>SUBSTRUCTURE
  1 ****   7 GROUP 4 **** **** 0

# MOE 2024.06 (io_trps.svl 2023.06)
