@<TRIPOS>MOLECULE
NONAME
52 55 1 0 0 
SMALL
USER_CHARGES


@<TRIPOS>ATOM
  1 F       -0.3750     0.1930    -0.6330 F     1 <1>  -0.1370 
  2 C       -1.6560     0.4640    -0.6330 C.2   1 <1>  -0.0150 
  3 N       -2.0940     1.7230    -0.6790 N.pl3 1 <1>   0.3340 
  4 C       -2.6950    -0.4140    -0.5820 C.2   1 <1>   0.1410 
  5 C       -3.4630     1.5680    -0.6470 C.2   1 <1>   0.1410 
  6 C       -1.5040     2.9790    -0.7360 C.2   1 <1>  -0.1810 
  7 N       -3.8520     0.3110    -0.5840 N.2   1 <1>  -0.5650 
  8 C       -2.6210    -1.8670    -0.5650 C.2   1 <1>   0.7160 
  9 C       -4.2700     2.7360    -0.6820 C.2   1 <1>  -0.1050 
 10 C       -2.2820     4.0920    -0.7660 C.2   1 <1>  -0.1500 
 11 O       -1.7530    -2.4350    -1.2020 O.2   1 <1>  -0.5700 
 12 N       -3.5290    -2.6680     0.1180 N.am  1 <1>  -0.6600 
 13 C       -3.7000     3.9730    -0.7400 C.2   1 <1>  -0.1380 
 14 C       -4.5130    -2.1800     1.1320 C.3   1 <1>   0.1400 
 15 C       -3.6630    -4.1250    -0.1810 C.3   1 <1>   0.1400 
 16 C       -4.5290     5.2450    -0.7800 C.3   1 <1>  -0.1020 
 17 C       -5.9650    -2.4920     0.7020 C.3   1 <1>   0.4230 
 18 C       -5.1020    -4.4430    -0.6280 C.3   1 <1>   0.3430 
 19 N       -6.1450    -3.9660     0.3630 N.4   1 <1>  -0.9590 
 20 C       -6.4130    -1.5920    -0.4730 C.3   1 <1>   0.1200 
 21 C       -7.5580    -4.1940    -0.1050 C.3   1 <1>   0.4230 
 22 O       -7.7280    -1.8970    -0.8470 O.3   1 <1>  -0.5600 
 23 C       -7.9400    -3.2210    -1.2470 C.3   1 <1>   0.1200 
 24 C       -7.7730    -5.6700    -0.4800 C.3   1 <1>  -0.1600 
 25 C       -9.2620    -6.0340    -0.5950 C.3   1 <1>  -0.1600 
 26 C       -9.4370    -7.5270    -0.8860 C.3   1 <1>  -0.2400 
 27 H       -0.4290     3.0030    -0.7550 H     1 <1>   0.1500 
 28 H       -5.3350     2.5970    -0.6640 H     1 <1>   0.1500 
 29 H       -1.8510     5.0790    -0.8110 H     1 <1>   0.1500 
 30 H       -4.3140    -2.6730     2.0680 H     1 <1>   0.0800 
 31 H       -4.4030    -1.1270     1.3170 H     1 <1>   0.0800 
 32 H       -2.9860    -4.4230    -0.9640 H     1 <1>   0.0800 
 33 H       -3.4120    -4.6960     0.6960 H     1 <1>   0.0800 
 34 H       -4.3200     5.7910    -1.6820 H     1 <1>   0.0800 
 35 H       -4.2920     5.8660     0.0660 H     1 <1>   0.0800 
 36 H       -5.5800     5.0180    -0.7530 H     1 <1>   0.0800 
 37 H       -6.6050    -2.2480     1.5340 H     1 <1>   0.0800 
 38 H       -5.1900    -5.5070    -0.7710 H     1 <1>   0.0800 
 39 H       -5.2670    -3.9700    -1.5820 H     1 <1>   0.0800 
 40 H       -6.0170    -4.4980     1.2310 H     1 <1>   0.4500 
 41 H       -5.7700    -1.7060    -1.3290 H     1 <1>   0.0800 
 42 H       -6.3950    -0.5580    -0.1750 H     1 <1>   0.0800 
 43 H       -8.2200    -3.9770     0.7180 H     1 <1>   0.0800 
 44 H       -8.9850    -3.3140    -1.4850 H     1 <1>   0.0800 
 45 H       -7.3690    -3.4100    -2.1390 H     1 <1>   0.0800 
 46 H       -7.2950    -5.8920    -1.4180 H     1 <1>   0.0800 
 47 H       -7.3400    -6.2930     0.2830 H     1 <1>   0.0800 
 48 H       -9.7740    -5.7970     0.3240 H     1 <1>   0.0800 
 49 H       -9.7290    -5.4760    -1.3890 H     1 <1>   0.0800 
 50 H       -9.0170    -8.1240    -0.0940 H     1 <1>   0.0800 
 51 H       -8.9610    -7.7950    -1.8130 H     1 <1>   0.0800 
 52 H      -10.4840    -7.7640    -0.9660 H     1 <1>   0.0800 
@<TRIPOS>BOND
  1   1   2  1   
  2   2   3  1   
  3   2   4  2   
  4   3   5  1   
  5   3   6  1   
  6   4   7  1   
  7   4   8  1   
  8   5   7  2   
  9   5   9  1   
 10   6  10  2   
 11   6  27  1   
 12   8  11  2   
 13   8  12  am  
 14   9  13  2   
 15   9  28  1   
 16  10  13  1   
 17  10  29  1   
 18  12  14  1   
 19  12  15  1   
 20  13  16  1   
 21  14  17  1   
 22  14  30  1   
 23  14  31  1   
 24  15  18  1   
 25  15  32  1   
 26  15  33  1   
 27  16  34  1   
 28  16  35  1   
 29  16  36  1   
 30  17  19  1   
 31  17  20  1   
 32  17  37  1   
 33  18  19  1   
 34  18  38  1   
 35  18  39  1   
 36  19  21  1   
 37  19  40  1   
 38  20  22  1   
 39  20  41  1   
 40  20  42  1   
 41  21  23  1   
 42  21  24  1   
 43  21  43  1   
 44  22  23  1   
 45  23  44  1   
 46  23  45  1   
 47  24  25  1   
 48  24  46  1   
 49  24  47  1   
 50  25  26  1   
 51  25  48  1   
 52  25  49  1   
 53  26  50  1   
 54  26  51  1   
 55  26  52  1   
@<TRIPOS>SUBSTRUCTURE
  1 ****   7 GROUP 4 **** **** 0

# MOE 2024.06 (io_trps.svl 2023.06)
