@<TRIPOS>MOLECULE
NONAME
40 42 1 0 0 
SMALL
USER_CHARGES


@<TRIPOS>ATOM
  1 CL      -2.3240     0.2890    -2.3870 Cl    1 <1>  -0.1770 
  2 C       -2.4260     1.0170    -0.8040 C.ar  1 <1>   0.1770 
  3 C       -2.5310     0.2120     0.3330 C.ar  1 <1>   0.0860 
  4 C       -2.3990     2.3960    -0.7280 C.ar  1 <1>  -0.1500 
  5 C       -2.5790    -1.2280     0.2410 C.2   1 <1>   0.5440 
  6 C       -2.5930     0.8470     1.5770 C.ar  1 <1>  -0.1500 
  7 C       -2.4740     2.9780     0.5210 C.ar  1 <1>   0.1900 
  8 O       -1.5760    -1.8590     0.5100 O.2   1 <1>  -0.5700 
  9 N       -3.7340    -1.9040    -0.1030 N.am  1 <1>  -0.6600 
 10 C       -2.5690     2.2270     1.6790 C.ar  1 <1>  -0.1500 
 11 F       -2.4560     4.2780     0.6130 F     1 <1>  -0.1900 
 12 C       -5.0570    -1.2160    -0.2090 C.3   1 <1>   0.2200 
 13 C       -3.6860    -3.3840    -0.3180 C.3   1 <1>   0.0600 
 14 C       -6.1740    -1.8850     0.5900 C.3   1 <1>  -0.1600 
 15 C       -5.5910    -1.1570    -1.6370 C.3   1 <1>  -0.1600 
 16 C       -7.4660    -1.3620    -0.0500 C.3   1 <1>  -0.0800 
 17 C       -7.0970    -0.9120    -1.4760 C.3   1 <1>  -0.0800 
 18 C       -8.0450    -0.1290     0.6580 C.3   1 <1>  -0.1600 
 19 C       -7.4880     0.5700    -1.5770 C.3   1 <1>  -0.1600 
 20 C       -8.5130     0.7730    -0.4730 C.3   1 <1>   0.2000 
 21 O       -8.5190     2.0880    -0.0630 O.3   1 <1>  -0.6800 
 22 H       -2.3200     3.0000    -1.6140 H     1 <1>   0.1500 
 23 H       -2.6580     0.2410     2.4650 H     1 <1>   0.1500 
 24 H       -2.6180     2.7180     2.6350 H     1 <1>   0.1500 
 25 H       -4.9780    -0.2050     0.1500 H     1 <1>   0.0800 
 26 H       -4.4190    -3.6940    -1.0390 H     1 <1>   0.0800 
 27 H       -3.8690    -3.8880     0.6150 H     1 <1>   0.0800 
 28 H       -2.7140    -3.6750    -0.6800 H     1 <1>   0.0800 
 29 H       -6.1490    -2.9510     0.4640 H     1 <1>   0.0800 
 30 H       -6.1080    -1.6530     1.6380 H     1 <1>   0.0800 
 31 H       -5.1110    -0.3880    -2.2140 H     1 <1>   0.0800 
 32 H       -5.4480    -2.1010    -2.1290 H     1 <1>   0.0800 
 33 H       -8.2120    -2.1390    -0.0890 H     1 <1>   0.0800 
 34 H       -7.6530    -1.4830    -2.2000 H     1 <1>   0.0800 
 35 H       -7.2800     0.3690     1.2260 H     1 <1>   0.0800 
 36 H       -8.8610    -0.3950     1.3060 H     1 <1>   0.0800 
 37 H       -7.9050     0.8000    -2.5420 H     1 <1>   0.0800 
 38 H       -6.6310     1.1960    -1.3970 H     1 <1>   0.0800 
 39 H       -9.5020     0.5020    -0.8040 H     1 <1>   0.0800 
 40 H       -7.6280     2.3500     0.2330 H     1 <1>   0.4000 
@<TRIPOS>BOND
  1   1   2  1   
  2   2   3  ar  
  3   2   4  ar  
  4   3   5  1   
  5   3   6  ar  
  6   4   7  ar  
  7   4  22  1   
  8   5   8  2   
  9   5   9  am  
 10   6  10  ar  
 11   6  23  1   
 12   7  10  ar  
 13   7  11  1   
 14   9  12  1   
 15   9  13  1   
 16  10  24  1   
 17  12  14  1   
 18  12  15  1   
 19  12  25  1   
 20  13  26  1   
 21  13  27  1   
 22  13  28  1   
 23  14  16  1   
 24  14  29  1   
 25  14  30  1   
 26  15  17  1   
 27  15  31  1   
 28  15  32  1   
 29  16  17  1   
 30  16  18  1   
 31  16  33  1   
 32  17  19  1   
 33  17  34  1   
 34  18  20  1   
 35  18  35  1   
 36  18  36  1   
 37  19  20  1   
 38  19  37  1   
 39  19  38  1   
 40  20  21  1   
 41  20  39  1   
 42  21  40  1   
@<TRIPOS>SUBSTRUCTURE
  1 ****  12 GROUP 4 **** **** 0

# MOE 2024.06 (io_trps.svl 2023.06)
