@<TRIPOS>MOLECULE
NONAME
50 52 1 0 0 
SMALL
USER_CHARGES


@<TRIPOS>ATOM
  1 F       -1.3460    -0.9890     0.1000 F     1 <1>  -0.3400 
  2 C       -1.8960    -1.9130     0.8810 C.3   1 <1>   1.1640 
  3 F       -1.5330    -1.6110     2.1220 F     1 <1>  -0.3400 
  4 F       -3.2130    -1.7000     0.8150 F     1 <1>  -0.3400 
  5 C       -1.5450    -3.3710     0.4660 C.ar  1 <1>   0.1660 
  6 N       -1.9970    -4.3820     1.2220 N.ar  1 <1>  -0.6200 
  7 C       -0.8030    -3.6000    -0.6910 C.ar  1 <1>  -0.1500 
  8 C       -1.6920    -5.6090     0.8230 C.ar  1 <1>   0.1600 
  9 C       -0.5350    -4.8880    -1.1040 C.ar  1 <1>  -0.1500 
 10 C       -1.0120    -5.9420    -0.3410 C.ar  1 <1>   0.0860 
 11 C       -0.8030    -7.3220    -0.7250 C.2   1 <1>   0.5440 
 12 O        0.3030    -7.6460    -1.1110 O.2   1 <1>  -0.5700 
 13 N       -1.7890    -8.2920    -0.6590 N.am  1 <1>  -0.6600 
 14 C       -3.2320    -8.1670    -1.0480 C.3   1 <1>   0.2200 
 15 C       -1.3660    -9.7150    -0.4890 C.3   1 <1>   0.0600 
 16 C       -3.5910    -7.0120    -1.9910 C.3   1 <1>  -0.1600 
 17 C       -4.1310    -8.0670     0.1860 C.3   1 <1>  -0.1600 
 18 C       -4.8140    -6.2900    -1.4010 C.3   1 <1>  -0.0800 
 19 C       -5.1710    -6.9680    -0.0780 C.3   1 <1>  -0.0800 
 20 C       -4.5950    -4.8010    -1.0990 C.3   1 <1>  -0.1600 
 21 C       -5.2260    -5.8720     1.0000 C.3   1 <1>  -0.1600 
 22 C       -5.1800    -4.5210     0.2900 C.3   1 <1>   0.4230 
 23 N       -6.5420    -3.9040     0.2410 N.4   1 <1>  -0.9590 
 24 C       -7.5370    -4.6340    -0.6080 C.3   1 <1>   0.2630 
 25 C       -6.4520    -2.4640    -0.1560 C.3   1 <1>   0.2630 
 26 H       -0.4300    -2.7820    -1.2850 H     1 <1>   0.1500 
 27 H       -2.0000    -6.4180     1.4600 H     1 <1>   0.1500 
 28 H        0.0350    -5.0860    -1.9980 H     1 <1>   0.1500 
 29 H       -3.5080    -9.0710    -1.5680 H     1 <1>   0.0800 
 30 H       -2.0640   -10.2380     0.1390 H     1 <1>   0.0800 
 31 H       -0.3920    -9.7650    -0.0320 H     1 <1>   0.0800 
 32 H       -1.3190   -10.1960    -1.4510 H     1 <1>   0.0800 
 33 H       -2.7740    -6.3460    -2.1800 H     1 <1>   0.0800 
 34 H       -3.8670    -7.4320    -2.9420 H     1 <1>   0.0800 
 35 H       -4.6340    -9.0070     0.3300 H     1 <1>   0.0800 
 36 H       -3.5510    -7.8780     1.0680 H     1 <1>   0.0800 
 37 H       -5.6440    -6.3960    -2.0810 H     1 <1>   0.0800 
 38 H       -6.1430    -7.4250    -0.1750 H     1 <1>   0.0800 
 39 H       -5.0050    -4.1740    -1.8690 H     1 <1>   0.0800 
 40 H       -3.5450    -4.5990    -1.0510 H     1 <1>   0.0800 
 41 H       -4.3600    -5.9280     1.6330 H     1 <1>   0.0800 
 42 H       -6.0900    -5.9810     1.6310 H     1 <1>   0.0800 
 43 H       -4.5200    -3.8630     0.8340 H     1 <1>   0.0800 
 44 H       -6.8880    -3.9270     1.2110 H     1 <1>   0.4500 
 45 H       -7.2260    -4.6270    -1.6400 H     1 <1>   0.0800 
 46 H       -8.5050    -4.1650    -0.5370 H     1 <1>   0.0800 
 47 H       -7.6270    -5.6570    -0.2830 H     1 <1>   0.0800 
 48 H       -6.0960    -2.3740    -1.1690 H     1 <1>   0.0800 
 49 H       -5.7720    -1.9380     0.4950 H     1 <1>   0.0800 
 50 H       -7.4210    -1.9960    -0.0890 H     1 <1>   0.0800 
@<TRIPOS>BOND
  1   1   2  1   
  2   2   3  1   
  3   2   4  1   
  4   2   5  1   
  5   5   6  ar  
  6   5   7  ar  
  7   6   8  ar  
  8   7   9  ar  
  9   7  26  1   
 10   8  10  ar  
 11   8  27  1   
 12   9  10  ar  
 13   9  28  1   
 14  10  11  1   
 15  11  12  2   
 16  11  13  am  
 17  13  14  1   
 18  13  15  1   
 19  14  16  1   
 20  14  17  1   
 21  14  29  1   
 22  15  30  1   
 23  15  31  1   
 24  15  32  1   
 25  16  18  1   
 26  16  33  1   
 27  16  34  1   
 28  17  19  1   
 29  17  35  1   
 30  17  36  1   
 31  18  19  1   
 32  18  20  1   
 33  18  37  1   
 34  19  21  1   
 35  19  38  1   
 36  20  22  1   
 37  20  39  1   
 38  20  40  1   
 39  21  22  1   
 40  21  41  1   
 41  21  42  1   
 42  22  23  1   
 43  22  43  1   
 44  23  24  1   
 45  23  25  1   
 46  23  44  1   
 47  24  45  1   
 48  24  46  1   
 49  24  47  1   
 50  25  48  1   
 51  25  49  1   
 52  25  50  1   
@<TRIPOS>SUBSTRUCTURE
  1 ****   8 GROUP 4 **** **** 0

# MOE 2024.06 (io_trps.svl 2023.06)
