@<TRIPOS>MOLECULE
NONAME
47 49 1 0 0 
SMALL
USER_CHARGES


@<TRIPOS>ATOM
  1 S        0.3650    -0.0410    -1.0280 S.o2  1 <1>   1.3330 
  2 O       -0.6530    -1.0660    -0.9700 O.2   1 <1>  -0.6500 
  3 O        1.3040    -0.0220    -2.1270 O.2   1 <1>  -0.6500 
  4 N        1.2530    -0.1220     0.4180 N.am  1 <1>  -0.8490 
  5 C       -0.4190     1.5720    -0.9540 C.3   1 <1>  -0.0550 
  6 C        2.4230    -0.9980     0.3040 C.3   1 <1>   0.1160 
  7 C        0.4460    -0.5220     1.5770 C.3   1 <1>   0.1160 
  8 C        0.5640     2.7600    -1.0550 C.3   1 <1>  -0.0800 
  9 C       -0.1120     4.1280    -1.1750 C.3   1 <1>   0.2000 
 10 C        1.5110     2.9100     0.1440 C.3   1 <1>   0.1400 
 11 O       -1.1420     4.2080    -0.2500 O.3   1 <1>  -0.6800 
 12 C        0.9800     5.1090    -0.7550 C.3   1 <1>   0.1400 
 13 N        1.7450     4.3690     0.2810 N.am  1 <1>  -0.6600 
 14 C        2.3230     4.9310     1.3940 C.2   1 <1>   0.6160 
 15 O        2.6250     4.2080     2.3230 O.2   1 <1>  -0.5700 
 16 C        2.5310     6.3560     1.4960 C.2   1 <1>  -0.0140 
 17 C        3.3900     7.0480     0.5590 C.ar  1 <1>   0.0280 
 18 C        1.9140     7.0770     2.4750 C.2   1 <1>  -0.1360 
 19 C        3.4880     8.4500     0.6440 C.ar  1 <1>   0.1170 
 20 C        4.1450     6.4030    -0.4290 C.ar  1 <1>  -0.1500 
 21 C        2.0380     8.4840     2.5730 C.2   1 <1>   0.6160 
 22 N        2.7970     9.1200     1.6450 N.am  1 <1>  -0.5470 
 23 C        4.2810     9.1570    -0.2560 C.ar  1 <1>  -0.1500 
 24 C        4.9310     7.1120    -1.3120 C.ar  1 <1>  -0.1500 
 25 O        1.4880     9.1470     3.4320 O.2   1 <1>  -0.5700 
 26 C        4.9960     8.4960    -1.2300 C.ar  1 <1>  -0.1500 
 27 H       -1.1100     1.6450    -1.7700 H     1 <1>   0.0800 
 28 H       -0.9890     1.6490    -0.0490 H     1 <1>   0.0800 
 29 H        2.9710    -1.0110     1.2310 H     1 <1>   0.0800 
 30 H        3.0810    -0.6370    -0.4690 H     1 <1>   0.0800 
 31 H        2.1170    -2.0010     0.0570 H     1 <1>   0.0800 
 32 H        1.0370    -0.4640     2.4760 H     1 <1>   0.0800 
 33 H        0.0880    -1.5310     1.4570 H     1 <1>   0.0800 
 34 H       -0.4010     0.1330     1.6860 H     1 <1>   0.0800 
 35 H        1.1750     2.6230    -1.9310 H     1 <1>   0.0800 
 36 H       -0.5110     4.3290    -2.1550 H     1 <1>   0.0800 
 37 H        2.4410     2.3910    -0.0200 H     1 <1>   0.0800 
 38 H        1.0560     2.5400     1.0480 H     1 <1>   0.0800 
 39 H       -0.7580     4.2020     0.6500 H     1 <1>   0.4000 
 40 H        0.5660     6.0310    -0.3820 H     1 <1>   0.0800 
 41 H        1.6280     5.3160    -1.5890 H     1 <1>   0.0800 
 42 H        1.2940     6.6070     3.2160 H     1 <1>   0.1500 
 43 H        4.1240     5.3300    -0.5060 H     1 <1>   0.1500 
 44 H        2.8640    10.1310     1.7550 H     1 <1>   0.3700 
 45 H        4.3370    10.2280    -0.1860 H     1 <1>   0.1500 
 46 H        5.5010     6.5970    -2.0660 H     1 <1>   0.1500 
 47 H        5.6090     9.0440    -1.9250 H     1 <1>   0.1500 
@<TRIPOS>BOND
  1   1   2  2   
  2   1   3  2   
  3   1   4  am  
  4   1   5  1   
  5   4   6  1   
  6   4   7  1   
  7   5   8  1   
  8   5  27  1   
  9   5  28  1   
 10   6  29  1   
 11   6  30  1   
 12   6  31  1   
 13   7  32  1   
 14   7  33  1   
 15   7  34  1   
 16   8   9  1   
 17   8  10  1   
 18   8  35  1   
 19   9  11  1   
 20   9  12  1   
 21   9  36  1   
 22  10  13  1   
 23  10  37  1   
 24  10  38  1   
 25  11  39  1   
 26  12  13  1   
 27  12  40  1   
 28  12  41  1   
 29  13  14  am  
 30  14  15  2   
 31  14  16  1   
 32  16  17  1   
 33  16  18  2   
 34  17  19  ar  
 35  17  20  ar  
 36  18  21  1   
 37  18  42  1   
 38  19  22  1   
 39  19  23  ar  
 40  20  24  ar  
 41  20  43  1   
 42  21  22  am  
 43  21  25  2   
 44  22  44  1   
 45  23  26  ar  
 46  23  45  1   
 47  24  26  ar  
 48  24  46  1   
 49  26  47  1   
@<TRIPOS>SUBSTRUCTURE
  1 ****  13 GROUP 4 **** **** 0

# MOE 2024.06 (io_trps.svl 2023.06)
