@<TRIPOS>MOLECULE
NONAME
54 57 1 0 0 
SMALL
USER_CHARGES


@<TRIPOS>ATOM
  1 O       -0.8860    -0.4950    -0.9820 O.3   1 <1>  -0.3630 
  2 C       -0.9490    -1.7690    -0.5290 C.ar  1 <1>   0.0820 
  3 C       -0.5630     0.5280    -0.0710 C.3   1 <1>   0.1200 
  4 C       -1.8220    -2.1730     0.4840 C.ar  1 <1>   0.0820 
  5 C       -0.1350    -2.7000    -1.1470 C.ar  1 <1>  -0.1500 
  6 C       -1.7760     0.8900     0.7860 C.3   1 <1>  -0.1600 
  7 O       -2.6810    -1.3290     1.1050 O.3   1 <1>  -0.3630 
  8 C       -1.8690    -3.5030     0.8610 C.ar  1 <1>  -0.1500 
  9 C       -0.1790    -4.0380    -0.7650 C.ar  1 <1>   0.0820 
 10 C       -2.1500    -0.2120     1.7780 C.3   1 <1>   0.1200 
 11 C       -1.0540    -4.4380     0.2410 C.ar  1 <1>  -0.1430 
 12 O        0.5910    -5.0010    -1.3460 O.3   1 <1>  -0.3630 
 13 C       -1.1330    -5.8940     0.6500 C.3   1 <1>   0.4860 
 14 C        1.6470    -4.6490    -2.2190 C.3   1 <1>   0.0400 
 15 N       -1.5860    -6.6810    -0.5250 N.4   1 <1>  -0.9590 
 16 C       -2.9520    -6.2890    -1.0020 C.3   1 <1>   0.3430 
 17 C       -1.5840    -8.1480    -0.2740 C.3   1 <1>   0.3430 
 18 C       -3.7880    -7.5740    -1.0090 C.3   1 <1>   0.2000 
 19 C       -3.0480    -8.5460    -0.0980 C.3   1 <1>  -0.0800 
 20 O       -5.0740    -7.3610    -0.5370 O.3   1 <1>  -0.6800 
 21 C       -3.3280   -10.0220    -0.4360 C.3   1 <1>  -0.0170 
 22 C       -2.5950   -10.9680     0.5030 C.ar  1 <1>   0.1670 
 23 N       -1.2710   -10.9470     0.4440 N.ar  1 <1>  -0.6200 
 24 C       -3.3210   -11.7910     1.3530 C.ar  1 <1>  -0.1500 
 25 C       -0.6480   -11.7900     1.2550 C.ar  1 <1>   0.1600 
 26 C       -2.6580   -12.6560     2.1970 C.ar  1 <1>  -0.1500 
 27 C       -1.2820   -12.6480     2.1370 C.ar  1 <1>  -0.1500 
 28 H        0.2670     0.2030     0.5320 H     1 <1>   0.0800 
 29 H       -0.2590     1.3800    -0.6520 H     1 <1>   0.0800 
 30 H        0.5130    -2.3510    -1.9280 H     1 <1>   0.1500 
 31 H       -1.5290     1.7720     1.3500 H     1 <1>   0.0800 
 32 H       -2.6170     1.1310     0.1610 H     1 <1>   0.0800 
 33 H       -2.5560    -3.7830     1.6400 H     1 <1>   0.1500 
 34 H       -2.9130     0.1440     2.4470 H     1 <1>   0.0800 
 35 H       -1.2990    -0.5300     2.3570 H     1 <1>   0.0800 
 36 H       -1.8190    -6.0160     1.4720 H     1 <1>   0.0800 
 37 H       -0.1550    -6.2260     0.9600 H     1 <1>   0.0800 
 38 H        2.1790    -5.5440    -2.4870 H     1 <1>   0.0800 
 39 H        2.3120    -3.9700    -1.7120 H     1 <1>   0.0800 
 40 H        1.2370    -4.1920    -3.1030 H     1 <1>   0.0800 
 41 H       -0.8930    -6.4420    -1.2560 H     1 <1>   0.4500 
 42 H       -3.3930    -5.5680    -0.3340 H     1 <1>   0.0800 
 43 H       -2.9020    -5.8690    -1.9940 H     1 <1>   0.0800 
 44 H       -1.1780    -8.6630    -1.1310 H     1 <1>   0.0800 
 45 H       -0.9980    -8.4150     0.5920 H     1 <1>   0.0800 
 46 H       -3.8600    -7.9500    -2.0160 H     1 <1>   0.0800 
 47 H       -3.3120    -8.3630     0.9290 H     1 <1>   0.0800 
 48 H       -5.1030    -7.1870     0.4240 H     1 <1>   0.4000 
 49 H       -3.0210   -10.2390    -1.4450 H     1 <1>   0.0800 
 50 H       -4.3870   -10.2030    -0.3780 H     1 <1>   0.0800 
 51 H       -4.3950   -11.7660     1.3580 H     1 <1>   0.1500 
 52 H        0.4290   -11.8020     1.2170 H     1 <1>   0.1500 
 53 H       -3.1890   -13.3090     2.8680 H     1 <1>   0.1500 
 54 H       -0.7040   -13.3030     2.7640 H     1 <1>   0.1500 
@<TRIPOS>BOND
  1   1   2  1   
  2   1   3  1   
  3   2   4  ar  
  4   2   5  ar  
  5   3   6  1   
  6   3  28  1   
  7   3  29  1   
  8   4   7  1   
  9   4   8  ar  
 10   5   9  ar  
 11   5  30  1   
 12   6  10  1   
 13   6  31  1   
 14   6  32  1   
 15   7  10  1   
 16   8  11  ar  
 17   8  33  1   
 18   9  11  ar  
 19   9  12  1   
 20  10  34  1   
 21  10  35  1   
 22  11  13  1   
 23  12  14  1   
 24  13  15  1   
 25  13  36  1   
 26  13  37  1   
 27  14  38  1   
 28  14  39  1   
 29  14  40  1   
 30  15  16  1   
 31  15  17  1   
 32  15  41  1   
 33  16  18  1   
 34  16  42  1   
 35  16  43  1   
 36  17  19  1   
 37  17  44  1   
 38  17  45  1   
 39  18  19  1   
 40  18  20  1   
 41  18  46  1   
 42  19  21  1   
 43  19  47  1   
 44  20  48  1   
 45  21  22  1   
 46  21  49  1   
 47  21  50  1   
 48  22  23  ar  
 49  22  24  ar  
 50  23  25  ar  
 51  24  26  ar  
 52  24  51  1   
 53  25  27  ar  
 54  25  52  1   
 55  26  27  ar  
 56  26  53  1   
 57  27  54  1   
@<TRIPOS>SUBSTRUCTURE
  1 ****  13 GROUP 4 **** **** 0

# MOE 2024.06 (io_trps.svl 2023.06)
