@<TRIPOS>MOLECULE
NONAME
53 55 1 0 0 
SMALL
USER_CHARGES


@<TRIPOS>ATOM
  1 F       -0.2390     1.7690    -0.0810 F     1 <1>  -0.1900 
  2 C        1.0420     1.9820    -0.2020 C.ar  1 <1>   0.1900 
  3 C        1.8510     1.8370     0.9080 C.ar  1 <1>  -0.1500 
  4 C        1.5440     2.3430    -1.4370 C.ar  1 <1>  -0.1500 
  5 C        3.2090     2.0690     0.7750 C.ar  1 <1>  -0.1500 
  6 C        2.9040     2.5730    -1.5610 C.ar  1 <1>  -0.1500 
  7 C        3.7390     2.4450    -0.4550 C.ar  1 <1>  -0.1440 
  8 C        5.2250     2.7240    -0.5880 C.3   1 <1>   0.4870 
  9 N        5.4170     4.2000    -0.7140 N.4   1 <1>  -0.9590 
 10 C        6.8180     4.5370    -1.0910 C.3   1 <1>   0.3430 
 11 C        4.9570     4.9200     0.5110 C.3   1 <1>   0.3430 
 12 C        6.9380     6.0420    -1.3340 C.3   1 <1>  -0.1600 
 13 C        5.0510     6.4290     0.2880 C.3   1 <1>  -0.1600 
 14 C        6.4590     6.8570    -0.1300 C.3   1 <1>   0.2890 
 15 N        6.4030     8.2720    -0.5320 N.pl3 1 <1>  -0.8690 
 16 C        6.9730     9.4140    -0.1240 C.ar  1 <1>   0.7710 
 17 N        6.6230    10.4730    -0.8130 N.ar  1 <1>  -0.6200 
 18 N        7.8340     9.4630     0.9070 N.ar  1 <1>  -0.1790 
 19 C        7.1600    11.6340    -0.4880 C.ar  1 <1>   0.4100 
 20 C        8.3770    10.6410     1.2990 C.ar  1 <1>   0.2110 
 21 N        6.8120    12.6920    -1.2630 N.pl3 1 <1>  -0.8380 
 22 C        8.0470    11.7640     0.6120 C.ar  1 <1>  -0.1440 
 23 C        5.4120    12.8810    -1.7410 C.3   1 <1>   0.1290 
 24 C        7.8120    13.5220    -1.9910 C.3   1 <1>   0.1290 
 25 C        8.5940    13.1220     1.0520 C.3   1 <1>  -0.0970 
 26 H        1.4180     1.5460     1.8490 H     1 <1>   0.1500 
 27 H        0.8780     2.4350    -2.2780 H     1 <1>   0.1500 
 28 H        3.8390     1.9470     1.6410 H     1 <1>   0.1500 
 29 H        3.2930     2.8440    -2.5290 H     1 <1>   0.1500 
 30 H        5.6010     2.2220    -1.4650 H     1 <1>   0.0800 
 31 H        5.7510     2.3470     0.2740 H     1 <1>   0.0800 
 32 H        4.7920     4.4880    -1.4800 H     1 <1>   0.4500 
 33 H        7.0970     4.0070    -1.9890 H     1 <1>   0.0800 
 34 H        7.4910     4.2400    -0.3020 H     1 <1>   0.0800 
 35 H        5.5660     4.6350     1.3550 H     1 <1>   0.0800 
 36 H        3.9330     4.6580     0.7320 H     1 <1>   0.0800 
 37 H        6.3630     6.2950    -2.2080 H     1 <1>   0.0800 
 38 H        7.9670     6.2770    -1.5400 H     1 <1>   0.0800 
 39 H        4.7790     6.9300     1.2010 H     1 <1>   0.0800 
 40 H        4.3350     6.7090    -0.4650 H     1 <1>   0.0800 
 41 H        7.1400     6.7210     0.6940 H     1 <1>   0.0800 
 42 H        5.7800     8.4480    -1.3310 H     1 <1>   0.4000 
 43 H        8.0460     8.5960     1.3820 H     1 <1>   0.4570 
 44 H        9.0460    10.6540     2.1450 H     1 <1>   0.1500 
 45 H        4.7270    12.3200    -1.1280 H     1 <1>   0.0800 
 46 H        5.3240    12.5430    -2.7590 H     1 <1>   0.0800 
 47 H        5.1430    13.9220    -1.6880 H     1 <1>   0.0800 
 48 H        8.8030    13.1260    -1.8550 H     1 <1>   0.0800 
 49 H        7.7800    14.5340    -1.6290 H     1 <1>   0.0800 
 50 H        7.5920    13.5200    -3.0450 H     1 <1>   0.0800 
 51 H        7.8060    13.8550     1.0470 H     1 <1>   0.0800 
 52 H        9.3710    13.4490     0.3850 H     1 <1>   0.0800 
 53 H        9.0000    13.0780     2.0470 H     1 <1>   0.0800 
@<TRIPOS>BOND
  1   1   2  1   
  2   2   3  ar  
  3   2   4  ar  
  4   3   5  ar  
  5   3  26  1   
  6   4   6  ar  
  7   4  27  1   
  8   5   7  ar  
  9   5  28  1   
 10   6   7  ar  
 11   6  29  1   
 12   7   8  1   
 13   8   9  1   
 14   8  30  1   
 15   8  31  1   
 16   9  10  1   
 17   9  11  1   
 18   9  32  1   
 19  10  12  1   
 20  10  33  1   
 21  10  34  1   
 22  11  13  1   
 23  11  35  1   
 24  11  36  1   
 25  12  14  1   
 26  12  37  1   
 27  12  38  1   
 28  13  14  1   
 29  13  39  1   
 30  13  40  1   
 31  14  15  1   
 32  14  41  1   
 33  15  16  1   
 34  15  42  1   
 35  16  17  ar  
 36  16  18  ar  
 37  17  19  ar  
 38  18  20  ar  
 39  18  43  1   
 40  19  21  1   
 41  19  22  ar  
 42  20  22  ar  
 43  20  44  1   
 44  21  23  1   
 45  21  24  1   
 46  22  25  1   
 47  23  45  1   
 48  23  46  1   
 49  23  47  1   
 50  24  48  1   
 51  24  49  1   
 52  24  50  1   
 53  25  51  1   
 54  25  52  1   
 55  25  53  1   
@<TRIPOS>SUBSTRUCTURE
  1 ****  13 GROUP 4 **** **** 0

# MOE 2024.06 (io_trps.svl 2023.06)
