@<TRIPOS>MOLECULE
NONAME
51 54 1 0 0 
SMALL
USER_CHARGES


@<TRIPOS>ATOM
  1 O       -0.7830     0.2420     1.5650 O.2   1 <1>  -0.5700 
  2 C       -1.5390     1.0390     1.0430 C.2   1 <1>   0.5440 
  3 N       -2.5840     0.5670     0.2690 N.am  1 <1>  -0.6600 
  4 C       -1.3250     2.4560     1.2690 C.ar  1 <1>   0.0860 
  5 C       -3.7450     1.4330    -0.1010 C.3   1 <1>   0.2200 
  6 C       -2.6510    -0.8870    -0.0730 C.3   1 <1>   0.0600 
  7 C       -1.1390     3.3410     0.2100 C.ar  1 <1>  -0.1500 
  8 C       -1.3080     2.9790     2.5610 C.ar  1 <1>  -0.1500 
  9 C       -5.1070     0.8670     0.2940 C.3   1 <1>  -0.1600 
 10 C       -3.8600     1.6760    -1.6030 C.3   1 <1>  -0.1600 
 11 C       -0.9710     4.6970     0.4270 C.ar  1 <1>   0.0820 
 12 C       -1.1410     4.3340     2.7900 C.ar  1 <1>  -0.1500 
 13 C       -6.1010     1.6420    -0.5810 C.3   1 <1>  -0.0800 
 14 C       -5.3070     2.1440    -1.8020 C.3   1 <1>  -0.0800 
 15 O       -0.8200     5.5030    -0.6540 O.3   1 <1>  -0.1650 
 16 C       -0.9800     5.1980     1.7230 C.ar  1 <1>  -0.1500 
 17 C       -6.6740     2.8900     0.1060 C.3   1 <1>  -0.1600 
 18 C       -5.4530     3.6730    -1.8170 C.3   1 <1>  -0.1600 
 19 C        0.0110     6.5750    -0.6300 C.ar  1 <1>   0.0820 
 20 C       -6.6930     3.9510    -0.9820 C.3   1 <1>   0.2000 
 21 C       -0.3960     7.7340    -1.2720 C.ar  1 <1>  -0.1500 
 22 C        1.2490     6.5300     0.0010 C.ar  1 <1>  -0.1500 
 23 O       -6.6170     5.2070    -0.4230 O.3   1 <1>  -0.6800 
 24 C        0.4220     8.8510    -1.2710 C.ar  1 <1>  -0.1500 
 25 C        2.0650     7.6480     0.0010 C.ar  1 <1>  -0.1500 
 26 C        1.6510     8.8080    -0.6330 C.ar  1 <1>  -0.1500 
 27 H       -3.6580     2.3910     0.3810 H     1 <1>   0.0800 
 28 H       -3.1470    -1.0390    -1.0130 H     1 <1>   0.0800 
 29 H       -3.1820    -1.4140     0.7000 H     1 <1>   0.0800 
 30 H       -1.6570    -1.2970    -0.1460 H     1 <1>   0.0800 
 31 H       -1.1220     2.9630    -0.7960 H     1 <1>   0.1500 
 32 H       -1.4280     2.3040     3.3920 H     1 <1>   0.1500 
 33 H       -5.1770    -0.1730     0.0380 H     1 <1>   0.0800 
 34 H       -5.2990     0.9870     1.3450 H     1 <1>   0.0800 
 35 H       -3.1450     2.3990    -1.9510 H     1 <1>   0.0800 
 36 H       -3.7180     0.7570    -2.1400 H     1 <1>   0.0800 
 37 H       -1.1370     4.7140     3.7970 H     1 <1>   0.1500 
 38 H       -6.9070     1.0010    -0.8990 H     1 <1>   0.0800 
 39 H       -5.7190     1.7310    -2.7080 H     1 <1>   0.0800 
 40 H       -0.8620     6.2540     1.8980 H     1 <1>   0.1500 
 41 H       -6.0280     3.2040     0.9080 H     1 <1>   0.0800 
 42 H       -7.6620     2.7080     0.4900 H     1 <1>   0.0800 
 43 H       -5.5680     4.0460    -2.8190 H     1 <1>   0.0800 
 44 H       -4.5960     4.1340    -1.3580 H     1 <1>   0.0800 
 45 H       -7.5890     3.8830    -1.5780 H     1 <1>   0.0800 
 46 H       -1.3500     7.7590    -1.7660 H     1 <1>   0.1500 
 47 H        1.5760     5.6270     0.4850 H     1 <1>   0.1500 
 48 H       -5.7990     5.2890     0.1010 H     1 <1>   0.4000 
 49 H        0.1040     9.7520    -1.7660 H     1 <1>   0.1500 
 50 H        3.0230     7.6150     0.4910 H     1 <1>   0.1500 
 51 H        2.2870     9.6760    -0.6330 H     1 <1>   0.1500 
@<TRIPOS>BOND
  1   1   2  2   
  2   2   3  am  
  3   2   4  1   
  4   3   5  1   
  5   3   6  1   
  6   4   7  ar  
  7   4   8  ar  
  8   5   9  1   
  9   5  10  1   
 10   5  27  1   
 11   6  28  1   
 12   6  29  1   
 13   6  30  1   
 14   7  11  ar  
 15   7  31  1   
 16   8  12  ar  
 17   8  32  1   
 18   9  13  1   
 19   9  33  1   
 20   9  34  1   
 21  10  14  1   
 22  10  35  1   
 23  10  36  1   
 24  11  15  1   
 25  11  16  ar  
 26  12  16  ar  
 27  12  37  1   
 28  13  14  1   
 29  13  17  1   
 30  13  38  1   
 31  14  18  1   
 32  14  39  1   
 33  15  19  1   
 34  16  40  1   
 35  17  20  1   
 36  17  41  1   
 37  17  42  1   
 38  18  20  1   
 39  18  43  1   
 40  18  44  1   
 41  19  21  ar  
 42  19  22  ar  
 43  20  23  1   
 44  20  45  1   
 45  21  24  ar  
 46  21  46  1   
 47  22  25  ar  
 48  22  47  1   
 49  23  48  1   
 50  24  26  ar  
 51  24  49  1   
 52  25  26  ar  
 53  25  50  1   
 54  26  51  1   
@<TRIPOS>SUBSTRUCTURE
  1 ****   7 GROUP 4 **** **** 0

# MOE 2024.06 (io_trps.svl 2023.06)
