@<TRIPOS>MOLECULE
NONAME
42 43 1 0 0 
SMALL
USER_CHARGES


@<TRIPOS>ATOM
  1 O        0.4090     1.1190    -0.6340 O.2   1 <1>  -0.5700 
  2 C        0.1480     2.2920    -0.7050 C.2   1 <1>   0.5690 
  3 N       -0.7960     2.8400     0.0890 N.am  1 <1>  -0.7300 
  4 C        0.8620     3.1840    -1.7200 C.3   1 <1>   0.1810 
  5 C       -1.2070     4.2670     0.0300 C.3   1 <1>   0.3640 
  6 O        0.8430     4.5400    -1.3370 O.3   1 <1>  -0.5600 
  7 C       -2.7180     4.3120    -0.1760 C.ar  1 <1>  -0.1440 
  8 C       -0.4550     5.0710    -1.0700 C.3   1 <1>   0.2610 
  9 C       -3.3430     3.4940    -1.1110 C.ar  1 <1>   0.1600 
 10 C       -3.5000     5.1780     0.5630 C.ar  1 <1>  -0.1500 
 11 C       -0.3460     6.5410    -0.6470 C.2   1 <1>   0.5690 
 12 N       -4.6420     3.4750    -1.3600 N.ar  1 <1>  -0.6200 
 13 C       -4.8560     5.1720     0.3180 C.ar  1 <1>  -0.1500 
 14 O       -1.3580     7.1640    -0.4310 O.2   1 <1>  -0.5700 
 15 N        0.8960     7.0840    -0.5170 N.am  1 <1>  -0.7300 
 16 C       -5.3680     4.3140    -0.6400 C.ar  1 <1>   0.1600 
 17 C        1.3170     8.4380    -0.1320 C.3   1 <1>   0.3000 
 18 C        2.8610     8.4230    -0.1710 C.3   1 <1>  -0.1600 
 19 C        0.7460     9.4370    -1.1420 C.3   1 <1>  -0.2400 
 20 C        0.8020     8.7310     1.2810 C.3   1 <1>  -0.2400 
 21 C        3.5650     9.7410     0.1990 C.3   1 <1>  -0.2400 
 22 H       -1.2810     2.2370     0.7560 H     1 <1>   0.3700 
 23 H        0.3910     3.0900    -2.6820 H     1 <1>   0.0800 
 24 H        1.8900     2.8790    -1.8020 H     1 <1>   0.0800 
 25 H       -0.9770     4.7100     0.9840 H     1 <1>   0.0800 
 26 H       -1.0130     5.0340    -1.9880 H     1 <1>   0.0800 
 27 H       -2.7450     2.8120    -1.6910 H     1 <1>   0.1500 
 28 H       -3.0770     5.8460     1.2950 H     1 <1>   0.1500 
 29 H       -5.5120     5.8280     0.8600 H     1 <1>   0.1500 
 30 H        1.6720     6.4600    -0.7540 H     1 <1>   0.3700 
 31 H       -6.4290     4.3200    -0.8240 H     1 <1>   0.1500 
 32 H        3.2150     7.6620     0.5030 H     1 <1>   0.0800 
 33 H        3.1770     8.1510    -1.1630 H     1 <1>   0.0800 
 34 H        1.0300    10.4400    -0.8830 H     1 <1>   0.0800 
 35 H       -0.3280     9.4000    -1.1480 H     1 <1>   0.0800 
 36 H        1.1090     9.2220    -2.1300 H     1 <1>   0.0800 
 37 H        1.0900     9.7180     1.5900 H     1 <1>   0.0800 
 38 H        1.2020     8.0220     1.9820 H     1 <1>   0.0800 
 39 H       -0.2710     8.6870     1.3110 H     1 <1>   0.0800 
 40 H        3.3300    10.0390     1.2050 H     1 <1>   0.0800 
 41 H        3.2890    10.5320    -0.4750 H     1 <1>   0.0800 
 42 H        4.6310     9.6100     0.1350 H     1 <1>   0.0800 
@<TRIPOS>BOND
  1   1   2  2   
  2   2   3  am  
  3   2   4  1   
  4   3   5  1   
  5   3  22  1   
  6   4   6  1   
  7   4  23  1   
  8   4  24  1   
  9   5   7  1   
 10   5   8  1   
 11   5  25  1   
 12   6   8  1   
 13   7   9  ar  
 14   7  10  ar  
 15   8  11  1   
 16   8  26  1   
 17   9  12  ar  
 18   9  27  1   
 19  10  13  ar  
 20  10  28  1   
 21  11  14  2   
 22  11  15  am  
 23  12  16  ar  
 24  13  16  ar  
 25  13  29  1   
 26  15  17  1   
 27  15  30  1   
 28  16  31  1   
 29  17  18  1   
 30  17  19  1   
 31  17  20  1   
 32  18  21  1   
 33  18  32  1   
 34  18  33  1   
 35  19  34  1   
 36  19  35  1   
 37  19  36  1   
 38  20  37  1   
 39  20  38  1   
 40  20  39  1   
 41  21  40  1   
 42  21  41  1   
 43  21  42  1   
@<TRIPOS>SUBSTRUCTURE
  1 ****   8 GROUP 4 **** **** 0

# MOE 2024.06 (io_trps.svl 2023.06)
