@<TRIPOS>MOLECULE
NONAME
36 36 1 0 0 
SMALL
USER_CHARGES


@<TRIPOS>ATOM
  1 O        0.1420    -0.0470     2.1180 O.2   1 <1>  -0.5700 
  2 C        0.7370    -0.5080     1.1730 C.2   1 <1>   0.5690 
  3 N        1.5340     0.2080     0.3280 N.am  1 <1>  -0.4940 
  4 C        0.6270    -2.0080     0.8850 C.3   1 <1>   0.1710 
  5 C        1.9680     1.5560     0.2520 C.2   1 <1>  -0.0880 
  6 N        1.0650    -2.3970    -0.4930 N.3   1 <1>  -0.8100 
  7 N        1.4110     2.6660     0.8170 N.pl3 1 <1>   0.3140 
  8 C        3.0480     1.9890    -0.4430 C.2   1 <1>  -0.1810 
  9 C        1.3640    -3.8320    -0.5550 C.3   1 <1>   0.0300 
 10 C        0.0420    -2.0540    -1.4930 C.3   1 <1>   0.0300 
 11 N        2.1050     3.7810     0.4980 N.2   1 <1>  -0.7070 
 12 C        0.1860     2.7890     1.6150 C.3   1 <1>   0.0160 
 13 C        3.0790     3.3670    -0.2480 C.2   1 <1>   0.1080 
 14 C        4.0340     1.1720    -1.2610 C.3   1 <1>  -0.0590 
 15 C        4.1110     4.3230    -0.8200 C.3   1 <1>   0.0210 
 16 C        5.3000     4.4870     0.1320 C.3   1 <1>  -0.2400 
 17 H        1.9220    -0.4140    -0.3910 H     1 <1>   0.3700 
 18 H       -0.3880    -2.3230     1.0540 H     1 <1>   0.0800 
 19 H        1.2480    -2.5050     1.6080 H     1 <1>   0.0800 
 20 H        2.1500    -4.0760     0.1400 H     1 <1>   0.0800 
 21 H        1.6970    -4.0950    -1.5450 H     1 <1>   0.0800 
 22 H        0.4890    -4.4130    -0.3140 H     1 <1>   0.0800 
 23 H       -0.1700    -0.9980    -1.4700 H     1 <1>   0.0800 
 24 H       -0.8700    -2.5950    -1.3020 H     1 <1>   0.0800 
 25 H        0.3950    -2.3040    -2.4780 H     1 <1>   0.0800 
 26 H       -0.5940     2.2110     1.1590 H     1 <1>   0.0800 
 27 H       -0.1080     3.8210     1.6550 H     1 <1>   0.0800 
 28 H        0.3780     2.4310     2.6080 H     1 <1>   0.0800 
 29 H        3.8360     0.1210    -1.1620 H     1 <1>   0.0800 
 30 H        5.0360     1.3630    -0.9200 H     1 <1>   0.0800 
 31 H        3.9590     1.4430    -2.2980 H     1 <1>   0.0800 
 32 H        3.6430     5.2780    -0.9770 H     1 <1>   0.0800 
 33 H        4.4500     3.9610    -1.7730 H     1 <1>   0.0800 
 34 H        4.9540     4.8620     1.0800 H     1 <1>   0.0800 
 35 H        6.0130     5.1790    -0.2770 H     1 <1>   0.0800 
 36 H        5.7810     3.5400     0.2940 H     1 <1>   0.0800 
@<TRIPOS>BOND
  1   1   2  2   
  2   2   3  am  
  3   2   4  1   
  4   3   5  1   
  5   3  17  1   
  6   4   6  1   
  7   4  18  1   
  8   4  19  1   
  9   5   7  1   
 10   5   8  2   
 11   6   9  1   
 12   6  10  1   
 13   7  11  1   
 14   7  12  1   
 15   8  13  1   
 16   8  14  1   
 17   9  20  1   
 18   9  21  1   
 19   9  22  1   
 20  10  23  1   
 21  10  24  1   
 22  10  25  1   
 23  11  13  2   
 24  12  26  1   
 25  12  27  1   
 26  12  28  1   
 27  13  15  1   
 28  14  29  1   
 29  14  30  1   
 30  14  31  1   
 31  15  16  1   
 32  15  32  1   
 33  15  33  1   
 34  16  34  1   
 35  16  35  1   
 36  16  36  1   
@<TRIPOS>SUBSTRUCTURE
  1 ****   5 GROUP 4 **** **** 0

# MOE 2024.06 (io_trps.svl 2023.06)
