@<TRIPOS>MOLECULE
NONAME
46 49 1 0 0 
SMALL
USER_CHARGES


@<TRIPOS>ATOM
  1 O       -1.5320    -0.1820     1.8430 O.3   1 <1>  -0.6800 
  2 C       -1.8990    -1.1700     0.9610 C.3   1 <1>   0.2800 
  3 C       -3.4250    -1.3270     0.9970 C.3   1 <1>  -0.1600 
  4 C       -1.4440    -0.7700    -0.4490 C.3   1 <1>  -0.1600 
  5 C       -1.2220    -2.4780     1.3830 C.3   1 <1>  -0.1600 
  6 C       -3.8780    -2.4380     0.0120 C.3   1 <1>   0.0000 
  7 C       -1.8530    -1.8760    -1.4400 C.3   1 <1>  -0.0800 
  8 C       -1.6260    -3.5910     0.4000 C.3   1 <1>  -0.0800 
  9 C       -5.4250    -2.6450     0.0870 C.3   1 <1>   0.2890 
 10 C       -3.3850    -2.0460    -1.4090 C.3   1 <1>  -0.1600 
 11 C       -3.1570    -3.7520     0.4240 C.3   1 <1>  -0.1600 
 12 C       -1.1870    -3.2010    -1.0230 C.3   1 <1>  -0.1600 
 13 N       -5.8610    -3.7030    -0.8450 N.pl3 1 <1>  -0.8690 
 14 C       -6.2740    -1.4140    -0.2430 C.3   1 <1>  -0.2400 
 15 C       -6.4150    -4.8630    -0.3760 C.ar  1 <1>   0.4100 
 16 N       -5.8110    -5.9500    -0.8180 N.ar  1 <1>  -0.6200 
 17 C       -7.5190    -4.9020     0.4930 C.ar  1 <1>   0.1600 
 18 C       -6.3510    -7.0590    -0.3440 C.ar  1 <1>   0.1670 
 19 N       -8.0610    -6.0040     0.9760 N.ar  1 <1>  -0.6200 
 20 C       -7.4380    -7.0840     0.5250 C.ar  1 <1>   0.1600 
 21 C       -5.7070    -8.3500    -0.8070 C.3   1 <1>  -0.0970 
 22 H       -1.9050     0.6680     1.5500 H     1 <1>   0.4000 
 23 H       -3.8720    -0.3890     0.7280 H     1 <1>   0.0800 
 24 H       -3.7330    -1.5800     1.9970 H     1 <1>   0.0800 
 25 H       -0.3750    -0.6480    -0.4660 H     1 <1>   0.0800 
 26 H       -1.9000     0.1590    -0.7400 H     1 <1>   0.0800 
 27 H       -1.5270    -2.7430     2.3800 H     1 <1>   0.0800 
 28 H       -0.1530    -2.3560     1.3760 H     1 <1>   0.0800 
 29 H       -1.5370    -1.6090    -2.4350 H     1 <1>   0.0800 
 30 H       -1.1570    -4.5170     0.6860 H     1 <1>   0.0800 
 31 H       -5.6640    -2.9490     1.0930 H     1 <1>   0.0800 
 32 H       -3.8420    -1.1240    -1.7210 H     1 <1>   0.0800 
 33 H       -3.6640    -2.8010    -2.1230 H     1 <1>   0.0800 
 34 H       -3.4240    -4.5520    -0.2440 H     1 <1>   0.0800 
 35 H       -3.4700    -4.0470     1.4110 H     1 <1>   0.0800 
 36 H       -0.1160    -3.0970    -1.0570 H     1 <1>   0.0800 
 37 H       -1.4590    -3.9800    -1.7140 H     1 <1>   0.0800 
 38 H       -5.1180    -3.9310    -1.5090 H     1 <1>   0.4000 
 39 H       -6.0740    -1.0640    -1.2390 H     1 <1>   0.0800 
 40 H       -6.0860    -0.6190     0.4520 H     1 <1>   0.0800 
 41 H       -7.3160    -1.6660    -0.1750 H     1 <1>   0.0800 
 42 H       -7.9540    -3.9650     0.7820 H     1 <1>   0.1500 
 43 H       -7.8140    -8.0320     0.8640 H     1 <1>   0.1500 
 44 H       -4.6710    -8.3580    -0.5200 H     1 <1>   0.0800 
 45 H       -5.7670    -8.4160    -1.8790 H     1 <1>   0.0800 
 46 H       -6.1940    -9.2060    -0.3780 H     1 <1>   0.0800 
@<TRIPOS>BOND
  1   1   2  1   
  2   1  22  1   
  3   2   3  1   
  4   2   4  1   
  5   2   5  1   
  6   3   6  1   
  7   3  23  1   
  8   3  24  1   
  9   4   7  1   
 10   4  25  1   
 11   4  26  1   
 12   5   8  1   
 13   5  27  1   
 14   5  28  1   
 15   6   9  1   
 16   6  10  1   
 17   6  11  1   
 18   7  10  1   
 19   7  12  1   
 20   7  29  1   
 21   8  11  1   
 22   8  12  1   
 23   8  30  1   
 24   9  13  1   
 25   9  14  1   
 26   9  31  1   
 27  10  32  1   
 28  10  33  1   
 29  11  34  1   
 30  11  35  1   
 31  12  36  1   
 32  12  37  1   
 33  13  15  1   
 34  13  38  1   
 35  14  39  1   
 36  14  40  1   
 37  14  41  1   
 38  15  16  ar  
 39  15  17  ar  
 40  16  18  ar  
 41  17  19  ar  
 42  17  42  1   
 43  18  20  ar  
 44  18  21  1   
 45  19  20  ar  
 46  20  43  1   
 47  21  44  1   
 48  21  45  1   
 49  21  46  1   
@<TRIPOS>SUBSTRUCTURE
  1 ****   6 GROUP 4 **** **** 0

# MOE 2024.06 (io_trps.svl 2023.06)
