@<TRIPOS>MOLECULE
NONAME
55 57 1 0 0 
SMALL
USER_CHARGES


@<TRIPOS>ATOM
  1 O       -0.0800     1.1470     0.8550 O.2   1 <1>  -0.5700 
  2 C       -0.0960     2.3400     0.6870 C.2   1 <1>   0.5690 
  3 N       -1.1940     3.0670     0.9810 N.am  1 <1>  -0.7300 
  4 C        1.1220     3.0520     0.0980 C.3   1 <1>   0.1810 
  5 C       -1.3300     4.5170     0.6920 C.3   1 <1>   0.3640 
  6 O        1.1320     4.4270     0.4080 O.3   1 <1>  -0.5600 
  7 C       -2.5560     4.7060    -0.2000 C.ar  1 <1>  -0.1440 
  8 C       -0.0560     5.1300     0.0430 C.3   1 <1>   0.2610 
  9 C       -2.8000     3.8700    -1.2830 C.ar  1 <1>  -0.1500 
 10 C       -3.4510     5.7340     0.0660 C.ar  1 <1>  -0.1500 
 11 C        0.0640     6.6040     0.4470 C.2   1 <1>   0.5690 
 12 C       -3.9180     4.0550    -2.0790 C.ar  1 <1>  -0.1500 
 13 C       -4.5680     5.9200    -0.7290 C.ar  1 <1>  -0.1500 
 14 O       -0.7990     7.3880     0.1300 O.2   1 <1>  -0.5700 
 15 N        1.1490     7.0010     1.1660 N.am  1 <1>  -0.7300 
 16 C       -4.8030     5.0800    -1.8020 C.ar  1 <1>  -0.1500 
 17 C        1.4490     8.3790     1.5980 C.3   1 <1>   0.1400 
 18 C        2.6810     8.8730     0.8420 C.3   1 <1>  -0.1600 
 19 C        2.9890    10.3270     1.2010 C.3   1 <1>   0.1100 
 20 N        4.0660    10.8460     0.3430 N.3   1 <1>  -0.8100 
 21 C        4.0560    12.3290     0.3100 C.3   1 <1>   0.1100 
 22 C        5.4100    10.3500     0.7380 C.3   1 <1>   0.1100 
 23 C        5.1550    12.9080    -0.6170 C.3   1 <1>   0.3430 
 24 C        6.5390    10.9210    -0.1570 C.3   1 <1>   0.3430 
 25 N        5.9810    11.8130    -1.2260 N.4   1 <1>  -0.9590 
 26 C        7.0040    12.3030    -2.1930 C.3   1 <1>   0.2630 
 27 H       -2.0290     2.5820     1.3130 H     1 <1>   0.3700 
 28 H        1.1270     2.9400    -0.9700 H     1 <1>   0.0800 
 29 H        2.0180     2.6170     0.5010 H     1 <1>   0.0800 
 30 H       -1.5040     5.0190     1.6290 H     1 <1>   0.0800 
 31 H       -0.1440     5.0860    -1.0270 H     1 <1>   0.0800 
 32 H       -2.1260     3.0650    -1.5170 H     1 <1>   0.1500 
 33 H       -3.2800     6.4060     0.8900 H     1 <1>   0.1500 
 34 H       -4.0980     3.4010    -2.9140 H     1 <1>   0.1500 
 35 H       -5.2520     6.7230    -0.5140 H     1 <1>   0.1500 
 36 H        1.8510     6.2800     1.3670 H     1 <1>   0.3700 
 37 H       -5.6720     5.2260    -2.4200 H     1 <1>   0.1500 
 38 H        0.6060     9.0170     1.3860 H     1 <1>   0.0800 
 39 H        1.6260     8.3890     2.6600 H     1 <1>   0.0800 
 40 H        2.4840     8.8100    -0.2140 H     1 <1>   0.0800 
 41 H        3.5140     8.2430     1.0890 H     1 <1>   0.0800 
 42 H        3.2570    10.4150     2.2410 H     1 <1>   0.0800 
 43 H        2.0950    10.9070     1.0340 H     1 <1>   0.0800 
 44 H        3.0970    12.6710    -0.0420 H     1 <1>   0.0800 
 45 H        4.1910    12.7180     1.3050 H     1 <1>   0.0800 
 46 H        5.6100    10.6100     1.7650 H     1 <1>   0.0800 
 47 H        5.4360     9.2770     0.6670 H     1 <1>   0.0800 
 48 H        5.7830    13.5730    -0.0480 H     1 <1>   0.0800 
 49 H        4.6840    13.4860    -1.3940 H     1 <1>   0.0800 
 50 H        7.0740    10.1010    -0.6060 H     1 <1>   0.0800 
 51 H        7.2340    11.4700     0.4560 H     1 <1>   0.0800 
 52 H        5.2800    11.2160    -1.6970 H     1 <1>   0.4500 
 53 H        7.7280    12.9240    -1.6910 H     1 <1>   0.0800 
 54 H        6.5340    12.8800    -2.9730 H     1 <1>   0.0800 
 55 H        7.5170    11.4700    -2.6470 H     1 <1>   0.0800 
@<TRIPOS>BOND
  1   1   2  2   
  2   2   3  am  
  3   2   4  1   
  4   3   5  1   
  5   3  27  1   
  6   4   6  1   
  7   4  28  1   
  8   4  29  1   
  9   5   7  1   
 10   5   8  1   
 11   5  30  1   
 12   6   8  1   
 13   7   9  ar  
 14   7  10  ar  
 15   8  11  1   
 16   8  31  1   
 17   9  12  ar  
 18   9  32  1   
 19  10  13  ar  
 20  10  33  1   
 21  11  14  2   
 22  11  15  am  
 23  12  16  ar  
 24  12  34  1   
 25  13  16  ar  
 26  13  35  1   
 27  15  17  1   
 28  15  36  1   
 29  16  37  1   
 30  17  18  1   
 31  17  38  1   
 32  17  39  1   
 33  18  19  1   
 34  18  40  1   
 35  18  41  1   
 36  19  20  1   
 37  19  42  1   
 38  19  43  1   
 39  20  21  1   
 40  20  22  1   
 41  21  23  1   
 42  21  44  1   
 43  21  45  1   
 44  22  24  1   
 45  22  46  1   
 46  22  47  1   
 47  23  25  1   
 48  23  48  1   
 49  23  49  1   
 50  24  25  1   
 51  24  50  1   
 52  24  51  1   
 53  25  26  1   
 54  25  52  1   
 55  26  53  1   
 56  26  54  1   
 57  26  55  1   
@<TRIPOS>SUBSTRUCTURE
  1 ****  11 GROUP 4 **** **** 0

# MOE 2024.06 (io_trps.svl 2023.06)
