@<TRIPOS>MOLECULE
NONAME
46 48 1 0 0 
SMALL
USER_CHARGES


@<TRIPOS>ATOM
  1 S        0.4610     0.0230    -0.0420 S.o2  1 <1>   1.3330 
  2 O       -0.7440    -0.1540    -0.8210 O.2   1 <1>  -0.6500 
  3 O        0.9270    -1.0550     0.8010 O.2   1 <1>  -0.6500 
  4 N        0.2380     1.3910     0.9390 N.am  1 <1>  -0.8490 
  5 C        1.8030     0.4900    -1.1370 C.3   1 <1>  -0.0550 
  6 C       -0.5350     1.0720     2.1420 C.3   1 <1>   0.1160 
  7 C       -0.3810     2.5190     0.2320 C.3   1 <1>   0.1160 
  8 C        3.0880     0.9090    -0.4010 C.3   1 <1>  -0.0800 
  9 C        4.0960     1.5490    -1.3510 C.3   1 <1>   0.2200 
 10 C        3.8550    -0.2550     0.2300 C.3   1 <1>   0.1200 
 11 N        4.3670     2.9330    -0.9070 N.am  1 <1>  -0.7300 
 12 C        5.3340     0.6660    -1.2130 C.3   1 <1>   0.1200 
 13 O        5.2000     0.0240     0.0110 O.3   1 <1>  -0.5600 
 14 C        3.5390     4.0010    -1.1250 C.2   1 <1>   0.5440 
 15 O        2.5550     3.8200    -1.8230 O.2   1 <1>  -0.5700 
 16 C        3.8160     5.3040    -0.5120 C.ar  1 <1>   0.3960 
 17 N        4.8460     5.4160     0.3470 N.ar  1 <1>  -0.6200 
 18 C        3.0110     6.4010    -0.8200 C.ar  1 <1>  -0.1500 
 19 C        5.0700     6.6020     0.9040 C.ar  1 <1>   0.2870 
 20 C        3.2420     7.6330    -0.2530 C.ar  1 <1>  -0.1500 
 21 N        6.1550     6.7070     1.8150 N.pl3 1 <1>   0.3260 
 22 C        4.2950     7.7240     0.6260 C.ar  1 <1>  -0.1500 
 23 C        6.3080     7.5070     2.8820 C.2   1 <1>   0.0370 
 24 C        7.3170     6.0380     1.8210 C.2   1 <1>   0.0370 
 25 N        7.4460     7.3480     3.4620 N.2   1 <1>  -0.3380 
 26 N        8.0950     6.4030     2.7790 N.2   1 <1>  -0.3380 
 27 H        2.0190    -0.3250    -1.8000 H     1 <1>   0.0800 
 28 H        1.4740     1.3140    -1.7400 H     1 <1>   0.0800 
 29 H       -0.6400     1.9460     2.7610 H     1 <1>   0.0800 
 30 H       -0.0290     0.3130     2.7130 H     1 <1>   0.0800 
 31 H       -1.5130     0.7080     1.8720 H     1 <1>   0.0800 
 32 H       -0.4610     3.3670     0.8900 H     1 <1>   0.0800 
 33 H       -1.3650     2.2530    -0.1170 H     1 <1>   0.0800 
 34 H        0.2220     2.8080    -0.6120 H     1 <1>   0.0800 
 35 H        2.8320     1.6000     0.3830 H     1 <1>   0.0800 
 36 H        3.7580     1.5630    -2.3740 H     1 <1>   0.0800 
 37 H        3.6280    -1.1930    -0.2470 H     1 <1>   0.0800 
 38 H        3.6780    -0.3350     1.2900 H     1 <1>   0.0800 
 39 H        5.0850     3.0300    -0.1820 H     1 <1>   0.3700 
 40 H        6.2540     1.2240    -1.2310 H     1 <1>   0.0800 
 41 H        5.3470    -0.0910    -1.9780 H     1 <1>   0.0800 
 42 H        2.1970     6.2780    -1.5140 H     1 <1>   0.1500 
 43 H        2.6250     8.4850    -0.4890 H     1 <1>   0.1500 
 44 H        4.5140     8.6710     1.0870 H     1 <1>   0.1500 
 45 H        5.5510     8.1960     3.2060 H     1 <1>   0.1500 
 46 H        7.5450     5.2850     1.0900 H     1 <1>   0.1500 
@<TRIPOS>BOND
  1   1   2  2   
  2   1   3  2   
  3   1   4  am  
  4   1   5  1   
  5   4   6  1   
  6   4   7  1   
  7   5   8  1   
  8   5  27  1   
  9   5  28  1   
 10   6  29  1   
 11   6  30  1   
 12   6  31  1   
 13   7  32  1   
 14   7  33  1   
 15   7  34  1   
 16   8   9  1   
 17   8  10  1   
 18   8  35  1   
 19   9  11  1   
 20   9  12  1   
 21   9  36  1   
 22  10  13  1   
 23  10  37  1   
 24  10  38  1   
 25  11  14  am  
 26  11  39  1   
 27  12  13  1   
 28  12  40  1   
 29  12  41  1   
 30  14  15  2   
 31  14  16  1   
 32  16  17  ar  
 33  16  18  ar  
 34  17  19  ar  
 35  18  20  ar  
 36  18  42  1   
 37  19  21  1   
 38  19  22  ar  
 39  20  22  ar  
 40  20  43  1   
 41  21  23  1   
 42  21  24  1   
 43  22  44  1   
 44  23  25  2   
 45  23  45  1   
 46  24  26  2   
 47  24  46  1   
 48  25  26  1   
@<TRIPOS>SUBSTRUCTURE
  1 ****  14 GROUP 4 **** **** 0

# MOE 2024.06 (io_trps.svl 2023.06)
