@<TRIPOS>MOLECULE
NONAME
49 50 1 0 0 
SMALL
USER_CHARGES


@<TRIPOS>ATOM
  1 O        0.0060    -0.5070     0.6020 O.2   1 <1>  -0.5700 
  2 C       -0.6310    -1.1590    -0.1960 C.2   1 <1>   0.5440 
  3 N       -0.5950    -0.7320    -1.4790 N.am  1 <1>  -0.8000 
  4 C       -1.3760    -2.3370     0.2100 C.ar  1 <1>   0.0860 
  5 C       -2.3490    -2.9350    -0.5710 C.ar  1 <1>  -0.1500 
  6 C       -1.1600    -2.9550     1.4360 C.ar  1 <1>  -0.1500 
  7 C       -3.0230    -4.0660    -0.1370 C.ar  1 <1>   0.4100 
  8 C       -1.8790    -4.0790     1.7880 C.ar  1 <1>   0.1600 
  9 N       -2.8000    -4.6490     1.0330 N.ar  1 <1>  -0.6200 
 10 N       -3.9920    -4.6180    -0.9460 N.pl3 1 <1>  -0.8380 
 11 C       -5.3750    -4.0790    -0.7830 C.3   1 <1>   0.2090 
 12 C       -3.9890    -6.1070    -1.1280 C.3   1 <1>   0.2090 
 13 C       -6.1890    -4.9000     0.2420 C.3   1 <1>   0.2000 
 14 C       -4.9210    -6.8340    -0.1270 C.3   1 <1>   0.2000 
 15 O       -6.1950    -6.2530    -0.1300 O.3   1 <1>  -0.5600 
 16 C       -7.6460    -4.4060     0.4080 C.3   1 <1>  -0.0800 
 17 C       -5.1140    -8.3210    -0.4520 C.3   1 <1>  -0.1600 
 18 C       -8.3380    -5.1370     1.5680 C.3   1 <1>  -0.2400 
 19 C       -8.4950    -4.5540    -0.8670 C.3   1 <1>  -0.2400 
 20 C       -3.8140    -9.1340    -0.3420 C.3   1 <1>  -0.1600 
 21 C       -4.0750   -10.6250    -0.5840 C.3   1 <1>  -0.1600 
 22 C       -2.7820   -11.4370    -0.4770 C.3   1 <1>  -0.2400 
 23 H       -0.0270     0.0870    -1.7030 H     1 <1>   0.3700 
 24 H       -0.9940    -1.2420    -2.2650 H     1 <1>   0.3700 
 25 H       -2.6090    -2.5390    -1.5320 H     1 <1>   0.1500 
 26 H       -0.4260    -2.5510     2.1100 H     1 <1>   0.1500 
 27 H       -1.6860    -4.5360     2.7440 H     1 <1>   0.1500 
 28 H       -5.3270    -3.0550    -0.4560 H     1 <1>   0.0800 
 29 H       -5.8670    -4.1000    -1.7380 H     1 <1>   0.0800 
 30 H       -4.3040    -6.3350    -2.1310 H     1 <1>   0.0800 
 31 H       -2.9850    -6.4740    -1.0090 H     1 <1>   0.0800 
 32 H       -5.6970    -4.8240     1.1970 H     1 <1>   0.0800 
 33 H       -4.5180    -6.7420     0.8670 H     1 <1>   0.0800 
 34 H       -7.6090    -3.3610     0.6640 H     1 <1>   0.0800 
 35 H       -5.8330    -8.7220     0.2410 H     1 <1>   0.0800 
 36 H       -5.5170    -8.4160    -1.4450 H     1 <1>   0.0800 
 37 H       -8.4180    -6.1890     1.3540 H     1 <1>   0.0800 
 38 H       -9.3260    -4.7430     1.7270 H     1 <1>   0.0800 
 39 H       -7.7750    -5.0170     2.4770 H     1 <1>   0.0800 
 40 H       -8.5280    -5.5840    -1.1770 H     1 <1>   0.0800 
 41 H       -8.0940    -3.9660    -1.6720 H     1 <1>   0.0800 
 42 H       -9.5020    -4.2220    -0.6850 H     1 <1>   0.0800 
 43 H       -3.0970    -8.7840    -1.0640 H     1 <1>   0.0800 
 44 H       -3.3930    -9.0020     0.6410 H     1 <1>   0.0800 
 45 H       -4.7830   -10.9910     0.1400 H     1 <1>   0.0800 
 46 H       -4.5000   -10.7630    -1.5640 H     1 <1>   0.0800 
 47 H       -2.3510   -11.3300     0.5030 H     1 <1>   0.0800 
 48 H       -2.0660   -11.1040    -1.2090 H     1 <1>   0.0800 
 49 H       -2.9860   -12.4790    -0.6480 H     1 <1>   0.0800 
@<TRIPOS>BOND
  1   1   2  2   
  2   2   3  am  
  3   2   4  1   
  4   3  23  1   
  5   3  24  1   
  6   4   5  ar  
  7   4   6  ar  
  8   5   7  ar  
  9   5  25  1   
 10   6   8  ar  
 11   6  26  1   
 12   7   9  ar  
 13   7  10  1   
 14   8   9  ar  
 15   8  27  1   
 16  10  11  1   
 17  10  12  1   
 18  11  13  1   
 19  11  28  1   
 20  11  29  1   
 21  12  14  1   
 22  12  30  1   
 23  12  31  1   
 24  13  15  1   
 25  13  16  1   
 26  13  32  1   
 27  14  15  1   
 28  14  17  1   
 29  14  33  1   
 30  16  18  1   
 31  16  19  1   
 32  16  34  1   
 33  17  20  1   
 34  17  35  1   
 35  17  36  1   
 36  18  37  1   
 37  18  38  1   
 38  18  39  1   
 39  19  40  1   
 40  19  41  1   
 41  19  42  1   
 42  20  21  1   
 43  20  43  1   
 44  20  44  1   
 45  21  22  1   
 46  21  45  1   
 47  21  46  1   
 48  22  47  1   
 49  22  48  1   
 50  22  49  1   
@<TRIPOS>SUBSTRUCTURE
  1 ****  10 GROUP 4 **** **** 0

# MOE 2024.06 (io_trps.svl 2023.06)
