@<TRIPOS>MOLECULE
NONAME
62 66 1 0 0 
SMALL
USER_CHARGES


@<TRIPOS>ATOM
  1 O        1.0070     0.6590    -0.9630 O.3   1 <1>  -0.5600 
  2 C        2.1280     0.1610    -0.3290 C.3   1 <1>   0.2800 
  3 C        0.1070     0.6710     0.0780 C.3   1 <1>   0.2000 
  4 C        2.3140     1.2400     0.7290 C.3   1 <1>  -0.0800 
  5 C        3.3680     0.1800    -1.2300 C.3   1 <1>   0.3430 
  6 C        1.6150    -1.1580     0.2470 C.3   1 <1>  -0.1600 
  7 C        0.8380     1.6030     1.0580 C.3   1 <1>  -0.0800 
  8 C        0.1610    -0.7880     0.5480 C.3   1 <1>  -0.1600 
  9 C        3.1950     2.2530    -0.0160 C.3   1 <1>   0.3430 
 10 N        4.0940     1.4490    -0.8980 N.4   1 <1>  -0.9590 
 11 C        0.4500     3.0750     0.8210 C.3   1 <1>   0.3430 
 12 C        4.5590     2.1920    -2.1050 C.3   1 <1>   0.4860 
 13 N       -0.9780     3.3610     1.1790 N.4   1 <1>  -0.9590 
 14 C        5.2280     3.4770    -1.6520 C.ar  1 <1>  -0.1440 
 15 C       -1.3920     4.7010     0.6530 C.3   1 <1>   0.2630 
 16 C       -1.2330     3.3060     2.6570 C.3   1 <1>   0.2630 
 17 C        6.2950     3.4260    -0.7680 C.ar  1 <1>  -0.1500 
 18 C        4.7750     4.7090    -2.0970 C.ar  1 <1>  -0.1500 
 19 C        6.8920     4.5860    -0.2920 C.ar  1 <1>  -0.1440 
 20 C        5.3720     5.8720    -1.6470 C.ar  1 <1>  -0.1500 
 21 C        6.4260     5.8170    -0.7390 C.ar  1 <1>   0.0820 
 22 C        8.0390     4.5690     0.7280 C.3   1 <1>   0.2390 
 23 O        7.0400     6.9270    -0.2530 O.3   1 <1>  -0.3630 
 24 N        8.5900     3.2200     0.9890 N.pl3 1 <1>   0.3140 
 25 C        6.7000     8.2240    -0.6950 C.3   1 <1>   0.0400 
 26 N        7.9970     2.3120     1.7650 N.2   1 <1>  -0.7070 
 27 C        9.7150     2.6900     0.5030 C.2   1 <1>   0.0360 
 28 C        8.8220     1.3170     1.7060 C.2   1 <1>   0.3660 
 29 N        9.8950     1.4920     0.9260 N.2   1 <1>  -0.5650 
 30 H       -0.8670     0.9890    -0.2530 H     1 <1>   0.0800 
 31 H        2.8400     0.8570     1.5870 H     1 <1>   0.0800 
 32 H        3.0630     0.1460    -2.2630 H     1 <1>   0.0800 
 33 H        3.9960    -0.6690    -1.0130 H     1 <1>   0.0800 
 34 H        1.6640    -1.9410    -0.4900 H     1 <1>   0.0800 
 35 H        2.1570    -1.4590     1.1270 H     1 <1>   0.0800 
 36 H        0.6190     1.3290     2.0750 H     1 <1>   0.0800 
 37 H       -0.0900    -0.8960     1.5890 H     1 <1>   0.0800 
 38 H       -0.5130    -1.3890    -0.0390 H     1 <1>   0.0800 
 39 H        3.7630     2.8720     0.6610 H     1 <1>   0.0800 
 40 H        2.5770     2.8810    -0.6360 H     1 <1>   0.0800 
 41 H        4.9350     1.2180    -0.3500 H     1 <1>   0.4500 
 42 H        0.6010     3.3020    -0.2230 H     1 <1>   0.0800 
 43 H        1.0950     3.7160     1.4000 H     1 <1>   0.0800 
 44 H        5.2640     1.5960    -2.6630 H     1 <1>   0.0800 
 45 H        3.7230     2.4210    -2.7460 H     1 <1>   0.0800 
 46 H       -1.5840     2.6600     0.7240 H     1 <1>   0.4500 
 47 H       -0.8000     5.4830     1.1030 H     1 <1>   0.0800 
 48 H       -2.4300     4.8870     0.8760 H     1 <1>   0.0800 
 49 H       -1.2620     4.7430    -0.4170 H     1 <1>   0.0800 
 50 H       -0.6130     4.0220     3.1730 H     1 <1>   0.0800 
 51 H       -1.0210     2.3230     3.0440 H     1 <1>   0.0800 
 52 H       -2.2660     3.5350     2.8670 H     1 <1>   0.0800 
 53 H        6.6570     2.4650    -0.4480 H     1 <1>   0.1500 
 54 H        3.9610     4.7800    -2.8000 H     1 <1>   0.1500 
 55 H        5.0050     6.8130    -2.0140 H     1 <1>   0.1500 
 56 H        7.6870     4.9690     1.6610 H     1 <1>   0.0800 
 57 H        8.8380     5.1970     0.3790 H     1 <1>   0.0800 
 58 H        7.3370     8.9280    -0.1900 H     1 <1>   0.0800 
 59 H        5.6730     8.4220    -0.4480 H     1 <1>   0.0800 
 60 H        6.8620     8.2870    -1.7570 H     1 <1>   0.0800 
 61 H       10.3770     3.2190    -0.1600 H     1 <1>   0.1500 
 62 H        8.6780     0.3910     2.2390 H     1 <1>   0.1500 
@<TRIPOS>BOND
  1   1   2  1   
  2   1   3  1   
  3   2   4  1   
  4   2   5  1   
  5   2   6  1   
  6   3   7  1   
  7   3   8  1   
  8   3  30  1   
  9   4   7  1   
 10   4   9  1   
 11   4  31  1   
 12   5  10  1   
 13   5  32  1   
 14   5  33  1   
 15   6   8  1   
 16   6  34  1   
 17   6  35  1   
 18   7  11  1   
 19   7  36  1   
 20   8  37  1   
 21   8  38  1   
 22   9  10  1   
 23   9  39  1   
 24   9  40  1   
 25  10  12  1   
 26  10  41  1   
 27  11  13  1   
 28  11  42  1   
 29  11  43  1   
 30  12  14  1   
 31  12  44  1   
 32  12  45  1   
 33  13  15  1   
 34  13  16  1   
 35  13  46  1   
 36  14  17  ar  
 37  14  18  ar  
 38  15  47  1   
 39  15  48  1   
 40  15  49  1   
 41  16  50  1   
 42  16  51  1   
 43  16  52  1   
 44  17  19  ar  
 45  17  53  1   
 46  18  20  ar  
 47  18  54  1   
 48  19  21  ar  
 49  19  22  1   
 50  20  21  ar  
 51  20  55  1   
 52  21  23  1   
 53  22  24  1   
 54  22  56  1   
 55  22  57  1   
 56  23  25  1   
 57  24  26  1   
 58  24  27  1   
 59  25  58  1   
 60  25  59  1   
 61  25  60  1   
 62  26  28  2   
 63  27  29  2   
 64  27  61  1   
 65  28  29  1   
 66  28  62  1   
@<TRIPOS>SUBSTRUCTURE
  1 ****   9 GROUP 4 **** **** 0

# MOE 2024.06 (io_trps.svl 2023.06)
