@<TRIPOS>MOLECULE
NONAME
36 35 1 0 0 
SMALL
USER_CHARGES


@<TRIPOS>ATOM
  1 O       -1.2960    -0.1160     0.4350 O.2   1 <1>  -0.5700 
  2 C       -0.8180    -1.1440     0.8720 C.2   1 <1>   0.7800 
  3 O        0.1430    -1.8110     0.2430 O.3   1 <1>  -0.4300 
  4 N       -1.2700    -1.7120     2.0070 N.am  1 <1>  -0.7300 
  5 C        0.6830    -1.5120    -1.0270 C.3   1 <1>   0.2800 
  6 C       -2.5440    -1.3240     2.6650 C.3   1 <1>   0.2810 
  7 C        1.3940    -0.1540    -0.9970 C.3   1 <1>  -0.2400 
  8 C        1.7090    -2.6140    -1.2940 C.3   1 <1>  -0.2400 
  9 C       -0.4160    -1.5760    -2.0950 C.3   1 <1>  -0.2400 
 10 C       -3.7790    -1.8030     1.8630 C.2   1 <1>   0.5690 
 11 C       -2.4900    -1.8440     4.1060 C.3   1 <1>  -0.2400 
 12 O       -4.5690    -2.5810     2.3490 O.2   1 <1>  -0.5700 
 13 N       -3.9470    -1.3430     0.6010 N.am  1 <1>  -0.7300 
 14 C       -4.9080    -1.8620    -0.3470 C.3   1 <1>   0.4200 
 15 O       -4.2660    -1.7730    -1.5670 O.3   1 <1>  -0.5600 
 16 C       -5.0150    -2.2700    -2.6270 C.3   1 <1>   0.0400 
 17 H       -0.9300    -2.6490     2.2100 H     1 <1>   0.3700 
 18 H       -2.5900    -0.2490     2.7000 H     1 <1>   0.0800 
 19 H        1.9200     0.0030    -1.9210 H     1 <1>   0.0800 
 20 H        2.1040    -0.1220    -0.1910 H     1 <1>   0.0800 
 21 H        0.6920     0.6500    -0.8840 H     1 <1>   0.0800 
 22 H        2.1750    -2.4670    -2.2510 H     1 <1>   0.0800 
 23 H        1.2310    -3.5770    -1.2950 H     1 <1>   0.0800 
 24 H        2.4740    -2.6020    -0.5380 H     1 <1>   0.0800 
 25 H        0.0180    -1.4950    -3.0750 H     1 <1>   0.0800 
 26 H       -1.1160    -0.7680    -1.9850 H     1 <1>   0.0800 
 27 H       -0.9470    -2.5090    -2.0330 H     1 <1>   0.0800 
 28 H       -2.4520    -2.9190     4.1150 H     1 <1>   0.0800 
 29 H       -3.3740    -1.5350     4.6330 H     1 <1>   0.0800 
 30 H       -1.6320    -1.4460     4.6160 H     1 <1>   0.0800 
 31 H       -3.2130    -0.7720     0.1610 H     1 <1>   0.3700 
 32 H       -5.7970    -1.2540    -0.3630 H     1 <1>   0.0800 
 33 H       -5.1460    -2.8910    -0.1330 H     1 <1>   0.0800 
 34 H       -4.4350    -2.1570    -3.5260 H     1 <1>   0.0800 
 35 H       -5.9290    -1.7090    -2.7120 H     1 <1>   0.0800 
 36 H       -5.2210    -3.3140    -2.4580 H     1 <1>   0.0800 
@<TRIPOS>BOND
  1   1   2  2   
  2   2   3  1   
  3   2   4  am  
  4   3   5  1   
  5   4   6  1   
  6   4  17  1   
  7   5   7  1   
  8   5   8  1   
  9   5   9  1   
 10   6  10  1   
 11   6  11  1   
 12   6  18  1   
 13   7  19  1   
 14   7  20  1   
 15   7  21  1   
 16   8  22  1   
 17   8  23  1   
 18   8  24  1   
 19   9  25  1   
 20   9  26  1   
 21   9  27  1   
 22  10  12  2   
 23  10  13  am  
 24  11  28  1   
 25  11  29  1   
 26  11  30  1   
 27  13  14  1   
 28  13  31  1   
 29  14  15  1   
 30  14  32  1   
 31  14  33  1   
 32  15  16  1   
 33  16  34  1   
 34  16  35  1   
 35  16  36  1   
@<TRIPOS>SUBSTRUCTURE
  1 ****   2 GROUP 4 **** **** 0

# MOE 2024.06 (io_trps.svl 2023.06)
