@<TRIPOS>MOLECULE
NONAME
67 69 1 0 0 
SMALL
USER_CHARGES


@<TRIPOS>ATOM
  1 O       -0.7960    -0.2130    -0.3830 O.2   1 <1>  -0.5700 
  2 C       -1.7310    -0.9770    -0.4590 C.2   1 <1>   0.5690 
  3 N       -1.5390    -2.3110    -0.8010 N.am  1 <1>  -0.6600 
  4 C       -3.1300    -0.4070    -0.1290 C.3   1 <1>  -0.0190 
  5 C       -0.1800    -2.9690    -0.9910 C.3   1 <1>   0.2200 
  6 C       -2.6640    -3.2000    -1.2480 C.3   1 <1>   0.1400 
  7 C       -3.1950     1.1430    -0.2480 C.3   1 <1>  -0.1600 
  8 C       -3.5280    -0.9190     1.2790 C.3   1 <1>  -0.1600 
  9 C       -0.0840    -4.3430    -0.2640 C.3   1 <1>   0.0000 
 10 C        1.0490    -2.0920    -0.6380 C.3   1 <1>   0.3430 
 11 C       -2.6140    -4.5570    -0.5460 C.3   1 <1>  -0.1600 
 12 C       -4.5480     1.6780    -0.7500 C.3   1 <1>  -0.1600 
 13 C       -4.9550    -0.5780     1.7280 C.3   1 <1>  -0.1600 
 14 C        1.2520    -5.0570    -0.6560 C.3   1 <1>  -0.1600 
 15 C       -1.2540    -5.2380    -0.7360 C.3   1 <1>  -0.1600 
 16 C       -0.2030    -4.1820     1.2840 C.3   1 <1>   0.1200 
 17 N        2.3090    -2.8570    -0.3920 N.4   1 <1>  -0.9590 
 18 C       -4.5340     3.2070    -0.8310 C.3   1 <1>  -0.2400 
 19 C       -5.3140    -1.3140     3.0220 C.3   1 <1>  -0.2400 
 20 C        2.3930    -4.1350    -1.1210 C.3   1 <1>   0.3430 
 21 O        0.9670    -3.7000     1.8620 O.3   1 <1>  -0.6800 
 22 C        3.5130    -1.9930    -0.4270 C.3   1 <1>   0.5230 
 23 C        3.5250    -1.1720     0.8480 C.2   1 <1>   0.0060 
 24 N        3.9400    -1.6740     1.9660 N.2   1 <1>  -0.5650 
 25 N        3.0890     0.1120     0.9520 N.pl3 1 <1>   0.0480 
 26 C        3.7790    -0.6730     2.8490 C.2   1 <1>   0.0770 
 27 C        3.2590     0.4180     2.2490 C.2   1 <1>  -0.3020 
 28 C        2.5070     1.0240    -0.0540 C.3   1 <1>   0.0160 
 29 H       -3.8230    -0.7820    -0.8550 H     1 <1>   0.0800 
 30 H       -0.0990    -3.1680    -2.0460 H     1 <1>   0.0800 
 31 H       -3.6280    -2.7720    -1.0540 H     1 <1>   0.0800 
 32 H       -2.5860    -3.3450    -2.3130 H     1 <1>   0.0800 
 33 H       -2.9420     1.5910     0.6980 H     1 <1>   0.0800 
 34 H       -2.4590     1.4760    -0.9590 H     1 <1>   0.0800 
 35 H       -3.4230    -1.9890     1.2930 H     1 <1>   0.0800 
 36 H       -2.8330    -0.5260     2.0010 H     1 <1>   0.0800 
 37 H        0.8230    -1.5530     0.2670 H     1 <1>   0.0800 
 38 H        1.1930    -1.3760    -1.4290 H     1 <1>   0.0800 
 39 H       -2.8410    -4.4290     0.4970 H     1 <1>   0.0800 
 40 H       -3.3840    -5.1870    -0.9590 H     1 <1>   0.0800 
 41 H       -4.7500     1.2800    -1.7300 H     1 <1>   0.0800 
 42 H       -5.3510     1.3770    -0.1050 H     1 <1>   0.0800 
 43 H       -5.0360     0.4800     1.9080 H     1 <1>   0.0800 
 44 H       -5.6590    -0.8510     0.9600 H     1 <1>   0.0800 
 45 H        1.0850    -5.7570    -1.4560 H     1 <1>   0.0800 
 46 H        1.6020    -5.6460     0.1740 H     1 <1>   0.0800 
 47 H       -1.1420    -5.4640    -1.7830 H     1 <1>   0.0800 
 48 H       -1.2460    -6.1750    -0.2040 H     1 <1>   0.0800 
 49 H       -0.4090    -5.1370     1.7400 H     1 <1>   0.0800 
 50 H       -1.0000    -3.5040     1.5400 H     1 <1>   0.0800 
 51 H        2.2240    -3.1250     0.6160 H     1 <1>   0.4500 
 52 H       -3.7630     3.5420    -1.5030 H     1 <1>   0.0800 
 53 H       -4.3550     3.6330     0.1410 H     1 <1>   0.0800 
 54 H       -5.4810     3.5660    -1.1920 H     1 <1>   0.0800 
 55 H       -4.6300    -1.0480     3.8080 H     1 <1>   0.0800 
 56 H       -5.2780    -2.3790     2.8750 H     1 <1>   0.0800 
 57 H       -6.3090    -1.0460     3.3320 H     1 <1>   0.0800 
 58 H        2.3070    -3.9510    -2.1790 H     1 <1>   0.0800 
 59 H        3.3410    -4.6140    -0.9320 H     1 <1>   0.0800 
 60 H        0.8630    -3.6130     2.8360 H     1 <1>   0.4000 
 61 H        4.4000    -2.6050    -0.4380 H     1 <1>   0.0800 
 62 H        3.5120    -1.3610    -1.2980 H     1 <1>   0.0800 
 63 H        4.0470    -0.7900     3.8870 H     1 <1>   0.1500 
 64 H        3.0070     1.3740     2.6720 H     1 <1>   0.1500 
 65 H        2.9170     2.0080     0.0830 H     1 <1>   0.0800 
 66 H        1.4400     1.0680     0.0820 H     1 <1>   0.0800 
 67 H        2.7310     0.6840    -1.0470 H     1 <1>   0.0800 
@<TRIPOS>BOND
  1   1   2  2   
  2   2   3  am  
  3   2   4  1   
  4   3   5  1   
  5   3   6  1   
  6   4   7  1   
  7   4   8  1   
  8   4  29  1   
  9   5   9  1   
 10   5  10  1   
 11   5  30  1   
 12   6  11  1   
 13   6  31  1   
 14   6  32  1   
 15   7  12  1   
 16   7  33  1   
 17   7  34  1   
 18   8  13  1   
 19   8  35  1   
 20   8  36  1   
 21   9  14  1   
 22   9  15  1   
 23   9  16  1   
 24  10  17  1   
 25  10  37  1   
 26  10  38  1   
 27  11  15  1   
 28  11  39  1   
 29  11  40  1   
 30  12  18  1   
 31  12  41  1   
 32  12  42  1   
 33  13  19  1   
 34  13  43  1   
 35  13  44  1   
 36  14  20  1   
 37  14  45  1   
 38  14  46  1   
 39  15  47  1   
 40  15  48  1   
 41  16  21  1   
 42  16  49  1   
 43  16  50  1   
 44  17  20  1   
 45  17  22  1   
 46  17  51  1   
 47  18  52  1   
 48  18  53  1   
 49  18  54  1   
 50  19  55  1   
 51  19  56  1   
 52  19  57  1   
 53  20  58  1   
 54  20  59  1   
 55  21  60  1   
 56  22  23  1   
 57  22  61  1   
 58  22  62  1   
 59  23  24  2   
 60  23  25  1   
 61  24  26  1   
 62  25  27  1   
 63  25  28  1   
 64  26  27  2   
 65  26  63  1   
 66  27  64  1   
 67  28  65  1   
 68  28  66  1   
 69  28  67  1   
@<TRIPOS>SUBSTRUCTURE
  1 ****   1 GROUP 4 **** **** 0

# MOE 2024.06 (io_trps.svl 2023.06)
