@<TRIPOS>MOLECULE
NONAME
39 41 1 0 0 
SMALL
USER_CHARGES


@<TRIPOS>ATOM
  1 CL      -0.5050     0.0610     1.4300 Cl    1 <1>  -0.1230 
  2 C       -1.7740     0.4680     0.2840 C.2   1 <1>   0.1230 
  3 C       -2.7260    -0.4040    -0.2600 C.2   1 <1>   0.2030 
  4 C       -2.0090     1.6960    -0.2110 C.2   1 <1>  -0.3320 
  5 N       -3.5280     0.2890    -1.0620 N.2   1 <1>  -0.7070 
  6 C       -2.7940    -1.8340     0.0240 C.2   1 <1>   0.7160 
  7 N       -3.0750     1.5550    -1.0250 N.pl3 1 <1>   0.3000 
  8 C       -1.2910     3.0130     0.0360 C.3   1 <1>  -0.0600 
  9 O       -1.7940    -2.4560     0.3440 O.2   1 <1>  -0.5700 
 10 N       -3.9720    -2.5540    -0.0510 N.am  1 <1>  -0.6600 
 11 C       -5.3260    -1.9950    -0.2850 C.3   1 <1>   0.1400 
 12 C       -4.0400    -4.0270     0.1120 C.3   1 <1>   0.1400 
 13 C       -6.2750    -3.0930     0.1930 C.3   1 <1>   0.2000 
 14 C       -5.5130    -4.3860    -0.1180 C.3   1 <1>  -0.0800 
 15 O       -6.4270    -2.9630     1.5660 O.3   1 <1>  -0.6800 
 16 C       -5.9780    -5.6320     0.6590 C.3   1 <1>  -0.0170 
 17 C       -5.1990    -6.8630     0.2220 C.ar  1 <1>  -0.1430 
 18 C       -5.5440    -7.5770    -0.9060 C.ar  1 <1>  -0.1500 
 19 C       -4.1050    -7.3250     0.9260 C.ar  1 <1>  -0.1500 
 20 C       -4.7970    -8.6860    -1.2700 C.ar  1 <1>   0.1600 
 21 C       -3.4250    -8.4450     0.4760 C.ar  1 <1>   0.1600 
 22 N       -3.7450    -9.1360    -0.6060 N.ar  1 <1>  -0.6200 
 23 H       -3.5130     2.3110    -1.5680 H     1 <1>   0.2700 
 24 H       -0.4750     2.8690     0.7230 H     1 <1>   0.0800 
 25 H       -1.9670     3.7340     0.4590 H     1 <1>   0.0800 
 26 H       -0.8940     3.4000    -0.8850 H     1 <1>   0.0800 
 27 H       -5.4810    -1.0720     0.2470 H     1 <1>   0.0800 
 28 H       -5.4550    -1.8260    -1.3400 H     1 <1>   0.0800 
 29 H       -3.3980    -4.5200    -0.5980 H     1 <1>   0.0800 
 30 H       -3.7290    -4.2830     1.1100 H     1 <1>   0.0800 
 31 H       -7.2470    -3.0440    -0.2670 H     1 <1>   0.0800 
 32 H       -5.6300    -4.5840    -1.1690 H     1 <1>   0.0800 
 33 H       -5.5440    -2.8280     1.9660 H     1 <1>   0.4000 
 34 H       -7.0270    -5.7920     0.4840 H     1 <1>   0.0800 
 35 H       -5.8490    -5.4840     1.7170 H     1 <1>   0.0800 
 36 H       -6.3840    -7.2830    -1.5070 H     1 <1>   0.1500 
 37 H       -3.7720    -6.8270     1.8180 H     1 <1>   0.1500 
 38 H       -5.0810    -9.2320    -2.1530 H     1 <1>   0.1500 
 39 H       -2.5740    -8.7910     1.0370 H     1 <1>   0.1500 
@<TRIPOS>BOND
  1   1   2  1   
  2   2   3  1   
  3   2   4  2   
  4   3   5  2   
  5   3   6  1   
  6   4   7  1   
  7   4   8  1   
  8   5   7  1   
  9   6   9  2   
 10   6  10  am  
 11   7  23  1   
 12   8  24  1   
 13   8  25  1   
 14   8  26  1   
 15  10  11  1   
 16  10  12  1   
 17  11  13  1   
 18  11  27  1   
 19  11  28  1   
 20  12  14  1   
 21  12  29  1   
 22  12  30  1   
 23  13  14  1   
 24  13  15  1   
 25  13  31  1   
 26  14  16  1   
 27  14  32  1   
 28  15  33  1   
 29  16  17  1   
 30  16  34  1   
 31  16  35  1   
 32  17  18  ar  
 33  17  19  ar  
 34  18  20  ar  
 35  18  36  1   
 36  19  21  ar  
 37  19  37  1   
 38  20  22  ar  
 39  20  38  1   
 40  21  22  ar  
 41  21  39  1   
@<TRIPOS>SUBSTRUCTURE
  1 ****  10 GROUP 4 **** **** 0

# MOE 2024.06 (io_trps.svl 2023.06)
