@<TRIPOS>MOLECULE
NONAME
51 53 1 0 0 
SMALL
USER_CHARGES


@<TRIPOS>ATOM
  1 CL      -1.9600    -1.7380     0.9980 Cl    1 <1>  -0.1770 
  2 C       -3.3940    -0.7770     0.7670 C.ar  1 <1>   0.1770 
  3 C       -3.6800     0.2470     1.6500 C.ar  1 <1>  -0.1500 
  4 C       -4.2310    -1.0500    -0.2990 C.ar  1 <1>  -0.1500 
  5 C       -4.8250     1.0010     1.4660 C.ar  1 <1>  -0.1500 
  6 C       -5.3730    -0.2910    -0.4740 C.ar  1 <1>  -0.1500 
  7 C       -5.6990     0.7430     0.4080 C.ar  1 <1>   0.0530 
  8 C       -6.9020     1.5140     0.2370 C.2   1 <1>   0.0870 
  9 O       -6.9270     2.7960     0.5010 O.3   1 <1>  -0.0190 
 10 C       -8.1430     1.1750    -0.1950 C.2   1 <1>  -0.0860 
 11 N       -8.0890     3.3420     0.2500 N.2   1 <1>  -0.4100 
 12 C       -8.8330     2.3860    -0.1820 C.2   1 <1>   0.3720 
 13 C       -8.6930    -0.0850    -0.5800 C.2   1 <1>   0.7160 
 14 N      -10.1570     2.5250    -0.5850 N.pl3 1 <1>  -0.8520 
 15 O       -9.3050    -0.1720    -1.6300 O.2   1 <1>  -0.5700 
 16 N       -8.5450    -1.2090     0.2040 N.am  1 <1>  -0.6600 
 17 C      -10.5750     3.8580    -1.0980 C.3   1 <1>   0.2090 
 18 C       -8.8030    -2.5820    -0.3340 C.3   1 <1>   0.1400 
 19 C       -8.3870    -1.1530     1.6850 C.3   1 <1>   0.1400 
 20 C      -12.0890     3.8850    -1.3050 C.3   1 <1>   0.1200 
 21 C       -7.6850    -3.5460     0.0920 C.3   1 <1>   0.2000 
 22 C       -7.2720    -2.1050     2.1350 C.3   1 <1>  -0.1600 
 23 O      -12.4470     5.1080    -1.8690 O.3   1 <1>  -0.5600 
 24 O       -8.0510    -4.8290    -0.3130 O.3   1 <1>  -0.5600 
 25 C       -7.4910    -3.5360     1.6170 C.3   1 <1>  -0.1600 
 26 C      -13.8140     5.2520    -2.0780 C.3   1 <1>   0.0400 
 27 C       -6.9980    -5.7200    -0.5120 C.3   1 <1>   0.0400 
 28 H       -3.0110     0.4460     2.4690 H     1 <1>   0.1500 
 29 H       -3.9840    -1.8460    -0.9790 H     1 <1>   0.1500 
 30 H       -5.0500     1.8000     2.1510 H     1 <1>   0.1500 
 31 H       -6.0210    -0.5000    -1.3080 H     1 <1>   0.1500 
 32 H      -10.4030     1.7740    -1.2460 H     1 <1>   0.4000 
 33 H      -10.0760     4.0530    -2.0310 H     1 <1>   0.0800 
 34 H      -10.3040     4.6210    -0.3880 H     1 <1>   0.0800 
 35 H       -8.8540    -2.5600    -1.4080 H     1 <1>   0.0800 
 36 H       -9.7440    -2.9350     0.0490 H     1 <1>   0.0800 
 37 H       -9.3160    -1.4510     2.1410 H     1 <1>   0.0800 
 38 H       -8.1660    -0.1530     2.0150 H     1 <1>   0.0800 
 39 H      -12.5900     3.7790    -0.3590 H     1 <1>   0.0800 
 40 H      -12.3860     3.1000    -1.9780 H     1 <1>   0.0800 
 41 H       -6.7760    -3.2640    -0.4130 H     1 <1>   0.0800 
 42 H       -7.2330    -2.1170     3.2100 H     1 <1>   0.0800 
 43 H       -6.3260    -1.7340     1.7840 H     1 <1>   0.0800 
 44 H       -6.6430    -4.1380     1.8860 H     1 <1>   0.0800 
 45 H       -8.3690    -3.9490     2.0820 H     1 <1>   0.0800 
 46 H      -13.9860     6.2210    -2.5130 H     1 <1>   0.0800 
 47 H      -14.3270     5.1820    -1.1340 H     1 <1>   0.0800 
 48 H      -14.1530     4.4860    -2.7530 H     1 <1>   0.0800 
 49 H       -7.4120    -6.6550    -0.8450 H     1 <1>   0.0800 
 50 H       -6.4710    -5.8710     0.4140 H     1 <1>   0.0800 
 51 H       -6.3380    -5.3290    -1.2660 H     1 <1>   0.0800 
@<TRIPOS>BOND
  1   1   2  1   
  2   2   3  ar  
  3   2   4  ar  
  4   3   5  ar  
  5   3  28  1   
  6   4   6  ar  
  7   4  29  1   
  8   5   7  ar  
  9   5  30  1   
 10   6   7  ar  
 11   6  31  1   
 12   7   8  1   
 13   8   9  1   
 14   8  10  2   
 15   9  11  1   
 16  10  12  1   
 17  10  13  1   
 18  11  12  2   
 19  12  14  1   
 20  13  15  2   
 21  13  16  am  
 22  14  17  1   
 23  14  32  1   
 24  16  18  1   
 25  16  19  1   
 26  17  20  1   
 27  17  33  1   
 28  17  34  1   
 29  18  21  1   
 30  18  35  1   
 31  18  36  1   
 32  19  22  1   
 33  19  37  1   
 34  19  38  1   
 35  20  23  1   
 36  20  39  1   
 37  20  40  1   
 38  21  24  1   
 39  21  25  1   
 40  21  41  1   
 41  22  25  1   
 42  22  42  1   
 43  22  43  1   
 44  23  26  1   
 45  24  27  1   
 46  25  44  1   
 47  25  45  1   
 48  26  46  1   
 49  26  47  1   
 50  26  48  1   
 51  27  49  1   
 52  27  50  1   
 53  27  51  1   
@<TRIPOS>SUBSTRUCTURE
  1 ****  10 GROUP 4 **** **** 0

# MOE 2024.06 (io_trps.svl 2023.06)
