@<TRIPOS>MOLECULE
NONAME
63 67 1 0 0 
SMALL
USER_CHARGES


@<TRIPOS>ATOM
  1 O       -0.5320     1.9480     1.3540 O.2   1 <1>  -0.5700 
  2 C        0.0650     2.3780     0.3950 C.2   1 <1>   0.5690 
  3 N        1.4240     2.5860     0.4310 N.am  1 <1>  -0.6600 
  4 C       -0.7430     2.5960    -0.8800 C.3   1 <1>   0.0440 
  5 C        2.1830     3.4650    -0.5100 C.3   1 <1>   0.1400 
  6 C        2.2690     1.9070     1.4550 C.3   1 <1>   0.1400 
  7 C       -1.0810     4.0420    -1.2370 C.ar  1 <1>  -0.1440 
  8 C        2.9600     4.5480     0.2700 C.3   1 <1>   0.0000 
  9 C        3.0910     2.9260     2.2480 C.3   1 <1>  -0.1600 
 10 C       -1.3260     4.9980    -0.2620 C.ar  1 <1>  -0.1500 
 11 C       -1.1600     4.4060    -2.5740 C.ar  1 <1>  -0.1500 
 12 C        3.8730     3.8760     1.3250 C.3   1 <1>  -0.1600 
 13 C        3.8070     5.4280    -0.6660 C.3   1 <1>   0.1400 
 14 C        2.0130     5.5710     0.9190 C.3   1 <1>  -0.1600 
 15 C       -1.6350     6.3020    -0.6180 C.ar  1 <1>   0.0830 
 16 C       -1.4720     5.7050    -2.9340 C.ar  1 <1>  -0.1500 
 17 N        3.7470     6.8010    -0.1040 N.am  1 <1>  -0.6600 
 18 C        2.8510     6.8280     1.0760 C.3   1 <1>   0.1400 
 19 O       -1.8200     7.2050     0.3700 O.3   1 <1>  -0.3620 
 20 C       -1.7080     6.6560    -1.9590 C.ar  1 <1>  -0.1500 
 21 C        4.2450     7.8790    -0.7870 C.2   1 <1>   0.5690 
 22 C       -3.0310     7.9360     0.4520 C.3   1 <1>   0.1200 
 23 O        4.9260     7.7470    -1.7750 O.2   1 <1>  -0.5700 
 24 C        3.9150     9.2910    -0.3280 C.3   1 <1>  -0.0990 
 25 C       -2.9300     9.3230    -0.2020 C.3   1 <1>   0.0960 
 26 C        2.4890     9.6850    -0.7620 C.3   1 <1>  -0.1600 
 27 N       -1.6720    10.0100     0.1350 N.pl3 1 <1>   0.3140 
 28 C        1.8620    10.7860     0.1150 C.3   1 <1>   0.0210 
 29 N       -1.5720    10.9430     1.0860 N.2   1 <1>  -0.4180 
 30 C       -0.4780     9.8150    -0.4190 C.2   1 <1>  -0.3020 
 31 C        0.3550    10.6290     0.2470 C.2   1 <1>   0.0460 
 32 N       -0.3410    11.3210     1.1550 N.2   1 <1>  -0.2270 
 33 H       -1.6670     2.0560    -0.7820 H     1 <1>   0.0800 
 34 H       -0.2010     2.1410    -1.6870 H     1 <1>   0.0800 
 35 H        1.5210     3.9390    -1.2110 H     1 <1>   0.0800 
 36 H        2.8750     2.8570    -1.0660 H     1 <1>   0.0800 
 37 H        2.9320     1.2230     0.9530 H     1 <1>   0.0800 
 38 H        1.6590     1.3340     2.1330 H     1 <1>   0.0800 
 39 H        3.7800     2.3980     2.8840 H     1 <1>   0.0800 
 40 H        2.4290     3.4770     2.8910 H     1 <1>   0.0800 
 41 H       -1.2780     4.7430     0.7820 H     1 <1>   0.1500 
 42 H       -0.9820     3.6780    -3.3470 H     1 <1>   0.1500 
 43 H        4.3770     4.6180     1.9190 H     1 <1>   0.0800 
 44 H        4.6300     3.3050     0.8170 H     1 <1>   0.0800 
 45 H        3.3860     5.4490    -1.6570 H     1 <1>   0.0800 
 46 H        4.8280     5.0940    -0.7290 H     1 <1>   0.0800 
 47 H        1.5870     5.2510     1.8510 H     1 <1>   0.0800 
 48 H        1.2070     5.8010     0.2470 H     1 <1>   0.0800 
 49 H       -1.5280     5.9750    -3.9750 H     1 <1>   0.1500 
 50 H        3.4450     6.7750     1.9730 H     1 <1>   0.0800 
 51 H        2.2280     7.7030     1.1140 H     1 <1>   0.0800 
 52 H       -1.9310     7.6600    -2.2540 H     1 <1>   0.1500 
 53 H       -3.2470     8.0570     1.4990 H     1 <1>   0.0800 
 54 H       -3.8200     7.3540     0.0100 H     1 <1>   0.0800 
 55 H        4.6270     9.9780    -0.7470 H     1 <1>   0.0800 
 56 H        4.0180     9.3250     0.7410 H     1 <1>   0.0800 
 57 H       -3.7480     9.9330     0.1340 H     1 <1>   0.0800 
 58 H       -3.0040     9.2420    -1.2680 H     1 <1>   0.0800 
 59 H        1.8790     8.8030    -0.7100 H     1 <1>   0.0800 
 60 H        2.4930     9.9940    -1.7930 H     1 <1>   0.0800 
 61 H        2.0910    11.7570    -0.2850 H     1 <1>   0.0800 
 62 H        2.2680    10.7370     1.1090 H     1 <1>   0.0800 
 63 H       -0.2990     9.1120    -1.2090 H     1 <1>   0.1500 
@<TRIPOS>BOND
  1   1   2  2   
  2   2   3  am  
  3   2   4  1   
  4   3   5  1   
  5   3   6  1   
  6   4   7  1   
  7   4  33  1   
  8   4  34  1   
  9   5   8  1   
 10   5  35  1   
 11   5  36  1   
 12   6   9  1   
 13   6  37  1   
 14   6  38  1   
 15   7  10  ar  
 16   7  11  ar  
 17   8  12  1   
 18   8  13  1   
 19   8  14  1   
 20   9  12  1   
 21   9  39  1   
 22   9  40  1   
 23  10  15  ar  
 24  10  41  1   
 25  11  16  ar  
 26  11  42  1   
 27  12  43  1   
 28  12  44  1   
 29  13  17  1   
 30  13  45  1   
 31  13  46  1   
 32  14  18  1   
 33  14  47  1   
 34  14  48  1   
 35  15  19  1   
 36  15  20  ar  
 37  16  20  ar  
 38  16  49  1   
 39  17  18  1   
 40  17  21  am  
 41  18  50  1   
 42  18  51  1   
 43  19  22  1   
 44  20  52  1   
 45  21  23  2   
 46  21  24  1   
 47  22  25  1   
 48  22  53  1   
 49  22  54  1   
 50  24  26  1   
 51  24  55  1   
 52  24  56  1   
 53  25  27  1   
 54  25  57  1   
 55  25  58  1   
 56  26  28  1   
 57  26  59  1   
 58  26  60  1   
 59  27  29  1   
 60  27  30  1   
 61  28  31  1   
 62  28  61  1   
 63  28  62  1   
 64  29  32  2   
 65  30  31  2   
 66  30  63  1   
 67  31  32  1   
@<TRIPOS>SUBSTRUCTURE
  1 ****  14 GROUP 4 **** **** 0

# MOE 2024.06 (io_trps.svl 2023.06)
