@<TRIPOS>MOLECULE
NONAME
50 54 1 0 0 
SMALL
USER_CHARGES


@<TRIPOS>ATOM
  1 O        0.3530     0.0870     0.3330 O.2   1 <1>  -0.5700 
  2 C        0.6870    -0.9860     0.7740 C.2   1 <1>   0.5690 
  3 N       -0.0740    -2.0970     0.9820 N.am  1 <1>  -0.6600 
  4 C        2.0730    -1.3300     1.1770 C.3   1 <1>  -0.0190 
  5 C        0.8270    -3.2880     1.2160 C.3   1 <1>   0.1400 
  6 C       -1.4470    -2.2570     0.4450 C.3   1 <1>   0.2840 
  7 C        2.1360    -2.7460     0.6080 C.3   1 <1>   0.4180 
  8 C        3.6190    -0.9250     1.1660 C.3   1 <1>  -0.0190 
  9 C       -1.4230    -3.1610    -0.7790 C.ar  1 <1>  -0.1440 
 10 O        3.1970    -2.2220     0.0530 O.3   1 <1>  -0.5600 
 11 C        2.7840    -3.9000    -0.1270 C.2   1 <1>  -0.2880 
 12 C        4.0360     0.1930     0.2140 C.2   1 <1>   0.5690 
 13 C        4.1990    -2.3250     0.8120 C.3   1 <1>   0.3380 
 14 C       -0.7450    -2.7620    -1.9220 C.ar  1 <1>  -0.1500 
 15 C       -2.0630    -4.3910    -0.7640 C.ar  1 <1>  -0.1500 
 16 C        4.1070    -3.6750     0.0810 C.2   1 <1>  -0.2880 
 17 O        5.2140     0.4630     0.1780 O.2   1 <1>  -0.5700 
 18 N        3.0860     0.8660    -0.4990 N.am  1 <1>  -0.4930 
 19 C       -0.7010    -3.5850    -3.0330 C.ar  1 <1>  -0.1500 
 20 C       -2.0210    -5.2150    -1.8760 C.ar  1 <1>  -0.1500 
 21 C        3.2270     1.9330    -1.4200 C.2   1 <1>   0.0630 
 22 C       -1.3390    -4.8130    -3.0110 C.ar  1 <1>  -0.1500 
 23 C        4.1990     2.1880    -2.3940 C.2   1 <1>   0.1080 
 24 C        2.3550     2.9540    -1.5430 C.2   1 <1>  -0.3020 
 25 N        3.9540     3.2790    -3.0560 N.2   1 <1>  -0.7070 
 26 C        5.4020     1.3270    -2.7060 C.3   1 <1>  -0.0590 
 27 N        2.8170     3.7530    -2.5250 N.pl3 1 <1>   0.3140 
 28 C        2.1960     4.9900    -3.0080 C.3   1 <1>   0.0160 
 29 H        1.9320    -1.4180     2.2420 H     1 <1>   0.0800 
 30 H        0.9230    -3.5040     2.2660 H     1 <1>   0.0800 
 31 H        0.4680    -4.1550     0.6910 H     1 <1>   0.0800 
 32 H       -2.0790    -2.6740     1.2090 H     1 <1>   0.0800 
 33 H       -1.8430    -1.2940     0.1710 H     1 <1>   0.0800 
 34 H        3.9420    -0.6440     2.1510 H     1 <1>   0.0800 
 35 H        2.2320    -4.6710    -0.6340 H     1 <1>   0.1500 
 36 H        5.0840    -2.4280     1.4180 H     1 <1>   0.0800 
 37 H       -0.2440    -1.8080    -1.9490 H     1 <1>   0.1500 
 38 H       -2.5970    -4.7180     0.1120 H     1 <1>   0.1500 
 39 H        4.9900    -4.2200    -0.2020 H     1 <1>   0.1500 
 40 H        2.1070     0.6180    -0.3140 H     1 <1>   0.3700 
 41 H       -0.1700    -3.2690    -3.9140 H     1 <1>   0.1500 
 42 H       -2.5190    -6.1690    -1.8590 H     1 <1>   0.1500 
 43 H       -1.3050    -5.4530    -3.8750 H     1 <1>   0.1500 
 44 H        1.4530     3.1460    -0.9960 H     1 <1>   0.1500 
 45 H        5.1620     0.2900    -2.5620 H     1 <1>   0.0800 
 46 H        6.2130     1.5960    -2.0560 H     1 <1>   0.0800 
 47 H        5.7040     1.4770    -3.7260 H     1 <1>   0.0800 
 48 H        1.8690     5.5740    -2.1690 H     1 <1>   0.0800 
 49 H        1.3600     4.7410    -3.6340 H     1 <1>   0.0800 
 50 H        2.9200     5.5460    -3.5750 H     1 <1>   0.0800 
@<TRIPOS>BOND
  1   1   2  2   
  2   2   3  am  
  3   2   4  1   
  4   3   5  1   
  5   3   6  1   
  6   4   7  1   
  7   4   8  1   
  8   4  29  1   
  9   5   7  1   
 10   5  30  1   
 11   5  31  1   
 12   6   9  1   
 13   6  32  1   
 14   6  33  1   
 15   7  10  1   
 16   7  11  1   
 17   8  12  1   
 18   8  13  1   
 19   8  34  1   
 20   9  14  ar  
 21   9  15  ar  
 22  10  13  1   
 23  11  16  2   
 24  11  35  1   
 25  12  17  2   
 26  12  18  am  
 27  13  16  1   
 28  13  36  1   
 29  14  19  ar  
 30  14  37  1   
 31  15  20  ar  
 32  15  38  1   
 33  16  39  1   
 34  18  21  1   
 35  18  40  1   
 36  19  22  ar  
 37  19  41  1   
 38  20  22  ar  
 39  20  42  1   
 40  21  23  1   
 41  21  24  2   
 42  22  43  1   
 43  23  25  2   
 44  23  26  1   
 45  24  27  1   
 46  24  44  1   
 47  25  27  1   
 48  26  45  1   
 49  26  46  1   
 50  26  47  1   
 51  27  28  1   
 52  28  48  1   
 53  28  49  1   
 54  28  50  1   
@<TRIPOS>SUBSTRUCTURE
  1 ****   2 GROUP 4 **** **** 0

# MOE 2024.06 (io_trps.svl 2023.06)
