@<TRIPOS>MOLECULE
NONAME
46 49 1 0 0 
SMALL
USER_CHARGES


@<TRIPOS>ATOM
  1 S       -0.6190    -0.7030     2.5130 S.3   1 <1>  -0.0800 
  2 C       -0.2300    -1.9980     1.3810 C.ar  1 <1>   0.2970 
  3 C       -2.3340    -1.1150     2.4740 C.2   1 <1>  -0.1100 
  4 N        0.9910    -2.2540     0.9700 N.ar  1 <1>  -0.5670 
  5 C       -1.3680    -2.6730     1.0160 C.ar  1 <1>   0.0000 
  6 C       -2.5530    -2.1570     1.6530 C.2   1 <1>  -0.1500 
  7 C        1.0450    -3.2690     0.1320 C.ar  1 <1>   0.4770 
  8 C       -1.1660    -3.7220     0.1170 C.ar  1 <1>   0.4100 
  9 N        0.0460    -4.0180    -0.3150 N.ar  1 <1>  -0.6200 
 10 C        2.4140    -3.6320    -0.3930 C.3   1 <1>  -0.0960 
 11 N       -2.2120    -4.4840    -0.3690 N.pl3 1 <1>  -0.8380 
 12 C       -2.0010    -5.9470    -0.6120 C.3   1 <1>   0.2090 
 13 C       -3.1660    -3.8170    -1.2880 C.3   1 <1>   0.2090 
 14 C       -2.9180    -6.7770     0.3000 C.3   1 <1>   0.3430 
 15 C       -4.5360    -4.5060    -1.2840 C.3   1 <1>  -0.1600 
 16 N       -4.3910    -6.6080     0.0280 N.4   1 <1>  -0.9590 
 17 C       -4.8860    -5.2030     0.0330 C.3   1 <1>   0.3430 
 18 C       -5.1920    -7.5020     0.9160 C.3   1 <1>   0.4860 
 19 C       -5.0380    -8.9470     0.4430 C.ar  1 <1>   0.1670 
 20 N       -4.9100    -9.1240    -0.8710 N.ar  1 <1>  -0.6200 
 21 C       -5.0270    -9.9780     1.3710 C.ar  1 <1>  -0.1500 
 22 C       -4.7790   -10.3830    -1.2680 C.ar  1 <1>   0.1600 
 23 C       -4.8830   -11.2780     0.9390 C.ar  1 <1>  -0.1500 
 24 C       -4.7580   -11.4750    -0.4180 C.ar  1 <1>  -0.1500 
 25 H       -2.9910    -0.5170     3.0830 H     1 <1>   0.1500 
 26 H       -3.5100    -2.6020     1.4590 H     1 <1>   0.1500 
 27 H        3.1650    -2.9900     0.0290 H     1 <1>   0.0800 
 28 H        2.4270    -3.5290    -1.4610 H     1 <1>   0.0800 
 29 H        2.6400    -4.6490    -0.1340 H     1 <1>   0.0800 
 30 H       -0.9850    -6.2230    -0.3890 H     1 <1>   0.0800 
 31 H       -2.1780    -6.1890    -1.6460 H     1 <1>   0.0800 
 32 H       -2.7580    -3.8110    -2.2860 H     1 <1>   0.0800 
 33 H       -3.2850    -2.7890    -0.9860 H     1 <1>   0.0800 
 34 H       -2.7020    -6.5030     1.3190 H     1 <1>   0.0800 
 35 H       -2.6570    -7.8160     0.1770 H     1 <1>   0.0800 
 36 H       -4.5990    -5.2000    -2.1030 H     1 <1>   0.0800 
 37 H       -5.2720    -3.7450    -1.4720 H     1 <1>   0.0800 
 38 H       -4.5610    -7.0270    -0.9040 H     1 <1>   0.4500 
 39 H       -5.9590    -5.2080     0.1350 H     1 <1>   0.0800 
 40 H       -4.4680    -4.6580     0.8650 H     1 <1>   0.0800 
 41 H       -6.2350    -7.2400     0.8490 H     1 <1>   0.0800 
 42 H       -4.8750    -7.4040     1.9410 H     1 <1>   0.0800 
 43 H       -5.1320    -9.7810     2.4240 H     1 <1>   0.1500 
 44 H       -4.6830   -10.5580    -2.3270 H     1 <1>   0.1500 
 45 H       -4.8710   -12.1070     1.6290 H     1 <1>   0.1500 
 46 H       -4.6470   -12.4680    -0.8180 H     1 <1>   0.1500 
@<TRIPOS>BOND
  1   1   2  1   
  2   1   3  1   
  3   2   4  ar  
  4   2   5  ar  
  5   3   6  2   
  6   3  25  1   
  7   4   7  ar  
  8   5   6  1   
  9   5   8  ar  
 10   6  26  1   
 11   7   9  ar  
 12   7  10  1   
 13   8   9  ar  
 14   8  11  1   
 15  10  27  1   
 16  10  28  1   
 17  10  29  1   
 18  11  12  1   
 19  11  13  1   
 20  12  14  1   
 21  12  30  1   
 22  12  31  1   
 23  13  15  1   
 24  13  32  1   
 25  13  33  1   
 26  14  16  1   
 27  14  34  1   
 28  14  35  1   
 29  15  17  1   
 30  15  36  1   
 31  15  37  1   
 32  16  17  1   
 33  16  18  1   
 34  16  38  1   
 35  17  39  1   
 36  17  40  1   
 37  18  19  1   
 38  18  41  1   
 39  18  42  1   
 40  19  20  ar  
 41  19  21  ar  
 42  20  22  ar  
 43  21  23  ar  
 44  21  43  1   
 45  22  24  ar  
 46  22  44  1   
 47  23  24  ar  
 48  23  45  1   
 49  24  46  1   
@<TRIPOS>SUBSTRUCTURE
  1 ****  12 GROUP 4 **** **** 0

# MOE 2024.06 (io_trps.svl 2023.06)
