@<TRIPOS>MOLECULE
NONAME
56 58 1 0 0 
SMALL
USER_CHARGES


@<TRIPOS>ATOM
  1 O       -1.3530    -0.5740     1.0200 O.2   1 <1>  -0.5700 
  2 C       -2.4810    -0.9150     0.7290 C.2   1 <1>   0.6900 
  3 N       -3.2940    -0.1420    -0.0420 N.am  1 <1>  -0.6600 
  4 N       -2.9110    -2.1030     1.1560 N.am  1 <1>  -0.8000 
  5 C       -4.7890    -0.1220     0.0780 C.3   1 <1>   0.2810 
  6 C       -2.7920     1.0700    -0.7240 C.3   1 <1>   0.1400 
  7 C       -5.5550    -1.4290    -0.2760 C.2   1 <1>   0.5690 
  8 C       -5.2010     1.0580    -0.8110 C.3   1 <1>  -0.1600 
  9 C       -3.9970     1.9950    -0.8170 C.3   1 <1>  -0.1600 
 10 O       -4.9530    -2.3190    -0.8390 O.2   1 <1>  -0.5700 
 11 N       -6.8900    -1.5950     0.0440 N.am  1 <1>  -0.6600 
 12 C       -7.6070    -2.8640    -0.3160 C.3   1 <1>   0.1400 
 13 C       -7.7240    -0.5950     0.7760 C.3   1 <1>   0.1400 
 14 C       -8.8320    -2.6260    -1.2110 C.3   1 <1>   0.1400 
 15 C       -8.6320     0.1490    -0.2110 C.3   1 <1>  -0.1600 
 16 N       -9.9540    -2.0030    -0.4420 N.am  1 <1>  -0.6600 
 17 C      -10.0000    -0.5110    -0.4350 C.3   1 <1>   0.1400 
 18 C      -10.9630    -2.7290     0.1580 C.2   1 <1>   0.5690 
 19 O      -11.8680    -2.1760     0.7420 O.2   1 <1>  -0.5700 
 20 C      -10.9700    -4.2630     0.1700 C.3   1 <1>   0.1810 
 21 O      -11.1380    -4.8130    -1.1170 O.3   1 <1>  -0.5600 
 22 C      -11.1520    -6.2100    -1.1690 C.3   1 <1>   0.2630 
 23 C      -12.3430    -6.7770    -0.4060 C.ar  1 <1>  -0.1430 
 24 C      -13.6190    -6.2840    -0.6340 C.ar  1 <1>  -0.1500 
 25 C      -12.1630    -7.7910     0.5230 C.ar  1 <1>  -0.1500 
 26 C      -14.7030    -6.7960     0.0590 C.ar  1 <1>  -0.1500 
 27 C      -13.2460    -8.3040     1.2160 C.ar  1 <1>  -0.1500 
 28 C      -14.5160    -7.8060     0.9850 C.ar  1 <1>  -0.1500 
 29 H       -2.2040    -2.7100     1.5620 H     1 <1>   0.3700 
 30 H       -3.5930    -2.5720     0.5510 H     1 <1>   0.3700 
 31 H       -5.0020     0.1200     1.1020 H     1 <1>   0.0800 
 32 H       -1.9850     1.5260    -0.1750 H     1 <1>   0.0800 
 33 H       -2.4470     0.7950    -1.7070 H     1 <1>   0.0800 
 34 H       -5.3830     0.6980    -1.8090 H     1 <1>   0.0800 
 35 H       -6.0840     1.5490    -0.4490 H     1 <1>   0.0800 
 36 H       -4.0160     2.6290     0.0530 H     1 <1>   0.0800 
 37 H       -3.9570     2.6110    -1.6990 H     1 <1>   0.0800 
 38 H       -6.9440    -3.5280    -0.8420 H     1 <1>   0.0800 
 39 H       -7.9100    -3.3680     0.5840 H     1 <1>   0.0800 
 40 H       -8.3160    -1.0920     1.5270 H     1 <1>   0.0800 
 41 H       -7.0990     0.1130     1.2860 H     1 <1>   0.0800 
 42 H       -9.1470    -3.5650    -1.6240 H     1 <1>   0.0800 
 43 H       -8.5580    -2.0000    -2.0420 H     1 <1>   0.0800 
 44 H       -8.1300     0.2710    -1.1550 H     1 <1>   0.0800 
 45 H       -8.8170     1.1360     0.1720 H     1 <1>   0.0800 
 46 H      -10.4180    -0.1710    -1.3670 H     1 <1>   0.0800 
 47 H      -10.6600    -0.1810     0.3490 H     1 <1>   0.0800 
 48 H      -11.7840    -4.5900     0.7940 H     1 <1>   0.0800 
 49 H      -10.0470    -4.6220     0.5830 H     1 <1>   0.0800 
 50 H      -11.2210    -6.4920    -2.2050 H     1 <1>   0.0800 
 51 H      -10.2210    -6.5770    -0.7720 H     1 <1>   0.0800 
 52 H      -13.7680    -5.4930    -1.3500 H     1 <1>   0.1500 
 53 H      -11.1820    -8.1890     0.7130 H     1 <1>   0.1500 
 54 H      -15.6890    -6.4050    -0.1230 H     1 <1>   0.1500 
 55 H      -13.1020    -9.0910     1.9360 H     1 <1>   0.1500 
 56 H      -15.3580    -8.2030     1.5240 H     1 <1>   0.1500 
@<TRIPOS>BOND
  1   1   2  2   
  2   2   3  am  
  3   2   4  am  
  4   3   5  1   
  5   3   6  1   
  6   4  29  1   
  7   4  30  1   
  8   5   7  1   
  9   5   8  1   
 10   5  31  1   
 11   6   9  1   
 12   6  32  1   
 13   6  33  1   
 14   7  10  2   
 15   7  11  am  
 16   8   9  1   
 17   8  34  1   
 18   8  35  1   
 19   9  36  1   
 20   9  37  1   
 21  11  12  1   
 22  11  13  1   
 23  12  14  1   
 24  12  38  1   
 25  12  39  1   
 26  13  15  1   
 27  13  40  1   
 28  13  41  1   
 29  14  16  1   
 30  14  42  1   
 31  14  43  1   
 32  15  17  1   
 33  15  44  1   
 34  15  45  1   
 35  16  17  1   
 36  16  18  am  
 37  17  46  1   
 38  17  47  1   
 39  18  19  2   
 40  18  20  1   
 41  20  21  1   
 42  20  48  1   
 43  20  49  1   
 44  21  22  1   
 45  22  23  1   
 46  22  50  1   
 47  22  51  1   
 48  23  24  ar  
 49  23  25  ar  
 50  24  26  ar  
 51  24  52  1   
 52  25  27  ar  
 53  25  53  1   
 54  26  28  ar  
 55  26  54  1   
 56  27  28  ar  
 57  27  55  1   
 58  28  56  1   
@<TRIPOS>SUBSTRUCTURE
  1 ****  12 GROUP 4 **** **** 0

# MOE 2024.06 (io_trps.svl 2023.06)
