@<TRIPOS>MOLECULE
NONAME
48 52 1 0 0 
SMALL
USER_CHARGES


@<TRIPOS>ATOM
  1 S       -2.7000    -0.7250     2.0590 S.3   1 <1>  -0.2820 
  2 C       -1.8180     0.5260     1.2010 C.2   1 <1>   0.7320 
  3 C       -2.5380    -1.7440     0.6550 C.2   1 <1>   0.6510 
  4 S       -1.5580     2.0470     2.1000 S.3   1 <1>  -0.3710 
  5 N       -1.4470     0.2430     0.0230 N.2   1 <1>  -0.5120 
  6 N       -3.0240    -2.9450     0.5990 N.2   1 <1>  -0.6210 
  7 N       -1.8500    -1.0610    -0.3160 N.am  1 <1>  -0.0580 
  8 C       -0.6170     3.1050     0.9110 C.3   1 <1>  -0.0100 
  9 C       -2.8110    -3.6140    -0.5770 C.2   1 <1>   0.0330 
 10 C       -1.6410    -1.7190    -1.5180 C.2   1 <1>   0.6160 
 11 C       -2.1490    -3.0400    -1.6170 C.2   1 <1>  -0.1360 
 12 C       -3.3660    -5.0370    -0.6450 C.3   1 <1>   0.4810 
 13 O       -1.0580    -1.1950    -2.4550 O.2   1 <1>  -0.5700 
 14 N       -4.7200    -5.0460    -0.0150 N.4   1 <1>  -0.9590 
 15 C       -5.1010    -6.4180     0.4990 C.3   1 <1>   0.3430 
 16 C       -5.7170    -4.4040    -0.9310 C.3   1 <1>   0.3430 
 17 C       -6.1080    -7.1720    -0.3870 C.3   1 <1>   0.2040 
 18 C       -7.1390    -4.8100    -0.5410 C.3   1 <1>  -0.1600 
 19 C       -5.3960    -7.6670    -1.6510 C.2   1 <1>   0.5690 
 20 C       -6.4750    -8.5170     0.2380 C.ar  1 <1>  -0.1440 
 21 C       -7.3710    -6.3270    -0.6900 C.3   1 <1>  -0.1600 
 22 O       -4.8610    -6.9520    -2.4640 O.2   1 <1>  -0.5700 
 23 N       -5.4090    -9.0170    -1.6940 N.am  1 <1>  -0.5470 
 24 C       -6.0410    -9.5400    -0.5830 C.ar  1 <1>   0.1170 
 25 C       -7.1320    -8.7980     1.4230 C.ar  1 <1>  -0.1500 
 26 C       -6.2530   -10.8660    -0.2440 C.ar  1 <1>  -0.1500 
 27 C       -7.3450   -10.1250     1.7700 C.ar  1 <1>  -0.1500 
 28 C       -6.9090   -11.1510     0.9420 C.ar  1 <1>  -0.1500 
 29 H       -0.4260     4.0480     1.3910 H     1 <1>   0.0800 
 30 H       -1.2210     3.2360     0.0310 H     1 <1>   0.0800 
 31 H        0.3030     2.6010     0.6730 H     1 <1>   0.0800 
 32 H       -1.9710    -3.5400    -2.5520 H     1 <1>   0.1500 
 33 H       -2.7060    -5.6860    -0.0940 H     1 <1>   0.0800 
 34 H       -3.4120    -5.3800    -1.6660 H     1 <1>   0.0800 
 35 H       -4.5940    -4.4090     0.7920 H     1 <1>   0.4500 
 36 H       -5.5570    -6.3020     1.4680 H     1 <1>   0.0800 
 37 H       -4.2210    -7.0250     0.6300 H     1 <1>   0.0800 
 38 H       -5.5370    -4.7200    -1.9470 H     1 <1>   0.0800 
 39 H       -5.6140    -3.3310    -0.8910 H     1 <1>   0.0800 
 40 H       -7.8410    -4.2840    -1.1650 H     1 <1>   0.0800 
 41 H       -7.3250    -4.5020     0.4740 H     1 <1>   0.0800 
 42 H       -8.1760    -6.6120    -0.0340 H     1 <1>   0.0800 
 43 H       -7.7000    -6.5440    -1.6930 H     1 <1>   0.0800 
 44 H       -5.0310    -9.5590    -2.4740 H     1 <1>   0.3700 
 45 H       -7.4820    -8.0150     2.0730 H     1 <1>   0.1500 
 46 H       -5.9140   -11.6560    -0.8890 H     1 <1>   0.1500 
 47 H       -7.8560   -10.3640     2.6880 H     1 <1>   0.1500 
 48 H       -7.0850   -12.1760     1.2250 H     1 <1>   0.1500 
@<TRIPOS>BOND
  1   1   2  1   
  2   1   3  1   
  3   2   4  1   
  4   2   5  2   
  5   3   6  2   
  6   3   7  1   
  7   4   8  1   
  8   5   7  1   
  9   6   9  1   
 10   7  10  am  
 11   8  29  1   
 12   8  30  1   
 13   8  31  1   
 14   9  11  2   
 15   9  12  1   
 16  10  11  1   
 17  10  13  2   
 18  11  32  1   
 19  12  14  1   
 20  12  33  1   
 21  12  34  1   
 22  14  15  1   
 23  14  16  1   
 24  14  35  1   
 25  15  17  1   
 26  15  36  1   
 27  15  37  1   
 28  16  18  1   
 29  16  38  1   
 30  16  39  1   
 31  17  19  1   
 32  17  20  1   
 33  17  21  1   
 34  18  21  1   
 35  18  40  1   
 36  18  41  1   
 37  19  22  2   
 38  19  23  am  
 39  20  24  ar  
 40  20  25  ar  
 41  21  42  1   
 42  21  43  1   
 43  23  24  1   
 44  23  44  1   
 45  24  26  ar  
 46  25  27  ar  
 47  25  45  1   
 48  26  28  ar  
 49  26  46  1   
 50  27  28  ar  
 51  27  47  1   
 52  28  48  1   
@<TRIPOS>SUBSTRUCTURE
  1 ****  14 GROUP 4 **** **** 0

# MOE 2024.06 (io_trps.svl 2023.06)
