@<TRIPOS>MOLECULE
NONAME
33 34 1 0 0 
SMALL
USER_CHARGES


@<TRIPOS>ATOM
  1 O       -1.4160    -0.2480     0.4270 O.2   1 <1>  -0.5700 
  2 C       -2.1370     0.7290     0.5820 C.2   1 <1>   0.7160 
  3 N       -3.4710     0.4850     0.8480 N.am  1 <1>  -0.6600 
  4 C       -1.5810     2.0760     0.4670 C.2   1 <1>   0.1410 
  5 C       -3.8830    -0.7810     1.5210 C.3   1 <1>   0.3200 
  6 C       -4.5620     1.4590     0.5370 C.3   1 <1>   0.1400 
  7 N       -1.9830     3.1190     1.2580 N.2   1 <1>  -0.5650 
  8 C       -0.6020     2.5310    -0.3780 C.2   1 <1>  -0.3320 
  9 C       -4.1880    -1.8660     0.5010 C.2   1 <1>   0.0060 
 10 C       -5.5020     0.9220    -0.5500 C.3   1 <1>   0.1200 
 11 C       -1.2660     4.1220     0.8860 C.2   1 <1>   0.0360 
 12 N       -0.4060     3.8280    -0.1060 N.pl3 1 <1>   0.0330 
 13 C        0.1860     1.8030    -1.4560 C.3   1 <1>  -0.0600 
 14 N       -5.3210    -2.4830     0.3820 N.2   1 <1>  -0.5650 
 15 N       -3.2560    -2.2720    -0.3860 N.pl3 1 <1>   0.0330 
 16 O       -6.4350     1.8980    -0.8740 O.3   1 <1>  -0.6800 
 17 C       -5.1140    -3.3360    -0.6410 C.2   1 <1>   0.0770 
 18 C       -3.8580    -3.2210    -1.1230 C.2   1 <1>  -0.3020 
 19 H       -4.7540    -0.6060     2.1270 H     1 <1>   0.0800 
 20 H       -3.0940    -1.1200     2.1700 H     1 <1>   0.0800 
 21 H       -4.1430     2.3820     0.1780 H     1 <1>   0.0800 
 22 H       -5.1160     1.6660     1.4350 H     1 <1>   0.0800 
 23 H       -6.0350     0.0480    -0.2190 H     1 <1>   0.0800 
 24 H       -4.9470     0.6900    -1.4420 H     1 <1>   0.0800 
 25 H       -1.3310     5.1080     1.3130 H     1 <1>   0.1500 
 26 H        0.2570     4.4700    -0.5510 H     1 <1>   0.2700 
 27 H       -0.1660     0.7940    -1.5750 H     1 <1>   0.0800 
 28 H        1.2280     1.7680    -1.1920 H     1 <1>   0.0800 
 29 H        0.0800     2.3090    -2.4000 H     1 <1>   0.0800 
 30 H       -2.3030    -1.8840    -0.4490 H     1 <1>   0.2700 
 31 H       -7.0900     2.0020    -0.1570 H     1 <1>   0.4000 
 32 H       -5.8930    -3.9980    -0.9810 H     1 <1>   0.1500 
 33 H       -3.3720    -3.7440    -1.9260 H     1 <1>   0.1500 
@<TRIPOS>BOND
  1   1   2  2   
  2   2   3  am  
  3   2   4  1   
  4   3   5  1   
  5   3   6  1   
  6   4   7  1   
  7   4   8  2   
  8   5   9  1   
  9   5  19  1   
 10   5  20  1   
 11   6  10  1   
 12   6  21  1   
 13   6  22  1   
 14   7  11  2   
 15   8  12  1   
 16   8  13  1   
 17   9  14  2   
 18   9  15  1   
 19  10  16  1   
 20  10  23  1   
 21  10  24  1   
 22  11  12  1   
 23  11  25  1   
 24  12  26  1   
 25  13  27  1   
 26  13  28  1   
 27  13  29  1   
 28  14  17  1   
 29  15  18  1   
 30  15  30  1   
 31  16  31  1   
 32  17  18  2   
 33  17  32  1   
 34  18  33  1   
@<TRIPOS>SUBSTRUCTURE
  1 ****   3 GROUP 4 **** **** 0

# MOE 2024.06 (io_trps.svl 2023.06)
