@<TRIPOS>MOLECULE
NONAME
54 57 1 0 0 
SMALL
USER_CHARGES


@<TRIPOS>ATOM
  1 O       -0.7130    -0.5550     0.1040 O.3   1 <1>  -0.5600 
  2 C       -1.7970    -1.4210    -0.0760 C.3   1 <1>   0.1200 
  3 C        0.3870    -1.1430     0.7290 C.3   1 <1>   0.1200 
  4 C       -1.3930    -2.6160    -0.9570 C.3   1 <1>   0.2090 
  5 C        0.9210    -2.3190    -0.1120 C.3   1 <1>   0.2090 
  6 N       -0.1700    -3.3140    -0.4100 N.pl3 1 <1>  -0.8380 
  7 C       -0.1420    -4.6610    -0.2170 C.ar  1 <1>   0.7710 
  8 N       -1.2540    -5.3640    -0.3640 N.ar  1 <1>  -0.6200 
  9 N        1.0200    -5.2520     0.1130 N.ar  1 <1>  -0.1790 
 10 C       -1.2130    -6.6710    -0.1870 C.ar  1 <1>   0.4100 
 11 C        1.1150    -6.5830     0.3320 C.ar  1 <1>   0.2180 
 12 N       -2.3620    -7.3750    -0.3800 N.pl3 1 <1>  -0.8380 
 13 C       -0.0170    -7.3130     0.1890 C.ar  1 <1>  -0.1500 
 14 C        2.4610    -7.1790     0.7230 C.3   1 <1>  -0.0170 
 15 C       -2.4170    -8.8040    -0.8340 C.3   1 <1>   0.2090 
 16 C       -3.7170    -6.7450    -0.3350 C.3   1 <1>   0.2090 
 17 C        3.5140    -7.0060    -0.3800 C.3   1 <1>  -0.2400 
 18 C       -3.2680    -9.6410     0.1370 C.3   1 <1>   0.1000 
 19 C       -4.6180    -7.5450     0.6140 C.3   1 <1>  -0.1600 
 20 C       -3.3200   -11.0990    -0.3020 C.2   1 <1>   0.0060 
 21 C       -4.6810    -9.0380     0.2470 C.3   1 <1>  -0.1600 
 22 N       -3.9630   -12.0540     0.3740 N.pl3 1 <1>   0.0330 
 23 N       -2.7510   -11.5830    -1.3530 N.2   1 <1>  -0.3380 
 24 C       -3.7410   -13.1500    -0.3490 C.2   1 <1>   0.0060 
 25 N       -3.0200   -12.8890    -1.3820 N.2   1 <1>  -0.3380 
 26 C       -4.2730   -14.5220     0.0080 C.3   1 <1>  -0.0600 
 27 H       -2.5870    -0.8630    -0.5470 H     1 <1>   0.0800 
 28 H       -2.1390    -1.7560     0.8880 H     1 <1>   0.0800 
 29 H        0.0900    -1.4730     1.7100 H     1 <1>   0.0800 
 30 H        1.1430    -0.3850     0.8340 H     1 <1>   0.0800 
 31 H       -1.1790    -2.2540    -1.9490 H     1 <1>   0.0800 
 32 H       -2.2370    -3.2780    -1.0370 H     1 <1>   0.0800 
 33 H        1.7350    -2.7700     0.4230 H     1 <1>   0.0800 
 34 H        1.3060    -1.9260    -1.0390 H     1 <1>   0.0800 
 35 H        1.8270    -4.6470     0.1600 H     1 <1>   0.4570 
 36 H       -0.0220    -8.3700     0.3670 H     1 <1>   0.1500 
 37 H        2.3410    -8.2320     0.9210 H     1 <1>   0.0800 
 38 H        2.8100    -6.7230     1.6340 H     1 <1>   0.0800 
 39 H       -1.4350    -9.2310    -0.9220 H     1 <1>   0.0800 
 40 H       -2.8640    -8.8410    -1.8130 H     1 <1>   0.0800 
 41 H       -4.1370    -6.7400    -1.3260 H     1 <1>   0.0800 
 42 H       -3.6620    -5.7270     0.0110 H     1 <1>   0.0800 
 43 H        3.1770    -7.4620    -1.2960 H     1 <1>   0.0800 
 44 H        4.4300    -7.4900    -0.0870 H     1 <1>   0.0800 
 45 H        3.7290    -5.9700    -0.5660 H     1 <1>   0.0800 
 46 H       -2.7930    -9.6050     1.1010 H     1 <1>   0.0800 
 47 H       -5.6090    -7.1270     0.5910 H     1 <1>   0.0800 
 48 H       -4.2430    -7.4320     1.6160 H     1 <1>   0.0800 
 49 H       -5.2540    -9.5630     0.9900 H     1 <1>   0.0800 
 50 H       -5.1830    -9.1490    -0.7000 H     1 <1>   0.0800 
 51 H       -4.4990   -11.9700     1.2380 H     1 <1>   0.2700 
 52 H       -3.8970   -14.8280     0.9670 H     1 <1>   0.0800 
 53 H       -3.9560   -15.2370    -0.7290 H     1 <1>   0.0800 
 54 H       -5.3470   -14.5080     0.0330 H     1 <1>   0.0800 
@<TRIPOS>BOND
  1   1   2  1   
  2   1   3  1   
  3   2   4  1   
  4   2  27  1   
  5   2  28  1   
  6   3   5  1   
  7   3  29  1   
  8   3  30  1   
  9   4   6  1   
 10   4  31  1   
 11   4  32  1   
 12   5   6  1   
 13   5  33  1   
 14   5  34  1   
 15   6   7  1   
 16   7   8  ar  
 17   7   9  ar  
 18   8  10  ar  
 19   9  11  ar  
 20   9  35  1   
 21  10  12  1   
 22  10  13  ar  
 23  11  13  ar  
 24  11  14  1   
 25  12  15  1   
 26  12  16  1   
 27  13  36  1   
 28  14  17  1   
 29  14  37  1   
 30  14  38  1   
 31  15  18  1   
 32  15  39  1   
 33  15  40  1   
 34  16  19  1   
 35  16  41  1   
 36  16  42  1   
 37  17  43  1   
 38  17  44  1   
 39  17  45  1   
 40  18  20  1   
 41  18  21  1   
 42  18  46  1   
 43  19  21  1   
 44  19  47  1   
 45  19  48  1   
 46  20  22  1   
 47  20  23  2   
 48  21  49  1   
 49  21  50  1   
 50  22  24  1   
 51  22  51  1   
 52  23  25  1   
 53  24  25  2   
 54  24  26  1   
 55  26  52  1   
 56  26  53  1   
 57  26  54  1   
@<TRIPOS>SUBSTRUCTURE
  1 ****  10 GROUP 4 **** **** 0

# MOE 2024.06 (io_trps.svl 2023.06)
