@<TRIPOS>MOLECULE
NONAME
47 51 1 0 0 
SMALL
USER_CHARGES


@<TRIPOS>ATOM
  1 S        0.1830     0.5940    -0.0890 S.3   1 <1>  -0.0800 
  2 C        1.1670    -0.8350     0.1620 C.2   1 <1>  -0.0450 
  3 C        1.1130     1.4400     1.1170 C.2   1 <1>   0.2280 
  4 C        2.0860    -0.5200     1.1060 C.2   1 <1>   0.0460 
  5 C        0.9120    -2.0210    -0.6170 C.2   1 <1>   0.7150 
  6 N        2.0430     0.7490     1.6430 N.2   1 <1>  -0.5650 
  7 C        3.1730    -1.4300     1.6430 C.3   1 <1>  -0.0590 
  8 O        1.8520    -2.6490    -1.0700 O.2   1 <1>  -0.5700 
  9 N       -0.3640    -2.4910    -0.8490 N.am  1 <1>  -0.6600 
 10 C       -1.5000    -2.2820     0.0880 C.3   1 <1>   0.1400 
 11 C       -0.6610    -3.4380    -1.9590 C.3   1 <1>   0.1400 
 12 C       -1.9010    -3.6280     0.6930 C.3   1 <1>  -0.1600 
 13 C       -1.0560    -4.7940    -1.3740 C.3   1 <1>  -0.1600 
 14 C       -2.2240    -4.6640    -0.3920 C.3   1 <1>   0.4600 
 15 O       -3.3280    -4.2130    -1.1460 O.3   1 <1>  -0.5600 
 16 C       -2.5520    -6.0200     0.2220 C.2   1 <1>  -0.3320 
 17 C       -4.6200    -4.4250    -0.6270 C.3   1 <1>   0.1200 
 18 N       -1.6870    -6.8390     0.8950 N.pl3 1 <1>   0.0330 
 19 C       -3.7670    -6.6000     0.1740 C.2   1 <1>  -0.1810 
 20 C       -4.9320    -5.9260    -0.5060 C.3   1 <1>   0.0210 
 21 C       -2.3780    -7.9630     1.2760 C.ar  1 <1>  -0.1520 
 22 C       -3.6930    -7.8450     0.8340 C.ar  1 <1>   0.0000 
 23 C       -1.9600    -9.0950     1.9800 C.ar  1 <1>  -0.1500 
 24 C       -4.6070    -8.8700     1.0960 C.ar  1 <1>  -0.1500 
 25 C       -2.8690   -10.0960     2.2320 C.ar  1 <1>  -0.1500 
 26 C       -4.1930    -9.9840     1.7890 C.ar  1 <1>  -0.1500 
 27 H        0.8410     2.4590     1.3260 H     1 <1>   0.1500 
 28 H        3.1180    -2.4070     1.2000 H     1 <1>   0.0800 
 29 H        3.0720    -1.5240     2.7080 H     1 <1>   0.0800 
 30 H        4.1350    -1.0050     1.4230 H     1 <1>   0.0800 
 31 H       -2.3300    -1.8560    -0.4510 H     1 <1>   0.0800 
 32 H       -1.2280    -1.6090     0.8810 H     1 <1>   0.0800 
 33 H        0.1950    -3.5520    -2.6030 H     1 <1>   0.0800 
 34 H       -1.4710    -3.0450    -2.5500 H     1 <1>   0.0800 
 35 H       -2.7430    -3.5050     1.3470 H     1 <1>   0.0800 
 36 H       -1.0860    -3.9880     1.2930 H     1 <1>   0.0800 
 37 H       -0.2010    -5.2100    -0.8750 H     1 <1>   0.0800 
 38 H       -1.3330    -5.4680    -2.1630 H     1 <1>   0.0800 
 39 H       -5.3220    -3.9530    -1.2900 H     1 <1>   0.0800 
 40 H       -4.6840    -3.9530     0.3370 H     1 <1>   0.0800 
 41 H       -0.6940    -6.6680     1.0750 H     1 <1>   0.2700 
 42 H       -5.0790    -6.3510    -1.4820 H     1 <1>   0.0800 
 43 H       -5.8290    -6.0650     0.0700 H     1 <1>   0.0800 
 44 H       -0.9410    -9.1750     2.3160 H     1 <1>   0.1500 
 45 H       -5.6190    -8.7700     0.7490 H     1 <1>   0.1500 
 46 H       -2.5720   -10.9780     2.7720 H     1 <1>   0.1500 
 47 H       -4.8850   -10.7810     1.9990 H     1 <1>   0.1500 
@<TRIPOS>BOND
  1   1   2  1   
  2   1   3  1   
  3   2   4  2   
  4   2   5  1   
  5   3   6  2   
  6   3  27  1   
  7   4   6  1   
  8   4   7  1   
  9   5   8  2   
 10   5   9  am  
 11   7  28  1   
 12   7  29  1   
 13   7  30  1   
 14   9  10  1   
 15   9  11  1   
 16  10  12  1   
 17  10  31  1   
 18  10  32  1   
 19  11  13  1   
 20  11  33  1   
 21  11  34  1   
 22  12  14  1   
 23  12  35  1   
 24  12  36  1   
 25  13  14  1   
 26  13  37  1   
 27  13  38  1   
 28  14  15  1   
 29  14  16  1   
 30  15  17  1   
 31  16  18  1   
 32  16  19  2   
 33  17  20  1   
 34  17  39  1   
 35  17  40  1   
 36  18  21  1   
 37  18  41  1   
 38  19  20  1   
 39  19  22  1   
 40  20  42  1   
 41  20  43  1   
 42  21  22  ar  
 43  21  23  ar  
 44  22  24  ar  
 45  23  25  ar  
 46  23  44  1   
 47  24  26  ar  
 48  24  45  1   
 49  25  26  ar  
 50  25  46  1   
 51  26  47  1   
@<TRIPOS>SUBSTRUCTURE
  1 ****  12 GROUP 4 **** **** 0

# MOE 2024.06 (io_trps.svl 2023.06)
