@<TRIPOS>MOLECULE
NONAME
42 43 1 0 0 
SMALL
USER_CHARGES


@<TRIPOS>ATOM
  1 O       -0.0720     0.9470     1.0700 O.2   1 <1>  -0.5700 
  2 C        1.0230     0.9940     0.5600 C.2   1 <1>   0.7800 
  3 O        1.2930     1.7500    -0.5070 O.3   1 <1>  -0.4300 
  4 N        2.0320     0.2460     1.0490 N.am  1 <1>  -0.7300 
  5 C        0.3880     2.5910    -1.1910 C.3   1 <1>   0.2800 
  6 C        3.3650     0.1000     0.4360 C.3   1 <1>   0.2200 
  7 C       -0.7550     1.7640    -1.7910 C.3   1 <1>  -0.2400 
  8 C       -0.1180     3.6970    -0.2580 C.3   1 <1>  -0.2400 
  9 C        1.2020     3.2200    -2.3220 C.3   1 <1>  -0.2400 
 10 C        3.4840    -0.9230    -0.7220 C.3   1 <1>  -0.0800 
 11 C        4.4150    -0.4300     1.3740 C.3   1 <1>  -0.0800 
 12 C        4.4020    -0.2300    -1.7080 C.3   1 <1>   0.3430 
 13 C        2.5130    -2.0750    -0.4740 C.3   1 <1>  -0.1600 
 14 C        5.7750    -0.2510     0.5930 C.3   1 <1>   0.3430 
 15 C        4.0290    -1.9160     1.7600 C.3   1 <1>  -0.1600 
 16 N        5.6560     0.1810    -0.9020 N.4   1 <1>  -0.9060 
 17 C        2.8170    -2.5880     0.9840 C.3   1 <1>  -0.1600 
 18 H        1.7720    -0.4150     1.7800 H     1 <1>   0.3700 
 19 H        3.6390     1.0960     0.1260 H     1 <1>   0.0800 
 20 H       -1.3930     1.3660    -1.0230 H     1 <1>   0.0800 
 21 H       -0.3660     0.9550    -2.3820 H     1 <1>   0.0800 
 22 H       -1.3630     2.3850    -2.4230 H     1 <1>   0.0800 
 23 H       -0.7550     3.2980     0.5100 H     1 <1>   0.0800 
 24 H       -0.6970     4.4110    -0.8160 H     1 <1>   0.0800 
 25 H        0.7070     4.2120     0.2000 H     1 <1>   0.0800 
 26 H        1.5800     2.4600    -2.9810 H     1 <1>   0.0800 
 27 H        2.0230     3.7880    -1.9220 H     1 <1>   0.0800 
 28 H        0.5830     3.8850    -2.8980 H     1 <1>   0.0800 
 29 H        4.2710    -1.6480    -0.6100 H     1 <1>   0.0800 
 30 H        4.4510     0.1750     2.2640 H     1 <1>   0.0800 
 31 H        3.9120     0.6350    -2.1280 H     1 <1>   0.0800 
 32 H        4.6670    -0.9070    -2.5050 H     1 <1>   0.0800 
 33 H        2.6690    -2.8700    -1.1860 H     1 <1>   0.0800 
 34 H        1.4880    -1.7540    -0.5680 H     1 <1>   0.0800 
 35 H        6.3020    -1.1910     0.6390 H     1 <1>   0.0800 
 36 H        6.3810     0.4700     1.1190 H     1 <1>   0.0800 
 37 H        3.7980    -1.9470     2.8120 H     1 <1>   0.0800 
 38 H        4.8950    -2.5430     1.6320 H     1 <1>   0.0800 
 39 H        5.7130     1.2080    -0.9330 H     1 <1>   0.4500 
 40 H        6.4930    -0.1440    -1.4060 H     1 <1>   0.4500 
 41 H        2.9720    -3.6530     0.9550 H     1 <1>   0.0800 
 42 H        1.9240    -2.4430     1.5700 H     1 <1>   0.0800 
@<TRIPOS>BOND
  1   1   2  2   
  2   2   3  1   
  3   2   4  am  
  4   3   5  1   
  5   4   6  1   
  6   4  18  1   
  7   5   7  1   
  8   5   8  1   
  9   5   9  1   
 10   6  10  1   
 11   6  11  1   
 12   6  19  1   
 13   7  20  1   
 14   7  21  1   
 15   7  22  1   
 16   8  23  1   
 17   8  24  1   
 18   8  25  1   
 19   9  26  1   
 20   9  27  1   
 21   9  28  1   
 22  10  12  1   
 23  10  13  1   
 24  10  29  1   
 25  11  14  1   
 26  11  15  1   
 27  11  30  1   
 28  12  16  1   
 29  12  31  1   
 30  12  32  1   
 31  13  17  1   
 32  13  33  1   
 33  13  34  1   
 34  14  16  1   
 35  14  35  1   
 36  14  36  1   
 37  15  17  1   
 38  15  37  1   
 39  15  38  1   
 40  16  39  1   
 41  16  40  1   
 42  17  41  1   
 43  17  42  1   
@<TRIPOS>SUBSTRUCTURE
  1 ****   6 GROUP 4 **** **** 0

# MOE 2024.06 (io_trps.svl 2023.06)
