@<TRIPOS>MOLECULE
NONAME
48 49 1 0 0 
SMALL
USER_CHARGES


@<TRIPOS>ATOM
  1 F       -1.1470    -0.9960    -1.6460 F     1 <1>  -0.1900 
  2 C       -0.8230    -2.2290    -1.3630 C.ar  1 <1>   0.1900 
  3 C       -0.5880    -2.5880    -0.0440 C.ar  1 <1>  -0.1440 
  4 C       -0.7260    -3.1310    -2.4040 C.ar  1 <1>  -0.1500 
  5 C       -0.2540    -3.9070     0.2210 C.ar  1 <1>  -0.1500 
  6 C       -0.6910    -1.5640     1.0780 C.3   1 <1>  -0.0960 
  7 C       -0.3950    -4.4450    -2.1210 C.ar  1 <1>  -0.1500 
  8 C       -0.1710    -4.8420    -0.8070 C.ar  1 <1>  -0.1440 
  9 C        0.1640    -6.2960    -0.4980 C.3   1 <1>   0.4870 
 10 N       -1.0760    -7.0600    -0.1700 N.4   1 <1>  -0.9590 
 11 C       -2.0730    -7.0290    -1.2820 C.3   1 <1>   0.3430 
 12 C       -1.7060    -6.6100     1.1020 C.3   1 <1>   0.3430 
 13 C       -3.2090    -8.0320    -1.0010 C.3   1 <1>   0.2000 
 14 C       -2.8760    -7.5220     1.4670 C.3   1 <1>  -0.1600 
 15 O       -2.5890    -9.2840    -0.9600 O.3   1 <1>  -0.6800 
 16 C       -3.9350    -7.7440     0.3500 C.3   1 <1>   0.0000 
 17 C       -4.7930    -8.9810     0.7500 C.3   1 <1>   0.1200 
 18 C       -4.9250    -6.5370     0.2440 C.3   1 <1>  -0.1600 
 19 O       -5.4180    -8.7690     1.9710 O.3   1 <1>  -0.6800 
 20 C       -4.4760    -5.2120    -0.4010 C.3   1 <1>  -0.1600 
 21 C       -5.5650    -4.1460    -0.2510 C.3   1 <1>  -0.2400 
 22 H       -0.9060    -2.8020    -3.4130 H     1 <1>   0.1500 
 23 H       -0.0560    -4.1970     1.2380 H     1 <1>   0.1500 
 24 H       -0.4440    -1.9990     2.0290 H     1 <1>   0.0800 
 25 H       -1.6930    -1.1760     1.1290 H     1 <1>   0.0800 
 26 H       -0.0170    -0.7470     0.8910 H     1 <1>   0.0800 
 27 H       -0.3110    -5.1440    -2.9360 H     1 <1>   0.1500 
 28 H        0.8520    -6.3390     0.3310 H     1 <1>   0.0800 
 29 H        0.6480    -6.7380    -1.3540 H     1 <1>   0.0800 
 30 H       -0.8510    -8.0630    -0.0630 H     1 <1>   0.4500 
 31 H       -2.4570    -6.0330    -1.3970 H     1 <1>   0.0800 
 32 H       -1.6000    -7.3060    -2.2090 H     1 <1>   0.0800 
 33 H       -0.9810    -6.6340     1.8990 H     1 <1>   0.0800 
 34 H       -2.0520    -5.5960     1.0020 H     1 <1>   0.0800 
 35 H       -3.9110    -8.0340    -1.8180 H     1 <1>   0.0800 
 36 H       -2.4620    -8.4730     1.7540 H     1 <1>   0.0800 
 37 H       -3.3550    -7.1260     2.3450 H     1 <1>   0.0800 
 38 H       -3.2440   -10.0070    -1.0600 H     1 <1>   0.4000 
 39 H       -4.1860    -9.8630     0.8590 H     1 <1>   0.0800 
 40 H       -5.5570    -9.1710     0.0150 H     1 <1>   0.0800 
 41 H       -5.7920    -6.8640    -0.3050 H     1 <1>   0.0800 
 42 H       -5.2780    -6.3090     1.2360 H     1 <1>   0.0800 
 43 H       -5.9920    -9.5240     2.2140 H     1 <1>   0.4000 
 44 H       -3.5840    -4.8330     0.0580 H     1 <1>   0.0800 
 45 H       -4.3040    -5.3490    -1.4540 H     1 <1>   0.0800 
 46 H       -5.7620    -3.9470     0.7880 H     1 <1>   0.0800 
 47 H       -6.4790    -4.4670    -0.7190 H     1 <1>   0.0800 
 48 H       -5.2500    -3.2270    -0.7160 H     1 <1>   0.0800 
@<TRIPOS>BOND
  1   1   2  1   
  2   2   3  ar  
  3   2   4  ar  
  4   3   5  ar  
  5   3   6  1   
  6   4   7  ar  
  7   4  22  1   
  8   5   8  ar  
  9   5  23  1   
 10   6  24  1   
 11   6  25  1   
 12   6  26  1   
 13   7   8  ar  
 14   7  27  1   
 15   8   9  1   
 16   9  10  1   
 17   9  28  1   
 18   9  29  1   
 19  10  11  1   
 20  10  12  1   
 21  10  30  1   
 22  11  13  1   
 23  11  31  1   
 24  11  32  1   
 25  12  14  1   
 26  12  33  1   
 27  12  34  1   
 28  13  15  1   
 29  13  16  1   
 30  13  35  1   
 31  14  16  1   
 32  14  36  1   
 33  14  37  1   
 34  15  38  1   
 35  16  17  1   
 36  16  18  1   
 37  17  19  1   
 38  17  39  1   
 39  17  40  1   
 40  18  20  1   
 41  18  41  1   
 42  18  42  1   
 43  19  43  1   
 44  20  21  1   
 45  20  44  1   
 46  20  45  1   
 47  21  46  1   
 48  21  47  1   
 49  21  48  1   
@<TRIPOS>SUBSTRUCTURE
  1 ****  11 GROUP 4 **** **** 0

# MOE 2024.06 (io_trps.svl 2023.06)
