@<TRIPOS>MOLECULE
NONAME
55 58 1 0 0 
SMALL
USER_CHARGES


@<TRIPOS>ATOM
  1 O       -1.1240    -0.1080     0.9250 O.2   1 <1>  -0.5700 
  2 C       -2.0480     0.5500     0.4860 C.2   1 <1>   0.7160 
  3 N       -3.2810    -0.0260     0.4300 N.am  1 <1>  -0.7300 
  4 C       -1.8610     1.8960     0.0330 C.2   1 <1>  -0.0860 
  5 C       -3.6440    -1.3940     0.8540 C.3   1 <1>   0.1400 
  6 C       -2.8660     2.8590    -0.1360 C.2   1 <1>   0.3720 
  7 C       -0.7300     2.5650    -0.3270 C.2   1 <1>   0.0870 
  8 C       -3.9200    -2.2440    -0.3870 C.3   1 <1>  -0.1600 
  9 N       -2.3780     3.9750    -0.5490 N.2   1 <1>  -0.4100 
 10 N       -4.2330     2.6710     0.1280 N.pl3 1 <1>  -0.8210 
 11 O       -1.0930     3.7790    -0.6530 O.3   1 <1>  -0.0190 
 12 C        0.6630     2.2020    -0.4200 C.ar  1 <1>   0.0530 
 13 C       -4.2040    -3.7140    -0.0530 C.3   1 <1>   0.2800 
 14 C       -4.5960     2.7960     1.5770 C.3   1 <1>   0.2090 
 15 C       -5.1840     3.4430    -0.7430 C.3   1 <1>   0.2090 
 16 C        1.6580     3.1150    -0.0700 C.ar  1 <1>  -0.1500 
 17 C        1.0750     0.9490    -0.8760 C.ar  1 <1>  -0.1500 
 18 O       -5.2760    -3.7740     0.8070 O.3   1 <1>  -0.6800 
 19 C       -3.0510    -4.4720     0.6000 C.3   1 <1>  -0.1600 
 20 C       -4.5470    -4.5710    -1.2670 C.3   1 <1>  -0.1600 
 21 C       -4.8830     4.2550     1.9760 C.3   1 <1>   0.1200 
 22 C       -5.4740     4.8570    -0.1990 C.3   1 <1>   0.1200 
 23 C        3.0000     2.7930    -0.1630 C.ar  1 <1>  -0.1500 
 24 C        2.4140     0.6200    -0.9690 C.ar  1 <1>  -0.1500 
 25 C       -3.3320    -5.9600     0.3520 C.3   1 <1>  -0.1600 
 26 C       -4.3050    -6.0230    -0.8340 C.3   1 <1>  -0.1600 
 27 O       -5.8620     4.8100     1.1450 O.3   1 <1>  -0.5600 
 28 C        3.3810     1.5420    -0.6130 C.ar  1 <1>  -0.1500 
 29 H       -4.0450     0.5970     0.1320 H     1 <1>   0.3700 
 30 H       -4.5180    -1.3560     1.4820 H     1 <1>   0.0800 
 31 H       -2.8380    -1.8230     1.4250 H     1 <1>   0.0800 
 32 H       -3.0630    -2.1990    -1.0350 H     1 <1>   0.0800 
 33 H       -4.7630    -1.8400    -0.9180 H     1 <1>   0.0800 
 34 H       -3.7950     2.4160     2.1880 H     1 <1>   0.0800 
 35 H       -5.4700     2.2010     1.7760 H     1 <1>   0.0800 
 36 H       -6.1110     2.9020    -0.8120 H     1 <1>   0.0800 
 37 H       -4.7800     3.5230    -1.7380 H     1 <1>   0.0800 
 38 H        1.3740     4.0910     0.2810 H     1 <1>   0.1500 
 39 H        0.3370     0.2210    -1.1600 H     1 <1>   0.1500 
 40 H       -5.4610    -4.7130     0.9900 H     1 <1>   0.4000 
 41 H       -2.9480    -4.2410     1.6460 H     1 <1>   0.0800 
 42 H       -2.1350    -4.2070     0.1010 H     1 <1>   0.0800 
 43 H       -3.8640    -4.3340    -2.0640 H     1 <1>   0.0800 
 44 H       -5.5510    -4.4020    -1.6150 H     1 <1>   0.0800 
 45 H       -3.9890     4.8500     1.9040 H     1 <1>   0.0800 
 46 H       -5.2480     4.2990     2.9860 H     1 <1>   0.0800 
 47 H       -6.2740     5.3100    -0.7560 H     1 <1>   0.0800 
 48 H       -4.6020     5.4820    -0.2850 H     1 <1>   0.0800 
 49 H        3.7480     3.5150     0.1150 H     1 <1>   0.1500 
 50 H        2.7040    -0.3560    -1.3180 H     1 <1>   0.1500 
 51 H       -3.7890    -6.3990     1.2220 H     1 <1>   0.0800 
 52 H       -2.4190    -6.4890     0.1370 H     1 <1>   0.0800 
 53 H       -3.8990    -6.6020    -1.6460 H     1 <1>   0.0800 
 54 H       -5.2320    -6.4720    -0.5200 H     1 <1>   0.0800 
 55 H        4.4240     1.2870    -0.6850 H     1 <1>   0.1500 
@<TRIPOS>BOND
  1   1   2  2   
  2   2   3  am  
  3   2   4  1   
  4   3   5  1   
  5   3  29  1   
  6   4   6  1   
  7   4   7  2   
  8   5   8  1   
  9   5  30  1   
 10   5  31  1   
 11   6   9  2   
 12   6  10  1   
 13   7  11  1   
 14   7  12  1   
 15   8  13  1   
 16   8  32  1   
 17   8  33  1   
 18   9  11  1   
 19  10  14  1   
 20  10  15  1   
 21  12  16  ar  
 22  12  17  ar  
 23  13  18  1   
 24  13  19  1   
 25  13  20  1   
 26  14  21  1   
 27  14  34  1   
 28  14  35  1   
 29  15  22  1   
 30  15  36  1   
 31  15  37  1   
 32  16  23  ar  
 33  16  38  1   
 34  17  24  ar  
 35  17  39  1   
 36  18  40  1   
 37  19  25  1   
 38  19  41  1   
 39  19  42  1   
 40  20  26  1   
 41  20  43  1   
 42  20  44  1   
 43  21  27  1   
 44  21  45  1   
 45  21  46  1   
 46  22  27  1   
 47  22  47  1   
 48  22  48  1   
 49  23  28  ar  
 50  23  49  1   
 51  24  28  ar  
 52  24  50  1   
 53  25  26  1   
 54  25  51  1   
 55  25  52  1   
 56  26  53  1   
 57  26  54  1   
 58  28  55  1   
@<TRIPOS>SUBSTRUCTURE
  1 ****   2 GROUP 4 **** **** 0

# MOE 2024.06 (io_trps.svl 2023.06)
