@<TRIPOS>MOLECULE
NONAME
52 54 1 0 0 
SMALL
USER_CHARGES


@<TRIPOS>ATOM
  1 O       -1.0800     0.1120    -0.6950 O.2   1 <1>  -0.5700 
  2 C       -1.9750     0.9450    -0.7230 C.2   1 <1>   0.7160 
  3 N       -3.2700     0.4570    -0.8600 N.am  1 <1>  -0.6600 
  4 C       -1.6490     2.3620    -0.5580 C.2   1 <1>   0.2030 
  5 C       -3.5270    -0.9740    -1.1470 C.3   1 <1>   0.1400 
  6 C       -4.4230     1.1290    -0.1880 C.3   1 <1>   0.1400 
  7 N       -2.4860     3.3680    -0.3620 N.2   1 <1>  -0.7070 
  8 C       -0.3320     2.8450    -0.5820 C.2   1 <1>  -0.1500 
  9 C       -4.2350    -1.4930     0.1180 C.3   1 <1>   0.4230 
 10 C       -5.6990     0.2230    -0.1240 C.3   1 <1>  -0.1600 
 11 N       -1.7190     4.4650    -0.2700 N.pl3 1 <1>   0.3000 
 12 C       -0.4110     4.1760    -0.3970 C.2   1 <1>  -0.3320 
 13 N       -3.4780    -2.6010     0.8020 N.4   1 <1>  -0.9590 
 14 C       -5.8100    -1.4090    -0.1020 C.3   1 <1>   0.0000 
 15 C        0.7010     5.2090    -0.3360 C.3   1 <1>   0.0200 
 16 C       -3.6310    -3.8550     0.0890 C.3   1 <1>   0.3430 
 17 C       -2.0390    -2.2570     1.0600 C.3   1 <1>   0.2630 
 18 C       -6.0160    -3.0180    -0.1600 C.3   1 <1>  -0.1600 
 19 C       -7.4040    -1.2430    -0.2670 C.3   1 <1>   0.1200 
 20 C        0.8090     5.8100     1.0690 C.3   1 <1>  -0.1600 
 21 C       -5.0820    -4.1540     0.3090 C.3   1 <1>  -0.1600 
 22 O       -7.9720    -1.2440     1.0060 O.3   1 <1>  -0.6800 
 23 C        1.9480     6.8310     1.1580 C.3   1 <1>  -0.2400 
 24 H       -4.1740    -1.0480    -2.0040 H     1 <1>   0.0800 
 25 H       -2.6250    -1.5100    -1.3750 H     1 <1>   0.0800 
 26 H       -4.1270     1.4050     0.8120 H     1 <1>   0.0800 
 27 H       -4.6580     2.0410    -0.7130 H     1 <1>   0.0800 
 28 H        0.5450     2.2380    -0.7250 H     1 <1>   0.1500 
 29 H       -4.0660    -0.7350     0.8610 H     1 <1>   0.0800 
 30 H       -6.2800     0.6410     0.6850 H     1 <1>   0.0800 
 31 H       -6.1450     0.5670    -1.0440 H     1 <1>   0.0800 
 32 H       -2.1110     5.4030    -0.1190 H     1 <1>   0.2700 
 33 H       -3.9420    -2.7230     1.7130 H     1 <1>   0.4500 
 34 H        1.6340     4.7360    -0.5940 H     1 <1>   0.0800 
 35 H        0.5140     5.9850    -1.0590 H     1 <1>   0.0800 
 36 H       -3.4020    -3.7410    -0.9580 H     1 <1>   0.0800 
 37 H       -3.0140    -4.6270     0.5200 H     1 <1>   0.0800 
 38 H       -1.4890    -2.1850     0.1360 H     1 <1>   0.0800 
 39 H       -1.5770    -3.0130     1.6750 H     1 <1>   0.0800 
 40 H       -1.9660    -1.3090     1.5680 H     1 <1>   0.0800 
 41 H       -6.9150    -3.3390     0.3480 H     1 <1>   0.0800 
 42 H       -6.1730    -3.2370    -1.2050 H     1 <1>   0.0800 
 43 H       -7.8940    -2.0140    -0.8430 H     1 <1>   0.0800 
 44 H       -7.7860    -0.3560    -0.7470 H     1 <1>   0.0800 
 45 H       -0.1170     6.2920     1.3320 H     1 <1>   0.0800 
 46 H        0.9840     5.0190     1.7780 H     1 <1>   0.0800 
 47 H       -5.3340    -5.0620    -0.2120 H     1 <1>   0.0800 
 48 H       -5.2450    -4.3480     1.3570 H     1 <1>   0.0800 
 49 H       -8.9440    -1.1340     0.9610 H     1 <1>   0.4000 
 50 H        1.7850     7.6420     0.4710 H     1 <1>   0.0800 
 51 H        2.8900     6.3640     0.9280 H     1 <1>   0.0800 
 52 H        2.0030     7.2340     2.1550 H     1 <1>   0.0800 
@<TRIPOS>BOND
  1   1   2  2   
  2   2   3  am  
  3   2   4  1   
  4   3   5  1   
  5   3   6  1   
  6   4   7  2   
  7   4   8  1   
  8   5   9  1   
  9   5  24  1   
 10   5  25  1   
 11   6  10  1   
 12   6  26  1   
 13   6  27  1   
 14   7  11  1   
 15   8  12  2   
 16   8  28  1   
 17   9  13  1   
 18   9  14  1   
 19   9  29  1   
 20  10  14  1   
 21  10  30  1   
 22  10  31  1   
 23  11  12  1   
 24  11  32  1   
 25  12  15  1   
 26  13  16  1   
 27  13  17  1   
 28  13  33  1   
 29  14  18  1   
 30  14  19  1   
 31  15  20  1   
 32  15  34  1   
 33  15  35  1   
 34  16  21  1   
 35  16  36  1   
 36  16  37  1   
 37  17  38  1   
 38  17  39  1   
 39  17  40  1   
 40  18  21  1   
 41  18  41  1   
 42  18  42  1   
 43  19  22  1   
 44  19  43  1   
 45  19  44  1   
 46  20  23  1   
 47  20  45  1   
 48  20  46  1   
 49  21  47  1   
 50  21  48  1   
 51  22  49  1   
 52  23  50  1   
 53  23  51  1   
 54  23  52  1   
@<TRIPOS>SUBSTRUCTURE
  1 ****   3 GROUP 4 **** **** 0

# MOE 2024.06 (io_trps.svl 2023.06)
