@<TRIPOS>MOLECULE
NONAME
54 57 1 0 0 
SMALL
USER_CHARGES


@<TRIPOS>ATOM
  1 O       -1.1860     0.9410     2.0580 O.2   1 <1>  -0.5700 
  2 C       -1.3740     0.7130     0.8800 C.2   1 <1>   0.7160 
  3 N       -1.6180    -0.5780     0.5530 N.am  1 <1>  -0.7300 
  4 C       -1.3410     1.7630    -0.0830 C.2   1 <1>  -0.0860 
  5 C       -2.2740    -1.0570    -0.6630 C.3   1 <1>   0.4010 
  6 C       -2.4460     2.3520    -0.7110 C.2   1 <1>   0.3720 
  7 C       -0.2770     2.3920    -0.6460 C.2   1 <1>   0.0870 
  8 C       -3.5760    -1.7090    -0.2450 C.2   1 <1>  -0.1810 
  9 C       -1.3450    -2.0540    -1.3460 C.3   1 <1>  -0.2400 
 10 N       -2.0630     3.2310    -1.5700 N.2   1 <1>  -0.4100 
 11 N       -3.7910     2.0050    -0.4840 N.pl3 1 <1>  -0.8210 
 12 O       -0.7570     3.2460    -1.5120 O.3   1 <1>  -0.0190 
 13 C        1.1460     2.2520    -0.4740 C.ar  1 <1>   0.0530 
 14 C       -4.8410    -1.2060    -0.5240 C.2   1 <1>   0.1390 
 15 C       -3.8100    -2.8390     0.4590 C.2   1 <1>  -0.3020 
 16 C       -4.2340     1.9040     0.9350 C.3   1 <1>   0.2090 
 17 C       -4.8520     2.7020    -1.2720 C.3   1 <1>   0.2090 
 18 C        1.7210     1.9680     0.7660 C.ar  1 <1>  -0.1500 
 19 C        2.0090     2.3940    -1.5610 C.ar  1 <1>  -0.1500 
 20 N       -5.7850    -1.9510    -0.0370 N.2   1 <1>  -0.7070 
 21 N       -5.1470    -2.9650     0.5690 N.pl3 1 <1>   0.3140 
 22 C       -5.7200     2.2230     0.9220 C.3   1 <1>  -0.1600 
 23 C       -5.8880     3.1680    -0.2580 C.3   1 <1>  -0.1600 
 24 C        3.0870     1.8170     0.9150 C.ar  1 <1>  -0.1500 
 25 C        3.3760     2.2470    -1.4200 C.ar  1 <1>  -0.1500 
 26 C       -5.8830    -4.0350     1.2490 C.3   1 <1>   0.0160 
 27 C        3.9280     1.9540    -0.1850 C.ar  1 <1>   0.0830 
 28 O        5.2740     1.8200    -0.1290 O.3   1 <1>  -0.3630 
 29 C        5.9380     1.5360     1.0820 C.3   1 <1>   0.0400 
 30 H       -1.7180    -1.2110     1.3430 H     1 <1>   0.3700 
 31 H       -2.4780    -0.2430    -1.3380 H     1 <1>   0.0800 
 32 H       -1.1150    -2.8710    -0.6870 H     1 <1>   0.0800 
 33 H       -0.4350    -1.5640    -1.6420 H     1 <1>   0.0800 
 34 H       -1.8240    -2.4450    -2.2240 H     1 <1>   0.0800 
 35 H       -5.0270    -0.3000    -1.0760 H     1 <1>   0.1500 
 36 H       -3.1190    -3.5460     0.8780 H     1 <1>   0.1500 
 37 H       -3.7020     2.6260     1.5330 H     1 <1>   0.0800 
 38 H       -4.0630     0.9160     1.3260 H     1 <1>   0.0800 
 39 H       -5.2930     1.9950    -1.9540 H     1 <1>   0.0800 
 40 H       -4.4750     3.5380    -1.8360 H     1 <1>   0.0800 
 41 H        1.0920     1.8710     1.6320 H     1 <1>   0.1500 
 42 H        1.6020     2.6210    -2.5310 H     1 <1>   0.1500 
 43 H       -6.0440     2.6590     1.8500 H     1 <1>   0.0800 
 44 H       -6.2700     1.3130     0.7490 H     1 <1>   0.0800 
 45 H       -6.8830     3.1450    -0.6650 H     1 <1>   0.0800 
 46 H       -5.6520     4.1740     0.0410 H     1 <1>   0.0800 
 47 H        3.4770     1.5960     1.8900 H     1 <1>   0.1500 
 48 H        4.0270     2.3570    -2.2690 H     1 <1>   0.1500 
 49 H       -5.2210    -4.8540     1.4570 H     1 <1>   0.0800 
 50 H       -6.6830    -4.3650     0.6130 H     1 <1>   0.0800 
 51 H       -6.2900    -3.6490     2.1650 H     1 <1>   0.0800 
 52 H        6.9920     1.4810     0.8800 H     1 <1>   0.0800 
 53 H        5.5880     0.5910     1.4590 H     1 <1>   0.0800 
 54 H        5.7410     2.3280     1.7830 H     1 <1>   0.0800 
@<TRIPOS>BOND
  1   1   2  2   
  2   2   3  am  
  3   2   4  1   
  4   3   5  1   
  5   3  30  1   
  6   4   6  1   
  7   4   7  2   
  8   5   8  1   
  9   5   9  1   
 10   5  31  1   
 11   6  10  2   
 12   6  11  1   
 13   7  12  1   
 14   7  13  1   
 15   8  14  1   
 16   8  15  2   
 17   9  32  1   
 18   9  33  1   
 19   9  34  1   
 20  10  12  1   
 21  11  16  1   
 22  11  17  1   
 23  13  18  ar  
 24  13  19  ar  
 25  14  20  2   
 26  14  35  1   
 27  15  21  1   
 28  15  36  1   
 29  16  22  1   
 30  16  37  1   
 31  16  38  1   
 32  17  23  1   
 33  17  39  1   
 34  17  40  1   
 35  18  24  ar  
 36  18  41  1   
 37  19  25  ar  
 38  19  42  1   
 39  20  21  1   
 40  21  26  1   
 41  22  23  1   
 42  22  43  1   
 43  22  44  1   
 44  23  45  1   
 45  23  46  1   
 46  24  27  ar  
 47  24  47  1   
 48  25  27  ar  
 49  25  48  1   
 50  26  49  1   
 51  26  50  1   
 52  26  51  1   
 53  27  28  1   
 54  28  29  1   
 55  29  52  1   
 56  29  53  1   
 57  29  54  1   
@<TRIPOS>SUBSTRUCTURE
  1 ****   4 GROUP 4 **** **** 0

# MOE 2024.06 (io_trps.svl 2023.06)
