@<TRIPOS>MOLECULE
NONAME
47 49 1 0 0 
SMALL
USER_CHARGES


@<TRIPOS>ATOM
  1 O       -0.7800     0.5740     0.2510 O.2   1 <1>  -0.5700 
  2 C       -1.7830     1.2430     0.1480 C.2   1 <1>   0.5690 
  3 N       -3.0090     0.6670    -0.0930 N.am  1 <1>  -0.6600 
  4 C       -1.6510     2.7540     0.2970 C.3   1 <1>  -0.0990 
  5 C       -4.2890     1.4420    -0.1110 C.3   1 <1>   0.2200 
  6 C       -3.0890    -0.8070    -0.3450 C.3   1 <1>   0.0600 
  7 C       -0.2020     3.2610     0.3070 C.3   1 <1>  -0.0160 
  8 C       -5.4530     0.7820     0.6270 C.3   1 <1>  -0.1600 
  9 C       -4.8140     1.6680    -1.5250 C.3   1 <1>  -0.1600 
 10 C       -0.1780     4.7760     0.4310 C.ar  1 <1>  -0.1440 
 11 C       -6.7020     1.4570     0.0450 C.3   1 <1>  -0.0800 
 12 C       -6.2990     2.0040    -1.3360 C.3   1 <1>  -0.0800 
 13 C       -0.2050     5.5710    -0.7060 C.ar  1 <1>  -0.1500 
 14 C       -0.1360     5.3750     1.6830 C.ar  1 <1>  -0.1500 
 15 C       -7.1860     2.6620     0.8640 C.3   1 <1>  -0.1600 
 16 C       -6.5860     3.5140    -1.3050 C.3   1 <1>  -0.1600 
 17 C       -0.1910     6.9500    -0.5940 C.ar  1 <1>  -0.1500 
 18 C       -0.1200     6.7540     1.8000 C.ar  1 <1>  -0.1500 
 19 C       -7.5910     3.6910    -0.1790 C.3   1 <1>   0.2000 
 20 C       -0.1480     7.5370     0.6580 C.ar  1 <1>   0.0820 
 21 O       -7.5030     4.9610     0.3440 O.3   1 <1>  -0.6800 
 22 O       -0.1320     8.8750     0.7540 O.3   1 <1>  -0.5330 
 23 H       -2.1660     3.2250    -0.5190 H     1 <1>   0.0800 
 24 H       -2.1240     3.0460     1.2150 H     1 <1>   0.0800 
 25 H       -4.1460     2.4060     0.3440 H     1 <1>   0.0800 
 26 H       -3.8190    -1.0240    -1.1030 H     1 <1>   0.0800 
 27 H       -3.3570    -1.3130     0.5650 H     1 <1>   0.0800 
 28 H       -2.1380    -1.1870    -0.6790 H     1 <1>   0.0800 
 29 H        0.2940     2.9610    -0.6000 H     1 <1>   0.0800 
 30 H        0.3330     2.8190     1.1300 H     1 <1>   0.0800 
 31 H       -5.5120    -0.2660     0.4000 H     1 <1>   0.0800 
 32 H       -5.3740     0.9080     1.6920 H     1 <1>   0.0800 
 33 H       -4.2740     2.4470    -2.0320 H     1 <1>   0.0800 
 34 H       -4.7360     0.7600    -2.0960 H     1 <1>   0.0800 
 35 H       -7.5050     0.7460    -0.0570 H     1 <1>   0.0800 
 36 H       -6.8930     1.5390    -2.1060 H     1 <1>   0.0800 
 37 H       -0.2370     5.1190    -1.6820 H     1 <1>   0.1500 
 38 H       -0.1130     4.7660     2.5700 H     1 <1>   0.1500 
 39 H       -6.3830     3.0510     1.4660 H     1 <1>   0.0800 
 40 H       -8.0160     2.4000     1.4960 H     1 <1>   0.0800 
 41 H       -6.9880     3.8560    -2.2420 H     1 <1>   0.0800 
 42 H       -5.6860     4.0590    -1.0790 H     1 <1>   0.0800 
 43 H       -0.2100     7.5730    -1.4700 H     1 <1>   0.1500 
 44 H       -0.0870     7.2070     2.7730 H     1 <1>   0.1500 
 45 H       -8.5980     3.5200    -0.5240 H     1 <1>   0.0800 
 46 H       -6.5920     5.1370     0.6450 H     1 <1>   0.4000 
 47 H       -0.0870     9.1920     1.6730 H     1 <1>   0.4500 
@<TRIPOS>BOND
  1   1   2  2   
  2   2   3  am  
  3   2   4  1   
  4   3   5  1   
  5   3   6  1   
  6   4   7  1   
  7   4  23  1   
  8   4  24  1   
  9   5   8  1   
 10   5   9  1   
 11   5  25  1   
 12   6  26  1   
 13   6  27  1   
 14   6  28  1   
 15   7  10  1   
 16   7  29  1   
 17   7  30  1   
 18   8  11  1   
 19   8  31  1   
 20   8  32  1   
 21   9  12  1   
 22   9  33  1   
 23   9  34  1   
 24  10  13  ar  
 25  10  14  ar  
 26  11  12  1   
 27  11  15  1   
 28  11  35  1   
 29  12  16  1   
 30  12  36  1   
 31  13  17  ar  
 32  13  37  1   
 33  14  18  ar  
 34  14  38  1   
 35  15  19  1   
 36  15  39  1   
 37  15  40  1   
 38  16  19  1   
 39  16  41  1   
 40  16  42  1   
 41  17  20  ar  
 42  17  43  1   
 43  18  20  ar  
 44  18  44  1   
 45  19  21  1   
 46  19  45  1   
 47  20  22  1   
 48  21  46  1   
 49  22  47  1   
@<TRIPOS>SUBSTRUCTURE
  1 ****   4 GROUP 4 **** **** 0

# MOE 2024.06 (io_trps.svl 2023.06)
