@<TRIPOS>MOLECULE
NONAME
43 44 1 0 0 
SMALL
USER_CHARGES


@<TRIPOS>ATOM
  1 N        1.1650     2.4570     2.7270 N.1   1 <1>  -0.5570 
  2 C        2.1010     2.5400     2.0820 C.1   1 <1>   0.4840 
  3 C        3.2580     2.6700     1.2640 C.ar  1 <1>   0.0730 
  4 C        3.4680     3.7770     0.4520 C.ar  1 <1>   0.4100 
  5 C        4.2330     1.7050     1.2270 C.ar  1 <1>   0.1600 
  6 N        4.5340     3.9100    -0.2960 N.ar  1 <1>  -0.6200 
  7 N        2.5950     4.8220     0.3540 N.pl3 1 <1>  -0.9000 
  8 N        5.3070     1.8100     0.4800 N.ar  1 <1>  -0.6200 
  9 C        5.4050     2.9110    -0.2560 C.ar  1 <1>   0.7200 
 10 N        6.5450     3.0520    -1.0190 N.pl3 1 <1>  -0.8380 
 11 C        7.0270     4.3870    -1.4680 C.3   1 <1>   0.2090 
 12 C        7.3390     1.8660    -1.4680 C.3   1 <1>   0.1290 
 13 C        7.4630     5.2230    -0.2460 C.3   1 <1>   0.3430 
 14 N        7.0620     6.6760    -0.3080 N.4   1 <1>  -0.9590 
 15 C        7.7400     7.4770     0.7510 C.3   1 <1>   0.4230 
 16 C        5.5680     6.7840    -0.1810 C.3   1 <1>   0.2630 
 17 C        7.4370     8.9780     0.6100 C.3   1 <1>  -0.1600 
 18 C        9.2650     7.3610     0.6580 C.3   1 <1>  -0.1600 
 19 C        8.7810     9.7080     0.5370 C.3   1 <1>  -0.1600 
 20 C        9.8010     8.7220     1.0890 C.3   1 <1>  -0.1600 
 21 H        4.1310     0.8170     1.8310 H     1 <1>   0.1500 
 22 H        2.5880     5.3150    -0.5410 H     1 <1>   0.4000 
 23 H        1.6590     4.7470     0.7680 H     1 <1>   0.4000 
 24 H        6.2350     4.8740    -2.0100 H     1 <1>   0.0800 
 25 H        7.8620     4.2690    -2.1360 H     1 <1>   0.0800 
 26 H        6.7570     0.9630    -1.3910 H     1 <1>   0.0800 
 27 H        8.2180     1.7610    -0.8560 H     1 <1>   0.0800 
 28 H        7.6330     1.9820    -2.4960 H     1 <1>   0.0800 
 29 H        8.5320     5.1370    -0.1560 H     1 <1>   0.0800 
 30 H        7.0260     4.7810     0.6340 H     1 <1>   0.0800 
 31 H        7.3550     7.0710    -1.2100 H     1 <1>   0.4500 
 32 H        7.4210     7.1480     1.7280 H     1 <1>   0.0800 
 33 H        5.2380     6.3450     0.7470 H     1 <1>   0.0800 
 34 H        5.0820     6.2610    -0.9880 H     1 <1>   0.0800 
 35 H        5.2530     7.8140    -0.2070 H     1 <1>   0.0800 
 36 H        6.9080     9.3050     1.4880 H     1 <1>   0.0800 
 37 H        6.8510     9.2180    -0.2590 H     1 <1>   0.0800 
 38 H        9.5730     7.1860    -0.3580 H     1 <1>   0.0800 
 39 H        9.6460     6.5820     1.2940 H     1 <1>   0.0800 
 40 H        8.7740    10.6300     1.0950 H     1 <1>   0.0800 
 41 H        9.0200     9.9280    -0.4900 H     1 <1>   0.0800 
 42 H       10.7920     8.9100     0.7110 H     1 <1>   0.0800 
 43 H        9.8190     8.7850     2.1650 H     1 <1>   0.0800 
@<TRIPOS>BOND
  1   1   2  3   
  2   2   3  1   
  3   3   4  ar  
  4   3   5  ar  
  5   4   6  ar  
  6   4   7  1   
  7   5   8  ar  
  8   5  21  1   
  9   6   9  ar  
 10   7  22  1   
 11   7  23  1   
 12   8   9  ar  
 13   9  10  1   
 14  10  11  1   
 15  10  12  1   
 16  11  13  1   
 17  11  24  1   
 18  11  25  1   
 19  12  26  1   
 20  12  27  1   
 21  12  28  1   
 22  13  14  1   
 23  13  29  1   
 24  13  30  1   
 25  14  15  1   
 26  14  16  1   
 27  14  31  1   
 28  15  17  1   
 29  15  18  1   
 30  15  32  1   
 31  16  33  1   
 32  16  34  1   
 33  16  35  1   
 34  17  19  1   
 35  17  36  1   
 36  17  37  1   
 37  18  20  1   
 38  18  38  1   
 39  18  39  1   
 40  19  20  1   
 41  19  40  1   
 42  19  41  1   
 43  20  42  1   
 44  20  43  1   
@<TRIPOS>SUBSTRUCTURE
  1 ****   6 GROUP 4 **** **** 0

# MOE 2024.06 (io_trps.svl 2023.06)
