@<TRIPOS>MOLECULE
NONAME
50 51 1 0 0 
SMALL
USER_CHARGES


@<TRIPOS>ATOM
  1 O       -3.7790     2.8900    -1.2860 O.2   1 <1>  -0.5700 
  2 C       -2.9230     2.0420    -1.4290 C.2   1 <1>   0.5690 
  3 N       -3.2980     0.7200    -1.5140 N.am  1 <1>  -0.6600 
  4 C       -1.4500     2.4880    -1.4020 C.3   1 <1>   0.1250 
  5 C       -2.3350    -0.4320    -1.6030 C.3   1 <1>   0.3210 
  6 C       -4.7540     0.3520    -1.4810 C.3   1 <1>   0.1400 
  7 C       -0.9760     2.5210     0.0530 C.ar  1 <1>  -0.1440 
  8 C       -1.2080     3.8440    -2.0920 C.3   1 <1>  -0.2400 
  9 C       -2.7950    -1.6750    -0.8390 C.2   1 <1>   0.0460 
 10 C       -5.3210     0.2440    -0.0450 C.3   1 <1>   0.3430 
 11 C       -1.5080     3.4410     0.9480 C.ar  1 <1>  -0.1500 
 12 C       -0.0250     1.6180     0.5070 C.ar  1 <1>  -0.1500 
 13 N       -2.8370    -1.6850     0.5110 N.2   1 <1>  -0.5650 
 14 C       -3.1800    -2.8750    -1.3380 C.2   1 <1>  -0.3320 
 15 N       -4.9130     1.3960     0.8240 N.4   1 <1>  -0.9590 
 16 C       -1.1050     3.4530     2.2710 C.ar  1 <1>  -0.1500 
 17 C        0.3750     1.6250     1.8320 C.ar  1 <1>  -0.1500 
 18 C       -3.2190    -2.8860     0.8030 C.2   1 <1>   0.0360 
 19 N       -3.4480    -3.6590    -0.2770 N.pl3 1 <1>   0.0330 
 20 C       -3.3060    -3.3800    -2.7670 C.3   1 <1>  -0.0600 
 21 C       -3.7230     1.0360     1.6590 C.3   1 <1>   0.2630 
 22 C       -6.0290     1.9210     1.6550 C.3   1 <1>   0.2630 
 23 C       -0.1660     2.5410     2.7160 C.ar  1 <1>  -0.1500 
 24 H       -0.8620     1.7780    -1.9490 H     1 <1>   0.0800 
 25 H       -1.3800    -0.1580    -1.1980 H     1 <1>   0.0800 
 26 H       -2.1940    -0.6830    -2.6380 H     1 <1>   0.0800 
 27 H       -4.9110    -0.5800    -1.9970 H     1 <1>   0.0800 
 28 H       -5.3180     1.0970    -2.0160 H     1 <1>   0.0800 
 29 H       -1.7830     4.6250    -1.6280 H     1 <1>   0.0800 
 30 H       -1.4920     3.7870    -3.1280 H     1 <1>   0.0800 
 31 H       -0.1660     4.1060    -2.0330 H     1 <1>   0.0800 
 32 H       -4.9930    -0.6800     0.3980 H     1 <1>   0.0800 
 33 H       -6.3950     0.2040    -0.1130 H     1 <1>   0.0800 
 34 H       -2.2410     4.1580     0.6180 H     1 <1>   0.1500 
 35 H        0.4180     0.9000    -0.1600 H     1 <1>   0.1500 
 36 H       -4.5980     2.1410     0.1620 H     1 <1>   0.4500 
 37 H       -1.5170     4.1760     2.9550 H     1 <1>   0.1500 
 38 H        1.1110     0.9190     2.1760 H     1 <1>   0.1500 
 39 H       -3.3450    -3.2590     1.8060 H     1 <1>   0.1500 
 40 H       -3.7410    -4.6410    -0.2810 H     1 <1>   0.2700 
 41 H       -3.0790    -2.6040    -3.4750 H     1 <1>   0.0800 
 42 H       -4.3080    -3.7250    -2.9530 H     1 <1>   0.0800 
 43 H       -2.6250    -4.1970    -2.9310 H     1 <1>   0.0800 
 44 H       -3.9560     0.2140     2.3150 H     1 <1>   0.0800 
 45 H       -3.4050     1.8800     2.2480 H     1 <1>   0.0800 
 46 H       -2.9010     0.7390     1.0280 H     1 <1>   0.0800 
 47 H       -6.3730     1.1630     2.3400 H     1 <1>   0.0800 
 48 H       -6.8500     2.2240     1.0270 H     1 <1>   0.0800 
 49 H       -5.6970     2.7750     2.2220 H     1 <1>   0.0800 
 50 H        0.1520     2.5490     3.7440 H     1 <1>   0.1500 
@<TRIPOS>BOND
  1   1   2  2   
  2   2   3  am  
  3   2   4  1   
  4   3   5  1   
  5   3   6  1   
  6   4   7  1   
  7   4   8  1   
  8   4  24  1   
  9   5   9  1   
 10   5  25  1   
 11   5  26  1   
 12   6  10  1   
 13   6  27  1   
 14   6  28  1   
 15   7  11  ar  
 16   7  12  ar  
 17   8  29  1   
 18   8  30  1   
 19   8  31  1   
 20   9  13  1   
 21   9  14  2   
 22  10  15  1   
 23  10  32  1   
 24  10  33  1   
 25  11  16  ar  
 26  11  34  1   
 27  12  17  ar  
 28  12  35  1   
 29  13  18  2   
 30  14  19  1   
 31  14  20  1   
 32  15  21  1   
 33  15  22  1   
 34  15  36  1   
 35  16  23  ar  
 36  16  37  1   
 37  17  23  ar  
 38  17  38  1   
 39  18  19  1   
 40  18  39  1   
 41  19  40  1   
 42  20  41  1   
 43  20  42  1   
 44  20  43  1   
 45  21  44  1   
 46  21  45  1   
 47  21  46  1   
 48  22  47  1   
 49  22  48  1   
 50  22  49  1   
 51  23  50  1   
@<TRIPOS>SUBSTRUCTURE
  1 ****   3 GROUP 4 **** **** 0

# MOE 2024.06 (io_trps.svl 2023.06)
