@<TRIPOS>MOLECULE
NONAME
46 48 1 0 0 
SMALL
USER_CHARGES


@<TRIPOS>ATOM
  1 F        1.3690     1.1120    -0.9800 F     1 <1>  -0.1900 
  2 C        1.1810     2.3840    -0.7480 C.ar  1 <1>   0.1900 
  3 C        1.4780     2.8830     0.5070 C.ar  1 <1>  -0.1500 
  4 C        0.6900     3.1820    -1.7640 C.ar  1 <1>  -0.1500 
  5 C        1.2810     4.2330     0.7520 C.ar  1 <1>  -0.1500 
  6 C        0.4960     4.5290    -1.5100 C.ar  1 <1>  -0.1500 
  7 C        0.7930     5.0600    -0.2610 C.ar  1 <1>   0.0830 
  8 O        0.5870     6.3900    -0.1070 O.3   1 <1>  -0.3630 
  9 C        1.0870     7.0820     1.0280 C.3   1 <1>   0.1810 
 10 C        0.9290     8.5960     0.8870 C.2   1 <1>   0.5690 
 11 O        0.1810     9.1360     1.6700 O.2   1 <1>  -0.5700 
 12 N        1.6400     9.3180    -0.0460 N.am  1 <1>  -0.6600 
 13 C        2.5190     8.7050    -1.0890 C.3   1 <1>   0.1400 
 14 C        1.5170    10.8040    -0.1000 C.3   1 <1>   0.1400 
 15 C        3.9760     8.6070    -0.6110 C.3   1 <1>   0.1100 
 16 C        2.8390    11.5230    -0.4020 C.3   1 <1>  -0.1600 
 17 N        4.6840     9.9020    -0.6060 N.3   1 <1>  -0.8100 
 18 C        4.0660    10.9100     0.2780 C.3   1 <1>   0.1100 
 19 C        6.1280     9.7180    -0.3030 C.3   1 <1>   0.2900 
 20 C        7.0310    10.9150    -0.6210 C.2   1 <1>   0.2980 
 21 O        8.2600    10.8850    -0.2110 O.3   1 <1>  -0.2800 
 22 N        6.7680    11.9960    -1.2570 N.2   1 <1>  -0.3380 
 23 C        8.7510    12.0060    -0.6240 C.2   1 <1>   0.2980 
 24 N        7.8950    12.7110    -1.2560 N.2   1 <1>  -0.3380 
 25 C       10.1940    12.3510    -0.3380 C.3   1 <1>  -0.0600 
 26 H        1.8530     2.2250     1.2700 H     1 <1>   0.1500 
 27 H        0.4670     2.7560    -2.7250 H     1 <1>   0.1500 
 28 H        1.5040     4.6140     1.7310 H     1 <1>   0.1500 
 29 H        0.1120     5.1770    -2.2780 H     1 <1>   0.1500 
 30 H        2.1260     6.8430     1.1450 H     1 <1>   0.0800 
 31 H        0.5370     6.7480     1.8880 H     1 <1>   0.0800 
 32 H        2.4770     9.2830    -1.9960 H     1 <1>   0.0800 
 33 H        2.1680     7.7210    -1.3340 H     1 <1>   0.0800 
 34 H        1.1540    11.1620     0.8490 H     1 <1>   0.0800 
 35 H        0.7860    11.0680    -0.8440 H     1 <1>   0.0800 
 36 H        4.4890     7.9460    -1.2880 H     1 <1>   0.0800 
 37 H        4.0060     8.1640     0.3690 H     1 <1>   0.0800 
 38 H        2.7350    12.5360    -0.0590 H     1 <1>   0.0800 
 39 H        3.0040    11.5760    -1.4630 H     1 <1>   0.0800 
 40 H        3.8080    10.4810     1.2320 H     1 <1>   0.0800 
 41 H        4.7650    11.7100     0.4550 H     1 <1>   0.0800 
 42 H        6.5020     8.8900    -0.8770 H     1 <1>   0.0800 
 43 H        6.2400     9.4730     0.7380 H     1 <1>   0.0800 
 44 H       10.8370    11.6130    -0.7790 H     1 <1>   0.0800 
 45 H       10.3560    12.3760     0.7240 H     1 <1>   0.0800 
 46 H       10.4270    13.3150    -0.7520 H     1 <1>   0.0800 
@<TRIPOS>BOND
  1   1   2  1   
  2   2   3  ar  
  3   2   4  ar  
  4   3   5  ar  
  5   3  26  1   
  6   4   6  ar  
  7   4  27  1   
  8   5   7  ar  
  9   5  28  1   
 10   6   7  ar  
 11   6  29  1   
 12   7   8  1   
 13   8   9  1   
 14   9  10  1   
 15   9  30  1   
 16   9  31  1   
 17  10  11  2   
 18  10  12  am  
 19  12  13  1   
 20  12  14  1   
 21  13  15  1   
 22  13  32  1   
 23  13  33  1   
 24  14  16  1   
 25  14  34  1   
 26  14  35  1   
 27  15  17  1   
 28  15  36  1   
 29  15  37  1   
 30  16  18  1   
 31  16  38  1   
 32  16  39  1   
 33  17  18  1   
 34  17  19  1   
 35  18  40  1   
 36  18  41  1   
 37  19  20  1   
 38  19  42  1   
 39  19  43  1   
 40  20  21  1   
 41  20  22  2   
 42  21  23  1   
 43  22  24  1   
 44  23  24  2   
 45  23  25  1   
 46  25  44  1   
 47  25  45  1   
 48  25  46  1   
@<TRIPOS>SUBSTRUCTURE
  1 ****  15 GROUP 4 **** **** 0

# MOE 2024.06 (io_trps.svl 2023.06)
