@<TRIPOS>MOLECULE
NONAME
39 39 1 0 0 
SMALL
USER_CHARGES


@<TRIPOS>ATOM
  1 O       -0.0280    -1.0300    -0.5160 O.2   1 <1>  -0.5700 
  2 C        0.8200    -1.8050    -0.1450 C.2   1 <1>   0.5690 
  3 N        0.6350    -2.5860     0.9480 N.am  1 <1>  -0.7300 
  4 C        2.1270    -1.9450    -0.9300 C.3   1 <1>  -0.0190 
  5 C       -0.6160    -2.6370     1.7680 C.3   1 <1>   0.2010 
  6 C        2.7610    -0.5800    -1.2480 C.3   1 <1>  -0.2400 
  7 C        1.9060    -2.7380    -2.2280 C.3   1 <1>  -0.2400 
  8 C       -1.3440    -3.9800     1.6290 C.2   1 <1>   0.5690 
  9 O       -0.9200    -4.9110     2.2800 O.2   1 <1>  -0.5700 
 10 N       -2.4150    -4.1480     0.7870 N.am  1 <1>  -0.6600 
 11 C       -3.0920    -5.4730     0.6820 C.3   1 <1>   0.3200 
 12 C       -2.8050    -3.1650    -0.2780 C.3   1 <1>   0.1400 
 13 C       -2.3290    -6.3700    -0.2750 C.2   1 <1>   0.0060 
 14 C       -4.0950    -2.4130     0.0810 C.3   1 <1>   0.1200 
 15 N       -2.7750    -6.8030    -1.4110 N.2   1 <1>  -0.5650 
 16 N       -1.0790    -6.7890     0.0120 N.pl3 1 <1>   0.0330 
 17 O       -4.0700    -2.0290     1.4150 O.3   1 <1>  -0.6800 
 18 C       -1.7570    -7.5460    -1.8900 C.2   1 <1>   0.0770 
 19 C       -0.7120    -7.5490    -1.0340 C.2   1 <1>  -0.3020 
 20 H        1.3440    -3.2750     1.2060 H     1 <1>   0.3700 
 21 H        2.8240    -2.4920    -0.3210 H     1 <1>   0.0800 
 22 H       -1.2720    -1.8290     1.4980 H     1 <1>   0.0800 
 23 H       -0.3540    -2.5020     2.8010 H     1 <1>   0.0800 
 24 H        2.1060    -0.0010    -1.8760 H     1 <1>   0.0800 
 25 H        3.7020    -0.7070    -1.7530 H     1 <1>   0.0800 
 26 H        2.9290    -0.0310    -0.3380 H     1 <1>   0.0800 
 27 H        1.2180    -2.2150    -2.8690 H     1 <1>   0.0800 
 28 H        1.4930    -3.7070    -2.0060 H     1 <1>   0.0800 
 29 H        2.8350    -2.8720    -2.7520 H     1 <1>   0.0800 
 30 H       -4.0990    -5.3460     0.3260 H     1 <1>   0.0800 
 31 H       -3.1380    -5.9400     1.6500 H     1 <1>   0.0800 
 32 H       -2.9420    -3.6830    -1.2120 H     1 <1>   0.0800 
 33 H       -2.0220    -2.4500    -0.4410 H     1 <1>   0.0800 
 34 H       -4.9520    -3.0450    -0.0700 H     1 <1>   0.0800 
 35 H       -4.2010    -1.5300    -0.5250 H     1 <1>   0.0800 
 36 H       -0.5530    -6.5330     0.8590 H     1 <1>   0.2700 
 37 H       -3.8490    -2.8090     1.9620 H     1 <1>   0.4000 
 38 H       -1.8330    -8.0480    -2.8410 H     1 <1>   0.1500 
 39 H        0.2440    -8.0350    -1.1110 H     1 <1>   0.1500 
@<TRIPOS>BOND
  1   1   2  2   
  2   2   3  am  
  3   2   4  1   
  4   3   5  1   
  5   3  20  1   
  6   4   6  1   
  7   4   7  1   
  8   4  21  1   
  9   5   8  1   
 10   5  22  1   
 11   5  23  1   
 12   6  24  1   
 13   6  25  1   
 14   6  26  1   
 15   7  27  1   
 16   7  28  1   
 17   7  29  1   
 18   8   9  2   
 19   8  10  am  
 20  10  11  1   
 21  10  12  1   
 22  11  13  1   
 23  11  30  1   
 24  11  31  1   
 25  12  14  1   
 26  12  32  1   
 27  12  33  1   
 28  13  15  2   
 29  13  16  1   
 30  14  17  1   
 31  14  34  1   
 32  14  35  1   
 33  15  18  1   
 34  16  19  1   
 35  16  36  1   
 36  17  37  1   
 37  18  19  2   
 38  18  38  1   
 39  19  39  1   
@<TRIPOS>SUBSTRUCTURE
  1 ****  10 GROUP 4 **** **** 0

# MOE 2024.06 (io_trps.svl 2023.06)
