@<TRIPOS>MOLECULE
NONAME
47 50 1 0 0 
SMALL
USER_CHARGES


@<TRIPOS>ATOM
  1 O       -5.3950    -0.4750     3.6390 O.2   1 <1>  -0.5700 
  2 C       -5.4110    -1.0520     2.5630 C.2   1 <1>   0.6900 
  3 N       -5.1960    -0.5200     1.3500 N.am  1 <1>  -0.3680 
  4 N       -5.6370    -2.3450     2.3620 N.am  1 <1>  -0.4900 
  5 N       -5.2810    -1.4730     0.3700 N.2   1 <1>  -0.5120 
  6 C       -5.5530    -2.5840     0.9950 C.2   1 <1>   0.5100 
  7 C       -5.7500    -3.9360     0.4630 C.2   1 <1>   0.6300 
  8 O       -5.8380    -4.8590     1.2660 O.2   1 <1>  -0.5700 
  9 N       -5.8680    -4.2630    -0.8880 N.am  1 <1>  -0.6600 
 10 C       -6.0380    -5.6880    -1.3220 C.3   1 <1>   0.1400 
 11 C       -6.2250    -3.2660    -1.9390 C.3   1 <1>   0.1400 
 12 C       -7.4940    -6.0420    -1.6900 C.3   1 <1>   0.1400 
 13 C       -7.6810    -2.7980    -1.7790 C.3   1 <1>  -0.1600 
 14 N       -8.4940    -5.0700    -1.1410 N.am  1 <1>  -0.6600 
 15 C       -8.7380    -3.8880    -2.0130 C.3   1 <1>   0.1400 
 16 C       -9.0060    -5.1050     0.1390 C.2   1 <1>   0.5690 
 17 O       -9.7160    -4.2170     0.5500 O.2   1 <1>  -0.5700 
 18 C       -8.6430    -6.2120     1.1180 C.3   1 <1>   0.1570 
 19 N       -9.7590    -7.1430     1.3990 N.pl3 1 <1>   0.0480 
 20 C      -10.5360    -7.8650     0.5110 C.ar  1 <1>  -0.1520 
 21 C      -10.0360    -7.6100     2.6560 C.2   1 <1>  -0.3020 
 22 C      -11.2890    -8.7840     1.2390 C.ar  1 <1>   0.0000 
 23 C      -10.6730    -7.8080    -0.8810 C.ar  1 <1>  -0.1500 
 24 C      -10.9570    -8.5970     2.5940 C.2   1 <1>  -0.1500 
 25 C      -12.1630    -9.6600     0.5860 C.ar  1 <1>  -0.1500 
 26 C      -11.5350    -8.6720    -1.5150 C.ar  1 <1>  -0.1500 
 27 C      -12.2800    -9.6020    -0.7820 C.ar  1 <1>  -0.1500 
 28 H       -4.9900     0.4730     1.2100 H     1 <1>   0.3700 
 29 H       -5.8190    -3.0380     3.0800 H     1 <1>   0.3700 
 30 H       -5.7060    -6.3550    -0.5460 H     1 <1>   0.0800 
 31 H       -5.4030    -5.8770    -2.1700 H     1 <1>   0.0800 
 32 H       -6.0960    -3.7060    -2.9130 H     1 <1>   0.0800 
 33 H       -5.5580    -2.4240    -1.8900 H     1 <1>   0.0800 
 34 H       -7.7170    -7.0390    -1.3520 H     1 <1>   0.0800 
 35 H       -7.5810    -6.0630    -2.7620 H     1 <1>   0.0800 
 36 H       -7.8590    -2.0100    -2.4870 H     1 <1>   0.0800 
 37 H       -7.8270    -2.3720    -0.8030 H     1 <1>   0.0800 
 38 H       -8.7300    -4.1920    -3.0460 H     1 <1>   0.0800 
 39 H       -9.7150    -3.4830    -1.8060 H     1 <1>   0.0800 
 40 H       -8.3580    -5.7430     2.0400 H     1 <1>   0.0800 
 41 H       -7.8030    -6.7800     0.7770 H     1 <1>   0.0800 
 42 H       -9.5530    -7.2110     3.5310 H     1 <1>   0.1500 
 43 H      -10.1230    -7.0900    -1.4550 H     1 <1>   0.1500 
 44 H      -11.3840    -9.1640     3.4030 H     1 <1>   0.1500 
 45 H      -12.7290   -10.3630     1.1680 H     1 <1>   0.1500 
 46 H      -11.6500    -8.6390    -2.5840 H     1 <1>   0.1500 
 47 H      -12.9470   -10.2680    -1.3000 H     1 <1>   0.1500 
@<TRIPOS>BOND
  1   1   2  2   
  2   2   3  am  
  3   2   4  am  
  4   3   5  1   
  5   3  28  1   
  6   4   6  1   
  7   4  29  1   
  8   5   6  2   
  9   6   7  1   
 10   7   8  2   
 11   7   9  am  
 12   9  10  1   
 13   9  11  1   
 14  10  12  1   
 15  10  30  1   
 16  10  31  1   
 17  11  13  1   
 18  11  32  1   
 19  11  33  1   
 20  12  14  1   
 21  12  34  1   
 22  12  35  1   
 23  13  15  1   
 24  13  36  1   
 25  13  37  1   
 26  14  15  1   
 27  14  16  am  
 28  15  38  1   
 29  15  39  1   
 30  16  17  2   
 31  16  18  1   
 32  18  19  1   
 33  18  40  1   
 34  18  41  1   
 35  19  20  1   
 36  19  21  1   
 37  20  22  ar  
 38  20  23  ar  
 39  21  24  2   
 40  21  42  1   
 41  22  24  1   
 42  22  25  ar  
 43  23  26  ar  
 44  23  43  1   
 45  24  44  1   
 46  25  27  ar  
 47  25  45  1   
 48  26  27  ar  
 49  26  46  1   
 50  27  47  1   
@<TRIPOS>SUBSTRUCTURE
  1 ****  16 GROUP 4 **** **** 0

# MOE 2024.06 (io_trps.svl 2023.06)
