@<TRIPOS>MOLECULE
NONAME
50 52 1 0 0 
SMALL
USER_CHARGES


@<TRIPOS>ATOM
  1 O       -1.8350     2.4110     2.0490 O.2   1 <1>  -0.5700 
  2 C       -1.6220     2.0390     0.9050 C.2   1 <1>   0.5440 
  3 N       -0.4070     2.3030     0.3130 N.am  1 <1>  -0.4200 
  4 C       -2.6070     1.3300     0.1380 C.ar  1 <1>   0.0860 
  5 C       -0.1800     1.8930    -0.9780 C.2   1 <1>   0.4500 
  6 C        0.6560     3.0300     1.0510 C.3   1 <1>   0.1400 
  7 C       -2.2630     0.9600    -1.1670 C.ar  1 <1>   0.1790 
  8 C       -3.8760     0.9970     0.6230 C.ar  1 <1>  -0.1500 
  9 N       -1.0250     1.2620    -1.7010 N.2   1 <1>  -0.6290 
 10 C        0.4850     4.5410     0.8590 C.3   1 <1>  -0.1600 
 11 C       -3.1850     0.2730    -1.9490 C.ar  1 <1>  -0.1500 
 12 C       -4.7810     0.3160    -0.1650 C.ar  1 <1>  -0.1500 
 13 C        1.5740     5.3260     1.6100 C.3   1 <1>  -0.0990 
 14 C       -4.4340    -0.0490    -1.4580 C.ar  1 <1>  -0.1500 
 15 C        1.4230     6.8280     1.4540 C.2   1 <1>   0.5690 
 16 O        1.1890     7.4870     2.4350 O.2   1 <1>  -0.5700 
 17 N        1.5910     7.3460     0.1990 N.am  1 <1>  -0.4940 
 18 C        1.6210     8.6490    -0.3400 C.2   1 <1>  -0.0880 
 19 N        1.0730     9.7840     0.1550 N.pl3 1 <1>   0.0480 
 20 C        2.2450     8.9820    -1.5170 C.2   1 <1>   0.1410 
 21 C        1.4260    10.7490    -0.7350 C.2   1 <1>   0.0360 
 22 C        0.2010     9.9520     1.3470 C.3   1 <1>   0.0960 
 23 N        2.1150    10.3260    -1.7370 N.2   1 <1>  -0.5650 
 24 C        2.9390     8.0880    -2.4190 C.2   1 <1>   0.7160 
 25 C       -0.6930    11.2000     1.2810 C.3   1 <1>  -0.1600 
 26 O        2.9740     6.8790    -2.2430 O.2   1 <1>  -0.5700 
 27 N        3.5790     8.5600    -3.5140 N.am  1 <1>  -0.8000 
 28 C       -1.6480    11.2550     2.4790 C.3   1 <1>  -0.2400 
 29 H        0.7850     2.1320    -1.3900 H     1 <1>   0.0600 
 30 H        1.6210     2.7180     0.6890 H     1 <1>   0.0800 
 31 H        0.6010     2.7840     2.0980 H     1 <1>   0.0800 
 32 H       -4.1410     1.2820     1.6270 H     1 <1>   0.1500 
 33 H       -0.4800     4.8370     1.2370 H     1 <1>   0.0800 
 34 H        0.5260     4.7740    -0.1910 H     1 <1>   0.0800 
 35 H       -2.9050    -0.0040    -2.9500 H     1 <1>   0.1500 
 36 H       -5.7550     0.0650     0.2200 H     1 <1>   0.1500 
 37 H        2.5480     5.0430     1.2530 H     1 <1>   0.0800 
 38 H        1.5270     5.0890     2.6580 H     1 <1>   0.0800 
 39 H       -5.1390    -0.5810    -2.0730 H     1 <1>   0.1500 
 40 H        1.9110     6.6480    -0.4860 H     1 <1>   0.3700 
 41 H        1.1420    11.7780    -0.6010 H     1 <1>   0.1500 
 42 H        0.8270     9.9970     2.2210 H     1 <1>   0.0800 
 43 H       -0.4250     9.0810     1.4250 H     1 <1>   0.0800 
 44 H       -1.2730    11.1800     0.3740 H     1 <1>   0.0800 
 45 H       -0.0830    12.0870     1.2880 H     1 <1>   0.0800 
 46 H        4.0350     7.9270    -4.1670 H     1 <1>   0.3700 
 47 H        3.5550     9.5590    -3.7260 H     1 <1>   0.3700 
 48 H       -2.2890    10.3910     2.4900 H     1 <1>   0.0800 
 49 H       -2.2630    12.1360     2.4210 H     1 <1>   0.0800 
 50 H       -1.0940    11.2850     3.4010 H     1 <1>   0.0800 
@<TRIPOS>BOND
  1   1   2  2   
  2   2   3  am  
  3   2   4  1   
  4   3   5  1   
  5   3   6  1   
  6   4   7  ar  
  7   4   8  ar  
  8   5   9  2   
  9   5  29  1   
 10   6  10  1   
 11   6  30  1   
 12   6  31  1   
 13   7   9  1   
 14   7  11  ar  
 15   8  12  ar  
 16   8  32  1   
 17  10  13  1   
 18  10  33  1   
 19  10  34  1   
 20  11  14  ar  
 21  11  35  1   
 22  12  14  ar  
 23  12  36  1   
 24  13  15  1   
 25  13  37  1   
 26  13  38  1   
 27  14  39  1   
 28  15  16  2   
 29  15  17  am  
 30  17  18  1   
 31  17  40  1   
 32  18  19  1   
 33  18  20  2   
 34  19  21  1   
 35  19  22  1   
 36  20  23  1   
 37  20  24  1   
 38  21  23  2   
 39  21  41  1   
 40  22  25  1   
 41  22  42  1   
 42  22  43  1   
 43  24  26  2   
 44  24  27  am  
 45  25  28  1   
 46  25  44  1   
 47  25  45  1   
 48  27  46  1   
 49  27  47  1   
 50  28  48  1   
 51  28  49  1   
 52  28  50  1   
@<TRIPOS>SUBSTRUCTURE
  1 ****  10 GROUP 4 **** **** 0

# MOE 2024.06 (io_trps.svl 2023.06)
