@<TRIPOS>MOLECULE
NONAME
49 51 1 0 0 
SMALL
USER_CHARGES


@<TRIPOS>ATOM
  1 O        0.2880    -0.1090    -0.1420 O.3   1 <1>  -0.5600 
  2 C        1.4840     0.3790    -0.6390 C.3   1 <1>   0.2000 
  3 C       -0.0400    -1.4230    -0.5190 C.3   1 <1>   0.2640 
  4 C        2.6000     0.0040     0.3410 C.3   1 <1>  -0.1600 
  5 C        1.3220     1.8940    -0.7370 C.3   1 <1>  -0.1600 
  6 C       -1.2670    -1.9460     0.2230 C.ar  1 <1>   0.1660 
  7 C        3.8980     0.7350     0.0100 C.3   1 <1>   0.3430 
  8 C        2.6480     2.5780    -1.0490 C.3   1 <1>   0.3430 
  9 N       -1.4420    -3.2600     0.1630 N.ar  1 <1>  -0.6200 
 10 C       -2.1240    -1.0870     0.9010 C.ar  1 <1>  -0.1500 
 11 N        3.6590     2.2070    -0.0130 N.4   1 <1>  -0.9590 
 12 C       -2.5020    -3.7320     0.8010 C.ar  1 <1>   0.1600 
 13 C       -3.2240    -1.5930     1.5600 C.ar  1 <1>  -0.1500 
 14 C        4.9450     2.9440    -0.1780 C.3   1 <1>   0.3430 
 15 C       -3.4080    -2.9570     1.5020 C.ar  1 <1>  -0.1500 
 16 C        4.7680     4.4170     0.1910 C.3   1 <1>  -0.1600 
 17 C        6.1060     5.1660     0.1560 C.3   1 <1>  -0.0170 
 18 C        5.8860     6.6250     0.5180 C.ar  1 <1>  -0.1440 
 19 C        5.9550     7.0490     1.8390 C.ar  1 <1>   0.1600 
 20 C        5.6060     7.5570    -0.4610 C.ar  1 <1>  -0.1500 
 21 N        5.7610     8.2900     2.2500 N.ar  1 <1>  -0.6200 
 22 C        5.4070     8.8580    -0.0510 C.ar  1 <1>  -0.1500 
 23 C        5.4930     9.1660     1.2950 C.ar  1 <1>   0.1600 
 24 H        1.6640    -0.0360    -1.6180 H     1 <1>   0.0800 
 25 H        0.7920    -2.0680    -0.2990 H     1 <1>   0.0800 
 26 H       -0.2340    -1.4400    -1.5770 H     1 <1>   0.0800 
 27 H        2.7820    -1.0550     0.2960 H     1 <1>   0.0800 
 28 H        2.3020     0.2480     1.3450 H     1 <1>   0.0800 
 29 H        0.9320     2.2830     0.1880 H     1 <1>   0.0800 
 30 H        0.6170     2.1230    -1.5160 H     1 <1>   0.0800 
 31 H        4.2620     0.4080    -0.9520 H     1 <1>   0.0800 
 32 H        4.6410     0.4920     0.7530 H     1 <1>   0.0800 
 33 H        2.4980     3.6460    -1.0600 H     1 <1>   0.0800 
 34 H        2.9930     2.2750    -2.0250 H     1 <1>   0.0800 
 35 H       -1.9370    -0.0290     0.9150 H     1 <1>   0.1500 
 36 H        3.2630     2.4630     0.9030 H     1 <1>   0.4500 
 37 H       -2.6570    -4.7970     0.7620 H     1 <1>   0.1500 
 38 H       -3.9040    -0.9530     2.0930 H     1 <1>   0.1500 
 39 H        5.2960     2.8570    -1.1940 H     1 <1>   0.0800 
 40 H        5.6900     2.5140     0.4730 H     1 <1>   0.0800 
 41 H       -4.2450    -3.4170     1.9940 H     1 <1>   0.1500 
 42 H        4.3580     4.4970     1.1830 H     1 <1>   0.0800 
 43 H        4.0970     4.8980    -0.4980 H     1 <1>   0.0800 
 44 H        6.5440     5.1060    -0.8260 H     1 <1>   0.0800 
 45 H        6.8010     4.7260     0.8520 H     1 <1>   0.0800 
 46 H        6.1800     6.3290     2.6070 H     1 <1>   0.1500 
 47 H        5.5460     7.2930    -1.5030 H     1 <1>   0.1500 
 48 H        5.1870     9.6300    -0.7660 H     1 <1>   0.1500 
 49 H        5.3340    10.1860     1.6030 H     1 <1>   0.1500 
@<TRIPOS>BOND
  1   1   2  1   
  2   1   3  1   
  3   2   4  1   
  4   2   5  1   
  5   2  24  1   
  6   3   6  1   
  7   3  25  1   
  8   3  26  1   
  9   4   7  1   
 10   4  27  1   
 11   4  28  1   
 12   5   8  1   
 13   5  29  1   
 14   5  30  1   
 15   6   9  ar  
 16   6  10  ar  
 17   7  11  1   
 18   7  31  1   
 19   7  32  1   
 20   8  11  1   
 21   8  33  1   
 22   8  34  1   
 23   9  12  ar  
 24  10  13  ar  
 25  10  35  1   
 26  11  14  1   
 27  11  36  1   
 28  12  15  ar  
 29  12  37  1   
 30  13  15  ar  
 31  13  38  1   
 32  14  16  1   
 33  14  39  1   
 34  14  40  1   
 35  15  41  1   
 36  16  17  1   
 37  16  42  1   
 38  16  43  1   
 39  17  18  1   
 40  17  44  1   
 41  17  45  1   
 42  18  19  ar  
 43  18  20  ar  
 44  19  21  ar  
 45  19  46  1   
 46  20  22  ar  
 47  20  47  1   
 48  21  23  ar  
 49  22  23  ar  
 50  22  48  1   
 51  23  49  1   
@<TRIPOS>SUBSTRUCTURE
  1 ****  11 GROUP 4 **** **** 0

# MOE 2024.06 (io_trps.svl 2023.06)
