@<TRIPOS>MOLECULE
NONAME
53 57 1 0 0 
SMALL
USER_CHARGES


@<TRIPOS>ATOM
  1 O       -0.3770    -0.4010    -1.5260 O.2   1 <1>  -0.5700 
  2 C       -1.3550     0.3240    -1.4950 C.2   1 <1>   0.5440 
  3 N       -2.5980    -0.2640    -1.3760 N.am  1 <1>  -0.6600 
  4 C       -1.1760     1.7540    -1.6400 C.ar  1 <1>   0.0860 
  5 C       -3.8780     0.4570    -1.2490 C.3   1 <1>   0.1400 
  6 C       -2.7710    -1.6500    -0.8780 C.3   1 <1>   0.1400 
  7 C       -1.5270     2.6730    -0.6440 C.ar  1 <1>   0.0820 
  8 C       -0.6310     2.2590    -2.8230 C.ar  1 <1>  -0.1500 
  9 C       -4.4830    -0.1500     0.0120 C.3   1 <1>  -0.0800 
 10 C       -4.0330    -1.6230     0.0000 C.3   1 <1>  -0.0800 
 11 O       -2.0490     2.2290     0.5280 O.3   1 <1>  -0.3630 
 12 C       -1.3600     4.0450    -0.8530 C.ar  1 <1>   0.0820 
 13 C       -0.4620     3.6160    -3.0280 C.ar  1 <1>  -0.1500 
 14 C       -5.9930     0.1090     0.2150 C.3   1 <1>   0.4240 
 15 C       -5.1480    -2.5590    -0.4970 C.3   1 <1>  -0.1600 
 16 C       -2.7710     3.1560     1.3150 C.3   1 <1>   0.1200 
 17 O       -1.7110     4.9550     0.0930 O.3   1 <1>  -0.3630 
 18 C       -0.8320     4.5130    -2.0410 C.ar  1 <1>  -0.1500 
 19 O       -6.6420     0.0650    -1.0060 O.3   1 <1>  -0.6800 
 20 C       -6.1890     1.5040     0.8470 C.ar  1 <1>  -0.1440 
 21 C       -6.6050    -1.0470     1.0260 C.3   1 <1>  -0.1600 
 22 C       -6.4290    -2.4330     0.3560 C.3   1 <1>  -0.1600 
 23 C       -1.9970     4.4750     1.3930 C.3   1 <1>   0.1200 
 24 C       -6.0000     1.6990     2.2130 C.ar  1 <1>  -0.1500 
 25 C       -6.5170     2.6140     0.0730 C.ar  1 <1>  -0.1500 
 26 C       -6.1430     2.9510     2.7850 C.ar  1 <1>  -0.1500 
 27 C       -6.6580     3.8680     0.6410 C.ar  1 <1>  -0.1500 
 28 C       -6.4720     4.0390     1.9990 C.ar  1 <1>  -0.1500 
 29 H       -3.7670     1.5210    -1.1620 H     1 <1>   0.0800 
 30 H       -4.4730     0.2410    -2.1190 H     1 <1>   0.0800 
 31 H       -2.8820    -2.3180    -1.7140 H     1 <1>   0.0800 
 32 H       -1.9120    -1.9470    -0.3000 H     1 <1>   0.0800 
 33 H       -0.3390     1.5610    -3.5900 H     1 <1>   0.1500 
 34 H       -3.9700     0.3030     0.8420 H     1 <1>   0.0800 
 35 H       -3.7640    -1.9240     0.9980 H     1 <1>   0.0800 
 36 H       -0.0420     3.9760    -3.9520 H     1 <1>   0.1500 
 37 H       -5.3710    -2.3180    -1.5230 H     1 <1>   0.0800 
 38 H       -4.8040    -3.5790    -0.4790 H     1 <1>   0.0800 
 39 H       -3.7330     3.3100     0.8590 H     1 <1>   0.0800 
 40 H       -2.9080     2.7300     2.2920 H     1 <1>   0.0800 
 41 H       -0.7100     5.5710    -2.1870 H     1 <1>   0.1500 
 42 H       -6.6550    -0.8640    -1.2970 H     1 <1>   0.4000 
 43 H       -6.1180    -1.0890     1.9820 H     1 <1>   0.0800 
 44 H       -7.6460    -0.8490     1.2120 H     1 <1>   0.0800 
 45 H       -6.4140    -3.1810     1.1300 H     1 <1>   0.0800 
 46 H       -7.2830    -2.6450    -0.2660 H     1 <1>   0.0800 
 47 H       -1.0630     4.3300     1.9080 H     1 <1>   0.0800 
 48 H       -2.5720     5.2250     1.9050 H     1 <1>   0.0800 
 49 H       -5.7330     0.8790     2.8540 H     1 <1>   0.1500 
 50 H       -6.6660     2.5130    -0.9890 H     1 <1>   0.1500 
 51 H       -5.9990     3.0780     3.8440 H     1 <1>   0.1500 
 52 H       -6.9150     4.7100     0.0210 H     1 <1>   0.1500 
 53 H       -6.5870     5.0130     2.4410 H     1 <1>   0.1500 
@<TRIPOS>BOND
  1   1   2  2   
  2   2   3  am  
  3   2   4  1   
  4   3   5  1   
  5   3   6  1   
  6   4   7  ar  
  7   4   8  ar  
  8   5   9  1   
  9   5  29  1   
 10   5  30  1   
 11   6  10  1   
 12   6  31  1   
 13   6  32  1   
 14   7  11  1   
 15   7  12  ar  
 16   8  13  ar  
 17   8  33  1   
 18   9  10  1   
 19   9  14  1   
 20   9  34  1   
 21  10  15  1   
 22  10  35  1   
 23  11  16  1   
 24  12  17  1   
 25  12  18  ar  
 26  13  18  ar  
 27  13  36  1   
 28  14  19  1   
 29  14  20  1   
 30  14  21  1   
 31  15  22  1   
 32  15  37  1   
 33  15  38  1   
 34  16  23  1   
 35  16  39  1   
 36  16  40  1   
 37  17  23  1   
 38  18  41  1   
 39  19  42  1   
 40  20  24  ar  
 41  20  25  ar  
 42  21  22  1   
 43  21  43  1   
 44  21  44  1   
 45  22  45  1   
 46  22  46  1   
 47  23  47  1   
 48  23  48  1   
 49  24  26  ar  
 50  24  49  1   
 51  25  27  ar  
 52  25  50  1   
 53  26  28  ar  
 54  26  51  1   
 55  27  28  ar  
 56  27  52  1   
 57  28  53  1   
@<TRIPOS>SUBSTRUCTURE
  1 ****   5 GROUP 4 **** **** 0

# MOE 2024.06 (io_trps.svl 2023.06)
