@<TRIPOS>MOLECULE
NONAME
49 51 1 0 0 
SMALL
USER_CHARGES


@<TRIPOS>ATOM
  1 S       -2.4880    -0.2880     1.5060 S.3   1 <1>  -0.0800 
  2 C       -2.0700     0.4270    -0.0360 C.2   1 <1>   0.1980 
  3 C       -0.9070     0.1280     2.1020 C.2   1 <1>  -0.1400 
  4 N       -0.8940     0.9110    -0.0830 N.2   1 <1>  -0.5650 
  5 C       -3.1230     0.3880    -1.1310 C.3   1 <1>   0.3200 
  6 C       -0.2300     0.7470     1.1200 C.2   1 <1>   0.0460 
  7 C       -0.5970    -0.2600     3.5350 C.3   1 <1>  -0.0600 
  8 N       -3.3310    -1.0030    -1.5980 N.am  1 <1>  -0.7300 
  9 C        1.1820     1.2910     1.1750 C.3   1 <1>  -0.0590 
 10 C       -4.5320    -1.6190    -1.7320 C.2   1 <1>   0.5690 
 11 O       -5.5640    -1.0200    -1.5470 O.2   1 <1>  -0.5700 
 12 C       -4.5660    -3.1020    -2.1090 C.3   1 <1>   0.2610 
 13 O       -3.4240    -3.4320    -2.8820 O.3   1 <1>  -0.5600 
 14 C       -4.6460    -3.9580    -0.8170 C.3   1 <1>   0.3640 
 15 C       -3.4060    -4.7700    -3.3160 C.3   1 <1>   0.1810 
 16 N       -4.1120    -5.3520    -0.9860 N.am  1 <1>  -0.6600 
 17 C       -6.0920    -4.0260    -0.3060 C.ar  1 <1>  -0.1430 
 18 C       -3.5340    -5.7600    -2.1580 C.2   1 <1>   0.5690 
 19 C       -4.1890    -6.2380     0.2120 C.3   1 <1>   0.0600 
 20 C       -6.5150    -3.3540     0.8410 C.ar  1 <1>  -0.1430 
 21 C       -7.0110    -4.7920    -1.0160 C.ar  1 <1>  -0.1500 
 22 O       -3.1290    -6.8870    -2.3250 O.2   1 <1>  -0.5700 
 23 C       -7.8380    -3.4580     1.2450 C.ar  1 <1>  -0.1500 
 24 C       -5.5800    -2.4920     1.6790 C.3   1 <1>  -0.0970 
 25 C       -8.3270    -4.8900    -0.6050 C.ar  1 <1>  -0.1500 
 26 C       -8.7420    -4.2200     0.5290 C.ar  1 <1>  -0.1500 
 27 H       -2.7920     0.9920    -1.9570 H     1 <1>   0.0800 
 28 H       -4.0430     0.8000    -0.7560 H     1 <1>   0.0800 
 29 H        0.4000     0.0360     3.8040 H     1 <1>   0.0800 
 30 H       -0.6840    -1.3250     3.6520 H     1 <1>   0.0800 
 31 H       -1.2910     0.2210     4.2010 H     1 <1>   0.0800 
 32 H       -2.4840    -1.5150    -1.8630 H     1 <1>   0.3700 
 33 H        1.6250     1.1240     2.1380 H     1 <1>   0.0800 
 34 H        1.1680     2.3460     0.9760 H     1 <1>   0.0800 
 35 H        1.7830     0.8060     0.4270 H     1 <1>   0.0800 
 36 H       -5.4360    -3.2710    -2.7170 H     1 <1>   0.0800 
 37 H       -4.0240    -3.4800    -0.0840 H     1 <1>   0.0800 
 38 H       -4.2110    -4.9180    -4.0110 H     1 <1>   0.0800 
 39 H       -2.4730    -4.9370    -3.8230 H     1 <1>   0.0800 
 40 H       -3.7990    -5.7250     1.0730 H     1 <1>   0.0800 
 41 H       -3.6170    -7.1370     0.0590 H     1 <1>   0.0800 
 42 H       -5.2130    -6.5120     0.4000 H     1 <1>   0.0800 
 43 H       -6.7040    -5.3260    -1.8970 H     1 <1>   0.1500 
 44 H       -8.1790    -2.9410     2.1250 H     1 <1>   0.1500 
 45 H       -6.0890    -2.0920     2.5380 H     1 <1>   0.0800 
 46 H       -5.2200    -1.6640     1.0960 H     1 <1>   0.0800 
 47 H       -4.7460    -3.0720     2.0300 H     1 <1>   0.0800 
 48 H       -9.0250    -5.4860    -1.1650 H     1 <1>   0.1500 
 49 H       -9.7650    -4.2910     0.8540 H     1 <1>   0.1500 
@<TRIPOS>BOND
  1   1   2  1   
  2   1   3  1   
  3   2   4  2   
  4   2   5  1   
  5   3   6  2   
  6   3   7  1   
  7   4   6  1   
  8   5   8  1   
  9   5  27  1   
 10   5  28  1   
 11   6   9  1   
 12   7  29  1   
 13   7  30  1   
 14   7  31  1   
 15   8  10  am  
 16   8  32  1   
 17   9  33  1   
 18   9  34  1   
 19   9  35  1   
 20  10  11  2   
 21  10  12  1   
 22  12  13  1   
 23  12  14  1   
 24  12  36  1   
 25  13  15  1   
 26  14  16  1   
 27  14  17  1   
 28  14  37  1   
 29  15  18  1   
 30  15  38  1   
 31  15  39  1   
 32  16  18  am  
 33  16  19  1   
 34  17  20  ar  
 35  17  21  ar  
 36  18  22  2   
 37  19  40  1   
 38  19  41  1   
 39  19  42  1   
 40  20  23  ar  
 41  20  24  1   
 42  21  25  ar  
 43  21  43  1   
 44  23  26  ar  
 45  23  44  1   
 46  24  45  1   
 47  24  46  1   
 48  24  47  1   
 49  25  26  ar  
 50  25  48  1   
 51  26  49  1   
@<TRIPOS>SUBSTRUCTURE
  1 ****  14 GROUP 4 **** **** 0

# MOE 2024.06 (io_trps.svl 2023.06)
