@<TRIPOS>MOLECULE
NONAME
47 48 1 0 0 
SMALL
USER_CHARGES


@<TRIPOS>ATOM
  1 S        0.0240     0.6380    -0.8530 S.o2  1 <1>   1.3330 
  2 O       -0.7250    -0.5020    -1.3160 O.2   1 <1>  -0.6500 
  3 O        0.3280     1.7390    -1.7400 O.2   1 <1>  -0.6500 
  4 N        1.4960     0.0830    -0.2140 N.am  1 <1>  -0.8490 
  5 C       -0.7960     1.3470     0.5840 C.3   1 <1>  -0.0550 
  6 C        2.5170    -0.0590    -1.2640 C.3   1 <1>   0.1160 
  7 C        1.3690    -1.2110     0.4770 C.3   1 <1>   0.1160 
  8 C       -0.3490     2.7720     0.9990 C.3   1 <1>  -0.0800 
  9 C       -0.7880     3.8620     0.0030 C.3   1 <1>   0.2000 
 10 C        1.1750     2.9490     1.1560 C.3   1 <1>   0.3430 
 11 O       -1.4870     4.8360     0.7080 O.3   1 <1>  -0.6800 
 12 C        0.5180     4.4750    -0.5160 C.3   1 <1>   0.3430 
 13 N        1.5140     4.2770     0.5790 N.4   1 <1>  -0.9590 
 14 C        1.4300     5.3690     1.5910 C.3   1 <1>   0.4860 
 15 C        1.8780     6.6700     0.9520 C.ar  1 <1>  -0.1440 
 16 C        3.2270     6.9060     0.7190 C.ar  1 <1>  -0.1500 
 17 C        0.9390     7.6310     0.6010 C.ar  1 <1>  -0.1500 
 18 C        3.6610     8.0850     0.1310 C.ar  1 <1>   0.0820 
 19 C        1.3460     8.8170     0.0130 C.ar  1 <1>  -0.1500 
 20 O        5.0090     8.1800    -0.0420 O.3   1 <1>  -0.3630 
 21 C        2.6920     9.0330    -0.2170 C.ar  1 <1>   0.1900 
 22 C        5.6380     9.3390    -0.5430 C.3   1 <1>   0.0400 
 23 F        3.0090    10.1710    -0.7810 F     1 <1>  -0.1900 
 24 H       -1.8510     1.3790     0.3830 H     1 <1>   0.0800 
 25 H       -0.6670     0.6840     1.4170 H     1 <1>   0.0800 
 26 H        3.4440    -0.4070    -0.8410 H     1 <1>   0.0800 
 27 H        2.7000     0.8900    -1.7400 H     1 <1>   0.0800 
 28 H        2.1890    -0.7610    -2.0140 H     1 <1>   0.0800 
 29 H        2.3120    -1.4930     0.9140 H     1 <1>   0.0800 
 30 H        1.0640    -1.9820    -0.2140 H     1 <1>   0.0800 
 31 H        0.6370    -1.1520     1.2640 H     1 <1>   0.0800 
 32 H       -0.7970     2.9690     1.9580 H     1 <1>   0.0800 
 33 H       -1.4080     3.5110    -0.8070 H     1 <1>   0.0800 
 34 H        1.6980     2.1930     0.5990 H     1 <1>   0.0800 
 35 H        1.4750     2.8790     2.1900 H     1 <1>   0.0800 
 36 H       -2.4350     4.5990     0.7960 H     1 <1>   0.4000 
 37 H        0.3900     5.5120    -0.7780 H     1 <1>   0.0800 
 38 H        0.8380     3.9330    -1.3910 H     1 <1>   0.0800 
 39 H        2.4610     4.2880     0.1790 H     1 <1>   0.4500 
 40 H        0.4200     5.4690     1.9540 H     1 <1>   0.0800 
 41 H        2.0710     5.1470     2.4280 H     1 <1>   0.0800 
 42 H        3.9730     6.1810     0.9940 H     1 <1>   0.1500 
 43 H       -0.1120     7.4680     0.7800 H     1 <1>   0.1500 
 44 H        0.6310     9.5710    -0.2640 H     1 <1>   0.1500 
 45 H        6.7010     9.1740    -0.5370 H     1 <1>   0.0800 
 46 H        5.3960    10.1730     0.0920 H     1 <1>   0.0800 
 47 H        5.3040     9.5120    -1.5510 H     1 <1>   0.0800 
@<TRIPOS>BOND
  1   1   2  2   
  2   1   3  2   
  3   1   4  am  
  4   1   5  1   
  5   4   6  1   
  6   4   7  1   
  7   5   8  1   
  8   5  24  1   
  9   5  25  1   
 10   6  26  1   
 11   6  27  1   
 12   6  28  1   
 13   7  29  1   
 14   7  30  1   
 15   7  31  1   
 16   8   9  1   
 17   8  10  1   
 18   8  32  1   
 19   9  11  1   
 20   9  12  1   
 21   9  33  1   
 22  10  13  1   
 23  10  34  1   
 24  10  35  1   
 25  11  36  1   
 26  12  13  1   
 27  12  37  1   
 28  12  38  1   
 29  13  14  1   
 30  13  39  1   
 31  14  15  1   
 32  14  40  1   
 33  14  41  1   
 34  15  16  ar  
 35  15  17  ar  
 36  16  18  ar  
 37  16  42  1   
 38  17  19  ar  
 39  17  43  1   
 40  18  20  1   
 41  18  21  ar  
 42  19  21  ar  
 43  19  44  1   
 44  20  22  1   
 45  21  23  1   
 46  22  45  1   
 47  22  46  1   
 48  22  47  1   
@<TRIPOS>SUBSTRUCTURE
  1 ****  13 GROUP 4 **** **** 0

# MOE 2024.06 (io_trps.svl 2023.06)
