@<TRIPOS>MOLECULE
NONAME
43 46 1 0 0 
SMALL
USER_CHARGES


@<TRIPOS>ATOM
  1 O       -2.9140    -0.1330    -2.8400 O.2   1 <1>  -0.5700 
  2 C       -2.7800    -0.6440    -1.7630 C.2   1 <1>   0.5690 
  3 N       -2.4430     0.0990    -0.6950 N.am  1 <1>  -0.7300 
  4 C       -3.0330    -2.1180    -1.6010 C.3   1 <1>  -0.0190 
  5 C       -2.2650    -0.4040     0.6860 C.3   1 <1>   0.2200 
  6 C       -1.7730    -2.8650    -1.1090 C.3   1 <1>   0.1200 
  7 C       -4.3120    -2.3050    -0.7730 C.3   1 <1>   0.3430 
  8 C       -1.1370    -1.4660     0.7320 C.3   1 <1>   0.1200 
  9 C       -3.6190    -0.9080     1.2610 C.3   1 <1>   0.3430 
 10 O       -1.5510    -2.7270     0.2700 O.3   1 <1>  -0.5600 
 11 N       -4.1020    -2.2280     0.7150 N.4   1 <1>  -0.9590 
 12 C       -5.2410    -2.7860     1.4940 C.3   1 <1>   0.4860 
 13 C       -5.4320    -4.2380     1.1030 C.ar  1 <1>  -0.1440 
 14 C       -6.4440    -4.6140     0.1810 C.ar  1 <1>   0.0000 
 15 C       -4.5890    -5.1750     1.6430 C.ar  1 <1>  -0.1500 
 16 C       -6.5350    -5.9760    -0.1900 C.ar  1 <1>   0.0000 
 17 C       -7.3690    -3.7130    -0.4030 C.ar  1 <1>  -0.1500 
 18 C       -4.6990    -6.5200     1.2840 C.ar  1 <1>  -0.1500 
 19 C       -5.6500    -6.9070     0.3850 C.ar  1 <1>  -0.1500 
 20 C       -7.5090    -6.3730    -1.1280 C.ar  1 <1>  -0.1500 
 21 C       -8.3040    -4.1280    -1.3100 C.ar  1 <1>  -0.1500 
 22 C       -8.3740    -5.4730    -1.6800 C.ar  1 <1>  -0.1500 
 23 H       -2.2310     1.0850    -0.8840 H     1 <1>   0.3700 
 24 H       -3.2460    -2.4880    -2.5880 H     1 <1>   0.0800 
 25 H       -1.9460     0.4330     1.2830 H     1 <1>   0.0800 
 26 H       -0.8960    -2.5280    -1.6380 H     1 <1>   0.0800 
 27 H       -1.8880    -3.9190    -1.2990 H     1 <1>   0.0800 
 28 H       -4.7040    -3.2790    -1.0190 H     1 <1>   0.0800 
 29 H       -5.0450    -1.5760    -1.0810 H     1 <1>   0.0800 
 30 H       -0.8220    -1.6020     1.7520 H     1 <1>   0.0800 
 31 H       -0.2800    -1.1450     0.1630 H     1 <1>   0.0800 
 32 H       -4.3660    -0.1490     1.0920 H     1 <1>   0.0800 
 33 H       -3.4970    -1.0080     2.3270 H     1 <1>   0.0800 
 34 H       -3.3010    -2.8760     0.8610 H     1 <1>   0.4500 
 35 H       -5.0170    -2.7410     2.5480 H     1 <1>   0.0800 
 36 H       -6.1370    -2.2160     1.3200 H     1 <1>   0.0800 
 37 H       -3.8210    -4.9120     2.3510 H     1 <1>   0.1500 
 38 H       -7.3590    -2.6740    -0.1390 H     1 <1>   0.1500 
 39 H       -4.0290    -7.2420     1.7220 H     1 <1>   0.1500 
 40 H       -5.7380    -7.9410     0.1010 H     1 <1>   0.1500 
 41 H       -7.5610    -7.4120    -1.4050 H     1 <1>   0.1500 
 42 H       -9.0030    -3.4350    -1.7490 H     1 <1>   0.1500 
 43 H       -9.1160    -5.7840    -2.3960 H     1 <1>   0.1500 
@<TRIPOS>BOND
  1   1   2  2   
  2   2   3  am  
  3   2   4  1   
  4   3   5  1   
  5   3  23  1   
  6   4   6  1   
  7   4   7  1   
  8   4  24  1   
  9   5   8  1   
 10   5   9  1   
 11   5  25  1   
 12   6  10  1   
 13   6  26  1   
 14   6  27  1   
 15   7  11  1   
 16   7  28  1   
 17   7  29  1   
 18   8  10  1   
 19   8  30  1   
 20   8  31  1   
 21   9  11  1   
 22   9  32  1   
 23   9  33  1   
 24  11  12  1   
 25  11  34  1   
 26  12  13  1   
 27  12  35  1   
 28  12  36  1   
 29  13  14  ar  
 30  13  15  ar  
 31  14  16  ar  
 32  14  17  ar  
 33  15  18  ar  
 34  15  37  1   
 35  16  19  ar  
 36  16  20  ar  
 37  17  21  ar  
 38  17  38  1   
 39  18  19  ar  
 40  18  39  1   
 41  19  40  1   
 42  20  22  ar  
 43  20  41  1   
 44  21  22  ar  
 45  21  42  1   
 46  22  43  1   
@<TRIPOS>SUBSTRUCTURE
  1 ****   7 GROUP 4 **** **** 0

# MOE 2024.06 (io_trps.svl 2023.06)
