@<TRIPOS>MOLECULE
NONAME
45 47 1 0 0 
SMALL
USER_CHARGES


@<TRIPOS>ATOM
  1 O        1.7930    -1.3460    -2.6070 O.2   1 <1>  -0.5700 
  2 C        1.9400    -1.4870    -1.4170 C.2   1 <1>   0.5690 
  3 N        1.9840    -0.4180    -0.5600 N.am  1 <1>  -0.6600 
  4 C        2.0740    -2.9150    -0.9090 C.3   1 <1>  -0.0990 
  5 C        1.9520     0.9730    -1.0970 C.3   1 <1>   0.3210 
  6 C        2.1040    -0.5060     0.9260 C.3   1 <1>   0.0600 
  7 C        0.7140    -3.5090    -0.5060 C.3   1 <1>  -0.1600 
  8 C        3.1560     1.7510    -0.5950 C.2   1 <1>  -0.1810 
  9 C        0.8460    -4.9580    -0.0150 C.3   1 <1>   0.0200 
 10 C        3.2420     2.8090     0.2430 C.2   1 <1>  -0.3320 
 11 C        4.4710     1.4670    -0.9470 C.2   1 <1>   0.1390 
 12 C       -0.4960    -5.5260     0.4050 C.2   1 <1>   0.2980 
 13 N        4.5570     3.1020     0.3520 N.pl3 1 <1>   0.3000 
 14 C        2.1570     3.5870     0.9690 C.3   1 <1>  -0.0600 
 15 N        5.3180     2.2710    -0.3820 N.2   1 <1>  -0.7070 
 16 O       -1.0820    -5.0380     1.4670 O.3   1 <1>  -0.0190 
 17 N       -1.1250    -6.4540    -0.1870 N.2   1 <1>  -0.5650 
 18 N       -2.1830    -5.7130     1.5590 N.2   1 <1>  -0.4100 
 19 C       -2.2140    -6.5500     0.5830 C.2   1 <1>   0.4620 
 20 C       -3.2780    -7.4980     0.3150 C.ar  1 <1>   0.0540 
 21 C       -4.3970    -7.6140     1.1300 C.ar  1 <1>  -0.1500 
 22 C       -3.2660    -8.3610    -0.7730 C.ar  1 <1>  -0.1500 
 23 C       -5.3880    -8.5310     0.8360 C.ar  1 <1>   0.1600 
 24 C       -4.3080    -9.2450    -0.9810 C.ar  1 <1>   0.1600 
 25 N       -5.3710    -9.3520    -0.2010 N.ar  1 <1>  -0.6200 
 26 H        2.7660    -2.9460    -0.0880 H     1 <1>   0.0800 
 27 H        2.4970    -3.5060    -1.7020 H     1 <1>   0.0800 
 28 H        1.0430     1.4500    -0.7790 H     1 <1>   0.0800 
 29 H        1.9620     0.9730    -2.1730 H     1 <1>   0.0800 
 30 H        1.7630    -1.4550     1.2930 H     1 <1>   0.0800 
 31 H        1.5110     0.2650     1.3860 H     1 <1>   0.0800 
 32 H        3.1330    -0.3660     1.2120 H     1 <1>   0.0800 
 33 H        0.0540    -3.4850    -1.3580 H     1 <1>   0.0800 
 34 H        0.2690    -2.9050     0.2660 H     1 <1>   0.0800 
 35 H        1.5160    -5.0050     0.8250 H     1 <1>   0.0800 
 36 H        1.2500    -5.5700    -0.8020 H     1 <1>   0.0800 
 37 H        4.7600     0.6700    -1.6120 H     1 <1>   0.1500 
 38 H        4.9650     3.8590     0.9130 H     1 <1>   0.2700 
 39 H        1.1860     3.1800     0.7510 H     1 <1>   0.0800 
 40 H        2.1710     4.6170     0.6600 H     1 <1>   0.0800 
 41 H        2.3150     3.5390     2.0310 H     1 <1>   0.0800 
 42 H       -4.4970    -6.9870     1.9970 H     1 <1>   0.1500 
 43 H       -2.4400    -8.3440    -1.4610 H     1 <1>   0.1500 
 44 H       -6.2420    -8.5960     1.4890 H     1 <1>   0.1500 
 45 H       -4.2660    -9.9010    -1.8340 H     1 <1>   0.1500 
@<TRIPOS>BOND
  1   1   2  2   
  2   2   3  am  
  3   2   4  1   
  4   3   5  1   
  5   3   6  1   
  6   4   7  1   
  7   4  26  1   
  8   4  27  1   
  9   5   8  1   
 10   5  28  1   
 11   5  29  1   
 12   6  30  1   
 13   6  31  1   
 14   6  32  1   
 15   7   9  1   
 16   7  33  1   
 17   7  34  1   
 18   8  10  2   
 19   8  11  1   
 20   9  12  1   
 21   9  35  1   
 22   9  36  1   
 23  10  13  1   
 24  10  14  1   
 25  11  15  2   
 26  11  37  1   
 27  12  16  1   
 28  12  17  2   
 29  13  15  1   
 30  13  38  1   
 31  14  39  1   
 32  14  40  1   
 33  14  41  1   
 34  16  18  1   
 35  17  19  1   
 36  18  19  2   
 37  19  20  1   
 38  20  21  ar  
 39  20  22  ar  
 40  21  23  ar  
 41  21  42  1   
 42  22  24  ar  
 43  22  43  1   
 44  23  25  ar  
 45  23  44  1   
 46  24  25  ar  
 47  24  45  1   
@<TRIPOS>SUBSTRUCTURE
  1 ****   7 GROUP 4 **** **** 0

# MOE 2024.06 (io_trps.svl 2023.06)
