@<TRIPOS>MOLECULE
NONAME
31 33 1 0 0 
SMALL
USER_CHARGES


@<TRIPOS>ATOM
  1 CL      -2.0610    -0.0340     2.2080 Cl    1 <1>  -0.1770 
  2 C       -2.5720     0.6550     0.6880 C.ar  1 <1>   0.1770 
  3 C       -2.9610    -0.1730    -0.3620 C.ar  1 <1>   0.0860 
  4 C       -2.5690     2.0360     0.5780 C.ar  1 <1>  -0.1500 
  5 C       -3.3400     0.4730    -1.5350 C.ar  1 <1>   0.1900 
  6 C       -2.9740    -1.6060    -0.2400 C.2   1 <1>   0.5440 
  7 C       -2.9580     2.6400    -0.6070 C.ar  1 <1>  -0.1500 
  8 F       -3.7150    -0.2360    -2.5640 F     1 <1>  -0.1900 
  9 C       -3.3470     1.8500    -1.6750 C.ar  1 <1>  -0.1500 
 10 O       -2.0160    -2.2450    -0.6360 O.2   1 <1>  -0.5700 
 11 N       -4.0430    -2.2500     0.3220 N.am  1 <1>  -0.6600 
 12 C       -5.3120    -1.5970     0.7510 C.3   1 <1>   0.2350 
 13 C       -4.2020    -3.7310     0.3600 C.3   1 <1>   0.2350 
 14 C       -6.3920    -2.6420     0.5450 C.3   1 <1>  -0.2420 
 15 C       -5.7040    -3.9680     0.3190 C.3   1 <1>  -0.2420 
 16 C       -7.6650    -2.2430     1.2970 C.2   1 <1>   0.9470 
 17 C       -6.5330    -3.3520    -0.7790 C.3   1 <1>  -0.2000 
 18 C       -6.0490    -5.3730     0.8180 C.2   1 <1>   0.9470 
 19 O       -8.7370    -2.1490     0.6840 O.co2 1 <1>  -0.9000 
 20 O       -7.5660    -1.8410     2.4650 O.co2 1 <1>  -0.9000 
 21 O       -6.6160    -6.1690     0.0560 O.co2 1 <1>  -0.9000 
 22 O       -5.6210    -5.7410     1.9210 O.co2 1 <1>  -0.9000 
 23 H       -2.2630     2.6330     1.4200 H     1 <1>   0.1500 
 24 H       -2.9590     3.7130    -0.6960 H     1 <1>   0.1500 
 25 H       -3.6530     2.2920    -2.6080 H     1 <1>   0.1500 
 26 H       -5.2400    -1.3400     1.7950 H     1 <1>   0.0800 
 27 H       -5.5300    -0.7190     0.1720 H     1 <1>   0.0800 
 28 H       -3.7150    -4.1990    -0.4770 H     1 <1>   0.0800 
 29 H       -3.7890    -4.1090     1.2800 H     1 <1>   0.0800 
 30 H       -6.0470    -2.9550    -1.6500 H     1 <1>   0.1000 
 31 H       -7.4800    -3.8130    -1.0060 H     1 <1>   0.1000 
@<TRIPOS>BOND
  1   1   2  1   
  2   2   3  ar  
  3   2   4  ar  
  4   3   5  ar  
  5   3   6  1   
  6   4   7  ar  
  7   4  23  1   
  8   5   8  1   
  9   5   9  ar  
 10   6  10  2   
 11   6  11  am  
 12   7   9  ar  
 13   7  24  1   
 14   9  25  1   
 15  11  12  1   
 16  11  13  1   
 17  12  14  1   
 18  12  26  1   
 19  12  27  1   
 20  13  15  1   
 21  13  28  1   
 22  13  29  1   
 23  14  15  1   
 24  14  16  1   
 25  14  17  1   
 26  15  17  1   
 27  15  18  1   
 28  16  19  ar  
 29  16  20  ar  
 30  17  30  1   
 31  17  31  1   
 32  18  21  ar  
 33  18  22  ar  
@<TRIPOS>SUBSTRUCTURE
  1 ****  11 GROUP 4 **** **** 0

# MOE 2024.06 (io_trps.svl 2023.06)
