@<TRIPOS>MOLECULE
NONAME
43 45 1 0 0 
SMALL
USER_CHARGES


@<TRIPOS>ATOM
  1 S        0.9520     0.2600    -1.9920 S.3   1 <1>  -0.4600 
  2 C        1.4790    -0.0670    -0.3030 C.3   1 <1>   0.0700 
  3 C        1.0420     2.0560    -2.0750 C.3   1 <1>   0.0700 
  4 C        2.8800     0.5250    -0.1270 C.3   1 <1>  -0.1600 
  5 C        2.4810     2.4600    -1.7500 C.3   1 <1>  -0.1600 
  6 C        2.9260     2.0540    -0.3300 C.3   1 <1>   0.4230 
  7 N        4.3060     2.5880    -0.1040 N.4   1 <1>  -0.9590 
  8 C        5.0660     2.0160     1.0680 C.3   1 <1>   0.3430 
  9 C        4.3200     4.0890     0.0250 C.3   1 <1>   0.3430 
 10 C        6.5030     2.5710     1.1570 C.3   1 <1>   0.1100 
 11 C        5.7510     4.6190     0.1100 C.3   1 <1>   0.1100 
 12 N        6.5240     4.0410     1.2330 N.3   1 <1>  -0.8100 
 13 C        7.9360     4.5120     1.1860 C.3   1 <1>   0.2910 
 14 C        8.0720     6.0300     1.1440 C.2   1 <1>  -0.1810 
 15 C        8.0590     6.8250    -0.0210 C.2   1 <1>   0.0560 
 16 C        8.2460     6.8820     2.1740 C.2   1 <1>  -0.3020 
 17 N        8.2210     8.1000     0.3120 N.2   1 <1>  -0.7070 
 18 C        7.8440     6.2440    -1.3580 C.2   1 <1>   1.0330 
 19 N        8.3320     8.1140     1.6450 N.pl3 1 <1>   0.3000 
 20 O        8.5480     5.2930    -1.7630 O.co2 1 <1>  -0.9000 
 21 O        6.8210     6.5080    -2.0290 O.co2 1 <1>  -0.9000 
 22 H        1.4790    -1.1370    -0.1760 H     1 <1>   0.0800 
 23 H        0.7560     0.3800     0.3570 H     1 <1>   0.0800 
 24 H        0.3300     2.4540    -1.3730 H     1 <1>   0.0800 
 25 H        0.7660     2.3380    -3.0770 H     1 <1>   0.0800 
 26 H        3.5470     0.0400    -0.8190 H     1 <1>   0.0800 
 27 H        3.1760     0.2720     0.8730 H     1 <1>   0.0800 
 28 H        2.5300     3.5250    -1.8740 H     1 <1>   0.0800 
 29 H        3.1320     2.0120    -2.4800 H     1 <1>   0.0800 
 30 H        2.2570     2.5070     0.3850 H     1 <1>   0.0800 
 31 H        4.8650     2.3840    -0.9440 H     1 <1>   0.4500 
 32 H        5.1280     0.9450     0.9800 H     1 <1>   0.0800 
 33 H        4.5510     2.2490     1.9850 H     1 <1>   0.0800 
 34 H        3.7860     4.3950     0.9090 H     1 <1>   0.0800 
 35 H        3.8530     4.5510    -0.8280 H     1 <1>   0.0800 
 36 H        7.0610     2.2410     0.2960 H     1 <1>   0.0800 
 37 H        6.9790     2.1680     2.0350 H     1 <1>   0.0800 
 38 H        5.6930     5.6880     0.2180 H     1 <1>   0.0800 
 39 H        6.2390     4.3940    -0.8220 H     1 <1>   0.0800 
 40 H        8.4410     4.0900     0.3330 H     1 <1>   0.0800 
 41 H        8.4460     4.1580     2.0650 H     1 <1>   0.0800 
 42 H        8.3120     6.6850     3.2270 H     1 <1>   0.1500 
 43 H        8.4660     8.9870     2.1670 H     1 <1>   0.2700 
@<TRIPOS>BOND
  1   1   2  1   
  2   1   3  1   
  3   2   4  1   
  4   2  22  1   
  5   2  23  1   
  6   3   5  1   
  7   3  24  1   
  8   3  25  1   
  9   4   6  1   
 10   4  26  1   
 11   4  27  1   
 12   5   6  1   
 13   5  28  1   
 14   5  29  1   
 15   6   7  1   
 16   6  30  1   
 17   7   8  1   
 18   7   9  1   
 19   7  31  1   
 20   8  10  1   
 21   8  32  1   
 22   8  33  1   
 23   9  11  1   
 24   9  34  1   
 25   9  35  1   
 26  10  12  1   
 27  10  36  1   
 28  10  37  1   
 29  11  12  1   
 30  11  38  1   
 31  11  39  1   
 32  12  13  1   
 33  13  14  1   
 34  13  40  1   
 35  13  41  1   
 36  14  15  1   
 37  14  16  2   
 38  15  17  2   
 39  15  18  1   
 40  16  19  1   
 41  16  42  1   
 42  17  19  1   
 43  18  20  ar  
 44  18  21  ar  
 45  19  43  1   
@<TRIPOS>SUBSTRUCTURE
  1 ****  11 GROUP 4 **** **** 0

# MOE 2024.06 (io_trps.svl 2023.06)
