@<TRIPOS>MOLECULE
NONAME
53 56 1 0 0 
SMALL
USER_CHARGES


@<TRIPOS>ATOM
  1 O       -1.2560     0.5610    -1.5480 O.2   1 <1>  -0.5700 
  2 C       -1.6790     1.7020    -1.5400 C.2   1 <1>   0.5440 
  3 N       -2.9650     1.9310    -1.9930 N.am  1 <1>  -0.6600 
  4 C       -0.8300     2.7660    -1.0420 C.ar  1 <1>   0.0860 
  5 C       -3.7200     0.8470    -2.6850 C.3   1 <1>   0.1400 
  6 C       -3.7450     3.1500    -1.6610 C.3   1 <1>   0.1400 
  7 C       -0.5450     3.8980    -1.8050 C.ar  1 <1>  -0.1500 
  8 C       -0.2590     2.6970     0.2270 C.ar  1 <1>  -0.1500 
  9 C       -4.4280    -0.0600    -1.6710 C.3   1 <1>   0.1400 
 10 C       -4.8290     2.8440    -0.6250 C.3   1 <1>  -0.1600 
 11 C        0.2500     4.9140    -1.3130 C.ar  1 <1>  -0.1500 
 12 C        0.5380     3.7140     0.7170 C.ar  1 <1>  -0.1500 
 13 N       -5.6740     0.5070    -1.0480 N.am  1 <1>  -0.6600 
 14 C       -5.9650     1.9690    -1.1650 C.3   1 <1>   0.1400 
 15 C        0.8130     4.8530    -0.0390 C.ar  1 <1>   0.0540 
 16 C       -6.6640    -0.3480    -0.6020 C.2   1 <1>   0.7160 
 17 C        1.6440     5.9300     0.4600 C.2   1 <1>   0.2350 
 18 O       -7.8210     0.0330    -0.6050 O.2   1 <1>  -0.5700 
 19 C       -6.3690    -1.6890    -0.1580 C.2   1 <1>  -0.0860 
 20 N        1.5900     7.1640     0.0160 N.2   1 <1>  -0.7070 
 21 C        2.6090     5.8190     1.4690 C.2   1 <1>  -0.1500 
 22 C       -5.2650    -2.1050     0.5910 C.2   1 <1>   0.1390 
 23 C       -7.0730    -2.8420    -0.3270 C.2   1 <1>  -0.3020 
 24 N        2.5020     7.8430     0.7290 N.pl3 1 <1>   0.3000 
 25 C        3.1330     7.0510     1.6150 C.2   1 <1>  -0.3020 
 26 N       -5.2710    -3.3760     0.8420 N.2   1 <1>  -0.7070 
 27 N       -6.4000    -3.8330     0.2750 N.pl3 1 <1>   0.3140 
 28 C       -6.7900    -5.2550     0.3470 C.3   1 <1>   0.0960 
 29 C       -7.8170    -5.4900     1.4620 C.3   1 <1>  -0.2400 
 30 H       -3.0220     0.2480    -3.2450 H     1 <1>   0.0800 
 31 H       -4.4240     1.2570    -3.3870 H     1 <1>   0.0800 
 32 H       -4.1900     3.5430    -2.5600 H     1 <1>   0.0800 
 33 H       -3.1020     3.9120    -1.2600 H     1 <1>   0.0800 
 34 H       -0.9550     3.9740    -2.7970 H     1 <1>   0.1500 
 35 H       -0.4510     1.8250     0.8290 H     1 <1>   0.1500 
 36 H       -3.7250    -0.3130    -0.8970 H     1 <1>   0.0800 
 37 H       -4.6890    -0.9730    -2.1780 H     1 <1>   0.0800 
 38 H       -5.2600     3.7850    -0.3350 H     1 <1>   0.0800 
 39 H       -4.3990     2.4060     0.2580 H     1 <1>   0.0800 
 40 H        0.4490     5.7800    -1.9220 H     1 <1>   0.1500 
 41 H        0.9490     3.6240     1.7060 H     1 <1>   0.1500 
 42 H       -6.1830     2.2150    -2.1900 H     1 <1>   0.0800 
 43 H       -6.8470     2.1980    -0.5900 H     1 <1>   0.0800 
 44 H        2.8660     4.9200     1.9990 H     1 <1>   0.1500 
 45 H       -4.4880    -1.4430     0.9320 H     1 <1>   0.1500 
 46 H       -8.0080    -2.9810    -0.8370 H     1 <1>   0.1500 
 47 H        2.6730     8.8470     0.5890 H     1 <1>   0.2700 
 48 H        3.9010     7.4040     2.2800 H     1 <1>   0.1500 
 49 H       -5.9050    -5.8360     0.5340 H     1 <1>   0.0800 
 50 H       -7.1970    -5.5450    -0.6040 H     1 <1>   0.0800 
 51 H       -7.4010    -5.2000     2.4110 H     1 <1>   0.0800 
 52 H       -8.0760    -6.5320     1.5060 H     1 <1>   0.0800 
 53 H       -8.7110    -4.9210     1.2760 H     1 <1>   0.0800 
@<TRIPOS>BOND
  1   1   2  2   
  2   2   3  am  
  3   2   4  1   
  4   3   5  1   
  5   3   6  1   
  6   4   7  ar  
  7   4   8  ar  
  8   5   9  1   
  9   5  30  1   
 10   5  31  1   
 11   6  10  1   
 12   6  32  1   
 13   6  33  1   
 14   7  11  ar  
 15   7  34  1   
 16   8  12  ar  
 17   8  35  1   
 18   9  13  1   
 19   9  36  1   
 20   9  37  1   
 21  10  14  1   
 22  10  38  1   
 23  10  39  1   
 24  11  15  ar  
 25  11  40  1   
 26  12  15  ar  
 27  12  41  1   
 28  13  14  1   
 29  13  16  am  
 30  14  42  1   
 31  14  43  1   
 32  15  17  1   
 33  16  18  2   
 34  16  19  1   
 35  17  20  2   
 36  17  21  1   
 37  19  22  1   
 38  19  23  2   
 39  20  24  1   
 40  21  25  2   
 41  21  44  1   
 42  22  26  2   
 43  22  45  1   
 44  23  27  1   
 45  23  46  1   
 46  24  25  1   
 47  24  47  1   
 48  25  48  1   
 49  26  27  1   
 50  27  28  1   
 51  28  29  1   
 52  28  49  1   
 53  28  50  1   
 54  29  51  1   
 55  29  52  1   
 56  29  53  1   
@<TRIPOS>SUBSTRUCTURE
  1 ****   2 GROUP 4 **** **** 0

# MOE 2024.06 (io_trps.svl 2023.06)
