@<TRIPOS>MOLECULE
NONAME
46 47 1 0 0 
SMALL
USER_CHARGES


@<TRIPOS>ATOM
  1 F       -0.2190     0.7590     0.3710 F     1 <1>  -0.1900 
  2 C       -1.5030     0.9820     0.2560 C.ar  1 <1>   0.1900 
  3 C       -2.0110     1.9830    -0.5800 C.ar  1 <1>   0.0830 
  4 C       -2.3370     0.1760     1.0080 C.ar  1 <1>  -0.1500 
  5 O       -1.2950     2.8380    -1.3670 O.3   1 <1>  -0.3630 
  6 C       -3.3860     2.1420    -0.6300 C.ar  1 <1>  -0.1500 
  7 C       -3.7050     0.3630     0.9350 C.ar  1 <1>  -0.1500 
  8 C        0.1110     2.7920    -1.4720 C.3   1 <1>   0.0400 
  9 C       -4.2600     1.3450     0.1120 C.ar  1 <1>   0.0530 
 10 C       -5.6840     1.5550     0.0340 C.2   1 <1>   0.0870 
 11 O       -6.1470     2.7790     0.0010 O.3   1 <1>  -0.0190 
 12 C       -6.7610     0.7220    -0.0060 C.2   1 <1>  -0.0860 
 13 N       -7.4490     2.8330    -0.0470 N.2   1 <1>  -0.4100 
 14 C       -7.8460     1.6100    -0.0510 C.2   1 <1>   0.3720 
 15 C       -6.8400    -0.7090    -0.0180 C.2   1 <1>   0.7160 
 16 N       -9.2030     1.2510    -0.1180 N.pl3 1 <1>  -0.8210 
 17 O       -5.8540    -1.3900    -0.2320 O.2   1 <1>  -0.5700 
 18 N       -8.0380    -1.3160     0.2100 N.am  1 <1>  -0.7300 
 19 C      -10.0970     2.0940     0.7280 C.3   1 <1>   0.1290 
 20 C       -9.6990     1.1710    -1.5190 C.3   1 <1>   0.1290 
 21 C       -8.4220    -2.7250     0.1990 C.3   1 <1>   0.3000 
 22 C       -8.1700    -3.3170    -1.1870 C.3   1 <1>  -0.2400 
 23 C       -7.6490    -3.4810     1.2800 C.3   1 <1>  -0.2400 
 24 C       -9.9160    -2.7660     0.5120 C.3   1 <1>  -0.2400 
 25 H       -1.9190    -0.5860     1.6400 H     1 <1>   0.1500 
 26 H       -3.7890     2.9080    -1.2680 H     1 <1>   0.1500 
 27 H       -4.3530    -0.2630     1.5220 H     1 <1>   0.1500 
 28 H        0.4190     3.5510    -2.1680 H     1 <1>   0.0800 
 29 H        0.4040     1.8230    -1.8360 H     1 <1>   0.0800 
 30 H        0.5410     2.9880    -0.5060 H     1 <1>   0.0800 
 31 H       -8.8240    -0.6570     0.2830 H     1 <1>   0.3700 
 32 H       -9.6740     2.2000     1.7120 H     1 <1>   0.0800 
 33 H      -11.0650     1.6320     0.8150 H     1 <1>   0.0800 
 34 H      -10.2070     3.0730     0.2930 H     1 <1>   0.0800 
 35 H       -9.0610     0.5240    -2.0970 H     1 <1>   0.0800 
 36 H       -9.6970     2.1500    -1.9680 H     1 <1>   0.0800 
 37 H      -10.6990     0.7740    -1.5350 H     1 <1>   0.0800 
 38 H       -7.1180    -3.3190    -1.4130 H     1 <1>   0.0800 
 39 H       -8.6880    -2.7510    -1.9390 H     1 <1>   0.0800 
 40 H       -8.5170    -4.3330    -1.2250 H     1 <1>   0.0800 
 41 H       -6.5970    -3.4910     1.0590 H     1 <1>   0.0800 
 42 H       -7.9850    -4.5000     1.3310 H     1 <1>   0.0800 
 43 H       -7.8000    -3.0220     2.2400 H     1 <1>   0.0800 
 44 H      -10.4730    -2.2260    -0.2330 H     1 <1>   0.0800 
 45 H      -10.1100    -2.3370     1.4780 H     1 <1>   0.0800 
 46 H      -10.2640    -3.7830     0.5200 H     1 <1>   0.0800 
@<TRIPOS>BOND
  1   1   2  1   
  2   2   3  ar  
  3   2   4  ar  
  4   3   5  1   
  5   3   6  ar  
  6   4   7  ar  
  7   4  25  1   
  8   5   8  1   
  9   6   9  ar  
 10   6  26  1   
 11   7   9  ar  
 12   7  27  1   
 13   8  28  1   
 14   8  29  1   
 15   8  30  1   
 16   9  10  1   
 17  10  11  1   
 18  10  12  2   
 19  11  13  1   
 20  12  14  1   
 21  12  15  1   
 22  13  14  2   
 23  14  16  1   
 24  15  17  2   
 25  15  18  am  
 26  16  19  1   
 27  16  20  1   
 28  18  21  1   
 29  18  31  1   
 30  19  32  1   
 31  19  33  1   
 32  19  34  1   
 33  20  35  1   
 34  20  36  1   
 35  20  37  1   
 36  21  22  1   
 37  21  23  1   
 38  21  24  1   
 39  22  38  1   
 40  22  39  1   
 41  22  40  1   
 42  23  41  1   
 43  23  42  1   
 44  23  43  1   
 45  24  44  1   
 46  24  45  1   
 47  24  46  1   
@<TRIPOS>SUBSTRUCTURE
  1 ****  10 GROUP 4 **** **** 0

# MOE 2024.06 (io_trps.svl 2023.06)
