@<TRIPOS>MOLECULE
NONAME
51 54 1 0 0 
SMALL
USER_CHARGES


@<TRIPOS>ATOM
  1 O       -0.6530     4.5580     2.1210 O.2   1 <1>  -0.5700 
  2 C       -0.3400     4.0040     1.0810 C.2   1 <1>   0.5440 
  3 N       -1.3440     3.4990     0.2780 N.am  1 <1>  -0.6600 
  4 C        1.0600     3.9600     0.7080 C.ar  1 <1>   0.0860 
  5 C       -2.7460     3.3340     0.7670 C.3   1 <1>   0.1400 
  6 C       -1.1590     3.1060    -1.1430 C.3   1 <1>   0.1400 
  7 C        1.7380     2.7620     0.4380 C.ar  1 <1>   0.0830 
  8 C        1.7810     5.1520     0.6190 C.ar  1 <1>  -0.1500 
  9 C       -3.7080     4.2100    -0.0560 C.3   1 <1>   0.1440 
 10 C       -2.0840     3.9470    -2.0310 C.3   1 <1>  -0.1600 
 11 O        1.0420     1.6040     0.5420 O.3   1 <1>  -0.3630 
 12 C        3.0840     2.7830     0.0770 C.ar  1 <1>  -0.1500 
 13 C        3.1150     5.1690     0.2620 C.ar  1 <1>  -0.1500 
 14 C       -5.1450     3.9750     0.3720 C.ar  1 <1>   0.1670 
 15 C       -3.5520     3.8920    -1.5620 C.3   1 <1>  -0.1600 
 16 C       -3.5090     5.7210     0.2450 C.3   1 <1>  -0.1600 
 17 C        1.6320     0.3340     0.4050 C.3   1 <1>   0.1200 
 18 C        3.7680     3.9810    -0.0120 C.ar  1 <1>  -0.1500 
 19 N       -5.7220     2.7990     0.4930 N.ar  1 <1>  -0.6200 
 20 C       -5.7960     5.1460     0.6190 C.ar  1 <1>  -0.1430 
 21 C       -4.9090     6.3440     0.3930 C.3   1 <1>  -0.0170 
 22 C        0.5440    -0.7110     0.6310 C.3   1 <1>  -0.2400 
 23 C       -6.9880     2.8480     0.8810 C.ar  1 <1>   0.4770 
 24 C       -7.1090     5.0790     1.0160 C.ar  1 <1>   0.1600 
 25 N       -7.7210     3.9200     1.1520 N.ar  1 <1>  -0.6200 
 26 C       -7.6760     1.5130     1.0360 C.3   1 <1>  -0.0970 
 27 H       -2.8230     3.5860     1.8110 H     1 <1>   0.0800 
 28 H       -3.0270     2.3010     0.6640 H     1 <1>   0.0800 
 29 H       -1.3960     2.0600    -1.2470 H     1 <1>   0.0800 
 30 H       -0.1400     3.2490    -1.4540 H     1 <1>   0.0800 
 31 H        1.2750     6.0760     0.8420 H     1 <1>   0.1500 
 32 H       -2.0190     3.5900    -3.0430 H     1 <1>   0.0800 
 33 H       -1.7310     4.9630    -2.0260 H     1 <1>   0.0800 
 34 H        3.6190     1.8780    -0.1380 H     1 <1>   0.1500 
 35 H        3.6470     6.1030     0.2000 H     1 <1>   0.1500 
 36 H       -4.1500     4.5710    -2.1440 H     1 <1>   0.0800 
 37 H       -3.9280     2.8990    -1.7390 H     1 <1>   0.0800 
 38 H       -2.9320     6.2240    -0.5080 H     1 <1>   0.0800 
 39 H       -2.9920     5.8300     1.1840 H     1 <1>   0.0800 
 40 H        2.4120     0.2400     1.1420 H     1 <1>   0.0800 
 41 H        2.0400     0.2510    -0.5870 H     1 <1>   0.0800 
 42 H        4.8080     3.9920    -0.2910 H     1 <1>   0.1500 
 43 H       -5.1990     6.8440    -0.5140 H     1 <1>   0.0800 
 44 H       -4.9480     7.0300     1.2210 H     1 <1>   0.0800 
 45 H        0.1320    -0.6040     1.6180 H     1 <1>   0.0800 
 46 H        0.9600    -1.6970     0.5360 H     1 <1>   0.0800 
 47 H       -0.2370    -0.5940    -0.0980 H     1 <1>   0.0800 
 48 H       -7.6640     5.9770     1.2230 H     1 <1>   0.1500 
 49 H       -7.4620     0.8960     0.1840 H     1 <1>   0.0800 
 50 H       -8.7390     1.6450     1.1140 H     1 <1>   0.0800 
 51 H       -7.3140     1.0300     1.9230 H     1 <1>   0.0800 
@<TRIPOS>BOND
  1   1   2  2   
  2   2   3  am  
  3   2   4  1   
  4   3   5  1   
  5   3   6  1   
  6   4   7  ar  
  7   4   8  ar  
  8   5   9  1   
  9   5  27  1   
 10   5  28  1   
 11   6  10  1   
 12   6  29  1   
 13   6  30  1   
 14   7  11  1   
 15   7  12  ar  
 16   8  13  ar  
 17   8  31  1   
 18   9  14  1   
 19   9  15  1   
 20   9  16  1   
 21  10  15  1   
 22  10  32  1   
 23  10  33  1   
 24  11  17  1   
 25  12  18  ar  
 26  12  34  1   
 27  13  18  ar  
 28  13  35  1   
 29  14  19  ar  
 30  14  20  ar  
 31  15  36  1   
 32  15  37  1   
 33  16  21  1   
 34  16  38  1   
 35  16  39  1   
 36  17  22  1   
 37  17  40  1   
 38  17  41  1   
 39  18  42  1   
 40  19  23  ar  
 41  20  21  1   
 42  20  24  ar  
 43  21  43  1   
 44  21  44  1   
 45  22  45  1   
 46  22  46  1   
 47  22  47  1   
 48  23  25  ar  
 49  23  26  1   
 50  24  25  ar  
 51  24  48  1   
 52  26  49  1   
 53  26  50  1   
 54  26  51  1   
@<TRIPOS>SUBSTRUCTURE
  1 ****   3 GROUP 4 **** **** 0

# MOE 2024.06 (io_trps.svl 2023.06)
