@<TRIPOS>MOLECULE
NONAME
44 47 1 0 0 
SMALL
USER_CHARGES


@<TRIPOS>ATOM
  1 S       -0.2760    -0.4630    -0.4050 S.3   1 <1>  -0.0800 
  2 C        0.7900    -1.8060    -0.1620 C.2   1 <1>   0.1980 
  3 C        0.7010    -0.0400    -1.7650 C.2   1 <1>   0.1980 
  4 N        1.7290    -1.8460    -1.0220 N.2   1 <1>  -0.3380 
  5 C        0.5490    -2.7430     1.0170 C.3   1 <1>   0.2900 
  6 N        1.6760    -0.8350    -1.9430 N.2   1 <1>  -0.3380 
  7 C        0.3150     1.1810    -2.5690 C.3   1 <1>  -0.0600 
  8 N       -0.5960    -3.6610     0.8210 N.3   1 <1>  -0.8100 
  9 C       -1.9340    -3.0450     0.8990 C.3   1 <1>   0.1100 
 10 C       -0.5800    -4.8300     1.7040 C.3   1 <1>   0.1100 
 11 C       -2.8090    -3.9900     1.7310 C.3   1 <1>   0.2000 
 12 C       -2.0340    -5.3060     1.7680 C.3   1 <1>  -0.0800 
 13 O       -2.8860    -3.4980     3.0250 O.3   1 <1>  -0.6800 
 14 C       -2.3880    -6.1960     0.5560 C.3   1 <1>  -0.0170 
 15 C       -1.7080    -7.5720     0.5010 C.ar  1 <1>  -0.1440 
 16 C       -1.7350    -8.3290    -0.6980 C.ar  1 <1>   0.0000 
 17 C       -1.0680    -8.1340     1.5700 C.ar  1 <1>  -0.1500 
 18 C       -1.0790    -9.5850    -0.7070 C.ar  1 <1>   0.3100 
 19 C       -2.3790    -7.9170    -1.8900 C.ar  1 <1>  -0.1500 
 20 C       -0.4590    -9.3890     1.4570 C.ar  1 <1>   0.1600 
 21 N       -0.4480   -10.1000     0.3760 N.ar  1 <1>  -0.6200 
 22 C       -1.0800   -10.3480    -1.8860 C.ar  1 <1>  -0.1500 
 23 C       -2.3630    -8.6860    -3.0220 C.ar  1 <1>  -0.1500 
 24 C       -1.7040    -9.9160    -3.0240 C.ar  1 <1>  -0.1500 
 25 H        0.4100    -2.1660     1.9130 H     1 <1>   0.0800 
 26 H        1.4420    -3.3320     1.1380 H     1 <1>   0.0800 
 27 H        1.0120     1.3180    -3.3750 H     1 <1>   0.0800 
 28 H        0.3310     2.0520    -1.9400 H     1 <1>   0.0800 
 29 H       -0.6700     1.0530    -2.9760 H     1 <1>   0.0800 
 30 H       -1.9090    -2.0640     1.3400 H     1 <1>   0.0800 
 31 H       -2.3290    -2.9690    -0.1000 H     1 <1>   0.0800 
 32 H        0.0830    -5.5860     1.3170 H     1 <1>   0.0800 
 33 H       -0.2520    -4.5430     2.6890 H     1 <1>   0.0800 
 34 H       -3.8110    -4.0830     1.3480 H     1 <1>   0.0800 
 35 H       -2.2510    -5.8380     2.6770 H     1 <1>   0.0800 
 36 H       -1.9860    -3.3310     3.3610 H     1 <1>   0.4000 
 37 H       -2.1270    -5.6510    -0.3340 H     1 <1>   0.0800 
 38 H       -3.4520    -6.3550     0.5410 H     1 <1>   0.0800 
 39 H       -1.0030    -7.6530     2.5260 H     1 <1>   0.1500 
 40 H       -2.8980    -6.9780    -1.9160 H     1 <1>   0.1500 
 41 H        0.0340    -9.7880     2.3270 H     1 <1>   0.1500 
 42 H       -0.5680   -11.2920    -1.8620 H     1 <1>   0.1500 
 43 H       -2.8550    -8.3550    -3.9200 H     1 <1>   0.1500 
 44 H       -1.6950   -10.5120    -3.9210 H     1 <1>   0.1500 
@<TRIPOS>BOND
  1   1   2  1   
  2   1   3  1   
  3   2   4  2   
  4   2   5  1   
  5   3   6  2   
  6   3   7  1   
  7   4   6  1   
  8   5   8  1   
  9   5  25  1   
 10   5  26  1   
 11   7  27  1   
 12   7  28  1   
 13   7  29  1   
 14   8   9  1   
 15   8  10  1   
 16   9  11  1   
 17   9  30  1   
 18   9  31  1   
 19  10  12  1   
 20  10  32  1   
 21  10  33  1   
 22  11  12  1   
 23  11  13  1   
 24  11  34  1   
 25  12  14  1   
 26  12  35  1   
 27  13  36  1   
 28  14  15  1   
 29  14  37  1   
 30  14  38  1   
 31  15  16  ar  
 32  15  17  ar  
 33  16  18  ar  
 34  16  19  ar  
 35  17  20  ar  
 36  17  39  1   
 37  18  21  ar  
 38  18  22  ar  
 39  19  23  ar  
 40  19  40  1   
 41  20  21  ar  
 42  20  41  1   
 43  22  24  ar  
 44  22  42  1   
 45  23  24  ar  
 46  23  43  1   
 47  24  44  1   
@<TRIPOS>SUBSTRUCTURE
  1 ****  14 GROUP 4 **** **** 0

# MOE 2024.06 (io_trps.svl 2023.06)
