@<TRIPOS>MOLECULE
NONAME
47 49 1 0 0 
SMALL
USER_CHARGES


@<TRIPOS>ATOM
  1 O        3.4720    -0.5550     1.3720 O.2   1 <1>  -0.5700 
  2 C        2.3600    -0.8510     0.9980 C.2   1 <1>   0.5690 
  3 N        1.5030     0.0060     0.3810 N.am  1 <1>  -0.4930 
  4 C        1.8550    -2.2790     1.2140 C.3   1 <1>   0.1710 
  5 C        1.6700     1.3580    -0.0070 C.2   1 <1>   0.0630 
  6 N        0.7060    -2.6570     0.3340 N.3   1 <1>  -0.8100 
  7 C        0.8120     2.1150    -0.8070 C.2   1 <1>   0.1080 
  8 C        2.6740     2.2020     0.3010 C.2   1 <1>  -0.3020 
  9 C        1.1080    -2.8600    -1.0660 C.3   1 <1>   0.1100 
 10 C        0.1090    -3.9390     0.7410 C.3   1 <1>   0.1100 
 11 N        1.2410     3.3270    -0.9800 N.2   1 <1>  -0.7070 
 12 C       -0.4770     1.6160    -1.4230 C.3   1 <1>  -0.0590 
 13 N        2.3960     3.3790    -0.2940 N.pl3 1 <1>   0.3140 
 14 C       -0.0510    -3.6460    -1.6650 C.3   1 <1>   0.2000 
 15 C       -0.4460    -4.6000    -0.5370 C.3   1 <1>  -0.0800 
 16 C        3.2100     4.5970    -0.2340 C.3   1 <1>   0.0160 
 17 O       -1.0990    -2.7650    -1.8560 O.3   1 <1>  -0.6800 
 18 C        0.1350    -6.0070    -0.7680 C.3   1 <1>  -0.0170 
 19 C       -0.2570    -6.9710     0.3400 C.ar  1 <1>   0.1670 
 20 N        0.6100    -7.1180     1.3300 N.ar  1 <1>  -0.6200 
 21 C       -1.4740    -7.6330     0.2700 C.ar  1 <1>  -0.1500 
 22 C        0.2510    -7.9590     2.2870 C.ar  1 <1>   0.1600 
 23 C       -1.8360    -8.5040     1.2750 C.ar  1 <1>  -0.1500 
 24 C       -0.9400    -8.6640     2.3090 C.ar  1 <1>  -0.1500 
 25 H        0.6280    -0.4460     0.1070 H     1 <1>   0.3700 
 26 H        1.5480    -2.3540     2.2420 H     1 <1>   0.0800 
 27 H        2.6740    -2.9610     1.0660 H     1 <1>   0.0800 
 28 H        3.5480     2.0240     0.8990 H     1 <1>   0.1500 
 29 H        1.2690    -1.9300    -1.5850 H     1 <1>   0.0800 
 30 H        2.0050    -3.4550    -1.1130 H     1 <1>   0.0800 
 31 H        0.8610    -4.5660     1.1920 H     1 <1>   0.0800 
 32 H       -0.6740    -3.7720     1.4620 H     1 <1>   0.0800 
 33 H       -0.3190     0.6620    -1.8910 H     1 <1>   0.0800 
 34 H       -0.8160     2.3140    -2.1670 H     1 <1>   0.0800 
 35 H       -1.2290     1.5250    -0.6630 H     1 <1>   0.0800 
 36 H        0.1810    -4.1220    -2.6030 H     1 <1>   0.0800 
 37 H       -1.5170    -4.6860    -0.4730 H     1 <1>   0.0800 
 38 H        4.2400     4.3420    -0.3980 H     1 <1>   0.0800 
 39 H        3.0920     5.0500     0.7310 H     1 <1>   0.0800 
 40 H        2.8790     5.2780    -0.9970 H     1 <1>   0.0800 
 41 H       -1.2270    -2.2980    -1.0050 H     1 <1>   0.4000 
 42 H        1.2090    -5.9610    -0.8310 H     1 <1>   0.0800 
 43 H       -0.2270    -6.3930    -1.7050 H     1 <1>   0.0800 
 44 H       -2.1350    -7.4690    -0.5620 H     1 <1>   0.1500 
 45 H        0.9440    -8.0950     3.0990 H     1 <1>   0.1500 
 46 H       -2.7730    -9.0330     1.2530 H     1 <1>   0.1500 
 47 H       -1.1590    -9.3290     3.1240 H     1 <1>   0.1500 
@<TRIPOS>BOND
  1   1   2  2   
  2   2   3  am  
  3   2   4  1   
  4   3   5  1   
  5   3  25  1   
  6   4   6  1   
  7   4  26  1   
  8   4  27  1   
  9   5   7  1   
 10   5   8  2   
 11   6   9  1   
 12   6  10  1   
 13   7  11  2   
 14   7  12  1   
 15   8  13  1   
 16   8  28  1   
 17   9  14  1   
 18   9  29  1   
 19   9  30  1   
 20  10  15  1   
 21  10  31  1   
 22  10  32  1   
 23  11  13  1   
 24  12  33  1   
 25  12  34  1   
 26  12  35  1   
 27  13  16  1   
 28  14  15  1   
 29  14  17  1   
 30  14  36  1   
 31  15  18  1   
 32  15  37  1   
 33  16  38  1   
 34  16  39  1   
 35  16  40  1   
 36  17  41  1   
 37  18  19  1   
 38  18  42  1   
 39  18  43  1   
 40  19  20  ar  
 41  19  21  ar  
 42  20  22  ar  
 43  21  23  ar  
 44  21  44  1   
 45  22  24  ar  
 46  22  45  1   
 47  23  24  ar  
 48  23  46  1   
 49  24  47  1   
@<TRIPOS>SUBSTRUCTURE
  1 ****   6 GROUP 4 **** **** 0

# MOE 2024.06 (io_trps.svl 2023.06)
