@<TRIPOS>MOLECULE
NONAME
54 58 1 0 0 
SMALL
USER_CHARGES


@<TRIPOS>ATOM
  1 O        0.4720    -0.1060     0.1720 O.3   1 <1>  -0.6800 
  2 C        1.7890    -0.1530    -0.2710 C.3   1 <1>   0.2000 
  3 C        2.4590    -1.4500     0.1750 C.3   1 <1>  -0.0800 
  4 C        2.6380     0.9550     0.3500 C.3   1 <1>   0.2090 
  5 C        3.9490    -1.0980     0.2010 C.3   1 <1>   0.2090 
  6 C        2.1290    -2.6560    -0.7210 C.3   1 <1>  -0.0170 
  7 N        3.9920     0.3570     0.4780 N.pl3 1 <1>  -0.8380 
  8 C        2.9100    -3.8860    -0.2960 C.ar  1 <1>   0.1660 
  9 C        5.1530     1.0910     0.4200 C.ar  1 <1>   0.7200 
 10 N        3.9930    -4.1610    -0.9540 N.ar  1 <1>  -0.6200 
 11 C        2.4380    -4.6540     0.7810 C.ar  1 <1>  -0.1500 
 12 N        6.2850     0.4110     0.2870 N.ar  1 <1>  -0.6200 
 13 N        5.0360     2.4120     0.5040 N.ar  1 <1>  -0.6200 
 14 C        4.7110    -5.2470    -0.5680 C.ar  1 <1>   0.3100 
 15 C        3.1350    -5.7510     1.1870 C.ar  1 <1>  -0.1500 
 16 C        7.3870     1.1150     0.2340 C.ar  1 <1>   0.1670 
 17 C        6.1470     3.1020     0.4540 C.ar  1 <1>   0.1670 
 18 C        4.3180    -6.0770     0.5050 C.ar  1 <1>   0.0000 
 19 C        5.8930    -5.5590    -1.2570 C.ar  1 <1>  -0.1500 
 20 C        7.3810     2.4950     0.3080 C.ar  1 <1>  -0.1430 
 21 C        8.6710     0.3140     0.0700 C.3   1 <1>  -0.0170 
 22 C        5.9870     4.6070     0.5660 C.3   1 <1>  -0.0970 
 23 C        5.1220    -7.1840     0.8430 C.ar  1 <1>  -0.1500 
 24 C        6.6610    -6.6400    -0.9130 C.ar  1 <1>  -0.1500 
 25 C        8.6770     3.3040     0.2420 C.3   1 <1>  -0.0170 
 26 C        9.9360     1.1290     0.3650 C.3   1 <1>  -0.1600 
 27 C        6.2690    -7.4610     0.1500 C.ar  1 <1>  -0.1500 
 28 C        9.8560     2.4980    -0.3150 C.3   1 <1>  -0.1600 
 29 H       -0.0650    -0.7840    -0.2780 H     1 <1>   0.4000 
 30 H        1.8010    -0.0510    -1.3430 H     1 <1>   0.0800 
 31 H        2.1710    -1.6610     1.1900 H     1 <1>   0.0800 
 32 H        2.2750     1.2100     1.3300 H     1 <1>   0.0800 
 33 H        2.6540     1.8260    -0.2810 H     1 <1>   0.0800 
 34 H        4.4090    -1.2910    -0.7550 H     1 <1>   0.0800 
 35 H        4.4740    -1.6480     0.9640 H     1 <1>   0.0800 
 36 H        2.3700    -2.4250    -1.7440 H     1 <1>   0.0800 
 37 H        1.0770    -2.8700    -0.6730 H     1 <1>   0.0800 
 38 H        1.5300    -4.3620     1.2770 H     1 <1>   0.1500 
 39 H        2.8060    -6.3630     2.0080 H     1 <1>   0.1500 
 40 H        6.1760    -4.9150    -2.0690 H     1 <1>   0.1500 
 41 H        8.6390    -0.5410     0.7220 H     1 <1>   0.0800 
 42 H        8.7050    -0.0470    -0.9420 H     1 <1>   0.0800 
 43 H        6.7410     5.0240     1.2070 H     1 <1>   0.0800 
 44 H        5.0250     4.8460     0.9840 H     1 <1>   0.0800 
 45 H        6.0560     5.0510    -0.4090 H     1 <1>   0.0800 
 46 H        4.8170    -7.8110     1.6620 H     1 <1>   0.1500 
 47 H        7.5650    -6.8690    -1.4510 H     1 <1>   0.1500 
 48 H        8.5390     4.1750    -0.3750 H     1 <1>   0.0800 
 49 H        8.9190     3.6360     1.2370 H     1 <1>   0.0800 
 50 H       10.0330     1.2630     1.4290 H     1 <1>   0.0800 
 51 H       10.8000     0.5910     0.0160 H     1 <1>   0.0800 
 52 H        6.8820    -8.3070     0.4100 H     1 <1>   0.1500 
 53 H        9.7280     2.3630    -1.3760 H     1 <1>   0.0800 
 54 H       10.7720     3.0410    -0.1570 H     1 <1>   0.0800 
@<TRIPOS>BOND
  1   1   2  1   
  2   1  29  1   
  3   2   3  1   
  4   2   4  1   
  5   2  30  1   
  6   3   5  1   
  7   3   6  1   
  8   3  31  1   
  9   4   7  1   
 10   4  32  1   
 11   4  33  1   
 12   5   7  1   
 13   5  34  1   
 14   5  35  1   
 15   6   8  1   
 16   6  36  1   
 17   6  37  1   
 18   7   9  1   
 19   8  10  ar  
 20   8  11  ar  
 21   9  12  ar  
 22   9  13  ar  
 23  10  14  ar  
 24  11  15  ar  
 25  11  38  1   
 26  12  16  ar  
 27  13  17  ar  
 28  14  18  ar  
 29  14  19  ar  
 30  15  18  ar  
 31  15  39  1   
 32  16  20  ar  
 33  16  21  1   
 34  17  20  ar  
 35  17  22  1   
 36  18  23  ar  
 37  19  24  ar  
 38  19  40  1   
 39  20  25  1   
 40  21  26  1   
 41  21  41  1   
 42  21  42  1   
 43  22  43  1   
 44  22  44  1   
 45  22  45  1   
 46  23  27  ar  
 47  23  46  1   
 48  24  27  ar  
 49  24  47  1   
 50  25  28  1   
 51  25  48  1   
 52  25  49  1   
 53  26  28  1   
 54  26  50  1   
 55  26  51  1   
 56  27  52  1   
 57  28  53  1   
 58  28  54  1   
@<TRIPOS>SUBSTRUCTURE
  1 ****   5 GROUP 4 **** **** 0

# MOE 2024.06 (io_trps.svl 2023.06)
