@<TRIPOS>MOLECULE
NONAME
34 36 1 0 0 
SMALL
USER_CHARGES


@<TRIPOS>ATOM
  1 CL      -1.5040    -0.8250     2.2420 Cl    1 <1>  -0.1770 
  2 C       -2.5860    -1.5190     1.0620 C.ar  1 <1>   0.1770 
  3 C       -2.6910    -0.9380    -0.1860 C.ar  1 <1>  -0.1500 
  4 C       -3.3220    -2.6400     1.3930 C.ar  1 <1>  -0.1500 
  5 C       -3.5530    -1.4900    -1.1190 C.ar  1 <1>  -0.1500 
  6 C       -4.1790    -3.1890     0.4540 C.ar  1 <1>  -0.1500 
  7 C       -4.3030    -2.6180    -0.8080 C.ar  1 <1>  -0.1430 
  8 C       -5.2520    -3.1880    -1.8670 C.3   1 <1>   0.0440 
  9 C       -5.5610    -4.6740    -1.7280 C.2   1 <1>   0.5690 
 10 O       -4.8560    -5.4490    -2.3350 O.2   1 <1>  -0.5700 
 11 N       -6.6040    -5.0980    -0.9580 N.am  1 <1>  -0.6600 
 12 C       -7.5450    -4.2400    -0.1800 C.3   1 <1>   0.2350 
 13 C       -6.8400    -6.5360    -0.6450 C.3   1 <1>   0.2350 
 14 C       -8.6340    -5.1690     0.3160 C.3   1 <1>  -0.2420 
 15 C       -8.1970    -6.5870     0.0360 C.3   1 <1>  -0.2420 
 16 C       -9.3750    -4.5320     1.4940 C.2   1 <1>   0.9470 
 17 C       -9.4110    -6.0230    -0.6530 C.3   1 <1>  -0.2000 
 18 C       -8.3380    -7.8620     0.8720 C.2   1 <1>   0.9470 
 19 O      -10.5950    -4.3350     1.4120 O.co2 1 <1>  -0.9000 
 20 O       -8.7140    -4.0560     2.4270 O.co2 1 <1>  -0.9000 
 21 O       -9.2330    -8.6740     0.5960 O.co2 1 <1>  -0.9000 
 22 O       -7.4610    -8.1330     1.7030 O.co2 1 <1>  -0.9000 
 23 H       -2.1070    -0.0670    -0.4210 H     1 <1>   0.1500 
 24 H       -3.2310    -3.0790     2.3700 H     1 <1>   0.1500 
 25 H       -3.6370    -1.0360    -2.0910 H     1 <1>   0.1500 
 26 H       -4.7440    -4.0650     0.7290 H     1 <1>   0.1500 
 27 H       -4.8090    -3.0480    -2.8360 H     1 <1>   0.0800 
 28 H       -6.1650    -2.6270    -1.8590 H     1 <1>   0.0800 
 29 H       -7.0270    -3.7990     0.6540 H     1 <1>   0.0800 
 30 H       -7.9750    -3.4690    -0.7930 H     1 <1>   0.0800 
 31 H       -6.8360    -7.1320    -1.5400 H     1 <1>   0.0800 
 32 H       -6.0710    -6.8840     0.0240 H     1 <1>   0.0800 
 33 H       -9.3710    -5.8080    -1.7040 H     1 <1>   0.1000 
 34 H      -10.3760    -6.3870    -0.3410 H     1 <1>   0.1000 
@<TRIPOS>BOND
  1   1   2  1   
  2   2   3  ar  
  3   2   4  ar  
  4   3   5  ar  
  5   3  23  1   
  6   4   6  ar  
  7   4  24  1   
  8   5   7  ar  
  9   5  25  1   
 10   6   7  ar  
 11   6  26  1   
 12   7   8  1   
 13   8   9  1   
 14   8  27  1   
 15   8  28  1   
 16   9  10  2   
 17   9  11  am  
 18  11  12  1   
 19  11  13  1   
 20  12  14  1   
 21  12  29  1   
 22  12  30  1   
 23  13  15  1   
 24  13  31  1   
 25  13  32  1   
 26  14  15  1   
 27  14  16  1   
 28  14  17  1   
 29  15  17  1   
 30  15  18  1   
 31  16  19  ar  
 32  16  20  ar  
 33  17  33  1   
 34  17  34  1   
 35  18  21  ar  
 36  18  22  ar  
@<TRIPOS>SUBSTRUCTURE
  1 ****  12 GROUP 4 **** **** 0

# MOE 2024.06 (io_trps.svl 2023.06)
