@<TRIPOS>MOLECULE
NONAME
48 50 1 0 0 
SMALL
USER_CHARGES


@<TRIPOS>ATOM
  1 CL      -2.0750    -1.9400     1.3370 Cl    1 <1>  -0.1770 
  2 C       -3.4860    -0.9570     1.0520 C.ar  1 <1>   0.1770 
  3 C       -4.2260    -1.1470    -0.0990 C.ar  1 <1>  -0.1500 
  4 C       -3.8500    -0.0020     1.9820 C.ar  1 <1>  -0.1500 
  5 C       -5.3540    -0.3760    -0.3120 C.ar  1 <1>  -0.1500 
  6 C       -4.9830     0.7610     1.7610 C.ar  1 <1>  -0.1500 
  7 C       -5.7670     0.5810     0.6190 C.ar  1 <1>   0.0530 
  8 C       -6.9730     1.3430     0.4240 C.2   1 <1>   0.0870 
  9 O       -7.0650     2.5780     0.8470 O.3   1 <1>  -0.0190 
 10 C       -8.1580     1.0390    -0.1660 C.2   1 <1>  -0.0860 
 11 N       -8.2180     3.1270     0.5620 N.2   1 <1>  -0.4100 
 12 C       -8.8870     2.2220    -0.0610 C.2   1 <1>   0.3720 
 13 C       -8.6290    -0.1680    -0.7660 C.2   1 <1>   0.7160 
 14 N      -10.1730     2.3860    -0.5640 N.pl3 1 <1>  -0.8520 
 15 O       -9.1510    -0.1310    -1.8660 O.2   1 <1>  -0.5700 
 16 N       -8.5020    -1.3840    -0.1400 N.am  1 <1>  -0.6600 
 17 C      -10.5950     3.7710    -0.9090 C.3   1 <1>   0.2090 
 18 C       -8.4960    -2.6690    -0.9140 C.3   1 <1>   0.2010 
 19 C       -8.4560    -1.5800     1.3360 C.3   1 <1>   0.1400 
 20 C      -12.0830     3.7930    -1.2580 C.3   1 <1>   0.1200 
 21 C       -7.4480    -3.6690    -0.4140 C.2   1 <1>   0.5690 
 22 C       -7.2340    -2.4120     1.7690 C.3   1 <1>   0.1400 
 23 O      -12.4340     5.0800    -1.6650 O.3   1 <1>  -0.5600 
 24 O       -7.1210    -4.5590    -1.1640 O.2   1 <1>  -0.5700 
 25 N       -6.9090    -3.5440     0.8480 N.am  1 <1>  -0.6600 
 26 C      -13.7800     5.2210    -1.9830 C.3   1 <1>   0.0400 
 27 C       -5.8420    -4.4600     1.3410 C.3   1 <1>   0.0600 
 28 H       -3.9230    -1.8920    -0.8140 H     1 <1>   0.1500 
 29 H       -3.2510     0.1380     2.8640 H     1 <1>   0.1500 
 30 H       -5.9210    -0.5240    -1.2150 H     1 <1>   0.1500 
 31 H       -5.2680     1.5060     2.4840 H     1 <1>   0.1500 
 32 H      -10.3290     1.7400    -1.3510 H     1 <1>   0.4000 
 33 H      -10.0200     4.1200    -1.7500 H     1 <1>   0.0800 
 34 H      -10.4230     4.4230    -0.0700 H     1 <1>   0.0800 
 35 H       -8.3000    -2.4710    -1.9520 H     1 <1>   0.0800 
 36 H       -9.4650    -3.1280    -0.8420 H     1 <1>   0.0800 
 37 H       -9.3500    -2.0990     1.6380 H     1 <1>   0.0800 
 38 H       -8.4490    -0.6340     1.8490 H     1 <1>   0.0800 
 39 H      -12.6670     3.5320    -0.3920 H     1 <1>   0.0800 
 40 H      -12.2860     3.1140    -2.0680 H     1 <1>   0.0800 
 41 H       -7.4180    -2.8020     2.7550 H     1 <1>   0.0800 
 42 H       -6.3750    -1.7700     1.8380 H     1 <1>   0.0800 
 43 H      -13.9480     6.2410    -2.2830 H     1 <1>   0.0800 
 44 H      -14.3760     4.9950    -1.1160 H     1 <1>   0.0800 
 45 H      -14.0250     4.5590    -2.7960 H     1 <1>   0.0800 
 46 H       -5.6500    -5.2440     0.6290 H     1 <1>   0.0800 
 47 H       -6.1470    -4.9090     2.2690 H     1 <1>   0.0800 
 48 H       -4.9320    -3.9070     1.4950 H     1 <1>   0.0800 
@<TRIPOS>BOND
  1   1   2  1   
  2   2   3  ar  
  3   2   4  ar  
  4   3   5  ar  
  5   3  28  1   
  6   4   6  ar  
  7   4  29  1   
  8   5   7  ar  
  9   5  30  1   
 10   6   7  ar  
 11   6  31  1   
 12   7   8  1   
 13   8   9  1   
 14   8  10  2   
 15   9  11  1   
 16  10  12  1   
 17  10  13  1   
 18  11  12  2   
 19  12  14  1   
 20  13  15  2   
 21  13  16  am  
 22  14  17  1   
 23  14  32  1   
 24  16  18  1   
 25  16  19  1   
 26  17  20  1   
 27  17  33  1   
 28  17  34  1   
 29  18  21  1   
 30  18  35  1   
 31  18  36  1   
 32  19  22  1   
 33  19  37  1   
 34  19  38  1   
 35  20  23  1   
 36  20  39  1   
 37  20  40  1   
 38  21  24  2   
 39  21  25  am  
 40  22  25  1   
 41  22  41  1   
 42  22  42  1   
 43  23  26  1   
 44  25  27  1   
 45  26  43  1   
 46  26  44  1   
 47  26  45  1   
 48  27  46  1   
 49  27  47  1   
 50  27  48  1   
@<TRIPOS>SUBSTRUCTURE
  1 ****  10 GROUP 4 **** **** 0

# MOE 2024.06 (io_trps.svl 2023.06)
