@<TRIPOS>MOLECULE
NONAME
33 34 1 0 0 
SMALL
USER_CHARGES


@<TRIPOS>ATOM
  1 O       -0.1110     0.1560     0.1220 O.2   1 <1>  -0.5700 
  2 C       -1.1640     0.7440     0.2010 C.2   1 <1>   0.5690 
  3 N       -2.3560     0.0910     0.0290 N.am  1 <1>  -0.6600 
  4 C       -1.1290     2.2470     0.4990 C.3   1 <1>   0.1810 
  5 C       -3.7020     0.7160     0.0440 C.3   1 <1>   0.1400 
  6 C       -2.4460    -1.3510    -0.2820 C.3   1 <1>   0.1400 
  7 O       -1.5270     3.0170    -0.6010 O.3   1 <1>  -0.6800 
  8 C       -4.6650    -0.4180    -0.3100 C.3   1 <1>   0.2000 
  9 C       -3.9080    -1.7160    -0.0220 C.3   1 <1>  -0.0800 
 10 O       -5.8210    -0.3650     0.4530 O.3   1 <1>  -0.6800 
 11 C       -4.4140    -2.8930    -0.8720 C.3   1 <1>   0.0200 
 12 C       -3.6970    -4.1990    -0.5770 C.2   1 <1>  -0.0400 
 13 O       -3.9040    -5.2190    -1.3670 O.3   1 <1>  -0.0190 
 14 C       -2.8360    -4.5920     0.3770 C.2   1 <1>  -0.1500 
 15 N       -3.2270    -6.2680    -0.9980 N.2   1 <1>  -0.4100 
 16 C       -2.5740    -5.9190     0.0510 C.2   1 <1>   0.1080 
 17 C       -1.6480    -6.8350     0.8190 C.3   1 <1>  -0.0590 
 18 H       -0.1280     2.5380     0.7640 H     1 <1>   0.0800 
 19 H       -1.7850     2.4740     1.3190 H     1 <1>   0.0800 
 20 H       -3.9060     1.1060     1.0260 H     1 <1>   0.0800 
 21 H       -3.7580     1.5040    -0.6870 H     1 <1>   0.0800 
 22 H       -2.1860    -1.5010    -1.3170 H     1 <1>   0.0800 
 23 H       -1.7710    -1.9170     0.3380 H     1 <1>   0.0800 
 24 H       -0.9500     2.8180    -1.3660 H     1 <1>   0.4000 
 25 H       -4.9420    -0.3460    -1.3480 H     1 <1>   0.0800 
 26 H       -4.0010    -1.9590     1.0210 H     1 <1>   0.0800 
 27 H       -5.6110    -0.4550     1.4030 H     1 <1>   0.4000 
 28 H       -4.2890    -2.6620    -1.9160 H     1 <1>   0.0800 
 29 H       -5.4660    -3.0360    -0.6940 H     1 <1>   0.0800 
 30 H       -2.4230    -4.0550     1.2100 H     1 <1>   0.1500 
 31 H       -1.9630    -6.8980     1.8440 H     1 <1>   0.0800 
 32 H       -0.6430    -6.4550     0.7770 H     1 <1>   0.0800 
 33 H       -1.6660    -7.8200     0.3880 H     1 <1>   0.0800 
@<TRIPOS>BOND
  1   1   2  2   
  2   2   3  am  
  3   2   4  1   
  4   3   5  1   
  5   3   6  1   
  6   4   7  1   
  7   4  18  1   
  8   4  19  1   
  9   5   8  1   
 10   5  20  1   
 11   5  21  1   
 12   6   9  1   
 13   6  22  1   
 14   6  23  1   
 15   7  24  1   
 16   8   9  1   
 17   8  10  1   
 18   8  25  1   
 19   9  11  1   
 20   9  26  1   
 21  10  27  1   
 22  11  12  1   
 23  11  28  1   
 24  11  29  1   
 25  12  13  1   
 26  12  14  2   
 27  13  15  1   
 28  14  16  1   
 29  14  30  1   
 30  15  16  2   
 31  16  17  1   
 32  17  31  1   
 33  17  32  1   
 34  17  33  1   
@<TRIPOS>SUBSTRUCTURE
  1 ****   6 GROUP 4 **** **** 0

# MOE 2024.06 (io_trps.svl 2023.06)
