@<TRIPOS>MOLECULE
NONAME
50 52 1 0 0 
SMALL
USER_CHARGES


@<TRIPOS>ATOM
  1 O        4.7510     2.1790     1.1000 O.co2 1 <1>  -0.9000 
  2 C        3.9070     1.2780     0.9790 C.2   1 <1>   0.9060 
  3 O        4.0160     0.2220     1.5990 O.co2 1 <1>  -0.9000 
  4 C        2.9030     1.3420    -0.1880 C.3   1 <1>  -0.1060 
  5 C        3.3410     0.1740    -1.1040 C.3   1 <1>   0.2000 
  6 C        3.0370     2.6710    -1.0050 C.3   1 <1>  -0.1600 
  7 C        1.4480     1.1500     0.3210 C.3   1 <1>  -0.1600 
  8 O        2.5680     0.1690    -2.2670 O.3   1 <1>  -0.6800 
  9 C        4.8340     0.3270    -1.4980 C.3   1 <1>   0.3430 
 10 C        4.2100     2.6830    -2.0040 C.3   1 <1>   0.3430 
 11 C        0.9940     2.2380     1.3090 C.3   1 <1>  -0.1600 
 12 N        5.2760     1.7670    -1.5260 N.4   1 <1>  -0.9590 
 13 C       -0.4350     1.9770     1.7920 C.3   1 <1>  -0.2400 
 14 C        6.6160     1.9940    -2.0970 C.3   1 <1>   0.4860 
 15 C        7.0510     3.4060    -1.7490 C.ar  1 <1>  -0.1440 
 16 C        7.1480     3.7870    -0.4180 C.ar  1 <1>  -0.1500 
 17 C        7.3310     4.3300    -2.7440 C.ar  1 <1>  -0.1500 
 18 C        7.4900     5.0860    -0.0600 C.ar  1 <1>  -0.0230 
 19 C        7.6940     5.6210    -2.4050 C.ar  1 <1>  -0.1500 
 20 N        7.5400     5.4750     1.3130 N.pl3 1 <1>   0.5930 
 21 C        7.7710     5.9950    -1.0760 C.ar  1 <1>  -0.1500 
 22 N        8.3440     6.4690     1.7800 N.2   1 <1>  -0.7070 
 23 C        6.8180     4.9580     2.3390 C.2   1 <1>  -0.3020 
 24 C        8.1130     6.5370     3.0530 C.2   1 <1>   0.1390 
 25 C        7.1630     5.6130     3.4650 C.2   1 <1>  -0.1500 
 26 H        3.1970    -0.7750    -0.6130 H     1 <1>   0.0800 
 27 H        3.1480     3.5020    -0.3300 H     1 <1>   0.0800 
 28 H        2.1370     2.8500    -1.5660 H     1 <1>   0.0800 
 29 H        0.7650     1.1330    -0.5090 H     1 <1>   0.0800 
 30 H        1.3830     0.1960     0.8180 H     1 <1>   0.0800 
 31 H        1.6300     0.0300    -2.0270 H     1 <1>   0.4000 
 32 H        4.9890    -0.1410    -2.4540 H     1 <1>   0.0800 
 33 H        5.4250    -0.1930    -0.7600 H     1 <1>   0.0800 
 34 H        4.5860     3.6890    -2.1000 H     1 <1>   0.0800 
 35 H        3.8620     2.3480    -2.9680 H     1 <1>   0.0800 
 36 H        1.6520     2.2520     2.1630 H     1 <1>   0.0800 
 37 H        1.0330     3.2070     0.8440 H     1 <1>   0.0800 
 38 H        5.3520     2.0330    -0.5100 H     1 <1>   0.4500 
 39 H       -0.4920     1.0250     2.2910 H     1 <1>   0.0800 
 40 H       -1.1210     1.9790     0.9640 H     1 <1>   0.0800 
 41 H       -0.7330     2.7430     2.4870 H     1 <1>   0.0800 
 42 H        7.3170     1.2940    -1.6720 H     1 <1>   0.0800 
 43 H        6.5930     1.8600    -3.1650 H     1 <1>   0.0800 
 44 H        6.9490     3.0700     0.3630 H     1 <1>   0.1500 
 45 H        7.2700     4.0590    -3.7840 H     1 <1>   0.1500 
 46 H        7.9180     6.3400    -3.1750 H     1 <1>   0.1500 
 47 H        8.0510     7.0040    -0.8190 H     1 <1>   0.1500 
 48 H        6.1060     4.1610     2.2050 H     1 <1>   0.1500 
 49 H        8.6050     7.2350     3.7090 H     1 <1>   0.1500 
 50 H        6.7990     5.4710     4.4680 H     1 <1>   0.1500 
@<TRIPOS>BOND
  1   1   2  ar  
  2   2   3  ar  
  3   2   4  1   
  4   4   5  1   
  5   4   6  1   
  6   4   7  1   
  7   5   8  1   
  8   5   9  1   
  9   5  26  1   
 10   6  10  1   
 11   6  27  1   
 12   6  28  1   
 13   7  11  1   
 14   7  29  1   
 15   7  30  1   
 16   8  31  1   
 17   9  12  1   
 18   9  32  1   
 19   9  33  1   
 20  10  12  1   
 21  10  34  1   
 22  10  35  1   
 23  11  13  1   
 24  11  36  1   
 25  11  37  1   
 26  12  14  1   
 27  12  38  1   
 28  13  39  1   
 29  13  40  1   
 30  13  41  1   
 31  14  15  1   
 32  14  42  1   
 33  14  43  1   
 34  15  16  ar  
 35  15  17  ar  
 36  16  18  ar  
 37  16  44  1   
 38  17  19  ar  
 39  17  45  1   
 40  18  20  1   
 41  18  21  ar  
 42  19  21  ar  
 43  19  46  1   
 44  20  22  1   
 45  20  23  1   
 46  21  47  1   
 47  22  24  2   
 48  23  25  2   
 49  23  48  1   
 50  24  25  1   
 51  24  49  1   
 52  25  50  1   
@<TRIPOS>SUBSTRUCTURE
  1 ****   1 GROUP 4 **** **** 0

# MOE 2024.06 (io_trps.svl 2023.06)
