@<TRIPOS>MOLECULE
NONAME
55 56 1 0 0 
SMALL
USER_CHARGES


@<TRIPOS>ATOM
  1 O       -1.6880     0.5720    -1.4990 O.2   1 <1>  -0.5700 
  2 C       -2.2610     1.1240    -0.5830 C.2   1 <1>   0.5690 
  3 N       -2.4660     0.4490     0.6030 N.am  1 <1>  -0.6600 
  4 C       -2.7460     2.5640    -0.8520 C.3   1 <1>   0.2610 
  5 C       -1.7250    -0.8130     0.8720 C.3   1 <1>   0.3200 
  6 C       -3.4300     0.8580     1.6700 C.3   1 <1>   0.1400 
  7 O       -2.3990     3.4370     0.2130 O.3   1 <1>  -0.3630 
  8 C       -4.2540     2.6940    -1.1050 C.3   1 <1>  -0.2400 
  9 C       -2.5100    -1.9780     0.3170 C.2   1 <1>  -0.3320 
 10 C       -4.7590     0.1080     1.5170 C.3   1 <1>   0.1200 
 11 C       -1.3310     4.2440     0.0210 C.ar  1 <1>   0.0830 
 12 N       -2.8080    -2.0710    -0.9900 N.pl3 1 <1>   0.0330 
 13 C       -3.0370    -3.0740     0.9050 C.2   1 <1>   0.0770 
 14 O       -5.6820     0.6230     2.4150 O.3   1 <1>  -0.6800 
 15 C       -0.1400     4.0300     0.7130 C.ar  1 <1>  -0.1430 
 16 C       -1.4490     5.2940    -0.8790 C.ar  1 <1>  -0.1500 
 17 C       -3.5090    -3.2170    -1.1150 C.2   1 <1>   0.0070 
 18 N       -3.6680    -3.8480     0.0020 N.2   1 <1>  -0.5650 
 19 C        0.9290     4.8770     0.4540 C.ar  1 <1>  -0.1500 
 20 C        0.0100     2.8930     1.7280 C.3   1 <1>   0.0630 
 21 C       -0.3780     6.1340    -1.1230 C.ar  1 <1>  -0.1430 
 22 C       -4.0490    -3.7030    -2.4420 C.3   1 <1>  -0.0600 
 23 C        0.8140     5.9160    -0.4540 C.ar  1 <1>  -0.1500 
 24 C        0.4720     3.4130     3.0940 C.3   1 <1>  -0.2400 
 25 C        0.9730     1.8260     1.1990 C.3   1 <1>  -0.2400 
 26 C       -0.4970     7.2800    -2.1110 C.3   1 <1>  -0.0970 
 27 H       -2.2340     2.9040    -1.7360 H     1 <1>   0.0800 
 28 H       -1.5710    -0.9350     1.9300 H     1 <1>   0.0800 
 29 H       -0.7570    -0.7750     0.4010 H     1 <1>   0.0800 
 30 H       -3.6190     1.9140     1.6210 H     1 <1>   0.0800 
 31 H       -3.0040     0.6480     2.6350 H     1 <1>   0.0800 
 32 H       -4.8200     2.4670    -0.2220 H     1 <1>   0.0800 
 33 H       -4.5490     2.0190    -1.8870 H     1 <1>   0.0800 
 34 H       -4.4840     3.6970    -1.4180 H     1 <1>   0.0800 
 35 H       -4.6470    -0.9440     1.7130 H     1 <1>   0.0800 
 36 H       -5.1560     0.2450     0.5260 H     1 <1>   0.0800 
 37 H       -2.5450    -1.3850    -1.7100 H     1 <1>   0.2700 
 38 H       -3.0000    -3.3570     1.9440 H     1 <1>   0.1500 
 39 H       -5.4970     0.3180     3.3240 H     1 <1>   0.4000 
 40 H       -2.3840     5.4490    -1.3840 H     1 <1>   0.1500 
 41 H        1.8670     4.7330     0.9570 H     1 <1>   0.1500 
 42 H       -0.9440     2.4250     1.8840 H     1 <1>   0.0800 
 43 H       -4.7320    -2.9800    -2.8480 H     1 <1>   0.0800 
 44 H       -4.5710    -4.6330    -2.3030 H     1 <1>   0.0800 
 45 H       -3.2410    -3.8600    -3.1330 H     1 <1>   0.0800 
 46 H        1.6590     6.5560    -0.6360 H     1 <1>   0.1500 
 47 H        1.4650     3.8200     3.0400 H     1 <1>   0.0800 
 48 H        0.4680     2.6160     3.8160 H     1 <1>   0.0800 
 49 H       -0.1970     4.1850     3.4330 H     1 <1>   0.0800 
 50 H        1.9600     2.2340     1.0750 H     1 <1>   0.0800 
 51 H        0.6310     1.4690     0.2430 H     1 <1>   0.0800 
 52 H        1.0240     0.9960     1.8790 H     1 <1>   0.0800 
 53 H       -1.5290     7.4990    -2.3190 H     1 <1>   0.0800 
 54 H       -0.0050     7.0210    -3.0310 H     1 <1>   0.0800 
 55 H       -0.0380     8.1640    -1.7070 H     1 <1>   0.0800 
@<TRIPOS>BOND
  1   1   2  2   
  2   2   3  am  
  3   2   4  1   
  4   3   5  1   
  5   3   6  1   
  6   4   7  1   
  7   4   8  1   
  8   4  27  1   
  9   5   9  1   
 10   5  28  1   
 11   5  29  1   
 12   6  10  1   
 13   6  30  1   
 14   6  31  1   
 15   7  11  1   
 16   8  32  1   
 17   8  33  1   
 18   8  34  1   
 19   9  12  1   
 20   9  13  2   
 21  10  14  1   
 22  10  35  1   
 23  10  36  1   
 24  11  15  ar  
 25  11  16  ar  
 26  12  17  1   
 27  12  37  1   
 28  13  18  1   
 29  13  38  1   
 30  14  39  1   
 31  15  19  ar  
 32  15  20  1   
 33  16  21  ar  
 34  16  40  1   
 35  17  18  2   
 36  17  22  1   
 37  19  23  ar  
 38  19  41  1   
 39  20  24  1   
 40  20  25  1   
 41  20  42  1   
 42  21  23  ar  
 43  21  26  1   
 44  22  43  1   
 45  22  44  1   
 46  22  45  1   
 47  23  46  1   
 48  24  47  1   
 49  24  48  1   
 50  24  49  1   
 51  25  50  1   
 52  25  51  1   
 53  25  52  1   
 54  26  53  1   
 55  26  54  1   
 56  26  55  1   
@<TRIPOS>SUBSTRUCTURE
  1 ****   2 GROUP 4 **** **** 0

# MOE 2024.06 (io_trps.svl 2023.06)
