@<TRIPOS>MOLECULE
NONAME
46 48 1 0 0 
SMALL
USER_CHARGES


@<TRIPOS>ATOM
  1 O       -0.2150     1.1080     1.4670 O.2   1 <1>  -0.5700 
  2 C       -0.0460     2.2460     1.0690 C.2   1 <1>   0.5440 
  3 N       -1.1400     3.0700     0.9020 N.am  1 <1>  -0.6600 
  4 C        1.2990     2.7000     0.7640 C.ar  1 <1>   0.0860 
  5 C       -2.5050     2.6430     1.3260 C.3   1 <1>   0.1400 
  6 C       -1.1010     4.2980     0.0500 C.3   1 <1>   0.1400 
  7 C        2.1210     1.9720    -0.0920 C.ar  1 <1>  -0.1500 
  8 C        1.8170     3.8730     1.3080 C.ar  1 <1>  -0.1500 
  9 C       -3.3660     2.2700     0.0970 C.3   1 <1>   0.0000 
 10 C       -2.4400     4.5390    -0.6700 C.3   1 <1>  -0.1600 
 11 C        3.4000     2.3940    -0.4170 C.ar  1 <1>  -0.1430 
 12 C        3.0910     4.3060     0.9930 C.ar  1 <1>  -0.1500 
 13 C       -4.8530     2.2400     0.4980 C.3   1 <1>   0.2000 
 14 C       -3.0720     3.2100    -1.1170 C.3   1 <1>  -0.1600 
 15 C       -3.1540     0.8090    -0.3320 C.3   1 <1>  -0.1600 
 16 C        3.8900     3.5760     0.1280 C.ar  1 <1>  -0.1430 
 17 C        4.2390     1.5470    -1.3620 C.3   1 <1>  -0.0970 
 18 O       -5.4360     3.4940     0.4740 O.3   1 <1>  -0.6800 
 19 C       -5.5470     1.3020    -0.4920 C.3   1 <1>  -0.1600 
 20 C       -4.4350     0.4180    -1.0760 C.3   1 <1>  -0.1600 
 21 C        5.2880     4.0840    -0.1960 C.3   1 <1>  -0.0970 
 22 H       -2.4510     1.8180     2.0160 H     1 <1>   0.0800 
 23 H       -2.9650     3.4630     1.8500 H     1 <1>   0.0800 
 24 H       -0.8590     5.1510     0.6600 H     1 <1>   0.0800 
 25 H       -0.3290     4.1840    -0.6920 H     1 <1>   0.0800 
 26 H        1.7330     1.0560    -0.5000 H     1 <1>   0.1500 
 27 H        1.2110     4.4440     1.9880 H     1 <1>   0.1500 
 28 H       -3.1110     5.0590    -0.0080 H     1 <1>   0.0800 
 29 H       -2.2720     5.1730    -1.5220 H     1 <1>   0.0800 
 30 H        3.4590     5.2180     1.4300 H     1 <1>   0.1500 
 31 H       -4.9590     1.8440     1.4950 H     1 <1>   0.0800 
 32 H       -2.3650     2.7360    -1.7760 H     1 <1>   0.0800 
 33 H       -3.9570     3.3910    -1.6990 H     1 <1>   0.0800 
 34 H       -2.2690     0.6680    -0.9270 H     1 <1>   0.0800 
 35 H       -3.0610     0.1870     0.5430 H     1 <1>   0.0800 
 36 H        3.7010     0.6710    -1.6770 H     1 <1>   0.0800 
 37 H        5.1400     1.2280    -0.8700 H     1 <1>   0.0800 
 38 H        4.4990     2.1160    -2.2370 H     1 <1>   0.0800 
 39 H       -5.2890     3.8990    -0.4000 H     1 <1>   0.4000 
 40 H       -6.2760     0.7030     0.0240 H     1 <1>   0.0800 
 41 H       -6.0290     1.8510    -1.2810 H     1 <1>   0.0800 
 42 H       -4.6510    -0.6290    -0.9530 H     1 <1>   0.0800 
 43 H       -4.3210     0.6280    -2.1260 H     1 <1>   0.0800 
 44 H        5.4890     5.0110     0.3080 H     1 <1>   0.0800 
 45 H        5.3840     4.2470    -1.2540 H     1 <1>   0.0800 
 46 H        6.0230     3.3640     0.1160 H     1 <1>   0.0800 
@<TRIPOS>BOND
  1   1   2  2   
  2   2   3  am  
  3   2   4  1   
  4   3   5  1   
  5   3   6  1   
  6   4   7  ar  
  7   4   8  ar  
  8   5   9  1   
  9   5  22  1   
 10   5  23  1   
 11   6  10  1   
 12   6  24  1   
 13   6  25  1   
 14   7  11  ar  
 15   7  26  1   
 16   8  12  ar  
 17   8  27  1   
 18   9  13  1   
 19   9  14  1   
 20   9  15  1   
 21  10  14  1   
 22  10  28  1   
 23  10  29  1   
 24  11  16  ar  
 25  11  17  1   
 26  12  16  ar  
 27  12  30  1   
 28  13  18  1   
 29  13  19  1   
 30  13  31  1   
 31  14  32  1   
 32  14  33  1   
 33  15  20  1   
 34  15  34  1   
 35  15  35  1   
 36  16  21  1   
 37  17  36  1   
 38  17  37  1   
 39  17  38  1   
 40  18  39  1   
 41  19  20  1   
 42  19  40  1   
 43  19  41  1   
 44  20  42  1   
 45  20  43  1   
 46  21  44  1   
 47  21  45  1   
 48  21  46  1   
@<TRIPOS>SUBSTRUCTURE
  1 ****   3 GROUP 4 **** **** 0

# MOE 2024.06 (io_trps.svl 2023.06)
