@<TRIPOS>MOLECULE
NONAME
55 58 1 0 0 
SMALL
USER_CHARGES


@<TRIPOS>ATOM
  1 CL       0.0500    -0.0290    -0.8090 Cl    1 <1>  -0.1770 
  2 C        1.4810    -0.9510    -0.4290 C.ar  1 <1>   0.1770 
  3 C        1.8580    -1.1090     0.8890 C.ar  1 <1>  -0.1500 
  4 C        2.2160    -1.5170    -1.4490 C.ar  1 <1>  -0.1500 
  5 C        2.9940    -1.8420     1.1880 C.ar  1 <1>  -0.1500 
  6 C        3.3500    -2.2480    -1.1390 C.ar  1 <1>  -0.1500 
  7 C        3.7710    -2.4140     0.1800 C.ar  1 <1>  -0.1430 
  8 C        5.0500    -3.2560     0.4430 C.3   1 <1>   0.2040 
  9 C        4.8190    -4.7060    -0.0900 C.2   1 <1>   0.5690 
 10 C        6.2460    -2.5880    -0.3050 C.3   1 <1>  -0.1600 
 11 C        5.4720    -3.3530     1.9400 C.3   1 <1>  -0.1600 
 12 O        5.6260    -5.1730    -0.8650 O.2   1 <1>  -0.5700 
 13 N        3.7520    -5.4890     0.2980 N.am  1 <1>  -0.6600 
 14 C        6.6640    -1.2340     0.2850 C.3   1 <1>  -0.1600 
 15 C        6.0120    -2.0510     2.5740 C.3   1 <1>  -0.1600 
 16 C        2.5290    -5.0870     1.0430 C.3   1 <1>   0.1400 
 17 C        3.6430    -6.9040    -0.1280 C.3   1 <1>   0.1400 
 18 C        7.1230    -1.4180     1.7330 C.3   1 <1>  -0.1600 
 19 C        1.6540    -6.3410     1.1050 C.3   1 <1>   0.2000 
 20 C        2.5740    -7.5140     0.7760 C.3   1 <1>  -0.0800 
 21 O        1.1040    -6.5140     2.3650 O.3   1 <1>  -0.6800 
 22 C        1.8310    -8.6990     0.1410 C.3   1 <1>  -0.0170 
 23 C        2.7860    -9.8420    -0.1670 C.ar  1 <1>  -0.1430 
 24 C        3.3340   -10.0250    -1.4210 C.ar  1 <1>  -0.1500 
 25 C        3.1560   -10.7540     0.7990 C.ar  1 <1>  -0.1500 
 26 C        4.2050   -11.0800    -1.6390 C.ar  1 <1>   0.1600 
 27 C        4.0340   -11.7760     0.4770 C.ar  1 <1>   0.1600 
 28 N        4.5690   -11.9590    -0.7200 N.ar  1 <1>  -0.6200 
 29 H        1.2670    -0.6640     1.6680 H     1 <1>   0.1500 
 30 H        1.9030    -1.3890    -2.4690 H     1 <1>   0.1500 
 31 H        3.2420    -1.9590     2.2250 H     1 <1>   0.1500 
 32 H        3.9040    -2.6950    -1.9480 H     1 <1>   0.1500 
 33 H        7.1000    -3.2410    -0.2540 H     1 <1>   0.0800 
 34 H        6.0220    -2.4650    -1.3480 H     1 <1>   0.0800 
 35 H        4.6610    -3.7260     2.5350 H     1 <1>   0.0800 
 36 H        6.2570    -4.0880     2.0060 H     1 <1>   0.0800 
 37 H        7.4730    -0.8240    -0.2960 H     1 <1>   0.0800 
 38 H        5.8410    -0.5410     0.2430 H     1 <1>   0.0800 
 39 H        5.2290    -1.3260     2.6900 H     1 <1>   0.0800 
 40 H        6.3930    -2.2660     3.5570 H     1 <1>   0.0800 
 41 H        2.7880    -4.7530     2.0300 H     1 <1>   0.0800 
 42 H        2.0050    -4.3140     0.5100 H     1 <1>   0.0800 
 43 H        3.3390    -6.9310    -1.1600 H     1 <1>   0.0800 
 44 H        4.5870    -7.4140    -0.0220 H     1 <1>   0.0800 
 45 H        7.3960    -0.4650     2.1510 H     1 <1>   0.0800 
 46 H        7.9940    -2.0500     1.7560 H     1 <1>   0.0800 
 47 H        0.8500    -6.2570     0.3930 H     1 <1>   0.0800 
 48 H        3.0700    -7.8440     1.6720 H     1 <1>   0.0800 
 49 H        1.8080    -6.6450     3.0290 H     1 <1>   0.4000 
 50 H        1.3380    -8.3840    -0.7630 H     1 <1>   0.0800 
 51 H        1.0700    -9.0460     0.8190 H     1 <1>   0.0800 
 52 H        3.0970    -9.3600    -2.2300 H     1 <1>   0.1500 
 53 H        2.7710   -10.6820     1.8000 H     1 <1>   0.1500 
 54 H        4.6250   -11.2070    -2.6220 H     1 <1>   0.1500 
 55 H        4.3120   -12.4790     1.2430 H     1 <1>   0.1500 
@<TRIPOS>BOND
  1   1   2  1   
  2   2   3  ar  
  3   2   4  ar  
  4   3   5  ar  
  5   3  29  1   
  6   4   6  ar  
  7   4  30  1   
  8   5   7  ar  
  9   5  31  1   
 10   6   7  ar  
 11   6  32  1   
 12   7   8  1   
 13   8   9  1   
 14   8  10  1   
 15   8  11  1   
 16   9  12  2   
 17   9  13  am  
 18  10  14  1   
 19  10  33  1   
 20  10  34  1   
 21  11  15  1   
 22  11  35  1   
 23  11  36  1   
 24  13  16  1   
 25  13  17  1   
 26  14  18  1   
 27  14  37  1   
 28  14  38  1   
 29  15  18  1   
 30  15  39  1   
 31  15  40  1   
 32  16  19  1   
 33  16  41  1   
 34  16  42  1   
 35  17  20  1   
 36  17  43  1   
 37  17  44  1   
 38  18  45  1   
 39  18  46  1   
 40  19  20  1   
 41  19  21  1   
 42  19  47  1   
 43  20  22  1   
 44  20  48  1   
 45  21  49  1   
 46  22  23  1   
 47  22  50  1   
 48  22  51  1   
 49  23  24  ar  
 50  23  25  ar  
 51  24  26  ar  
 52  24  52  1   
 53  25  27  ar  
 54  25  53  1   
 55  26  28  ar  
 56  26  54  1   
 57  27  28  ar  
 58  27  55  1   
@<TRIPOS>SUBSTRUCTURE
  1 ****  13 GROUP 4 **** **** 0

# MOE 2024.06 (io_trps.svl 2023.06)
