@<TRIPOS>MOLECULE
NONAME
47 49 1 0 0 
SMALL
USER_CHARGES


@<TRIPOS>ATOM
  1 S        0.8540    -0.0050    -0.1540 S.o2  1 <1>   1.3330 
  2 O        2.1610     0.3330     0.3640 O.2   1 <1>  -0.6500 
  3 O        0.6940    -0.2720    -1.5640 O.2   1 <1>  -0.6500 
  4 N        0.1940    -1.2770     0.7490 N.am  1 <1>  -0.8490 
  5 C       -0.2030     1.3840     0.2520 C.3   1 <1>  -0.0550 
  6 C        1.2120    -2.2330     1.2010 C.3   1 <1>   0.1160 
  7 C       -0.8800    -1.9940     0.0500 C.3   1 <1>   0.1160 
  8 C        0.1940     2.6620    -0.5190 C.3   1 <1>  -0.0800 
  9 C       -0.6350     3.9070    -0.2060 C.3   1 <1>   0.2000 
 10 C        1.6460     3.0990    -0.2660 C.3   1 <1>   0.3430 
 11 O       -0.8080     4.0160     1.1720 O.3   1 <1>  -0.6800 
 12 C        0.2850     5.0390    -0.6710 C.3   1 <1>   0.3430 
 13 N        1.6720     4.5890    -0.3340 N.4   1 <1>  -0.9590 
 14 C        2.1150     5.1720     0.9610 C.3   1 <1>   0.4860 
 15 C        2.3080     6.6550     0.7530 C.ar  1 <1>  -0.1440 
 16 C        3.3630     7.0950    -0.0560 C.ar  1 <1>   0.0000 
 17 C        1.4610     7.5820     1.3210 C.ar  1 <1>  -0.1500 
 18 C        3.5180     8.4560    -0.3000 C.ar  1 <1>  -0.1520 
 19 C        4.4060     6.4470    -0.7580 C.2   1 <1>  -0.1500 
 20 C        1.6350     8.9500     1.0800 C.ar  1 <1>  -0.1500 
 21 N        4.5980     8.6290    -1.1280 N.pl3 1 <1>   0.0330 
 22 C        2.6550     9.3930     0.2710 C.ar  1 <1>  -0.1500 
 23 C        5.1260     7.3990    -1.3960 C.2   1 <1>  -0.3020 
 24 H       -1.2190     1.1320     0.0170 H     1 <1>   0.0800 
 25 H       -0.1420     1.5570     1.3100 H     1 <1>   0.0800 
 26 H        0.7580    -3.0110     1.7910 H     1 <1>   0.0800 
 27 H        1.9440    -1.7330     1.8130 H     1 <1>   0.0800 
 28 H        1.7130    -2.6770     0.3560 H     1 <1>   0.0800 
 29 H       -1.3170    -2.7320     0.7020 H     1 <1>   0.0800 
 30 H       -0.4950    -2.4870    -0.8280 H     1 <1>   0.0800 
 31 H       -1.6530    -1.3080    -0.2510 H     1 <1>   0.0800 
 32 H        0.1040     2.4570    -1.5730 H     1 <1>   0.0800 
 33 H       -1.5990     3.9320    -0.6890 H     1 <1>   0.0800 
 34 H        2.3080     2.6620    -0.9980 H     1 <1>   0.0800 
 35 H        1.9570     2.7710     0.7130 H     1 <1>   0.0800 
 36 H       -1.6270     3.5640     1.4670 H     1 <1>   0.4000 
 37 H        0.0280     5.9740    -0.2010 H     1 <1>   0.0800 
 38 H        0.1960     5.1480    -1.7390 H     1 <1>   0.0800 
 39 H        2.3280     4.9360    -1.0470 H     1 <1>   0.4500 
 40 H        1.3760     4.9930     1.7260 H     1 <1>   0.0800 
 41 H        3.0490     4.7320     1.2710 H     1 <1>   0.0800 
 42 H        0.6470     7.2770     1.9580 H     1 <1>   0.1500 
 43 H        4.5940     5.3880    -0.7640 H     1 <1>   0.1500 
 44 H        0.9620     9.6560     1.5370 H     1 <1>   0.1500 
 45 H        4.9480     9.5340    -1.4630 H     1 <1>   0.2700 
 46 H        2.7940    10.4430     0.0790 H     1 <1>   0.1500 
 47 H        5.9940     7.2800    -2.0230 H     1 <1>   0.1500 
@<TRIPOS>BOND
  1   1   2  2   
  2   1   3  2   
  3   1   4  am  
  4   1   5  1   
  5   4   6  1   
  6   4   7  1   
  7   5   8  1   
  8   5  24  1   
  9   5  25  1   
 10   6  26  1   
 11   6  27  1   
 12   6  28  1   
 13   7  29  1   
 14   7  30  1   
 15   7  31  1   
 16   8   9  1   
 17   8  10  1   
 18   8  32  1   
 19   9  11  1   
 20   9  12  1   
 21   9  33  1   
 22  10  13  1   
 23  10  34  1   
 24  10  35  1   
 25  11  36  1   
 26  12  13  1   
 27  12  37  1   
 28  12  38  1   
 29  13  14  1   
 30  13  39  1   
 31  14  15  1   
 32  14  40  1   
 33  14  41  1   
 34  15  16  ar  
 35  15  17  ar  
 36  16  18  ar  
 37  16  19  1   
 38  17  20  ar  
 39  17  42  1   
 40  18  21  1   
 41  18  22  ar  
 42  19  23  2   
 43  19  43  1   
 44  20  22  ar  
 45  20  44  1   
 46  21  23  1   
 47  21  45  1   
 48  22  46  1   
 49  23  47  1   
@<TRIPOS>SUBSTRUCTURE
  1 ****  13 GROUP 4 **** **** 0

# MOE 2024.06 (io_trps.svl 2023.06)
