@<TRIPOS>MOLECULE
NONAME
43 44 1 0 0 
SMALL
USER_CHARGES


@<TRIPOS>ATOM
  1 O        0.5390     2.9880     2.3670 O.2   1 <1>  -0.5700 
  2 C        1.3050     2.5550     1.5420 C.2   1 <1>   0.6900 
  3 N        1.5460     1.2260     1.4210 N.am  1 <1>  -0.4900 
  4 N        1.9590     3.4160     0.7030 N.am  1 <1>  -0.5390 
  5 C        2.4060     0.7200     0.4950 C.2   1 <1>   0.6160 
  6 C        2.8630     2.9750    -0.2620 C.2   1 <1>  -0.0290 
  7 O        2.5840    -0.4750     0.4410 O.2   1 <1>  -0.5700 
  8 C        3.0770     1.6400    -0.3660 C.2   1 <1>  -0.1360 
  9 C        3.5670     4.0080    -1.1380 C.3   1 <1>   0.4810 
 10 N        4.4790     4.8380    -0.2920 N.4   1 <1>  -0.9590 
 11 C        4.9270     6.0580    -1.0250 C.3   1 <1>   0.3430 
 12 C        5.6320     4.0250     0.2210 C.3   1 <1>   0.2630 
 13 C        5.5240     7.0720    -0.0510 C.3   1 <1>  -0.1600 
 14 C        5.8720     8.3870    -0.7570 C.3   1 <1>   0.0210 
 15 C        6.4730     9.3480     0.2500 C.2   1 <1>  -0.1810 
 16 C        5.7810    10.2490     1.0590 C.2   1 <1>   0.1080 
 17 C        7.7740     9.5260     0.5720 C.2   1 <1>  -0.3320 
 18 N        6.5720    10.9250     1.8260 N.2   1 <1>  -0.7070 
 19 C        4.2840    10.4660     1.0840 C.3   1 <1>  -0.0590 
 20 N        7.8040    10.4850     1.5220 N.pl3 1 <1>   0.3000 
 21 C        9.0340     8.8580     0.0470 C.3   1 <1>  -0.0600 
 22 H        1.0540     0.5830     2.0340 H     1 <1>   0.3700 
 23 H        1.6340     4.3800     0.8130 H     1 <1>   0.3700 
 24 H        3.7450     1.1940    -1.0790 H     1 <1>   0.1500 
 25 H        2.8240     4.6320    -1.6070 H     1 <1>   0.0800 
 26 H        4.1300     3.5120    -1.9110 H     1 <1>   0.0800 
 27 H        3.9310     5.1400     0.5260 H     1 <1>   0.4500 
 28 H        4.0840     6.5140    -1.5200 H     1 <1>   0.0800 
 29 H        5.6570     5.7970    -1.7760 H     1 <1>   0.0800 
 30 H        6.2490     3.6870    -0.5960 H     1 <1>   0.0800 
 31 H        5.2740     3.1640     0.7620 H     1 <1>   0.0800 
 32 H        6.2400     4.6120     0.8900 H     1 <1>   0.0800 
 33 H        6.4260     6.6860     0.3900 H     1 <1>   0.0800 
 34 H        4.8220     7.2850     0.7360 H     1 <1>   0.0800 
 35 H        4.9960     8.8320    -1.1940 H     1 <1>   0.0800 
 36 H        6.5830     8.2150    -1.5460 H     1 <1>   0.0800 
 37 H        3.7840     9.5620     1.3720 H     1 <1>   0.0800 
 38 H        3.9440    10.7780     0.1150 H     1 <1>   0.0800 
 39 H        4.0420    11.2350     1.7960 H     1 <1>   0.0800 
 40 H        8.6420    10.8610     1.9810 H     1 <1>   0.2700 
 41 H        8.7950     8.1080    -0.6840 H     1 <1>   0.0800 
 42 H        9.5680     8.3890     0.8550 H     1 <1>   0.0800 
 43 H        9.6740     9.5900    -0.4130 H     1 <1>   0.0800 
@<TRIPOS>BOND
  1   1   2  2   
  2   2   3  am  
  3   2   4  am  
  4   3   5  am  
  5   3  22  1   
  6   4   6  1   
  7   4  23  1   
  8   5   7  2   
  9   5   8  1   
 10   6   8  2   
 11   6   9  1   
 12   8  24  1   
 13   9  10  1   
 14   9  25  1   
 15   9  26  1   
 16  10  11  1   
 17  10  12  1   
 18  10  27  1   
 19  11  13  1   
 20  11  28  1   
 21  11  29  1   
 22  12  30  1   
 23  12  31  1   
 24  12  32  1   
 25  13  14  1   
 26  13  33  1   
 27  13  34  1   
 28  14  15  1   
 29  14  35  1   
 30  14  36  1   
 31  15  16  1   
 32  15  17  2   
 33  16  18  2   
 34  16  19  1   
 35  17  20  1   
 36  17  21  1   
 37  18  20  1   
 38  19  37  1   
 39  19  38  1   
 40  19  39  1   
 41  20  40  1   
 42  21  41  1   
 43  21  42  1   
 44  21  43  1   
@<TRIPOS>SUBSTRUCTURE
  1 ****  10 GROUP 4 **** **** 0

# MOE 2024.06 (io_trps.svl 2023.06)
