@<TRIPOS>MOLECULE
NONAME
56 59 1 0 0 
SMALL
USER_CHARGES


@<TRIPOS>ATOM
  1 O        2.3170    -1.7720     1.8590 O.2   1 <1>  -0.5700 
  2 C        1.4500    -2.0550     1.0480 C.2   1 <1>   0.5440 
  3 N        0.4500    -1.1120     0.8570 N.am  1 <1>  -0.6600 
  4 C        1.5390    -3.3420     0.3440 C.ar  1 <1>   0.3960 
  5 C       -0.6640    -1.1820    -0.1210 C.3   1 <1>   0.1400 
  6 C        0.4520     0.2000     1.5440 C.3   1 <1>   0.1400 
  7 N        0.4680    -3.8790    -0.2660 N.ar  1 <1>  -0.6200 
  8 C        2.7730    -4.0050     0.3360 C.ar  1 <1>   0.1600 
  9 C       -1.4600     0.1020     0.0800 C.3   1 <1>  -0.1600 
 10 C       -0.4740     1.0780     0.7130 C.3   1 <1>  -0.1600 
 11 C        0.7010    -5.0340    -0.8470 C.ar  1 <1>   0.4100 
 12 N        3.0290    -5.1700    -0.2480 N.ar  1 <1>  -0.6200 
 13 N       -0.4060    -5.5640    -1.4500 N.pl3 1 <1>  -0.8690 
 14 C        1.9580    -5.6550    -0.8410 C.ar  1 <1>   0.1600 
 15 C       -0.8920    -6.9330    -1.1260 C.3   1 <1>   0.2090 
 16 C       -1.9200    -6.9360     0.0370 C.3   1 <1>   0.1430 
 17 C       -2.9800    -5.8430    -0.2110 C.ar  1 <1>  -0.1430 
 18 C       -1.2180    -6.8110     1.4010 C.3   1 <1>  -0.1600 
 19 C       -2.5480    -8.3350     0.1660 C.3   1 <1>  -0.1600 
 20 C       -4.0540    -6.0750    -1.0630 C.ar  1 <1>  -0.1500 
 21 C       -2.8730    -4.5880     0.3810 C.ar  1 <1>  -0.1500 
 22 C       -0.6860    -8.2050     1.7450 C.3   1 <1>  -0.1600 
 23 C       -1.5490    -9.1890     0.9530 C.3   1 <1>  -0.1600 
 24 C       -4.9990    -5.0930    -1.3080 C.ar  1 <1>  -0.1500 
 25 C       -3.8150    -3.6050     0.1410 C.ar  1 <1>  -0.1500 
 26 C       -4.8830    -3.8470    -0.7030 C.ar  1 <1>   0.0830 
 27 O       -5.7600    -2.8280    -0.8880 O.3   1 <1>  -0.3620 
 28 C       -6.8980    -2.9830    -1.7060 C.3   1 <1>   0.0400 
 29 H       -1.2830    -2.0440     0.0590 H     1 <1>   0.0800 
 30 H       -0.2590    -1.2270    -1.1180 H     1 <1>   0.0800 
 31 H        1.4470     0.6100     1.5960 H     1 <1>   0.0800 
 32 H        0.0630     0.0710     2.5400 H     1 <1>   0.0800 
 33 H        3.6010    -3.5390     0.8430 H     1 <1>   0.1500 
 34 H       -2.2690    -0.0940     0.7620 H     1 <1>   0.0800 
 35 H       -1.8650     0.4690    -0.8460 H     1 <1>   0.0800 
 36 H        0.1030     1.5650    -0.0530 H     1 <1>   0.0800 
 37 H       -0.9620     1.8250     1.3140 H     1 <1>   0.0800 
 38 H       -1.1890    -4.8990    -1.3920 H     1 <1>   0.4000 
 39 H        2.0530    -6.5900    -1.3600 H     1 <1>   0.1500 
 40 H       -0.0610    -7.5750    -0.8920 H     1 <1>   0.0800 
 41 H       -1.3660    -7.3260    -2.0080 H     1 <1>   0.0800 
 42 H       -1.9470    -6.5370     2.1450 H     1 <1>   0.0800 
 43 H       -0.4350    -6.0750     1.4070 H     1 <1>   0.0800 
 44 H       -2.7830    -8.7780    -0.7860 H     1 <1>   0.0800 
 45 H       -3.4550    -8.2550     0.7400 H     1 <1>   0.0800 
 46 H       -4.1670    -7.0250    -1.5520 H     1 <1>   0.1500 
 47 H       -2.0490    -4.3530     1.0320 H     1 <1>   0.1500 
 48 H       -0.7510    -8.3880     2.8050 H     1 <1>   0.0800 
 49 H        0.3440    -8.2930     1.4430 H     1 <1>   0.0800 
 50 H       -0.9290    -9.7550     0.2780 H     1 <1>   0.0800 
 51 H       -2.0630    -9.8740     1.6060 H     1 <1>   0.0800 
 52 H       -5.8130    -5.3160    -1.9710 H     1 <1>   0.1500 
 53 H       -3.7260    -2.6410     0.6080 H     1 <1>   0.1500 
 54 H       -7.4460    -2.0590    -1.6930 H     1 <1>   0.0800 
 55 H       -7.5070    -3.7750    -1.3080 H     1 <1>   0.0800 
 56 H       -6.5790    -3.2060    -2.7090 H     1 <1>   0.0800 
@<TRIPOS>BOND
  1   1   2  2   
  2   2   3  am  
  3   2   4  1   
  4   3   5  1   
  5   3   6  1   
  6   4   7  ar  
  7   4   8  ar  
  8   5   9  1   
  9   5  29  1   
 10   5  30  1   
 11   6  10  1   
 12   6  31  1   
 13   6  32  1   
 14   7  11  ar  
 15   8  12  ar  
 16   8  33  1   
 17   9  10  1   
 18   9  34  1   
 19   9  35  1   
 20  10  36  1   
 21  10  37  1   
 22  11  13  1   
 23  11  14  ar  
 24  12  14  ar  
 25  13  15  1   
 26  13  38  1   
 27  14  39  1   
 28  15  16  1   
 29  15  40  1   
 30  15  41  1   
 31  16  17  1   
 32  16  18  1   
 33  16  19  1   
 34  17  20  ar  
 35  17  21  ar  
 36  18  22  1   
 37  18  42  1   
 38  18  43  1   
 39  19  23  1   
 40  19  44  1   
 41  19  45  1   
 42  20  24  ar  
 43  20  46  1   
 44  21  25  ar  
 45  21  47  1   
 46  22  23  1   
 47  22  48  1   
 48  22  49  1   
 49  23  50  1   
 50  23  51  1   
 51  24  26  ar  
 52  24  52  1   
 53  25  26  ar  
 54  25  53  1   
 55  26  27  1   
 56  27  28  1   
 57  28  54  1   
 58  28  55  1   
 59  28  56  1   
@<TRIPOS>SUBSTRUCTURE
  1 ****   7 GROUP 4 **** **** 0

# MOE 2024.06 (io_trps.svl 2023.06)
