@<TRIPOS>MOLECULE
NONAME
51 54 1 0 0 
SMALL
USER_CHARGES


@<TRIPOS>ATOM
  1 O        1.0300     0.5870    -1.7140 O.3   1 <1>  -0.5600 
  2 C        2.2120    -0.1410    -1.4650 C.3   1 <1>   0.2000 
  3 C        1.1320     1.9740    -1.5660 C.3   1 <1>   0.1200 
  4 C        2.7780     0.1700    -0.0540 C.3   1 <1>   0.5660 
  5 C        1.8990    -1.6400    -1.6030 C.3   1 <1>   0.1200 
  6 C        1.5570     2.3270    -0.1300 C.3   1 <1>   0.3430 
  7 N        2.8340     1.6370     0.2240 N.4   1 <1>  -0.9590 
  8 C        4.1700    -0.4200     0.1290 C.ar  1 <1>  -0.1440 
  9 O        1.1830    -2.0870    -0.4940 O.3   1 <1>  -0.6800 
 10 C        3.3230     1.9700     1.5760 C.3   1 <1>   0.5240 
 11 C        4.3350    -1.4970     0.9890 C.ar  1 <1>  -0.1500 
 12 C        5.2790     0.0930    -0.5350 C.ar  1 <1>  -0.1500 
 13 C        3.9000     3.3670     1.5140 C.2   1 <1>  -0.1810 
 14 C        5.5880    -2.0470     1.1910 C.ar  1 <1>  -0.1500 
 15 C        6.5310    -0.4580    -0.3310 C.ar  1 <1>  -0.1500 
 16 C        4.4540     4.0090     0.4480 C.2   1 <1>  -0.0260 
 17 C        3.9900     4.2660     2.5640 C.2   1 <1>   0.1390 
 18 C        6.6870    -1.5270     0.5330 C.ar  1 <1>  -0.1500 
 19 N        4.6270     3.5930    -0.8600 N.2   1 <1>  -0.5760 
 20 N        4.8520     5.2450     0.9130 N.pl3 1 <1>   0.6010 
 21 N        4.5460     5.3910     2.2210 N.2   1 <1>  -0.7070 
 22 C        5.2170     4.4310    -1.6520 C.2   1 <1>   0.3750 
 23 C        5.4770     6.1310     0.0470 C.2   1 <1>  -0.1690 
 24 C        5.6600     5.7190    -1.2360 C.2   1 <1>  -0.1360 
 25 C        5.4470     4.0320    -3.0930 C.3   1 <1>  -0.1790 
 26 C        5.9160     7.4870     0.5830 C.3   1 <1>  -0.1020 
 27 H        2.9260     0.1340    -2.2210 H     1 <1>   0.0800 
 28 H        1.8400     2.3520    -2.2840 H     1 <1>   0.0800 
 29 H        0.1660     2.3970    -1.7810 H     1 <1>   0.0800 
 30 H        2.1180    -0.2910     0.6620 H     1 <1>   0.0800 
 31 H        2.8090    -2.2140    -1.6600 H     1 <1>   0.0800 
 32 H        1.3140    -1.8160    -2.4900 H     1 <1>   0.0800 
 33 H        0.7730     2.0280     0.5460 H     1 <1>   0.0800 
 34 H        1.6840     3.3950    -0.0500 H     1 <1>   0.0800 
 35 H        3.5650     2.0410    -0.3890 H     1 <1>   0.4500 
 36 H        0.7710    -2.9580    -0.6800 H     1 <1>   0.4000 
 37 H        2.5210     1.9170     2.2940 H     1 <1>   0.0800 
 38 H        4.1040     1.2880     1.8730 H     1 <1>   0.0800 
 39 H        3.4900    -1.9240     1.5060 H     1 <1>   0.1500 
 40 H        5.1930     0.9210    -1.2170 H     1 <1>   0.1500 
 41 H        5.7110    -2.8830     1.8590 H     1 <1>   0.1500 
 42 H        7.3900    -0.0580    -0.8440 H     1 <1>   0.1500 
 43 H        3.6470     4.0830     3.5710 H     1 <1>   0.1500 
 44 H        7.6630    -1.9550     0.6910 H     1 <1>   0.1500 
 45 H        6.1400     6.3460    -1.9660 H     1 <1>   0.1500 
 46 H        4.9430     4.7190    -3.7480 H     1 <1>   0.0800 
 47 H        5.0740     3.0420    -3.2790 H     1 <1>   0.0800 
 48 H        6.5000     4.0480    -3.3110 H     1 <1>   0.0800 
 49 H        6.6160     7.3550     1.3900 H     1 <1>   0.0800 
 50 H        5.0650     8.0290     0.9570 H     1 <1>   0.0800 
 51 H        6.3870     8.0730    -0.1860 H     1 <1>   0.0800 
@<TRIPOS>BOND
  1   1   2  1   
  2   1   3  1   
  3   2   4  1   
  4   2   5  1   
  5   2  27  1   
  6   3   6  1   
  7   3  28  1   
  8   3  29  1   
  9   4   7  1   
 10   4   8  1   
 11   4  30  1   
 12   5   9  1   
 13   5  31  1   
 14   5  32  1   
 15   6   7  1   
 16   6  33  1   
 17   6  34  1   
 18   7  10  1   
 19   7  35  1   
 20   8  11  ar  
 21   8  12  ar  
 22   9  36  1   
 23  10  13  1   
 24  10  37  1   
 25  10  38  1   
 26  11  14  ar  
 27  11  39  1   
 28  12  15  ar  
 29  12  40  1   
 30  13  16  2   
 31  13  17  1   
 32  14  18  ar  
 33  14  41  1   
 34  15  18  ar  
 35  15  42  1   
 36  16  19  1   
 37  16  20  1   
 38  17  21  2   
 39  17  43  1   
 40  18  44  1   
 41  19  22  2   
 42  20  21  1   
 43  20  23  1   
 44  22  24  1   
 45  22  25  1   
 46  23  24  2   
 47  23  26  1   
 48  24  45  1   
 49  25  46  1   
 50  25  47  1   
 51  25  48  1   
 52  26  49  1   
 53  26  50  1   
 54  26  51  1   
@<TRIPOS>SUBSTRUCTURE
  1 ****   7 GROUP 4 **** **** 0

# MOE 2024.06 (io_trps.svl 2023.06)
