@<TRIPOS>MOLECULE
NONAME
48 50 1 0 0 
SMALL
USER_CHARGES


@<TRIPOS>ATOM
  1 S        0.3290     0.0500     0.8050 S.3   1 <1>  -0.3320 
  2 C       -1.1940    -0.7670     0.2900 C.ar  1 <1>   0.1020 
  3 C        0.3930     1.6580    -0.0980 C.3   1 <1>   0.0700 
  4 C       -1.4870    -1.9790     0.8910 C.ar  1 <1>  -0.1500 
  5 C       -2.0400    -0.2170    -0.6640 C.ar  1 <1>  -0.1500 
  6 C        1.6620     2.3900     0.3350 C.3   1 <1>  -0.0990 
  7 C       -2.6420    -2.6520     0.5360 C.ar  1 <1>   0.0830 
  8 C       -3.2000    -0.8900    -1.0140 C.ar  1 <1>  -0.1500 
  9 C        1.7310     3.7540    -0.3110 C.2   1 <1>   0.5690 
 10 O       -2.9110    -3.8470     1.1200 O.3   1 <1>  -0.3630 
 11 C       -3.5070    -2.1000    -0.4140 C.ar  1 <1>   0.0830 
 12 O        1.6380     3.8410    -1.5110 O.2   1 <1>  -0.5700 
 13 N        1.9080     4.8400     0.4740 N.am  1 <1>  -0.7300 
 14 C       -3.9090    -4.6450     0.5130 C.3   1 <1>   0.1200 
 15 O       -4.6590    -2.7290    -0.7640 O.3   1 <1>  -0.3630 
 16 C        2.0180     6.2160    -0.0120 C.3   1 <1>   0.4000 
 17 C       -5.0980    -3.7740     0.0840 C.3   1 <1>   0.1200 
 18 C        3.4280     6.6740     0.3110 C.2   1 <1>  -0.3320 
 19 C        0.9260     7.0550     0.6650 C.3   1 <1>  -0.1600 
 20 N        4.5000     6.3160    -0.4330 N.pl3 1 <1>   0.3140 
 21 C        3.8970     7.4570     1.3100 C.2   1 <1>  -0.1500 
 22 C        0.8500     8.4900     0.1170 C.3   1 <1>  -0.2400 
 23 N        5.6350     6.8440     0.0580 N.2   1 <1>  -0.7070 
 24 C        4.5290     5.4590    -1.6290 C.3   1 <1>   0.0160 
 25 C        5.2670     7.5250     1.0980 C.2   1 <1>   0.1390 
 26 H       -0.4910     2.2120     0.1640 H     1 <1>   0.0800 
 27 H        0.4060     1.4420    -1.1520 H     1 <1>   0.0800 
 28 H       -0.8230    -2.3970     1.6250 H     1 <1>   0.1500 
 29 H       -1.8180     0.7180    -1.1390 H     1 <1>   0.1500 
 30 H        2.5240     1.8230     0.0360 H     1 <1>   0.0800 
 31 H        1.6700     2.4910     1.4050 H     1 <1>   0.0800 
 32 H       -3.8710    -0.4820    -1.7480 H     1 <1>   0.1500 
 33 H        2.1180     4.7400     1.4660 H     1 <1>   0.3700 
 34 H       -4.2170    -5.3890     1.2250 H     1 <1>   0.0800 
 35 H       -3.4740    -5.1320    -0.3420 H     1 <1>   0.0800 
 36 H        1.8580     6.2460    -1.0770 H     1 <1>   0.0800 
 37 H       -5.5670    -3.3320     0.9450 H     1 <1>   0.0800 
 38 H       -5.8230    -4.3550    -0.4560 H     1 <1>   0.0800 
 39 H        1.0980     7.0870     1.7260 H     1 <1>   0.0800 
 40 H       -0.0240     6.5810     0.4930 H     1 <1>   0.0800 
 41 H        3.3660     7.9390     2.1100 H     1 <1>   0.1500 
 42 H        1.7750     9.0140     0.2800 H     1 <1>   0.0800 
 43 H        0.0620     9.0310     0.6110 H     1 <1>   0.0800 
 44 H        0.6450     8.4770    -0.9390 H     1 <1>   0.0800 
 45 H        3.7560     5.7620    -2.3090 H     1 <1>   0.0800 
 46 H        4.3740     4.4390    -1.3340 H     1 <1>   0.0800 
 47 H        5.4860     5.5540    -2.1070 H     1 <1>   0.0800 
 48 H        5.9540     8.0750     1.7180 H     1 <1>   0.1500 
@<TRIPOS>BOND
  1   1   2  1   
  2   1   3  1   
  3   2   4  ar  
  4   2   5  ar  
  5   3   6  1   
  6   3  26  1   
  7   3  27  1   
  8   4   7  ar  
  9   4  28  1   
 10   5   8  ar  
 11   5  29  1   
 12   6   9  1   
 13   6  30  1   
 14   6  31  1   
 15   7  10  1   
 16   7  11  ar  
 17   8  11  ar  
 18   8  32  1   
 19   9  12  2   
 20   9  13  am  
 21  10  14  1   
 22  11  15  1   
 23  13  16  1   
 24  13  33  1   
 25  14  17  1   
 26  14  34  1   
 27  14  35  1   
 28  15  17  1   
 29  16  18  1   
 30  16  19  1   
 31  16  36  1   
 32  17  37  1   
 33  17  38  1   
 34  18  20  1   
 35  18  21  2   
 36  19  22  1   
 37  19  39  1   
 38  19  40  1   
 39  20  23  1   
 40  20  24  1   
 41  21  25  1   
 42  21  41  1   
 43  22  42  1   
 44  22  43  1   
 45  22  44  1   
 46  23  25  2   
 47  24  45  1   
 48  24  46  1   
 49  24  47  1   
 50  25  48  1   
@<TRIPOS>SUBSTRUCTURE
  1 ****   3 GROUP 4 **** **** 0

# MOE 2024.06 (io_trps.svl 2023.06)
