@<TRIPOS>MOLECULE
NONAME
56 59 1 0 0 
SMALL
USER_CHARGES


@<TRIPOS>ATOM
  1 O        0.0710    -0.0280     0.8390 O.3   1 <1>  -0.5600 
  2 C        0.8300     0.7190    -0.0520 C.3   1 <1>   0.1200 
  3 C       -1.2780     0.0960     0.4940 C.3   1 <1>   0.1200 
  4 C        0.0180     2.0030    -0.1850 C.3   1 <1>   0.4230 
  5 C       -1.3780     1.3950    -0.3240 C.3   1 <1>  -0.0800 
  6 N        0.1320     2.7570     1.1000 N.4   1 <1>  -0.9060 
  7 C       -2.5820     2.2850     0.0450 C.3   1 <1>  -0.0170 
  8 C        1.0720     3.9080     1.1390 C.3   1 <1>   0.4230 
  9 C       -3.8850     1.5670    -0.2610 C.ar  1 <1>  -0.1440 
 10 C        0.5490     5.0330     0.2370 C.3   1 <1>  -0.1600 
 11 C        2.5050     3.4820     0.7940 C.3   1 <1>  -0.1600 
 12 C       -4.6200     0.9270     0.7180 C.ar  1 <1>  -0.1500 
 13 C       -4.4020     1.5160    -1.5410 C.ar  1 <1>  -0.1500 
 14 C        1.5230     6.2080     0.2440 C.3   1 <1>   0.2090 
 15 C        3.4260     4.6970     0.7980 C.3   1 <1>   0.2090 
 16 C       -5.7960     0.2790     0.3780 C.ar  1 <1>   0.1600 
 17 C       -5.5890     0.8410    -1.7750 C.ar  1 <1>   0.1600 
 18 N        2.8480     5.6820    -0.1370 N.pl3 1 <1>  -0.8380 
 19 N       -6.2940     0.2190    -0.8450 N.ar  1 <1>  -0.6200 
 20 C        3.7330     6.6050    -0.6810 C.ar  1 <1>   0.1000 
 21 C        4.3620     7.5620     0.1090 C.ar  1 <1>  -0.1500 
 22 C        4.0010     6.5800    -2.0420 C.ar  1 <1>  -0.1500 
 23 C        5.2410     8.4760    -0.4450 C.ar  1 <1>  -0.1440 
 24 C        4.8780     7.4890    -2.6040 C.ar  1 <1>  -0.1500 
 25 C        5.4970     8.4360    -1.8060 C.ar  1 <1>  -0.1500 
 26 C        5.9270     9.5200     0.4180 C.3   1 <1>  -0.0970 
 27 H        1.8200     0.8570     0.3430 H     1 <1>   0.0800 
 28 H        0.8840     0.1840    -0.9870 H     1 <1>   0.0800 
 29 H       -1.5700    -0.7640    -0.0880 H     1 <1>   0.0800 
 30 H       -1.8540     0.1270     1.4030 H     1 <1>   0.0800 
 31 H        0.3030     2.6000    -1.0360 H     1 <1>   0.0800 
 32 H       -1.4980     1.1030    -1.3540 H     1 <1>   0.0800 
 33 H       -0.7950     3.0840     1.3760 H     1 <1>   0.4500 
 34 H        0.4000     2.0480     1.8000 H     1 <1>   0.4500 
 35 H       -2.5500     3.1990    -0.5240 H     1 <1>   0.0800 
 36 H       -2.5720     2.5420     1.0890 H     1 <1>   0.0800 
 37 H        1.0920     4.2940     2.1470 H     1 <1>   0.0800 
 38 H        0.4520     4.7040    -0.7810 H     1 <1>   0.0800 
 39 H       -0.4070     5.3800     0.5840 H     1 <1>   0.0800 
 40 H        2.8700     2.7710     1.5130 H     1 <1>   0.0800 
 41 H        2.5590     3.0510    -0.1890 H     1 <1>   0.0800 
 42 H       -4.3010     0.9200     1.7440 H     1 <1>   0.1500 
 43 H       -3.9020     1.9920    -2.3640 H     1 <1>   0.1500 
 44 H        1.5780     6.6640     1.2190 H     1 <1>   0.0800 
 45 H        1.2130     6.9580    -0.4670 H     1 <1>   0.0800 
 46 H        4.4150     4.4200     0.4670 H     1 <1>   0.0800 
 47 H        3.5020     5.1270     1.7830 H     1 <1>   0.0800 
 48 H       -6.3590    -0.2150     1.1520 H     1 <1>   0.1500 
 49 H       -5.9790     0.8100    -2.7780 H     1 <1>   0.1500 
 50 H        4.1540     7.5840     1.1610 H     1 <1>   0.1500 
 51 H        3.5180     5.8430    -2.6540 H     1 <1>   0.1500 
 52 H        5.0800     7.4620    -3.6600 H     1 <1>   0.1500 
 53 H        6.1790     9.1410    -2.2490 H     1 <1>   0.1500 
 54 H        5.6660    10.5050     0.0750 H     1 <1>   0.0800 
 55 H        6.9940     9.4010     0.3560 H     1 <1>   0.0800 
 56 H        5.6310     9.4250     1.4470 H     1 <1>   0.0800 
@<TRIPOS>BOND
  1   1   2  1   
  2   1   3  1   
  3   2   4  1   
  4   2  27  1   
  5   2  28  1   
  6   3   5  1   
  7   3  29  1   
  8   3  30  1   
  9   4   5  1   
 10   4   6  1   
 11   4  31  1   
 12   5   7  1   
 13   5  32  1   
 14   6   8  1   
 15   6  33  1   
 16   6  34  1   
 17   7   9  1   
 18   7  35  1   
 19   7  36  1   
 20   8  10  1   
 21   8  11  1   
 22   8  37  1   
 23   9  12  ar  
 24   9  13  ar  
 25  10  14  1   
 26  10  38  1   
 27  10  39  1   
 28  11  15  1   
 29  11  40  1   
 30  11  41  1   
 31  12  16  ar  
 32  12  42  1   
 33  13  17  ar  
 34  13  43  1   
 35  14  18  1   
 36  14  44  1   
 37  14  45  1   
 38  15  18  1   
 39  15  46  1   
 40  15  47  1   
 41  16  19  ar  
 42  16  48  1   
 43  17  19  ar  
 44  17  49  1   
 45  18  20  1   
 46  20  21  ar  
 47  20  22  ar  
 48  21  23  ar  
 49  21  50  1   
 50  22  24  ar  
 51  22  51  1   
 52  23  25  ar  
 53  23  26  1   
 54  24  25  ar  
 55  24  52  1   
 56  25  53  1   
 57  26  54  1   
 58  26  55  1   
 59  26  56  1   
@<TRIPOS>SUBSTRUCTURE
  1 ****  10 GROUP 4 **** **** 0

# MOE 2024.06 (io_trps.svl 2023.06)
