@<TRIPOS>MOLECULE
NONAME
53 54 1 0 0 
SMALL
USER_CHARGES


@<TRIPOS>ATOM
  1 S        0.8110     0.6990    -1.0040 S.o2  1 <1>   1.3330 
  2 O        0.1720     0.0300     0.1070 O.2   1 <1>  -0.6500 
  3 O        0.2150     0.6260    -2.3180 O.2   1 <1>  -0.6500 
  4 N        0.9620     2.3420    -0.6020 N.am  1 <1>  -0.8490 
  5 C        2.5070     0.1220    -1.0950 C.3   1 <1>  -0.0550 
  6 C       -0.2930     2.8900    -0.0820 C.3   1 <1>   0.1160 
  7 C        1.4440     3.1690    -1.7150 C.3   1 <1>   0.1160 
  8 C        3.2990     0.3230     0.2090 C.3   1 <1>  -0.0800 
  9 C        4.7950     0.1070     0.0030 C.3   1 <1>   0.2200 
 10 C        2.9320    -0.6540     1.3270 C.3   1 <1>   0.1200 
 11 N        5.5030     1.3740     0.2770 N.am  1 <1>  -0.7300 
 12 C        5.1500    -0.9690     1.0270 C.3   1 <1>   0.1200 
 13 O        4.1320    -0.9360     1.9710 O.3   1 <1>  -0.5600 
 14 C        5.6410     2.3710    -0.6320 C.2   1 <1>   0.5690 
 15 O        5.2390     2.2530    -1.7640 O.2   1 <1>  -0.5700 
 16 C        6.3160     3.6570    -0.2000 C.3   1 <1>  -0.0990 
 17 C        5.3660     4.8500     0.0560 C.3   1 <1>   0.1430 
 18 C        6.2030     5.9880     0.6850 C.ar  1 <1>  -0.1440 
 19 C        4.7470     5.3560    -1.2600 C.3   1 <1>  -0.2400 
 20 C        4.1960     4.4130     0.9620 C.3   1 <1>  -0.2400 
 21 C        7.2300     6.5710    -0.0530 C.ar  1 <1>  -0.1500 
 22 C        5.9920     6.4630     1.9790 C.ar  1 <1>  -0.1500 
 23 C        8.0110     7.5860     0.4710 C.ar  1 <1>  -0.1500 
 24 C        6.7700     7.4780     2.5070 C.ar  1 <1>  -0.1500 
 25 C        7.7820     8.0430     1.7540 C.ar  1 <1>  -0.1500 
 26 H        2.5150    -0.9160    -1.3640 H     1 <1>   0.0800 
 27 H        3.0040     0.6590    -1.8800 H     1 <1>   0.0800 
 28 H       -0.1640     3.9230     0.1910 H     1 <1>   0.0800 
 29 H       -0.5960     2.3450     0.7960 H     1 <1>   0.0800 
 30 H       -1.0710     2.8110    -0.8240 H     1 <1>   0.0800 
 31 H        1.5620     4.1900    -1.3920 H     1 <1>   0.0800 
 32 H        0.7480     3.1410    -2.5370 H     1 <1>   0.0800 
 33 H        2.4010     2.8150    -2.0580 H     1 <1>   0.0800 
 34 H        3.1200     1.3180     0.5770 H     1 <1>   0.0800 
 35 H        5.0340    -0.2320    -0.9910 H     1 <1>   0.0800 
 36 H        2.5340    -1.5770     0.9410 H     1 <1>   0.0800 
 37 H        2.2400    -0.2270     2.0350 H     1 <1>   0.0800 
 38 H        5.7320     1.5360     1.2590 H     1 <1>   0.3700 
 39 H        6.0960    -0.7960     1.5100 H     1 <1>   0.0800 
 40 H        5.1420    -1.9440     0.5720 H     1 <1>   0.0800 
 41 H        6.8740     3.4640     0.6980 H     1 <1>   0.0800 
 42 H        7.0290     3.9170    -0.9590 H     1 <1>   0.0800 
 43 H        4.0910     4.6190    -1.6850 H     1 <1>   0.0800 
 44 H        5.5030     5.5770    -1.9900 H     1 <1>   0.0800 
 45 H        4.1800     6.2520    -1.0790 H     1 <1>   0.0800 
 46 H        3.5760     3.6840     0.4720 H     1 <1>   0.0800 
 47 H        3.5710     5.2560     1.1980 H     1 <1>   0.0800 
 48 H        4.5610     3.9820     1.8770 H     1 <1>   0.0800 
 49 H        7.4400     6.2410    -1.0540 H     1 <1>   0.1500 
 50 H        5.2220     6.0600     2.6090 H     1 <1>   0.1500 
 51 H        8.7970     8.0200    -0.1210 H     1 <1>   0.1500 
 52 H        6.5870     7.8300     3.5070 H     1 <1>   0.1500 
 53 H        8.3870     8.8320     2.1650 H     1 <1>   0.1500 
@<TRIPOS>BOND
  1   1   2  2   
  2   1   3  2   
  3   1   4  am  
  4   1   5  1   
  5   4   6  1   
  6   4   7  1   
  7   5   8  1   
  8   5  26  1   
  9   5  27  1   
 10   6  28  1   
 11   6  29  1   
 12   6  30  1   
 13   7  31  1   
 14   7  32  1   
 15   7  33  1   
 16   8   9  1   
 17   8  10  1   
 18   8  34  1   
 19   9  11  1   
 20   9  12  1   
 21   9  35  1   
 22  10  13  1   
 23  10  36  1   
 24  10  37  1   
 25  11  14  am  
 26  11  38  1   
 27  12  13  1   
 28  12  39  1   
 29  12  40  1   
 30  14  15  2   
 31  14  16  1   
 32  16  17  1   
 33  16  41  1   
 34  16  42  1   
 35  17  18  1   
 36  17  19  1   
 37  17  20  1   
 38  18  21  ar  
 39  18  22  ar  
 40  19  43  1   
 41  19  44  1   
 42  19  45  1   
 43  20  46  1   
 44  20  47  1   
 45  20  48  1   
 46  21  23  ar  
 47  21  49  1   
 48  22  24  ar  
 49  22  50  1   
 50  23  25  ar  
 51  23  51  1   
 52  24  25  ar  
 53  24  52  1   
 54  25  53  1   
@<TRIPOS>SUBSTRUCTURE
  1 ****  20 GROUP 4 **** **** 0

# MOE 2024.06 (io_trps.svl 2023.06)
