@<TRIPOS>MOLECULE
NONAME
47 50 1 0 0 
SMALL
USER_CHARGES


@<TRIPOS>ATOM
  1 O        2.3540     0.5880    -1.9850 O.3   1 <1>  -0.0190 
  2 N        1.8550     1.7320    -2.3310 N.2   1 <1>  -0.4100 
  3 C        2.0190     0.4560    -0.7280 C.2   1 <1>   0.2980 
  4 C        1.2510     2.2340    -1.3080 C.2   1 <1>   0.4620 
  5 N        1.3500     1.4240    -0.2420 N.2   1 <1>  -0.5650 
  6 C        2.4630    -0.8040     0.0200 C.3   1 <1>   0.4690 
  7 C        0.5350     3.5100    -1.2590 C.ar  1 <1>   0.3640 
  8 N        2.2110    -2.0730    -0.7320 N.pl3 1 <1>  -0.8380 
  9 C        3.9620    -0.8390     0.3020 C.3   1 <1>  -0.1600 
 10 N        0.7290     4.4160    -2.2320 N.ar  1 <1>  -0.6200 
 11 C       -0.3420     3.7720    -0.2010 C.ar  1 <1>  -0.1500 
 12 C        0.9160    -2.5430    -0.8810 C.ar  1 <1>   0.4100 
 13 C        3.3430    -3.0130    -0.5420 C.3   1 <1>   0.2090 
 14 C        4.2820    -2.3240     0.4430 C.3   1 <1>  -0.1600 
 15 C        0.0620     5.5520    -2.1470 C.ar  1 <1>   0.1600 
 16 C       -1.0320     4.9610    -0.1210 C.ar  1 <1>  -0.1500 
 17 N        0.0800    -2.2250     0.1030 N.ar  1 <1>  -0.6200 
 18 C        0.5280    -3.2900    -2.0040 C.ar  1 <1>   0.0730 
 19 C       -0.8170     5.8730    -1.1300 C.ar  1 <1>  -0.1500 
 20 C       -1.1740    -2.6250    -0.0060 C.ar  1 <1>   0.1670 
 21 C        1.4590    -3.6190    -3.0380 C.1   1 <1>   0.4840 
 22 C       -0.7860    -3.7070    -2.0990 C.ar  1 <1>  -0.1500 
 23 C       -1.6460    -3.3620    -1.0800 C.ar  1 <1>  -0.1500 
 24 C       -2.1140    -2.2230     1.1320 C.3   1 <1>   0.0630 
 25 N        2.1880    -3.9350    -3.8580 N.1   1 <1>  -0.5570 
 26 C       -2.7300    -3.4480     1.8220 C.3   1 <1>  -0.2400 
 27 C       -3.2100    -1.2680     0.6390 C.3   1 <1>  -0.2400 
 28 H        1.9450    -0.8420     0.9640 H     1 <1>   0.0800 
 29 H        4.4930    -0.4290    -0.5400 H     1 <1>   0.0800 
 30 H        4.2110    -0.2760     1.1830 H     1 <1>   0.0800 
 31 H       -0.4830     3.0310     0.5650 H     1 <1>   0.1500 
 32 H        3.0030    -3.9620    -0.1640 H     1 <1>   0.0800 
 33 H        3.8410    -3.1570    -1.4870 H     1 <1>   0.0800 
 34 H        4.0480    -2.6580     1.4390 H     1 <1>   0.0800 
 35 H        5.3130    -2.5450     0.2300 H     1 <1>   0.0800 
 36 H        0.2260     6.2690    -2.9330 H     1 <1>   0.1500 
 37 H       -1.7090     5.1670     0.6910 H     1 <1>   0.1500 
 38 H       -1.3240     6.8210    -1.1310 H     1 <1>   0.1500 
 39 H       -1.1300    -4.2800    -2.9430 H     1 <1>   0.1500 
 40 H       -2.6770    -3.6630    -1.1230 H     1 <1>   0.1500 
 41 H       -1.5320    -1.6950     1.8700 H     1 <1>   0.0800 
 42 H       -3.3720    -3.9890     1.1510 H     1 <1>   0.0800 
 43 H       -3.3080    -3.1410     2.6760 H     1 <1>   0.0800 
 44 H       -1.9490    -4.1060     2.1590 H     1 <1>   0.0800 
 45 H       -3.8510    -1.7530    -0.0740 H     1 <1>   0.0800 
 46 H       -2.7590    -0.4120     0.1700 H     1 <1>   0.0800 
 47 H       -3.8070    -0.9290     1.4660 H     1 <1>   0.0800 
@<TRIPOS>BOND
  1   1   2  1   
  2   1   3  1   
  3   2   4  2   
  4   3   5  2   
  5   3   6  1   
  6   4   5  1   
  7   4   7  1   
  8   6   8  1   
  9   6   9  1   
 10   6  28  1   
 11   7  10  ar  
 12   7  11  ar  
 13   8  12  1   
 14   8  13  1   
 15   9  14  1   
 16   9  29  1   
 17   9  30  1   
 18  10  15  ar  
 19  11  16  ar  
 20  11  31  1   
 21  12  17  ar  
 22  12  18  ar  
 23  13  14  1   
 24  13  32  1   
 25  13  33  1   
 26  14  34  1   
 27  14  35  1   
 28  15  19  ar  
 29  15  36  1   
 30  16  19  ar  
 31  16  37  1   
 32  17  20  ar  
 33  18  21  1   
 34  18  22  ar  
 35  19  38  1   
 36  20  23  ar  
 37  20  24  1   
 38  21  25  3   
 39  22  23  ar  
 40  22  39  1   
 41  23  40  1   
 42  24  26  1   
 43  24  27  1   
 44  24  41  1   
 45  26  42  1   
 46  26  43  1   
 47  26  44  1   
 48  27  45  1   
 49  27  46  1   
 50  27  47  1   
@<TRIPOS>SUBSTRUCTURE
  1 ****   3 GROUP 4 **** **** 0

# MOE 2024.06 (io_trps.svl 2023.06)
