@<TRIPOS>MOLECULE
NONAME
56 60 1 0 0 
SMALL
USER_CHARGES


@<TRIPOS>ATOM
  1 S       -0.2050    -0.7550     0.5860 S.3   1 <1>  -0.0800 
  2 C       -1.8170    -1.2890     0.1240 C.ar  1 <1>   0.2970 
  3 C       -0.7270     0.9270     0.6760 C.2   1 <1>  -0.1400 
  4 N       -2.0990    -2.5530    -0.1080 N.ar  1 <1>  -0.5670 
  5 C       -2.6810    -0.2220     0.0520 C.ar  1 <1>   0.0000 
  6 C       -2.0360     1.0370     0.3720 C.2   1 <1>  -0.1810 
  7 C        0.3570     1.9150     1.0680 C.3   1 <1>  -0.0600 
  8 C       -3.3620    -2.7300    -0.4380 C.ar  1 <1>   0.4700 
  9 C       -3.9880    -0.5720    -0.3120 C.ar  1 <1>   0.4100 
 10 C       -2.8220     2.3370     0.3480 C.3   1 <1>  -0.0590 
 11 N       -4.3240    -1.8270    -0.5550 N.ar  1 <1>  -0.6200 
 12 N       -5.0020     0.3480    -0.4390 N.pl3 1 <1>  -0.8380 
 13 C       -6.0780     0.3000     0.5770 C.3   1 <1>   0.2090 
 14 C       -5.5220     0.5860    -1.8060 C.3   1 <1>   0.2090 
 15 C       -6.8080     1.6430     0.5880 C.3   1 <1>  -0.1600 
 16 C       -6.2450     1.9340    -1.8360 C.3   1 <1>  -0.1600 
 17 C       -7.3800     2.0020    -0.8010 C.3   1 <1>   0.2800 
 18 O       -8.3170     1.0440    -1.2360 O.3   1 <1>  -0.5600 
 19 C       -7.9930     3.4250    -0.8390 C.3   1 <1>   0.1400 
 20 C       -9.4710     0.7550    -0.5010 C.3   1 <1>   0.1200 
 21 N       -8.9720     3.7070     0.2550 N.am  1 <1>  -0.6600 
 22 C      -10.4780     1.9000    -0.5690 C.3   1 <1>  -0.0990 
 23 C      -10.1290     2.9980     0.4080 C.2   1 <1>   0.5690 
 24 C       -8.6430     4.8410     1.1590 C.3   1 <1>   0.2350 
 25 O      -10.8970     3.2020     1.3170 O.2   1 <1>  -0.5700 
 26 C       -8.8510     6.1660     0.4190 C.3   1 <1>  -0.1950 
 27 C       -9.2900     7.3910     1.1580 C.3   1 <1>  -0.2000 
 28 C      -10.2260     6.7110     0.2000 C.3   1 <1>  -0.2000 
 29 H        0.7480     1.6590     2.0360 H     1 <1>   0.0800 
 30 H       -0.0240     2.9170     1.1060 H     1 <1>   0.0800 
 31 H        1.1570     1.8780     0.3510 H     1 <1>   0.0800 
 32 H       -3.6530    -3.7470    -0.6410 H     1 <1>   0.1500 
 33 H       -2.2050     3.1780     0.6000 H     1 <1>   0.0800 
 34 H       -3.6300     2.2830     1.0540 H     1 <1>   0.0800 
 35 H       -3.2280     2.4960    -0.6340 H     1 <1>   0.0800 
 36 H       -5.6530     0.1010     1.5450 H     1 <1>   0.0800 
 37 H       -6.7620    -0.4970     0.3350 H     1 <1>   0.0800 
 38 H       -6.2000    -0.2080    -2.0740 H     1 <1>   0.0800 
 39 H       -4.7060     0.5870    -2.5080 H     1 <1>   0.0800 
 40 H       -6.1050     2.3990     0.8830 H     1 <1>   0.0800 
 41 H       -7.5770     1.6330     1.3360 H     1 <1>   0.0800 
 42 H       -6.6430     2.1000    -2.8210 H     1 <1>   0.0800 
 43 H       -5.5220     2.7050    -1.6420 H     1 <1>   0.0800 
 44 H       -8.4680     3.5820    -1.7910 H     1 <1>   0.0800 
 45 H       -7.1880     4.1350    -0.7660 H     1 <1>   0.0800 
 46 H       -9.2170     0.5050     0.5130 H     1 <1>   0.0800 
 47 H       -9.9060    -0.1180    -0.9560 H     1 <1>   0.0800 
 48 H      -11.4450     1.5170    -0.3010 H     1 <1>   0.0800 
 49 H      -10.5460     2.2880    -1.5670 H     1 <1>   0.0800 
 50 H       -7.6240     4.7580     1.4930 H     1 <1>   0.0800 
 51 H       -9.2750     4.8140     2.0300 H     1 <1>   0.0800 
 52 H       -8.1280     6.3180    -0.3630 H     1 <1>   0.1000 
 53 H       -8.8750     8.3450     0.8800 H     1 <1>   0.1000 
 54 H       -9.5110     7.3290     2.2100 H     1 <1>   0.1000 
 55 H      -11.0640     6.1570     0.5910 H     1 <1>   0.1000 
 56 H      -10.4500     7.1860    -0.7390 H     1 <1>   0.1000 
@<TRIPOS>BOND
  1   1   2  1   
  2   1   3  1   
  3   2   4  ar  
  4   2   5  ar  
  5   3   6  2   
  6   3   7  1   
  7   4   8  ar  
  8   5   6  1   
  9   5   9  ar  
 10   6  10  1   
 11   7  29  1   
 12   7  30  1   
 13   7  31  1   
 14   8  11  ar  
 15   8  32  1   
 16   9  11  ar  
 17   9  12  1   
 18  10  33  1   
 19  10  34  1   
 20  10  35  1   
 21  12  13  1   
 22  12  14  1   
 23  13  15  1   
 24  13  36  1   
 25  13  37  1   
 26  14  16  1   
 27  14  38  1   
 28  14  39  1   
 29  15  17  1   
 30  15  40  1   
 31  15  41  1   
 32  16  17  1   
 33  16  42  1   
 34  16  43  1   
 35  17  18  1   
 36  17  19  1   
 37  18  20  1   
 38  19  21  1   
 39  19  44  1   
 40  19  45  1   
 41  20  22  1   
 42  20  46  1   
 43  20  47  1   
 44  21  23  am  
 45  21  24  1   
 46  22  23  1   
 47  22  48  1   
 48  22  49  1   
 49  23  25  2   
 50  24  26  1   
 51  24  50  1   
 52  24  51  1   
 53  26  27  1   
 54  26  28  1   
 55  26  52  1   
 56  27  28  1   
 57  27  53  1   
 58  27  54  1   
 59  28  55  1   
 60  28  56  1   
@<TRIPOS>SUBSTRUCTURE
  1 ****  15 GROUP 4 **** **** 0

# MOE 2024.06 (io_trps.svl 2023.06)
