@<TRIPOS>MOLECULE
NONAME
52 55 1 0 0 
SMALL
USER_CHARGES


@<TRIPOS>ATOM
  1 O       -0.1930    -0.3310     0.5020 O.3   1 <1>  -0.6800 
  2 C        0.8090    -0.6080    -0.4200 C.3   1 <1>   0.2000 
  3 C        1.5390    -1.8660     0.0470 C.3   1 <1>  -0.0800 
  4 C        1.8760     0.4960    -0.3130 C.3   1 <1>   0.3430 
  5 C        2.4040    -1.2950     1.1720 C.3   1 <1>   0.3430 
  6 C        2.3570    -2.4930    -1.1140 C.3   1 <1>   0.0210 
  7 N        2.9390    -0.0390     0.5990 N.4   1 <1>  -0.9590 
  8 C        3.8010    -2.8160    -0.7660 C.2   1 <1>   0.1080 
  9 C        3.4320     0.9320     1.6000 C.3   1 <1>   0.5240 
 10 N        4.7330    -1.9110    -0.6810 N.2   1 <1>  -0.7070 
 11 C        4.2820    -4.0950    -0.5150 C.2   1 <1>  -0.1500 
 12 C        3.8600     2.1980     0.8850 C.2   1 <1>  -0.1810 
 13 N        5.8560    -2.6140    -0.4020 N.pl3 1 <1>   0.3000 
 14 C        5.6000    -3.9310    -0.2830 C.2   1 <1>  -0.3320 
 15 C        4.9300     2.3520     0.0090 C.2   1 <1>   0.1080 
 16 C        3.2940     3.4230     0.9430 C.2   1 <1>  -0.3020 
 17 C        6.6530    -4.9780     0.0360 C.3   1 <1>  -0.0600 
 18 N        5.0110     3.5580    -0.4430 N.2   1 <1>  -0.7070 
 19 C        5.9200     1.2890    -0.4150 C.3   1 <1>  -0.0590 
 20 N        3.9970     4.2540     0.1320 N.pl3 1 <1>   0.5930 
 21 C        3.7530     5.6400    -0.1050 C.ar  1 <1>  -0.0230 
 22 C        2.4650     6.1690    -0.0410 C.ar  1 <1>  -0.1500 
 23 C        4.8050     6.5020    -0.4060 C.ar  1 <1>  -0.1500 
 24 C        2.2390     7.5160    -0.2630 C.ar  1 <1>  -0.1500 
 25 C        4.5810     7.8490    -0.6280 C.ar  1 <1>  -0.1500 
 26 C        3.2970     8.3580    -0.5550 C.ar  1 <1>  -0.1500 
 27 H       -0.9860    -0.8890     0.3480 H     1 <1>   0.4000 
 28 H        0.3690    -0.6730    -1.4010 H     1 <1>   0.0800 
 29 H        0.8600    -2.6050     0.4370 H     1 <1>   0.0800 
 30 H        1.4340     1.3980     0.0760 H     1 <1>   0.0800 
 31 H        2.3060     0.7000    -1.2800 H     1 <1>   0.0800 
 32 H        3.1920    -1.9700     1.4650 H     1 <1>   0.0800 
 33 H        1.7790    -1.0740     2.0230 H     1 <1>   0.0800 
 34 H        2.3830    -1.8350    -1.9650 H     1 <1>   0.0800 
 35 H        1.8700    -3.3950    -1.4410 H     1 <1>   0.0800 
 36 H        3.7400    -0.3450     0.0080 H     1 <1>   0.4500 
 37 H        2.6470     1.1670     2.2990 H     1 <1>   0.0800 
 38 H        4.2660     0.5180     2.1420 H     1 <1>   0.0800 
 39 H        3.7120    -5.0080    -0.5200 H     1 <1>   0.1500 
 40 H        6.7860    -2.1810    -0.3130 H     1 <1>   0.2700 
 41 H        2.4470     3.7670     1.5060 H     1 <1>   0.1500 
 42 H        6.2050    -5.9560     0.0720 H     1 <1>   0.0800 
 43 H        7.1070    -4.7760     0.9890 H     1 <1>   0.0800 
 44 H        7.4170    -4.9830    -0.7220 H     1 <1>   0.0800 
 45 H        6.0620     0.5640     0.3620 H     1 <1>   0.0800 
 46 H        6.8680     1.7500    -0.6310 H     1 <1>   0.0800 
 47 H        5.5700     0.8020    -1.3070 H     1 <1>   0.0800 
 48 H        1.6260     5.5330     0.1770 H     1 <1>   0.1500 
 49 H        5.8080     6.1140    -0.4690 H     1 <1>   0.1500 
 50 H        1.2400     7.9130    -0.2100 H     1 <1>   0.1500 
 51 H        5.4060     8.5000    -0.8590 H     1 <1>   0.1500 
 52 H        3.1230     9.4060    -0.7280 H     1 <1>   0.1500 
@<TRIPOS>BOND
  1   1   2  1   
  2   1  27  1   
  3   2   3  1   
  4   2   4  1   
  5   2  28  1   
  6   3   5  1   
  7   3   6  1   
  8   3  29  1   
  9   4   7  1   
 10   4  30  1   
 11   4  31  1   
 12   5   7  1   
 13   5  32  1   
 14   5  33  1   
 15   6   8  1   
 16   6  34  1   
 17   6  35  1   
 18   7   9  1   
 19   7  36  1   
 20   8  10  2   
 21   8  11  1   
 22   9  12  1   
 23   9  37  1   
 24   9  38  1   
 25  10  13  1   
 26  11  14  2   
 27  11  39  1   
 28  12  15  1   
 29  12  16  2   
 30  13  14  1   
 31  13  40  1   
 32  14  17  1   
 33  15  18  2   
 34  15  19  1   
 35  16  20  1   
 36  16  41  1   
 37  17  42  1   
 38  17  43  1   
 39  17  44  1   
 40  18  20  1   
 41  19  45  1   
 42  19  46  1   
 43  19  47  1   
 44  20  21  1   
 45  21  22  ar  
 46  21  23  ar  
 47  22  24  ar  
 48  22  48  1   
 49  23  25  ar  
 50  23  49  1   
 51  24  26  ar  
 52  24  50  1   
 53  25  26  ar  
 54  25  51  1   
 55  26  52  1   
@<TRIPOS>SUBSTRUCTURE
  1 ****  12 GROUP 4 **** **** 0

# MOE 2024.06 (io_trps.svl 2023.06)
