@<TRIPOS>MOLECULE
NONAME
35 37 1 0 0 
SMALL
USER_CHARGES


@<TRIPOS>ATOM
  1 CL      -0.2990    -0.7530     0.1800 Cl    1 <1>  -0.1770 
  2 C       -1.2830     0.6990     0.1010 C.ar  1 <1>   0.1770 
  3 C       -0.7400     1.9760     0.3260 C.ar  1 <1>   0.4100 
  4 C       -2.6210     0.5380    -0.1690 C.ar  1 <1>  -0.1500 
  5 N       -1.5040     3.0680     0.3270 N.ar  1 <1>  -0.6200 
  6 N        0.6160     2.1890     0.5590 N.pl3 1 <1>  -0.8380 
  7 C       -3.4010     1.6860    -0.1970 C.ar  1 <1>  -0.1430 
  8 C       -2.7890     2.9010     0.0610 C.ar  1 <1>   0.1600 
  9 C        1.0370     3.2240     1.5650 C.3   1 <1>   0.2090 
 10 C        1.6300     1.7290    -0.4470 C.3   1 <1>   0.2090 
 11 C       -4.8970     1.6680    -0.4850 C.3   1 <1>   1.1640 
 12 C        1.5620     4.5640     0.9790 C.3   1 <1>   0.2200 
 13 C        2.2580     2.8460    -1.3010 C.3   1 <1>  -0.0190 
 14 F       -5.6090     1.9550     0.5950 F     1 <1>  -0.3400 
 15 F       -5.2420     2.5560    -1.4070 F     1 <1>  -0.3400 
 16 F       -5.3300     0.4900    -0.9180 F     1 <1>  -0.3400 
 17 N        1.0870     4.8410    -0.4060 N.am  1 <1>  -0.7300 
 18 C        3.1000     4.6370     1.0380 C.3   1 <1>   0.1200 
 19 C        1.3350     4.0350    -1.4590 C.2   1 <1>   0.5690 
 20 C        3.6550     3.2800    -0.8270 C.3   1 <1>   0.1200 
 21 O        3.7140     3.4770     0.5520 O.3   1 <1>  -0.5600 
 22 O        0.8350     4.2600    -2.5340 O.2   1 <1>  -0.5700 
 23 H       -3.0250    -0.4440    -0.3450 H     1 <1>   0.1500 
 24 H       -3.3860     3.7990     0.0500 H     1 <1>   0.1500 
 25 H        0.1980     3.4480     2.2000 H     1 <1>   0.0800 
 26 H        1.7880     2.7940     2.2050 H     1 <1>   0.0800 
 27 H        2.4010     1.1760     0.0600 H     1 <1>   0.0800 
 28 H        1.1480     1.0500    -1.1270 H     1 <1>   0.0800 
 29 H        1.1940     5.3560     1.6060 H     1 <1>   0.0800 
 30 H        2.4010     2.4420    -2.2860 H     1 <1>   0.0800 
 31 H        0.2420     5.4060    -0.4930 H     1 <1>   0.3700 
 32 H        3.4060     4.7360     2.0640 H     1 <1>   0.0800 
 33 H        3.4680     5.4900     0.4940 H     1 <1>   0.0800 
 34 H        3.9730     4.1800    -1.3270 H     1 <1>   0.0800 
 35 H        4.3620     2.5020    -1.0550 H     1 <1>   0.0800 
@<TRIPOS>BOND
  1   1   2  1   
  2   2   3  ar  
  3   2   4  ar  
  4   3   5  ar  
  5   3   6  1   
  6   4   7  ar  
  7   4  23  1   
  8   5   8  ar  
  9   6   9  1   
 10   6  10  1   
 11   7   8  ar  
 12   7  11  1   
 13   8  24  1   
 14   9  12  1   
 15   9  25  1   
 16   9  26  1   
 17  10  13  1   
 18  10  27  1   
 19  10  28  1   
 20  11  14  1   
 21  11  15  1   
 22  11  16  1   
 23  12  17  1   
 24  12  18  1   
 25  12  29  1   
 26  13  19  1   
 27  13  20  1   
 28  13  30  1   
 29  17  19  am  
 30  17  31  1   
 31  18  21  1   
 32  18  32  1   
 33  18  33  1   
 34  19  22  2   
 35  20  21  1   
 36  20  34  1   
 37  20  35  1   
@<TRIPOS>SUBSTRUCTURE
  1 ****   3 GROUP 4 **** **** 0

# MOE 2024.06 (io_trps.svl 2023.06)
