@<TRIPOS>MOLECULE
NONAME
42 45 1 0 0 
SMALL
USER_CHARGES


@<TRIPOS>ATOM
  1 S       -0.4080    -0.4070     1.6310 S.3   1 <1>  -0.0800 
  2 C       -0.6050    -1.3250     0.1360 C.2   1 <1>   0.4620 
  3 C        1.2860    -0.2150     1.2810 C.2   1 <1>  -0.1100 
  4 N        0.4930    -1.4550    -0.5210 N.2   1 <1>  -0.5650 
  5 N       -1.8460    -1.8220    -0.2130 N.pl3 1 <1>  -0.8220 
  6 C        1.5460    -0.8330     0.1210 C.2   1 <1>   0.0770 
  7 C       -3.0750    -1.7200     0.6150 C.3   1 <1>   0.2090 
  8 C       -2.0270    -2.6190    -1.4550 C.3   1 <1>   0.2090 
  9 C       -3.4930    -3.1280     1.0350 C.3   1 <1>  -0.1600 
 10 C       -2.4410    -4.0380    -1.0690 C.3   1 <1>  -0.1600 
 11 C       -3.6940    -4.0480    -0.1820 C.3   1 <1>   0.4240 
 12 O       -4.7180    -3.5000    -0.9800 O.3   1 <1>  -0.5600 
 13 C       -4.0260    -5.4910     0.2620 C.ar  1 <1>  -0.1440 
 14 C       -6.0360    -3.7930    -0.6320 C.3   1 <1>   0.1200 
 15 C       -5.2490    -6.0790    -0.0480 C.ar  1 <1>  -0.1440 
 16 C       -3.1020    -6.2320     0.9910 C.ar  1 <1>  -0.1500 
 17 C       -6.2770    -5.2860    -0.8300 C.3   1 <1>  -0.0170 
 18 C       -5.5340    -7.3750     0.3520 C.ar  1 <1>  -0.1500 
 19 C       -3.3860    -7.5240     1.3930 C.ar  1 <1>  -0.1500 
 20 C       -4.6000    -8.1070     1.0770 C.ar  1 <1>   0.0820 
 21 O       -4.7990    -9.3780     1.5050 O.3   1 <1>  -0.3630 
 22 C       -5.9930   -10.0700     1.2180 C.3   1 <1>   0.0400 
 23 H        1.8910     0.3340     1.9790 H     1 <1>   0.1500 
 24 H        2.5130    -0.8820    -0.3510 H     1 <1>   0.1500 
 25 H       -3.8550    -1.2620     0.0310 H     1 <1>   0.0800 
 26 H       -2.9170    -1.1130     1.4880 H     1 <1>   0.0800 
 27 H       -1.1170    -2.6480    -2.0290 H     1 <1>   0.0800 
 28 H       -2.7890    -2.1610    -2.0620 H     1 <1>   0.0800 
 29 H       -4.3890    -3.0880     1.6230 H     1 <1>   0.0800 
 30 H       -2.7200    -3.5280     1.6650 H     1 <1>   0.0800 
 31 H       -1.6150    -4.4910    -0.5540 H     1 <1>   0.0800 
 32 H       -2.6290    -4.6170    -1.9540 H     1 <1>   0.0800 
 33 H       -6.6810    -3.2190    -1.2730 H     1 <1>   0.0800 
 34 H       -6.2060    -3.5040     0.3900 H     1 <1>   0.0800 
 35 H       -2.1480    -5.8100     1.2540 H     1 <1>   0.1500 
 36 H       -6.2000    -5.5250    -1.8760 H     1 <1>   0.0800 
 37 H       -7.2690    -5.5310    -0.4970 H     1 <1>   0.0800 
 38 H       -6.4830    -7.8010     0.0930 H     1 <1>   0.1500 
 39 H       -2.6650    -8.0900     1.9550 H     1 <1>   0.1500 
 40 H       -5.9200   -11.0530     1.6470 H     1 <1>   0.0800 
 41 H       -6.1050   -10.1440     0.1510 H     1 <1>   0.0800 
 42 H       -6.8180    -9.5390     1.6580 H     1 <1>   0.0800 
@<TRIPOS>BOND
  1   1   2  1   
  2   1   3  1   
  3   2   4  2   
  4   2   5  1   
  5   3   6  2   
  6   3  23  1   
  7   4   6  1   
  8   5   7  1   
  9   5   8  1   
 10   6  24  1   
 11   7   9  1   
 12   7  25  1   
 13   7  26  1   
 14   8  10  1   
 15   8  27  1   
 16   8  28  1   
 17   9  11  1   
 18   9  29  1   
 19   9  30  1   
 20  10  11  1   
 21  10  31  1   
 22  10  32  1   
 23  11  12  1   
 24  11  13  1   
 25  12  14  1   
 26  13  15  ar  
 27  13  16  ar  
 28  14  17  1   
 29  14  33  1   
 30  14  34  1   
 31  15  17  1   
 32  15  18  ar  
 33  16  19  ar  
 34  16  35  1   
 35  17  36  1   
 36  17  37  1   
 37  18  20  ar  
 38  18  38  1   
 39  19  20  ar  
 40  19  39  1   
 41  20  21  1   
 42  21  22  1   
 43  22  40  1   
 44  22  41  1   
 45  22  42  1   
@<TRIPOS>SUBSTRUCTURE
  1 ****  11 GROUP 4 **** **** 0

# MOE 2024.06 (io_trps.svl 2023.06)
