@<TRIPOS>MOLECULE
NONAME
47 49 1 0 0 
SMALL
USER_CHARGES


@<TRIPOS>ATOM
  1 S        0.0250    -0.1710    -0.8400 S.3   1 <1>  -0.0800 
  2 C       -0.5650    -1.8210    -0.9000 C.2   1 <1>  -0.1100 
  3 C       -0.5060     0.0030     0.8210 C.2   1 <1>  -0.1100 
  4 C       -1.1310    -2.1750     0.2740 C.2   1 <1>  -0.1810 
  5 C       -1.0860    -1.1290     1.2560 C.2   1 <1>  -0.1500 
  6 C       -1.7730    -3.5030     0.6280 C.3   1 <1>   0.5240 
  7 N       -2.3830    -4.1110    -0.5920 N.4   1 <1>  -0.9590 
  8 C       -3.8030    -3.7470    -0.8950 C.3   1 <1>   0.4230 
  9 C       -2.2020    -5.5960    -0.5780 C.3   1 <1>   0.2630 
 10 C       -4.0520    -2.2570    -1.1130 C.3   1 <1>  -0.1600 
 11 C       -4.8150    -4.1310     0.1860 C.3   1 <1>  -0.1600 
 12 C       -5.5770    -2.1150    -1.0100 C.3   1 <1>  -0.0800 
 13 C       -6.0570    -3.2800    -0.1390 C.3   1 <1>  -0.0800 
 14 C       -6.0750    -0.8190    -0.3460 C.3   1 <1>  -0.1600 
 15 C       -6.7770    -2.6580     1.0690 C.3   1 <1>  -0.1600 
 16 C       -7.1340    -1.2190     0.6900 C.3   1 <1>   0.4230 
 17 N       -8.5390    -1.1180     0.1800 N.4   1 <1>  -0.9590 
 18 C       -8.8200    -1.8090    -1.1200 C.3   1 <1>   0.2630 
 19 C       -8.9730     0.3130     0.1010 C.3   1 <1>   0.2630 
 20 H       -0.4070    -2.3330    -1.8330 H     1 <1>   0.1500 
 21 H       -0.3180     0.9490     1.3000 H     1 <1>   0.1500 
 22 H       -1.4830    -1.2590     2.2490 H     1 <1>   0.1500 
 23 H       -2.5200    -3.3550     1.3890 H     1 <1>   0.0800 
 24 H       -1.0110    -4.1510     1.0290 H     1 <1>   0.0800 
 25 H       -1.8210    -3.7360    -1.3660 H     1 <1>   0.4500 
 26 H       -4.0970    -4.2510    -1.8040 H     1 <1>   0.0800 
 27 H       -2.7520    -6.0360     0.2380 H     1 <1>   0.0800 
 28 H       -1.1590    -5.8470    -0.4660 H     1 <1>   0.0800 
 29 H       -2.5570    -6.0250    -1.5020 H     1 <1>   0.0800 
 30 H       -3.5900    -1.6770    -0.3380 H     1 <1>   0.0800 
 31 H       -3.6920    -1.9260    -2.0720 H     1 <1>   0.0800 
 32 H       -5.0540    -5.1790     0.1500 H     1 <1>   0.0800 
 33 H       -4.4440    -3.8830     1.1620 H     1 <1>   0.0800 
 34 H       -6.0100    -2.2140    -1.9930 H     1 <1>   0.0800 
 35 H       -6.7520    -3.8750    -0.7100 H     1 <1>   0.0800 
 36 H       -6.4380    -0.1110    -1.0690 H     1 <1>   0.0800 
 37 H       -5.2690    -0.3490     0.1890 H     1 <1>   0.0800 
 38 H       -6.1030    -2.6050     1.9060 H     1 <1>   0.0800 
 39 H       -7.6340    -3.2330     1.3730 H     1 <1>   0.0800 
 40 H       -7.0410    -0.5900     1.5620 H     1 <1>   0.0800 
 41 H       -9.1320    -1.5670     0.8940 H     1 <1>   0.4500 
 42 H       -8.2190    -1.3870    -1.9080 H     1 <1>   0.0800 
 43 H       -9.8600    -1.6970    -1.3850 H     1 <1>   0.0800 
 44 H       -8.6030    -2.8610    -1.0410 H     1 <1>   0.0800 
 45 H       -8.3960     0.8420    -0.6410 H     1 <1>   0.0800 
 46 H       -8.8380     0.8000     1.0530 H     1 <1>   0.0800 
 47 H      -10.0150     0.3740    -0.1690 H     1 <1>   0.0800 
@<TRIPOS>BOND
  1   1   2  1   
  2   1   3  1   
  3   2   4  2   
  4   2  20  1   
  5   3   5  2   
  6   3  21  1   
  7   4   5  1   
  8   4   6  1   
  9   5  22  1   
 10   6   7  1   
 11   6  23  1   
 12   6  24  1   
 13   7   8  1   
 14   7   9  1   
 15   7  25  1   
 16   8  10  1   
 17   8  11  1   
 18   8  26  1   
 19   9  27  1   
 20   9  28  1   
 21   9  29  1   
 22  10  12  1   
 23  10  30  1   
 24  10  31  1   
 25  11  13  1   
 26  11  32  1   
 27  11  33  1   
 28  12  13  1   
 29  12  14  1   
 30  12  34  1   
 31  13  15  1   
 32  13  35  1   
 33  14  16  1   
 34  14  36  1   
 35  14  37  1   
 36  15  16  1   
 37  15  38  1   
 38  15  39  1   
 39  16  17  1   
 40  16  40  1   
 41  17  18  1   
 42  17  19  1   
 43  17  41  1   
 44  18  42  1   
 45  18  43  1   
 46  18  44  1   
 47  19  45  1   
 48  19  46  1   
 49  19  47  1   
@<TRIPOS>SUBSTRUCTURE
  1 ****  10 GROUP 4 **** **** 0

# MOE 2024.06 (io_trps.svl 2023.06)
