@<TRIPOS>MOLECULE
NONAME
62 65 1 0 0 
SMALL
USER_CHARGES


@<TRIPOS>ATOM
  1 O       -1.5800     0.3390     0.2310 O.2   1 <1>  -0.5700 
  2 C       -2.4500     1.1820     0.3740 C.2   1 <1>   0.5440 
  3 N       -3.6800     0.7580     0.8270 N.am  1 <1>  -0.6600 
  4 C       -2.1870     2.5690     0.0490 C.ar  1 <1>   0.0860 
  5 C       -3.8130    -0.5770     1.4740 C.3   1 <1>   0.1400 
  6 C       -4.9480     1.2260     0.1950 C.3   1 <1>   0.1400 
  7 C       -1.3280     2.9150    -0.9960 C.ar  1 <1>  -0.1500 
  8 C       -2.7680     3.6180     0.7650 C.ar  1 <1>  -0.1500 
  9 C       -4.1580    -1.6020     0.3720 C.3   1 <1>   0.4230 
 10 C       -5.4000     0.1940    -0.8540 C.3   1 <1>  -0.1600 
 11 C       -1.0760     4.2340    -1.3150 C.ar  1 <1>  -0.1500 
 12 C       -2.5160     4.9380     0.4490 C.ar  1 <1>  -0.1500 
 13 N       -4.1640    -3.0380     0.8090 N.4   1 <1>  -0.9590 
 14 C       -5.5190    -1.2480    -0.2740 C.3   1 <1>  -0.1060 
 15 C       -1.6640     5.2710    -0.6000 C.ar  1 <1>   0.1000 
 16 C       -4.3970    -4.0060    -0.3030 C.3   1 <1>   0.3430 
 17 C       -3.0410    -3.4410     1.6960 C.3   1 <1>   0.2630 
 18 C       -6.5910    -1.3210     0.8290 C.2   1 <1>   0.9060 
 19 C       -5.8770    -2.2460    -1.4140 C.3   1 <1>  -0.1600 
 20 N       -1.3840     6.5900    -0.9280 N.pl3 1 <1>  -0.8380 
 21 C       -4.7980    -3.3230    -1.6190 C.3   1 <1>  -0.1600 
 22 O       -6.5490    -2.2740     1.6240 O.co2 1 <1>  -0.9000 
 23 O       -7.4450    -0.4410     0.9220 O.co2 1 <1>  -0.9000 
 24 C       -2.4470     7.6390    -0.9640 C.3   1 <1>   0.2090 
 25 C        0.0300     7.0700    -0.9250 C.3   1 <1>   0.2090 
 26 C       -2.1810     8.7420     0.0840 C.3   1 <1>   0.3430 
 27 C        0.2370     8.1810     0.1260 C.3   1 <1>   0.3430 
 28 N       -0.7770     9.2960     0.0080 N.4   1 <1>  -0.9590 
 29 C       -0.5510    10.3450     1.0470 C.3   1 <1>   0.2630 
 30 H       -2.8810    -0.8260     1.9470 H     1 <1>   0.0800 
 31 H       -4.5790    -0.5360     2.2290 H     1 <1>   0.0800 
 32 H       -5.7030     1.3450     0.9550 H     1 <1>   0.0800 
 33 H       -4.8090     2.1800    -0.2820 H     1 <1>   0.0800 
 34 H       -0.8580     2.1290    -1.5610 H     1 <1>   0.1500 
 35 H       -3.4250     3.3830     1.5850 H     1 <1>   0.1500 
 36 H       -3.3940    -1.4940    -0.3790 H     1 <1>   0.0800 
 37 H       -6.3560     0.5030    -1.2420 H     1 <1>   0.0800 
 38 H       -4.7000     0.2080    -1.6700 H     1 <1>   0.0800 
 39 H       -0.4210     4.4670    -2.1340 H     1 <1>   0.1500 
 40 H       -2.9790     5.7120     1.0280 H     1 <1>   0.1500 
 41 H       -5.0600    -3.0510     1.3680 H     1 <1>   0.4500 
 42 H       -3.5070    -4.5890    -0.4730 H     1 <1>   0.0800 
 43 H       -5.1850    -4.6800    -0.0080 H     1 <1>   0.0800 
 44 H       -2.1010    -3.3170     1.1840 H     1 <1>   0.0800 
 45 H       -3.1510    -4.4720     1.9870 H     1 <1>   0.0800 
 46 H       -3.0360    -2.8360     2.5870 H     1 <1>   0.0800 
 47 H       -6.8060    -2.7370    -1.1720 H     1 <1>   0.0800 
 48 H       -6.0410    -1.7270    -2.3420 H     1 <1>   0.0800 
 49 H       -3.9250    -2.8810    -2.0680 H     1 <1>   0.0800 
 50 H       -5.1620    -4.0680    -2.3040 H     1 <1>   0.0800 
 51 H       -2.4740     8.0750    -1.9480 H     1 <1>   0.0800 
 52 H       -3.4110     7.1930    -0.7860 H     1 <1>   0.0800 
 53 H        0.6930     6.2500    -0.7030 H     1 <1>   0.0800 
 54 H        0.2820     7.4380    -1.9050 H     1 <1>   0.0800 
 55 H       -2.3450     8.3180     1.0610 H     1 <1>   0.0800 
 56 H       -2.8960     9.5360    -0.0550 H     1 <1>   0.0800 
 57 H        1.2340     8.5780     0.0220 H     1 <1>   0.0800 
 58 H        0.1630     7.7310     1.1020 H     1 <1>   0.0800 
 59 H       -0.6630     9.7170    -0.9260 H     1 <1>   0.4500 
 60 H       -0.6640     9.9260     2.0340 H     1 <1>   0.0800 
 61 H       -1.2610    11.1480     0.9300 H     1 <1>   0.0800 
 62 H        0.4440    10.7530     0.9580 H     1 <1>   0.0800 
@<TRIPOS>BOND
  1   1   2  2   
  2   2   3  am  
  3   2   4  1   
  4   3   5  1   
  5   3   6  1   
  6   4   7  ar  
  7   4   8  ar  
  8   5   9  1   
  9   5  30  1   
 10   5  31  1   
 11   6  10  1   
 12   6  32  1   
 13   6  33  1   
 14   7  11  ar  
 15   7  34  1   
 16   8  12  ar  
 17   8  35  1   
 18   9  13  1   
 19   9  14  1   
 20   9  36  1   
 21  10  14  1   
 22  10  37  1   
 23  10  38  1   
 24  11  15  ar  
 25  11  39  1   
 26  12  15  ar  
 27  12  40  1   
 28  13  16  1   
 29  13  17  1   
 30  13  41  1   
 31  14  18  1   
 32  14  19  1   
 33  15  20  1   
 34  16  21  1   
 35  16  42  1   
 36  16  43  1   
 37  17  44  1   
 38  17  45  1   
 39  17  46  1   
 40  18  22  ar  
 41  18  23  ar  
 42  19  21  1   
 43  19  47  1   
 44  19  48  1   
 45  20  24  1   
 46  20  25  1   
 47  21  49  1   
 48  21  50  1   
 49  24  26  1   
 50  24  51  1   
 51  24  52  1   
 52  25  27  1   
 53  25  53  1   
 54  25  54  1   
 55  26  28  1   
 56  26  55  1   
 57  26  56  1   
 58  27  28  1   
 59  27  57  1   
 60  27  58  1   
 61  28  29  1   
 62  28  59  1   
 63  29  60  1   
 64  29  61  1   
 65  29  62  1   
@<TRIPOS>SUBSTRUCTURE
  1 ****   4 GROUP 4 **** **** 0

# MOE 2024.06 (io_trps.svl 2023.06)
