@<TRIPOS>MOLECULE
NONAME
49 52 1 0 0 
SMALL
USER_CHARGES


@<TRIPOS>ATOM
  1 O       -1.0060    -1.1980    -1.2220 O.2   1 <1>  -0.5700 
  2 C       -0.1910    -1.9000    -0.6470 C.2   1 <1>   0.5440 
  3 N        0.3390    -1.4210     0.5370 N.am  1 <1>  -0.6600 
  4 C        0.1850    -3.1780    -1.2510 C.ar  1 <1>   0.3960 
  5 C        0.0220    -0.0770     1.0720 C.3   1 <1>   0.1400 
  6 C        1.4260    -2.0550     1.3190 C.3   1 <1>   0.1400 
  7 N        0.4110    -4.2660    -0.4930 N.ar  1 <1>  -0.6200 
  8 C        0.2760    -3.2310    -2.6460 C.ar  1 <1>   0.1600 
  9 C        1.1950     0.2610     1.9820 C.3   1 <1>  -0.1600 
 10 C        1.7050    -1.0920     2.4690 C.3   1 <1>  -0.1600 
 11 C        0.7060    -5.3400    -1.1920 C.ar  1 <1>   0.4100 
 12 N        0.5960    -4.3020    -3.3610 N.ar  1 <1>  -0.6200 
 13 N        0.8660    -6.4600    -0.4260 N.pl3 1 <1>  -0.8690 
 14 C        0.8110    -5.3480    -2.5910 C.ar  1 <1>   0.1600 
 15 C       -0.1620    -7.5230    -0.5390 C.3   1 <1>   0.2890 
 16 C       -1.4840    -7.0770     0.0810 C.3   1 <1>  -0.0800 
 17 C        0.1960    -8.7700     0.2580 C.3   1 <1>   0.1200 
 18 C       -1.9100    -8.2670     0.9480 C.3   1 <1>   0.1200 
 19 C       -2.5230    -6.6920    -0.9850 C.3   1 <1>  -0.0170 
 20 O       -1.0250    -9.3010     0.6600 O.3   1 <1>  -0.5600 
 21 C       -3.7520    -6.0680    -0.3470 C.ar  1 <1>  -0.1430 
 22 C       -4.9240    -6.7700    -0.1540 C.ar  1 <1>  -0.1500 
 23 C       -3.7520    -4.7530     0.0720 C.ar  1 <1>  -0.1500 
 24 C       -6.0080    -6.1420     0.4380 C.ar  1 <1>   0.1600 
 25 C       -4.8910    -4.2190     0.6520 C.ar  1 <1>   0.1600 
 26 N       -6.0190    -4.8840     0.8480 N.ar  1 <1>  -0.6200 
 27 H       -0.0860     0.6440     0.2790 H     1 <1>   0.0800 
 28 H       -0.8940    -0.1330     1.6360 H     1 <1>   0.0800 
 29 H        1.1200    -3.0170     1.6930 H     1 <1>   0.0800 
 30 H        2.2970    -2.1640     0.6960 H     1 <1>   0.0800 
 31 H        0.0720    -2.3280    -3.1970 H     1 <1>   0.1500 
 32 H        1.9560     0.7530     1.4010 H     1 <1>   0.0800 
 33 H        0.9000     0.9060     2.7910 H     1 <1>   0.0800 
 34 H        1.1400    -1.4050     3.3300 H     1 <1>   0.0800 
 35 H        2.7490    -1.0680     2.7260 H     1 <1>   0.0800 
 36 H        0.9840    -6.1850     0.5530 H     1 <1>   0.4000 
 37 H        1.0830    -6.2730    -3.0650 H     1 <1>   0.1500 
 38 H       -0.2960    -7.8050    -1.5700 H     1 <1>   0.0800 
 39 H       -1.3270    -6.2360     0.7340 H     1 <1>   0.0800 
 40 H        0.7590    -8.5260     1.1410 H     1 <1>   0.0800 
 41 H        0.7180    -9.4990    -0.3360 H     1 <1>   0.0800 
 42 H       -2.9100    -8.6040     0.7400 H     1 <1>   0.0800 
 43 H       -1.8190    -8.0320     1.9950 H     1 <1>   0.0800 
 44 H       -2.8010    -7.5580    -1.5610 H     1 <1>   0.0800 
 45 H       -2.0940    -5.9750    -1.6640 H     1 <1>   0.0800 
 46 H       -5.0080    -7.7980    -0.4580 H     1 <1>   0.1500 
 47 H       -2.8790    -4.1360    -0.0470 H     1 <1>   0.1500 
 48 H       -6.9140    -6.7050     0.5820 H     1 <1>   0.1500 
 49 H       -4.8710    -3.1910     0.9710 H     1 <1>   0.1500 
@<TRIPOS>BOND
  1   1   2  2   
  2   2   3  am  
  3   2   4  1   
  4   3   5  1   
  5   3   6  1   
  6   4   7  ar  
  7   4   8  ar  
  8   5   9  1   
  9   5  27  1   
 10   5  28  1   
 11   6  10  1   
 12   6  29  1   
 13   6  30  1   
 14   7  11  ar  
 15   8  12  ar  
 16   8  31  1   
 17   9  10  1   
 18   9  32  1   
 19   9  33  1   
 20  10  34  1   
 21  10  35  1   
 22  11  13  1   
 23  11  14  ar  
 24  12  14  ar  
 25  13  15  1   
 26  13  36  1   
 27  14  37  1   
 28  15  16  1   
 29  15  17  1   
 30  15  38  1   
 31  16  18  1   
 32  16  19  1   
 33  16  39  1   
 34  17  20  1   
 35  17  40  1   
 36  17  41  1   
 37  18  20  1   
 38  18  42  1   
 39  18  43  1   
 40  19  21  1   
 41  19  44  1   
 42  19  45  1   
 43  21  22  ar  
 44  21  23  ar  
 45  22  24  ar  
 46  22  46  1   
 47  23  25  ar  
 48  23  47  1   
 49  24  26  ar  
 50  24  48  1   
 51  25  26  ar  
 52  25  49  1   
@<TRIPOS>SUBSTRUCTURE
  1 ****   7 GROUP 4 **** **** 0

# MOE 2024.06 (io_trps.svl 2023.06)
