@<TRIPOS>MOLECULE
NONAME
54 56 1 0 0 
SMALL
USER_CHARGES


@<TRIPOS>ATOM
  1 O       -3.3160    -0.3140    -1.5290 O.2   1 <1>  -0.5700 
  2 C       -2.9120    -0.8910    -0.5530 C.2   1 <1>   0.5690 
  3 N       -2.7640    -0.2250     0.6100 N.am  1 <1>  -0.8000 
  4 C       -2.5740    -2.3740    -0.6490 C.3   1 <1>   0.1810 
  5 O       -2.2630    -2.9220     0.6310 O.3   1 <1>  -0.3630 
  6 C       -2.3980    -4.2620     0.7750 C.ar  1 <1>   0.0830 
  7 C       -1.7340    -5.1910    -0.0320 C.ar  1 <1>   0.0830 
  8 C       -3.2530    -4.7080     1.7670 C.ar  1 <1>  -0.1500 
  9 O       -0.8450    -4.8330    -0.9860 O.3   1 <1>  -0.3630 
 10 C       -1.9840    -6.5430     0.1260 C.ar  1 <1>  -0.1500 
 11 C       -3.4930    -6.0620     1.9290 C.ar  1 <1>  -0.1500 
 12 C        0.3840    -4.3080    -0.5300 C.3   1 <1>   0.0400 
 13 C       -2.8750    -6.9850     1.0950 C.ar  1 <1>  -0.1430 
 14 C       -3.1850    -8.4600     1.2290 C.3   1 <1>   0.4860 
 15 N       -3.9480    -8.9410     0.0360 N.4   1 <1>  -0.9590 
 16 C       -5.2870    -8.2740    -0.0820 C.3   1 <1>   0.4230 
 17 C       -3.9850   -10.4400     0.0630 C.3   1 <1>   0.2630 
 18 C       -6.3750    -9.1320    -0.7310 C.3   1 <1>  -0.1600 
 19 C       -5.2270    -7.0550    -1.0040 C.3   1 <1>  -0.1600 
 20 C       -7.4210    -8.1310    -1.2300 C.3   1 <1>  -0.0800 
 21 C       -6.6760    -6.8050    -1.4380 C.3   1 <1>  -0.0800 
 22 C       -8.5380    -7.8460    -0.2160 C.3   1 <1>  -0.1600 
 23 C       -7.4030    -5.7560    -0.5810 C.3   1 <1>  -0.1600 
 24 C       -8.7820    -6.3500    -0.3370 C.3   1 <1>   0.2000 
 25 O       -9.3180    -5.8570     0.8310 O.3   1 <1>  -0.6800 
 26 H       -2.9940     0.7670     0.6680 H     1 <1>   0.3700 
 27 H       -2.4350    -0.6860     1.4590 H     1 <1>   0.3700 
 28 H       -1.7270    -2.5020    -1.2950 H     1 <1>   0.0800 
 29 H       -3.4170    -2.9010    -1.0540 H     1 <1>   0.0800 
 30 H       -3.7370    -3.9880     2.4040 H     1 <1>   0.1500 
 31 H       -1.4670    -7.2300    -0.5190 H     1 <1>   0.1500 
 32 H       -4.1690    -6.3780     2.7060 H     1 <1>   0.1500 
 33 H        0.9980    -4.0930    -1.3860 H     1 <1>   0.0800 
 34 H        0.8660    -5.0410     0.0930 H     1 <1>   0.0800 
 35 H        0.2040    -3.4060     0.0270 H     1 <1>   0.0800 
 36 H       -3.7570    -8.6330     2.1260 H     1 <1>   0.0800 
 37 H       -2.2560    -9.0010     1.3140 H     1 <1>   0.0800 
 38 H       -3.4120    -8.6380    -0.7880 H     1 <1>   0.4500 
 39 H       -5.6380    -7.9610     0.8890 H     1 <1>   0.0800 
 40 H       -4.5870   -10.7850     0.8880 H     1 <1>   0.0800 
 41 H       -2.9890   -10.8390     0.1700 H     1 <1>   0.0800 
 42 H       -4.4030   -10.8240    -0.8530 H     1 <1>   0.0800 
 43 H       -5.9830    -9.6430    -1.5930 H     1 <1>   0.0800 
 44 H       -6.8020    -9.8440    -0.0460 H     1 <1>   0.0800 
 45 H       -4.8140    -6.1830    -0.5320 H     1 <1>   0.0800 
 46 H       -4.6470    -7.2860    -1.8810 H     1 <1>   0.0800 
 47 H       -7.8580    -8.4620    -2.1590 H     1 <1>   0.0800 
 48 H       -6.7180    -6.5130    -2.4760 H     1 <1>   0.0800 
 49 H       -8.2160    -8.0820     0.7830 H     1 <1>   0.0800 
 50 H       -9.4310    -8.4010    -0.4480 H     1 <1>   0.0800 
 51 H       -7.4770    -4.8140    -1.0960 H     1 <1>   0.0800 
 52 H       -6.8960    -5.6130     0.3570 H     1 <1>   0.0800 
 53 H       -9.4520    -6.1300    -1.1520 H     1 <1>   0.0800 
 54 H       -8.7040    -5.9810     1.5760 H     1 <1>   0.4000 
@<TRIPOS>BOND
  1   1   2  2   
  2   2   3  am  
  3   2   4  1   
  4   3  26  1   
  5   3  27  1   
  6   4   5  1   
  7   4  28  1   
  8   4  29  1   
  9   5   6  1   
 10   6   7  ar  
 11   6   8  ar  
 12   7   9  1   
 13   7  10  ar  
 14   8  11  ar  
 15   8  30  1   
 16   9  12  1   
 17  10  13  ar  
 18  10  31  1   
 19  11  13  ar  
 20  11  32  1   
 21  12  33  1   
 22  12  34  1   
 23  12  35  1   
 24  13  14  1   
 25  14  15  1   
 26  14  36  1   
 27  14  37  1   
 28  15  16  1   
 29  15  17  1   
 30  15  38  1   
 31  16  18  1   
 32  16  19  1   
 33  16  39  1   
 34  17  40  1   
 35  17  41  1   
 36  17  42  1   
 37  18  20  1   
 38  18  43  1   
 39  18  44  1   
 40  19  21  1   
 41  19  45  1   
 42  19  46  1   
 43  20  21  1   
 44  20  22  1   
 45  20  47  1   
 46  21  23  1   
 47  21  48  1   
 48  22  24  1   
 49  22  49  1   
 50  22  50  1   
 51  23  24  1   
 52  23  51  1   
 53  23  52  1   
 54  24  25  1   
 55  24  53  1   
 56  25  54  1   
@<TRIPOS>SUBSTRUCTURE
  1 ****  19 GROUP 4 **** **** 0

# MOE 2024.06 (io_trps.svl 2023.06)
