@<TRIPOS>MOLECULE
NONAME
46 48 1 0 0 
SMALL
USER_CHARGES


@<TRIPOS>ATOM
  1 S        0.5260    -2.1720     1.8930 S.3   1 <1>  -0.0800 
  2 C        0.1400    -2.0350     0.1830 C.2   1 <1>  -0.1400 
  3 C        2.1950    -1.7240     1.5970 C.2   1 <1>  -0.1100 
  4 C        1.2300    -1.6700    -0.5190 C.2   1 <1>  -0.1500 
  5 C       -1.2860    -2.3370    -0.2220 C.3   1 <1>   0.5230 
  6 C        2.4000    -1.4950     0.2870 C.2   1 <1>  -0.1500 
  7 N       -1.6020    -3.7350     0.1790 N.4   1 <1>  -0.9590 
  8 C       -0.7510    -4.7240    -0.5490 C.3   1 <1>   0.3430 
  9 C       -3.0580    -4.0280     0.0620 C.3   1 <1>   0.3430 
 10 C       -1.0130    -6.1270    -0.0100 C.3   1 <1>  -0.1600 
 11 C       -3.3440    -5.4200     0.6080 C.3   1 <1>  -0.1600 
 12 C       -2.4970    -6.4670    -0.1110 C.3   1 <1>   0.2890 
 13 N       -2.7340    -7.7620     0.5230 N.pl3 1 <1>  -0.8690 
 14 C       -3.5950    -8.6820     0.0260 C.ar  1 <1>   0.7200 
 15 N       -3.2770    -9.9230     0.3440 N.ar  1 <1>  -0.6200 
 16 N       -4.6180    -8.2450    -0.7020 N.ar  1 <1>  -0.6200 
 17 C       -4.0890   -10.8680    -0.0970 C.ar  1 <1>   0.4100 
 18 C       -5.4220    -9.1930    -1.1460 C.ar  1 <1>   0.1600 
 19 N       -3.7710   -12.1800     0.2500 N.pl3 1 <1>  -0.8380 
 20 C       -5.1960   -10.5130    -0.8680 C.ar  1 <1>   0.1900 
 21 C       -4.8150   -13.1100     0.7570 C.3   1 <1>   0.1290 
 22 C       -2.3710   -12.5640     0.5820 C.3   1 <1>   0.1290 
 23 F       -6.0270   -11.4150    -1.3510 F     1 <1>  -0.1900 
 24 H        2.8570    -1.6760     2.4450 H     1 <1>   0.1500 
 25 H        1.2830    -1.5070    -1.5830 H     1 <1>   0.1500 
 26 H       -1.4020    -2.2150    -1.2860 H     1 <1>   0.0800 
 27 H       -1.9470    -1.6480     0.2800 H     1 <1>   0.0800 
 28 H        3.3390    -1.2020    -0.1530 H     1 <1>   0.1500 
 29 H       -1.3420    -3.7960     1.1750 H     1 <1>   0.4500 
 30 H        0.2930    -4.4830    -0.4180 H     1 <1>   0.0800 
 31 H       -0.9750    -4.6950    -1.6030 H     1 <1>   0.0800 
 32 H       -3.3610    -3.9800    -0.9720 H     1 <1>   0.0800 
 33 H       -3.6310    -3.3030     0.6180 H     1 <1>   0.0800 
 34 H       -0.6830    -6.1840     1.0120 H     1 <1>   0.0800 
 35 H       -0.4460    -6.8350    -0.5890 H     1 <1>   0.0800 
 36 H       -4.3850    -5.6470     0.4580 H     1 <1>   0.0800 
 37 H       -3.1480    -5.4440     1.6650 H     1 <1>   0.0800 
 38 H       -2.7820    -6.5140    -1.1510 H     1 <1>   0.0800 
 39 H       -1.9350    -8.2260     0.9540 H     1 <1>   0.4000 
 40 H       -6.2720    -8.9120    -1.7420 H     1 <1>   0.1500 
 41 H       -5.7420   -12.5880     0.9190 H     1 <1>   0.0800 
 42 H       -4.5040   -13.5420     1.6930 H     1 <1>   0.0800 
 43 H       -4.9760   -13.8970     0.0410 H     1 <1>   0.0800 
 44 H       -1.6780   -11.9660     0.0150 H     1 <1>   0.0800 
 45 H       -2.2060   -13.5990     0.3410 H     1 <1>   0.0800 
 46 H       -2.1900   -12.4070     1.6310 H     1 <1>   0.0800 
@<TRIPOS>BOND
  1   1   2  1   
  2   1   3  1   
  3   2   4  2   
  4   2   5  1   
  5   3   6  2   
  6   3  24  1   
  7   4   6  1   
  8   4  25  1   
  9   5   7  1   
 10   5  26  1   
 11   5  27  1   
 12   6  28  1   
 13   7   8  1   
 14   7   9  1   
 15   7  29  1   
 16   8  10  1   
 17   8  30  1   
 18   8  31  1   
 19   9  11  1   
 20   9  32  1   
 21   9  33  1   
 22  10  12  1   
 23  10  34  1   
 24  10  35  1   
 25  11  12  1   
 26  11  36  1   
 27  11  37  1   
 28  12  13  1   
 29  12  38  1   
 30  13  14  1   
 31  13  39  1   
 32  14  15  ar  
 33  14  16  ar  
 34  15  17  ar  
 35  16  18  ar  
 36  17  19  1   
 37  17  20  ar  
 38  18  20  ar  
 39  18  40  1   
 40  19  21  1   
 41  19  22  1   
 42  20  23  1   
 43  21  41  1   
 44  21  42  1   
 45  21  43  1   
 46  22  44  1   
 47  22  45  1   
 48  22  46  1   
@<TRIPOS>SUBSTRUCTURE
  1 ****  12 GROUP 4 **** **** 0

# MOE 2024.06 (io_trps.svl 2023.06)
