@<TRIPOS>MOLECULE
NONAME
35 36 1 0 0 
SMALL
USER_CHARGES


@<TRIPOS>ATOM
  1 CL      -0.1620    -0.0850     0.2140 Cl    1 <1>  -0.1770 
  2 C        1.3460    -0.9820     0.1650 C.ar  1 <1>   0.1770 
  3 C        1.3560    -2.3610    -0.0050 C.ar  1 <1>   0.4100 
  4 C        2.5440    -0.3340     0.2900 C.ar  1 <1>   0.1600 
  5 N        2.5010    -3.0190    -0.0460 N.ar  1 <1>  -0.6200 
  6 N        0.1910    -3.0850    -0.1380 N.pl3 1 <1>  -0.8690 
  7 N        3.6950    -0.9840     0.2530 N.ar  1 <1>  -0.6200 
  8 C        3.5980    -2.2940     0.0860 C.ar  1 <1>   0.4770 
  9 C        0.1230    -4.5310    -0.4310 C.3   1 <1>   0.2090 
 10 C        4.8970    -3.0620     0.0400 C.3   1 <1>  -0.0970 
 11 C       -1.2230    -5.0660     0.0540 C.3   1 <1>  -0.1600 
 12 C       -1.3540    -6.5750    -0.2130 C.3   1 <1>  -0.1600 
 13 C       -2.6790    -7.1500     0.3170 C.3   1 <1>  -0.0800 
 14 C       -2.7940    -8.6640     0.1010 C.3   1 <1>   0.1200 
 15 C       -3.9080    -6.5930    -0.3940 C.3   1 <1>  -0.1600 
 16 O       -3.9210    -8.8700    -0.6900 O.3   1 <1>  -0.5600 
 17 C       -4.8020    -7.8120    -0.5420 C.3   1 <1>   0.1200 
 18 H        2.5650     0.7330     0.4240 H     1 <1>   0.1500 
 19 H       -0.6850    -2.5650    -0.2320 H     1 <1>   0.4000 
 20 H        0.9250    -5.0450     0.0720 H     1 <1>   0.0800 
 21 H        0.2280    -4.6840    -1.4920 H     1 <1>   0.0800 
 22 H        4.9620    -3.6000    -0.8870 H     1 <1>   0.0800 
 23 H        4.9280    -3.7590     0.8550 H     1 <1>   0.0800 
 24 H        5.7350    -2.3940     0.1160 H     1 <1>   0.0800 
 25 H       -2.0110    -4.5390    -0.4530 H     1 <1>   0.0800 
 26 H       -1.3080    -4.8830     1.1110 H     1 <1>   0.0800 
 27 H       -0.5380    -7.0860     0.2710 H     1 <1>   0.0800 
 28 H       -1.2780    -6.7640    -1.2710 H     1 <1>   0.0800 
 29 H       -2.7520    -6.9590     1.3740 H     1 <1>   0.0800 
 30 H       -2.9410    -9.1790     1.0340 H     1 <1>   0.0800 
 31 H       -1.9430    -9.0760    -0.4140 H     1 <1>   0.0800 
 32 H       -3.6610    -6.2330    -1.3770 H     1 <1>   0.0800 
 33 H       -4.3900    -5.8100     0.1620 H     1 <1>   0.0800 
 34 H       -5.4420    -7.7590    -1.4060 H     1 <1>   0.0800 
 35 H       -5.3850    -7.9830     0.3470 H     1 <1>   0.0800 
@<TRIPOS>BOND
  1   1   2  1   
  2   2   3  ar  
  3   2   4  ar  
  4   3   5  ar  
  5   3   6  1   
  6   4   7  ar  
  7   4  18  1   
  8   5   8  ar  
  9   6   9  1   
 10   6  19  1   
 11   7   8  ar  
 12   8  10  1   
 13   9  11  1   
 14   9  20  1   
 15   9  21  1   
 16  10  22  1   
 17  10  23  1   
 18  10  24  1   
 19  11  12  1   
 20  11  25  1   
 21  11  26  1   
 22  12  13  1   
 23  12  27  1   
 24  12  28  1   
 25  13  14  1   
 26  13  15  1   
 27  13  29  1   
 28  14  16  1   
 29  14  30  1   
 30  14  31  1   
 31  15  17  1   
 32  15  32  1   
 33  15  33  1   
 34  16  17  1   
 35  17  34  1   
 36  17  35  1   
@<TRIPOS>SUBSTRUCTURE
  1 ****   9 GROUP 4 **** **** 0

# MOE 2024.06 (io_trps.svl 2023.06)
