@<TRIPOS>MOLECULE
NONAME
47 50 1 0 0 
SMALL
USER_CHARGES


@<TRIPOS>ATOM
  1 O       -0.7350    -0.0350    -1.2410 O.2   1 <1>  -0.5700 
  2 C       -1.7590     0.0270    -0.5820 C.2   1 <1>   0.7150 
  3 N       -2.5860    -1.0820    -0.5490 N.am  1 <1>  -0.6600 
  4 C       -2.0830     1.2340     0.1520 C.2   1 <1>   0.0550 
  5 C       -4.0490    -0.9480    -0.2590 C.3   1 <1>   0.1400 
  6 C       -2.0470    -2.4100    -0.9580 C.3   1 <1>   0.1400 
  7 O       -1.8390     2.4380    -0.3600 O.3   1 <1>  -0.2800 
  8 C       -2.6430     1.4030     1.3840 C.2   1 <1>  -0.1500 
  9 C       -4.9500    -1.7940    -1.1680 C.3   1 <1>   0.1100 
 10 C       -2.7120    -3.5810    -0.2300 C.3   1 <1>  -0.1600 
 11 C       -2.2240     3.3540     0.4980 C.2   1 <1>  -0.0100 
 12 C       -2.7360     2.7780     1.6060 C.2   1 <1>  -0.1500 
 13 N       -5.1450    -3.1540    -0.6310 N.3   1 <1>  -0.8100 
 14 C       -4.0090    -4.0530    -0.8900 C.3   1 <1>   0.1100 
 15 C       -6.4160    -3.7390    -1.1480 C.3   1 <1>   0.2910 
 16 C       -6.8530    -5.0420    -0.4720 C.2   1 <1>   0.3350 
 17 N       -7.6050    -5.1120     0.5560 N.2   1 <1>  -0.4100 
 18 N       -6.4890    -6.2330    -0.9390 N.2   1 <1>  -0.5650 
 19 O       -7.7720    -6.3700     0.8250 O.3   1 <1>  -0.0190 
 20 C       -7.0820    -6.9910    -0.1010 C.2   1 <1>   0.2980 
 21 C       -7.0320    -8.5180    -0.0810 C.3   1 <1>   0.3800 
 22 O       -8.3230    -9.0660    -0.0210 O.3   1 <1>  -0.5600 
 23 C       -6.2730    -9.0820     1.1270 C.3   1 <1>  -0.1600 
 24 C       -8.5780    -9.6130     1.2300 C.3   1 <1>   0.1200 
 25 C       -7.2280   -10.1010     1.7240 C.3   1 <1>  -0.1600 
 26 H       -4.3360     0.0790    -0.3970 H     1 <1>   0.0800 
 27 H       -4.2400    -1.2080     0.7680 H     1 <1>   0.0800 
 28 H       -0.9930    -2.4330    -0.7340 H     1 <1>   0.0800 
 29 H       -2.1510    -2.5220    -2.0230 H     1 <1>   0.0800 
 30 H       -2.9550     0.6380     2.0740 H     1 <1>   0.1500 
 31 H       -4.5650    -1.8210    -2.1730 H     1 <1>   0.0800 
 32 H       -5.9050    -1.2980    -1.1960 H     1 <1>   0.0800 
 33 H       -2.8680    -3.3570     0.8100 H     1 <1>   0.0800 
 34 H       -2.0250    -4.4070    -0.2740 H     1 <1>   0.0800 
 35 H       -2.0980     4.3920     0.2440 H     1 <1>   0.1500 
 36 H       -3.1330     3.2510     2.4860 H     1 <1>   0.1500 
 37 H       -4.2330    -5.0220    -0.4800 H     1 <1>   0.0800 
 38 H       -3.8660    -4.1710    -1.9510 H     1 <1>   0.0800 
 39 H       -6.3300    -3.9120    -2.2060 H     1 <1>   0.0800 
 40 H       -7.2110    -3.0310    -0.9950 H     1 <1>   0.0800 
 41 H       -6.5860    -8.8670    -0.9950 H     1 <1>   0.0800 
 42 H       -6.0720    -8.2980     1.8360 H     1 <1>   0.0800 
 43 H       -5.3400    -9.5260     0.8290 H     1 <1>   0.0800 
 44 H       -9.2990   -10.4070     1.1310 H     1 <1>   0.0800 
 45 H       -8.9680    -8.8320     1.8620 H     1 <1>   0.0800 
 46 H       -7.1810   -10.1380     2.7990 H     1 <1>   0.0800 
 47 H       -7.0370   -11.0810     1.3230 H     1 <1>   0.0800 
@<TRIPOS>BOND
  1   1   2  2   
  2   2   3  am  
  3   2   4  1   
  4   3   5  1   
  5   3   6  1   
  6   4   7  1   
  7   4   8  2   
  8   5   9  1   
  9   5  26  1   
 10   5  27  1   
 11   6  10  1   
 12   6  28  1   
 13   6  29  1   
 14   7  11  1   
 15   8  12  1   
 16   8  30  1   
 17   9  13  1   
 18   9  31  1   
 19   9  32  1   
 20  10  14  1   
 21  10  33  1   
 22  10  34  1   
 23  11  12  2   
 24  11  35  1   
 25  12  36  1   
 26  13  14  1   
 27  13  15  1   
 28  14  37  1   
 29  14  38  1   
 30  15  16  1   
 31  15  39  1   
 32  15  40  1   
 33  16  17  2   
 34  16  18  1   
 35  17  19  1   
 36  18  20  2   
 37  19  20  1   
 38  20  21  1   
 39  21  22  1   
 40  21  23  1   
 41  21  41  1   
 42  22  24  1   
 43  23  25  1   
 44  23  42  1   
 45  23  43  1   
 46  24  25  1   
 47  24  44  1   
 48  24  45  1   
 49  25  46  1   
 50  25  47  1   
@<TRIPOS>SUBSTRUCTURE
  1 ****  13 GROUP 4 **** **** 0

# MOE 2024.06 (io_trps.svl 2023.06)
