@<TRIPOS>MOLECULE
NONAME
59 62 1 0 0 
SMALL
USER_CHARGES


@<TRIPOS>ATOM
  1 O       -1.6380     0.1840    -1.6710 O.2   1 <1>  -0.5700 
  2 C       -1.7490     0.4510    -0.5010 C.2   1 <1>   0.5690 
  3 N       -1.8870    -0.5060     0.4460 N.am  1 <1>  -0.7300 
  4 C       -1.7350     1.8980    -0.0830 C.3   1 <1>  -0.0990 
  5 C       -1.8770    -1.9660     0.1890 C.3   1 <1>   0.2200 
  6 C       -0.3410     2.4850    -0.3120 C.3   1 <1>   0.0960 
  7 C       -3.2820    -2.5540     0.2490 C.3   1 <1>  -0.0800 
  8 C       -1.2350    -2.6640     1.3790 C.3   1 <1>   0.1200 
  9 N       -0.3160     3.9010     0.0960 N.pl3 1 <1>   0.3140 
 10 C       -3.4960    -2.7520     1.7560 C.3   1 <1>   0.1200 
 11 C       -4.3750    -1.7180    -0.4500 C.3   1 <1>  -0.0170 
 12 O       -2.2320    -2.7110     2.3530 O.3   1 <1>  -0.5600 
 13 N       -0.2280     4.2170     1.3930 N.2   1 <1>  -0.7070 
 14 C       -0.4090     5.0020    -0.6750 C.2   1 <1>  -0.3320 
 15 C       -5.7800    -2.3310    -0.5090 C.ar  1 <1>  -0.1440 
 16 C       -0.2550     5.5070     1.4290 C.2   1 <1>   0.1080 
 17 C       -0.3530     6.0910     0.1560 C.2   1 <1>  -0.0860 
 18 C       -0.5760     4.9340    -2.1900 C.3   1 <1>  -0.0600 
 19 C       -6.8670    -1.5430    -0.9620 C.ar  1 <1>   0.0000 
 20 C       -6.0600    -3.6210    -0.1500 C.ar  1 <1>  -0.1500 
 21 C       -0.1740     6.2540     2.7440 C.3   1 <1>  -0.0590 
 22 C       -0.3700     7.5110    -0.0980 C.2   1 <1>   0.5950 
 23 C       -8.1560    -2.1310    -0.9770 C.ar  1 <1>   0.3100 
 24 C       -6.7500    -0.2050    -1.4100 C.ar  1 <1>  -0.1500 
 25 C       -7.3710    -4.1070    -0.2120 C.ar  1 <1>   0.1600 
 26 O       -0.7810     8.3300     0.6840 O.2   1 <1>  -0.5700 
 27 C        0.1810     8.0490    -1.4000 C.3   1 <1>  -0.1790 
 28 N       -8.3910    -3.4110    -0.5980 N.ar  1 <1>  -0.6200 
 29 C       -9.2510    -1.3640    -1.4060 C.ar  1 <1>  -0.1500 
 30 C       -7.8380     0.5140    -1.8250 C.ar  1 <1>  -0.1500 
 31 C       -9.1060    -0.0680    -1.8210 C.ar  1 <1>  -0.1500 
 32 H       -2.0060    -0.2610     1.4330 H     1 <1>   0.3700 
 33 H       -2.4580     2.4310    -0.6720 H     1 <1>   0.0800 
 34 H       -2.0010     1.9840     0.9550 H     1 <1>   0.0800 
 35 H       -1.3730    -2.1860    -0.7380 H     1 <1>   0.0800 
 36 H       -0.0620     2.4040    -1.3460 H     1 <1>   0.0800 
 37 H        0.3830     1.9550     0.2800 H     1 <1>   0.0800 
 38 H       -3.2380    -3.5220    -0.2170 H     1 <1>   0.0800 
 39 H       -0.3760    -2.1400     1.7600 H     1 <1>   0.0800 
 40 H       -0.9680    -3.6770     1.1300 H     1 <1>   0.0800 
 41 H       -3.9540    -3.6990     1.9810 H     1 <1>   0.0800 
 42 H       -4.0840    -1.9560     2.1800 H     1 <1>   0.0800 
 43 H       -4.0550    -1.5160    -1.4580 H     1 <1>   0.0800 
 44 H       -4.4520    -0.7750     0.0610 H     1 <1>   0.0800 
 45 H       -0.9230     5.8680    -2.5870 H     1 <1>   0.0800 
 46 H       -1.3030     4.1850    -2.4520 H     1 <1>   0.0800 
 47 H        0.3610     4.6840    -2.6550 H     1 <1>   0.0800 
 48 H       -5.3090    -4.3080     0.1860 H     1 <1>   0.1500 
 49 H        0.6260     6.9690     2.7130 H     1 <1>   0.0800 
 50 H        0.0050     5.5650     3.5490 H     1 <1>   0.0800 
 51 H       -1.1000     6.7680     2.9250 H     1 <1>   0.0800 
 52 H       -5.7850     0.2650    -1.4330 H     1 <1>   0.1500 
 53 H       -7.5420    -5.1280     0.0840 H     1 <1>   0.1500 
 54 H        0.9090     7.3740    -1.8080 H     1 <1>   0.0800 
 55 H        0.6560     8.9970    -1.2220 H     1 <1>   0.0800 
 56 H       -0.6210     8.1910    -2.0990 H     1 <1>   0.0800 
 57 H      -10.2160    -1.8350    -1.3970 H     1 <1>   0.1500 
 58 H       -7.7310     1.5320    -2.1600 H     1 <1>   0.1500 
 59 H       -9.9550     0.5070    -2.1480 H     1 <1>   0.1500 
@<TRIPOS>BOND
  1   1   2  2   
  2   2   3  am  
  3   2   4  1   
  4   3   5  1   
  5   3  32  1   
  6   4   6  1   
  7   4  33  1   
  8   4  34  1   
  9   5   7  1   
 10   5   8  1   
 11   5  35  1   
 12   6   9  1   
 13   6  36  1   
 14   6  37  1   
 15   7  10  1   
 16   7  11  1   
 17   7  38  1   
 18   8  12  1   
 19   8  39  1   
 20   8  40  1   
 21   9  13  1   
 22   9  14  1   
 23  10  12  1   
 24  10  41  1   
 25  10  42  1   
 26  11  15  1   
 27  11  43  1   
 28  11  44  1   
 29  13  16  2   
 30  14  17  2   
 31  14  18  1   
 32  15  19  ar  
 33  15  20  ar  
 34  16  17  1   
 35  16  21  1   
 36  17  22  1   
 37  18  45  1   
 38  18  46  1   
 39  18  47  1   
 40  19  23  ar  
 41  19  24  ar  
 42  20  25  ar  
 43  20  48  1   
 44  21  49  1   
 45  21  50  1   
 46  21  51  1   
 47  22  26  2   
 48  22  27  1   
 49  23  28  ar  
 50  23  29  ar  
 51  24  30  ar  
 52  24  52  1   
 53  25  28  ar  
 54  25  53  1   
 55  27  54  1   
 56  27  55  1   
 57  27  56  1   
 58  29  31  ar  
 59  29  57  1   
 60  30  31  ar  
 61  30  58  1   
 62  31  59  1   
@<TRIPOS>SUBSTRUCTURE
  1 ****   2 GROUP 4 **** **** 0

# MOE 2024.06 (io_trps.svl 2023.06)
