@<TRIPOS>MOLECULE
NONAME
55 57 1 0 0 
SMALL
USER_CHARGES


@<TRIPOS>ATOM
  1 O       -3.0110    -0.6410     2.6180 O.co2 1 <1>  -0.9000 
  2 C       -2.9260    -0.9460     1.4160 C.2   1 <1>   0.9790 
  3 O       -2.5500    -0.0880     0.5980 O.co2 1 <1>  -0.9000 
  4 C       -3.2860    -2.2850     0.9670 C.ar  1 <1>  -0.1790 
  5 C       -3.2040    -2.6490    -0.3770 C.ar  1 <1>  -0.1500 
  6 C       -3.7350    -3.2540     1.8640 C.ar  1 <1>  -0.1500 
  7 C       -3.5810    -3.9040    -0.8120 C.ar  1 <1>  -0.1500 
  8 C       -4.1160    -4.5120     1.4400 C.ar  1 <1>  -0.1500 
  9 C       -4.0610    -4.8370     0.0930 C.ar  1 <1>  -0.1430 
 10 C       -4.5670    -6.1780    -0.3820 C.3   1 <1>   0.4870 
 11 N       -6.0490    -6.1220    -0.2820 N.4   1 <1>  -0.9590 
 12 C       -6.6920    -7.4780    -0.3410 C.3   1 <1>   0.3430 
 13 C       -6.6240    -5.1830    -1.2920 C.3   1 <1>   0.3430 
 14 C       -8.1580    -7.5070     0.1510 C.3   1 <1>   0.1400 
 15 C       -7.6860    -4.2960    -0.6470 C.3   1 <1>  -0.1600 
 16 N       -8.9920    -6.3950    -0.4130 N.am  1 <1>  -0.6600 
 17 C       -8.7310    -5.0530     0.1780 C.3   1 <1>   0.1400 
 18 C      -10.0210    -6.5450    -1.3210 C.2   1 <1>   0.5690 
 19 O      -10.4670    -5.5780    -1.8930 O.2   1 <1>  -0.5700 
 20 C      -10.6120    -7.9030    -1.6980 C.3   1 <1>   0.1810 
 21 O      -10.8950    -8.6860    -0.5480 O.3   1 <1>  -0.3630 
 22 C      -11.2930    -9.9780    -0.6620 C.ar  1 <1>   0.0830 
 23 C      -11.3330   -10.7220     0.5050 C.ar  1 <1>  -0.1500 
 24 C      -11.6490   -10.5740    -1.8690 C.ar  1 <1>  -0.1500 
 25 C      -11.7090   -12.0540     0.4840 C.ar  1 <1>   0.0830 
 26 C      -12.0290   -11.9050    -1.8950 C.ar  1 <1>  -0.1500 
 27 O      -11.7120   -12.7060     1.6730 O.3   1 <1>  -0.3630 
 28 C      -12.0580   -12.6470    -0.7260 C.ar  1 <1>  -0.1500 
 29 C      -12.1300   -14.0500     1.7720 C.3   1 <1>   0.0400 
 30 H       -2.8370    -1.9160    -1.0790 H     1 <1>   0.1500 
 31 H       -3.7820    -2.9940     2.9100 H     1 <1>   0.1500 
 32 H       -3.5000    -4.1280    -1.8620 H     1 <1>   0.1500 
 33 H       -4.4540    -5.2180     2.1770 H     1 <1>   0.1500 
 34 H       -4.1720    -6.9530     0.2550 H     1 <1>   0.0800 
 35 H       -4.2570    -6.3640    -1.3980 H     1 <1>   0.0800 
 36 H       -6.2350    -5.6900     0.6320 H     1 <1>   0.4500 
 37 H       -6.1270    -8.1710     0.2600 H     1 <1>   0.0800 
 38 H       -6.6660    -7.8390    -1.3560 H     1 <1>   0.0800 
 39 H       -7.0690    -5.7410    -2.1000 H     1 <1>   0.0800 
 40 H       -5.8570    -4.5490    -1.7050 H     1 <1>   0.0800 
 41 H       -8.1780    -7.4490     1.2250 H     1 <1>   0.0800 
 42 H       -8.5690    -8.4640    -0.1110 H     1 <1>   0.0800 
 43 H       -8.1980    -3.7700    -1.4340 H     1 <1>   0.0800 
 44 H       -7.2150    -3.5480    -0.0340 H     1 <1>   0.0800 
 45 H       -9.6450    -4.4810     0.2100 H     1 <1>   0.0800 
 46 H       -8.3930    -5.1660     1.1940 H     1 <1>   0.0800 
 47 H       -9.9180    -8.4390    -2.3170 H     1 <1>   0.0800 
 48 H      -11.5340    -7.7530    -2.2300 H     1 <1>   0.0800 
 49 H      -11.0720   -10.2650     1.4410 H     1 <1>   0.1500 
 50 H      -11.6470   -10.0260    -2.7920 H     1 <1>   0.1500 
 51 H      -12.3040   -12.3670    -2.8280 H     1 <1>   0.1500 
 52 H      -12.3550   -13.6780    -0.7770 H     1 <1>   0.1500 
 53 H      -12.0670   -14.3440     2.8040 H     1 <1>   0.0800 
 54 H      -11.4770   -14.6640     1.1780 H     1 <1>   0.0800 
 55 H      -13.1480   -14.1250     1.4320 H     1 <1>   0.0800 
@<TRIPOS>BOND
  1   1   2  ar  
  2   2   3  ar  
  3   2   4  1   
  4   4   5  ar  
  5   4   6  ar  
  6   5   7  ar  
  7   5  30  1   
  8   6   8  ar  
  9   6  31  1   
 10   7   9  ar  
 11   7  32  1   
 12   8   9  ar  
 13   8  33  1   
 14   9  10  1   
 15  10  11  1   
 16  10  34  1   
 17  10  35  1   
 18  11  12  1   
 19  11  13  1   
 20  11  36  1   
 21  12  14  1   
 22  12  37  1   
 23  12  38  1   
 24  13  15  1   
 25  13  39  1   
 26  13  40  1   
 27  14  16  1   
 28  14  41  1   
 29  14  42  1   
 30  15  17  1   
 31  15  43  1   
 32  15  44  1   
 33  16  17  1   
 34  16  18  am  
 35  17  45  1   
 36  17  46  1   
 37  18  19  2   
 38  18  20  1   
 39  20  21  1   
 40  20  47  1   
 41  20  48  1   
 42  21  22  1   
 43  22  23  ar  
 44  22  24  ar  
 45  23  25  ar  
 46  23  49  1   
 47  24  26  ar  
 48  24  50  1   
 49  25  27  1   
 50  25  28  ar  
 51  26  28  ar  
 52  26  51  1   
 53  27  29  1   
 54  28  52  1   
 55  29  53  1   
 56  29  54  1   
 57  29  55  1   
@<TRIPOS>SUBSTRUCTURE
  1 ****  14 GROUP 4 **** **** 0

# MOE 2024.06 (io_trps.svl 2023.06)
