@<TRIPOS>MOLECULE
NONAME
47 49 1 0 0 
SMALL
USER_CHARGES


@<TRIPOS>ATOM
  1 O        2.3080    -0.7210    -0.4210 O.3   1 <1>  -0.3630 
  2 C        1.3250    -1.6030    -0.0820 C.ar  1 <1>   0.0830 
  3 C        3.6710    -1.0630    -0.2930 C.3   1 <1>   0.0400 
  4 C        0.0090    -1.1620    -0.1800 C.ar  1 <1>   0.0830 
  5 C        1.5630    -2.9030     0.3520 C.ar  1 <1>  -0.1500 
  6 O       -0.2420     0.0870    -0.6000 O.3   1 <1>  -0.5330 
  7 C       -1.0490    -1.9870     0.1450 C.ar  1 <1>  -0.1500 
  8 C        0.5020    -3.7360     0.6730 C.ar  1 <1>  -0.1500 
  9 C       -0.8080    -3.2860     0.5670 C.ar  1 <1>  -0.1430 
 10 C       -1.9730    -4.1980     0.8960 C.3   1 <1>   0.4860 
 11 N       -2.6930    -4.5150    -0.3720 N.4   1 <1>  -0.9590 
 12 C       -4.0220    -5.1360    -0.1340 C.3   1 <1>   0.4230 
 13 C       -1.8240    -5.3340    -1.2790 C.3   1 <1>   0.2630 
 14 C       -4.7880    -5.3510    -1.4390 C.3   1 <1>  -0.1600 
 15 C       -4.9390    -4.2260     0.6820 C.3   1 <1>  -0.1600 
 16 C       -6.2680    -5.3720    -1.0400 C.3   1 <1>  -0.0800 
 17 C       -6.3640    -4.6560     0.3150 C.3   1 <1>  -0.0800 
 18 C       -6.8320    -6.7850    -0.8260 C.3   1 <1>  -0.1600 
 19 C       -6.9790    -5.6650     1.2970 C.3   1 <1>  -0.1600 
 20 C       -7.7110    -6.6580     0.4080 C.3   1 <1>   0.2000 
 21 O       -7.8280    -7.8740     1.0420 O.3   1 <1>  -0.6800 
 22 H        4.2590    -0.2140    -0.5920 H     1 <1>   0.0800 
 23 H        3.8860    -1.8990    -0.9350 H     1 <1>   0.0800 
 24 H        3.8770    -1.3030     0.7360 H     1 <1>   0.0800 
 25 H        2.5640    -3.2810     0.4470 H     1 <1>   0.1500 
 26 H        0.6040     0.5510    -0.7720 H     1 <1>   0.4500 
 27 H       -2.0450    -1.5870     0.0640 H     1 <1>   0.1500 
 28 H        0.7170    -4.7370     1.0090 H     1 <1>   0.1500 
 29 H       -2.6270    -3.6870     1.5840 H     1 <1>   0.0800 
 30 H       -1.6210    -5.1010     1.3650 H     1 <1>   0.0800 
 31 H       -2.8510    -3.6100    -0.8350 H     1 <1>   0.4500 
 32 H       -3.9190    -6.0830     0.3730 H     1 <1>   0.0800 
 33 H       -1.6160    -6.2940    -0.8360 H     1 <1>   0.0800 
 34 H       -0.8890    -4.8270    -1.4600 H     1 <1>   0.0800 
 35 H       -2.3110    -5.4900    -2.2280 H     1 <1>   0.0800 
 36 H       -4.6300    -4.5150    -2.0980 H     1 <1>   0.0800 
 37 H       -4.4980    -6.2590    -1.9380 H     1 <1>   0.0800 
 38 H       -4.7630    -4.3070     1.7400 H     1 <1>   0.0800 
 39 H       -4.8090    -3.2020     0.3750 H     1 <1>   0.0800 
 40 H       -6.8670    -4.8570    -1.7740 H     1 <1>   0.0800 
 41 H       -7.0130    -3.7980     0.2340 H     1 <1>   0.0800 
 42 H       -6.0400    -7.4870    -0.6360 H     1 <1>   0.0800 
 43 H       -7.4070    -7.1120    -1.6750 H     1 <1>   0.0800 
 44 H       -7.6590    -5.1860     1.9790 H     1 <1>   0.0800 
 45 H       -6.2100    -6.1740     1.8520 H     1 <1>   0.0800 
 46 H       -8.6950    -6.3000     0.1520 H     1 <1>   0.0800 
 47 H       -6.9550    -8.2340     1.2770 H     1 <1>   0.4000 
@<TRIPOS>BOND
  1   1   2  1   
  2   1   3  1   
  3   2   4  ar  
  4   2   5  ar  
  5   3  22  1   
  6   3  23  1   
  7   3  24  1   
  8   4   6  1   
  9   4   7  ar  
 10   5   8  ar  
 11   5  25  1   
 12   6  26  1   
 13   7   9  ar  
 14   7  27  1   
 15   8   9  ar  
 16   8  28  1   
 17   9  10  1   
 18  10  11  1   
 19  10  29  1   
 20  10  30  1   
 21  11  12  1   
 22  11  13  1   
 23  11  31  1   
 24  12  14  1   
 25  12  15  1   
 26  12  32  1   
 27  13  33  1   
 28  13  34  1   
 29  13  35  1   
 30  14  16  1   
 31  14  36  1   
 32  14  37  1   
 33  15  17  1   
 34  15  38  1   
 35  15  39  1   
 36  16  17  1   
 37  16  18  1   
 38  16  40  1   
 39  17  19  1   
 40  17  41  1   
 41  18  20  1   
 42  18  42  1   
 43  18  43  1   
 44  19  20  1   
 45  19  44  1   
 46  19  45  1   
 47  20  21  1   
 48  20  46  1   
 49  21  47  1   
@<TRIPOS>SUBSTRUCTURE
  1 ****  11 GROUP 4 **** **** 0

# MOE 2024.06 (io_trps.svl 2023.06)
