@<TRIPOS>MOLECULE
NONAME
41 43 1 0 0 
SMALL
USER_CHARGES


@<TRIPOS>ATOM
  1 CL       0.0520     0.1210     0.7330 Cl    1 <1>  -0.1770 
  2 C        1.4120    -0.9340     0.3580 C.ar  1 <1>   0.1770 
  3 C        1.2370    -2.3310     0.1070 C.ar  1 <1>   0.4100 
  4 C        2.6640    -0.3940     0.3250 C.ar  1 <1>   0.2170 
  5 N        2.2940    -3.0950    -0.1350 N.ar  1 <1>  -0.6200 
  6 N        0.0370    -2.9950     0.0880 N.pl3 1 <1>  -0.8380 
  7 N        3.6940    -1.2380     0.0600 N.ar  1 <1>  -0.1790 
  8 C        3.0160     1.0710     0.5650 C.3   1 <1>  -0.0970 
  9 C        3.4860    -2.5460    -0.1530 C.ar  1 <1>   0.7710 
 10 C       -1.3420    -2.4170     0.0610 C.3   1 <1>   0.2090 
 11 C       -0.0630    -4.4820    -0.0380 C.3   1 <1>   0.2090 
 12 N        4.5090    -3.3600    -0.3950 N.pl3 1 <1>  -0.9000 
 13 C       -2.2810    -3.5900    -0.2260 C.3   1 <1>   0.2000 
 14 C       -1.5250    -4.8290     0.2350 C.3   1 <1>  -0.0800 
 15 O       -3.4810    -3.4770     0.4600 O.3   1 <1>  -0.6800 
 16 C       -1.9960    -6.1180    -0.4570 C.3   1 <1>  -0.0170 
 17 C       -1.1110    -7.2970    -0.0830 C.ar  1 <1>  -0.1430 
 18 C       -1.1490    -7.8650     1.1740 C.ar  1 <1>  -0.1500 
 19 C       -0.2210    -7.8570    -0.9780 C.ar  1 <1>  -0.1500 
 20 C       -0.3140    -8.9290     1.4700 C.ar  1 <1>   0.1600 
 21 C        0.5690    -8.9230    -0.5810 C.ar  1 <1>   0.1600 
 22 N        0.5470    -9.4690     0.6230 N.ar  1 <1>  -0.6200 
 23 H        4.6550    -0.9130     0.0210 H     1 <1>   0.4570 
 24 H        2.1440     1.6720     0.7510 H     1 <1>   0.0800 
 25 H        3.5140     1.4820    -0.2960 H     1 <1>   0.0800 
 26 H        3.6640     1.1640     1.4190 H     1 <1>   0.0800 
 27 H       -1.5700    -1.9930     1.0230 H     1 <1>   0.0800 
 28 H       -1.4300    -1.6730    -0.7110 H     1 <1>   0.0800 
 29 H        0.2130    -4.7680    -1.0390 H     1 <1>   0.0800 
 30 H        0.5860    -4.9780     0.6640 H     1 <1>   0.0800 
 31 H        5.5070    -3.1490    -0.4500 H     1 <1>   0.4000 
 32 H        4.2930    -4.3520    -0.5430 H     1 <1>   0.4000 
 33 H       -2.4970    -3.6300    -1.2810 H     1 <1>   0.0800 
 34 H       -1.6280    -4.9360     1.3000 H     1 <1>   0.0800 
 35 H       -3.3300    -3.4830     1.4250 H     1 <1>   0.4000 
 36 H       -1.9870    -5.9840    -1.5250 H     1 <1>   0.0800 
 37 H       -3.0120    -6.3280    -0.1680 H     1 <1>   0.0800 
 38 H       -1.8200    -7.4920     1.9260 H     1 <1>   0.1500 
 39 H       -0.1340    -7.4800    -1.9810 H     1 <1>   0.1500 
 40 H       -0.3570    -9.3590     2.4560 H     1 <1>   0.1500 
 41 H        1.2560    -9.3490    -1.2920 H     1 <1>   0.1500 
@<TRIPOS>BOND
  1   1   2  1   
  2   2   3  ar  
  3   2   4  ar  
  4   3   5  ar  
  5   3   6  1   
  6   4   7  ar  
  7   4   8  1   
  8   5   9  ar  
  9   6  10  1   
 10   6  11  1   
 11   7   9  ar  
 12   7  23  1   
 13   8  24  1   
 14   8  25  1   
 15   8  26  1   
 16   9  12  1   
 17  10  13  1   
 18  10  27  1   
 19  10  28  1   
 20  11  14  1   
 21  11  29  1   
 22  11  30  1   
 23  12  31  1   
 24  12  32  1   
 25  13  14  1   
 26  13  15  1   
 27  13  33  1   
 28  14  16  1   
 29  14  34  1   
 30  15  35  1   
 31  16  17  1   
 32  16  36  1   
 33  16  37  1   
 34  17  18  ar  
 35  17  19  ar  
 36  18  20  ar  
 37  18  38  1   
 38  19  21  ar  
 39  19  39  1   
 40  20  22  ar  
 41  20  40  1   
 42  21  22  ar  
 43  21  41  1   
@<TRIPOS>SUBSTRUCTURE
  1 ****  11 GROUP 4 **** **** 0

# MOE 2024.06 (io_trps.svl 2023.06)
