@<TRIPOS>MOLECULE
NONAME
35 37 1 0 0 
SMALL
USER_CHARGES


@<TRIPOS>ATOM
  1 O       -0.8430    -0.1410    -0.7770 O.2   1 <1>  -0.5700 
  2 C       -1.6220     0.5610    -0.1570 C.2   1 <1>   0.5440 
  3 N       -2.5100    -0.0260     0.7060 N.am  1 <1>  -0.6600 
  4 C       -1.5790     1.9990    -0.3490 C.ar  1 <1>   0.0860 
  5 C       -3.4230     0.6730     1.6560 C.3   1 <1>   0.2350 
  6 C       -2.9620    -1.4390     0.5630 C.3   1 <1>   0.2350 
  7 C       -2.6990     2.7150    -0.7700 C.ar  1 <1>  -0.1500 
  8 C       -0.4040     2.7140    -0.1330 C.ar  1 <1>  -0.1500 
  9 C       -4.7370    -0.0760     1.5580 C.3   1 <1>  -0.2420 
 10 C       -4.4440    -1.4060     0.9030 C.3   1 <1>  -0.2420 
 11 C       -2.6540     4.0850    -0.9510 C.ar  1 <1>  -0.1500 
 12 C       -0.3510     4.0850    -0.3150 C.ar  1 <1>  -0.1500 
 13 C       -5.6650     0.3400     2.7020 C.2   1 <1>   0.9470 
 14 C       -5.3570    -0.4160     0.2240 C.3   1 <1>  -0.2000 
 15 C       -4.9650    -2.8110     1.2100 C.2   1 <1>   0.9470 
 16 C       -1.4770     4.7810    -0.7250 C.ar  1 <1>  -0.1430 
 17 O       -6.7700     0.8340     2.4390 O.co2 1 <1>  -0.9000 
 18 O       -5.2210     0.3500     3.8580 O.co2 1 <1>  -0.9000 
 19 O       -5.8910    -3.2800     0.5330 O.co2 1 <1>  -0.9000 
 20 O       -4.3520    -3.5140     2.0260 O.co2 1 <1>  -0.9000 
 21 C       -1.4180     6.2860    -0.9210 C.3   1 <1>   0.2630 
 22 O       -1.2470     6.8670     0.3180 O.3   1 <1>  -0.6800 
 23 H       -3.0280     0.5800     2.6540 H     1 <1>   0.0800 
 24 H       -3.5600     1.7120     1.4250 H     1 <1>   0.0800 
 25 H       -2.8040    -1.8050    -0.4360 H     1 <1>   0.0800 
 26 H       -2.4290    -2.0570     1.2660 H     1 <1>   0.0800 
 27 H       -3.6160     2.1780    -0.9500 H     1 <1>   0.1500 
 28 H        0.4740     2.1760     0.1800 H     1 <1>   0.1500 
 29 H       -3.5440     4.6010    -1.2690 H     1 <1>   0.1500 
 30 H        0.5700     4.6130    -0.1340 H     1 <1>   0.1500 
 31 H       -5.0240     0.0790    -0.6680 H     1 <1>   0.1000 
 32 H       -6.4100    -0.6440     0.2010 H     1 <1>   0.1000 
 33 H       -2.3330     6.6610    -1.3470 H     1 <1>   0.0800 
 34 H       -0.5880     6.5680    -1.5460 H     1 <1>   0.0800 
 35 H       -1.7500     6.3480     0.9760 H     1 <1>   0.4000 
@<TRIPOS>BOND
  1   1   2  2   
  2   2   3  am  
  3   2   4  1   
  4   3   5  1   
  5   3   6  1   
  6   4   7  ar  
  7   4   8  ar  
  8   5   9  1   
  9   5  23  1   
 10   5  24  1   
 11   6  10  1   
 12   6  25  1   
 13   6  26  1   
 14   7  11  ar  
 15   7  27  1   
 16   8  12  ar  
 17   8  28  1   
 18   9  10  1   
 19   9  13  1   
 20   9  14  1   
 21  10  14  1   
 22  10  15  1   
 23  11  16  ar  
 24  11  29  1   
 25  12  16  ar  
 26  12  30  1   
 27  13  17  ar  
 28  13  18  ar  
 29  14  31  1   
 30  14  32  1   
 31  15  19  ar  
 32  15  20  ar  
 33  16  21  1   
 34  21  22  1   
 35  21  33  1   
 36  21  34  1   
 37  22  35  1   
@<TRIPOS>SUBSTRUCTURE
  1 ****   5 GROUP 4 **** **** 0

# MOE 2024.06 (io_trps.svl 2023.06)
