@<TRIPOS>MOLECULE
NONAME
53 56 1 0 0 
SMALL
USER_CHARGES


@<TRIPOS>ATOM
  1 O       -0.3800    -1.4680    -1.6480 O.3   1 <1>  -0.5600 
  2 C        0.8930    -1.6190    -1.0830 C.3   1 <1>   0.1200 
  3 C       -1.4070    -1.2690    -0.7110 C.3   1 <1>   0.1200 
  4 C        0.9400    -2.8480    -0.1450 C.3   1 <1>   0.3430 
  5 C       -1.4450    -2.4070     0.3350 C.3   1 <1>   0.3430 
  6 N       -0.4190    -3.4630     0.0280 N.4   1 <1>  -0.9590 
  7 C       -0.4310    -4.6150     0.9720 C.3   1 <1>   0.4860 
  8 C       -1.8130    -5.2290     0.9970 C.ar  1 <1>  -0.1430 
  9 C       -2.2340    -6.0540    -0.0340 C.ar  1 <1>   0.1600 
 10 C       -2.6840    -4.9750     2.0430 C.ar  1 <1>  -0.1500 
 11 N       -3.4260    -6.6110    -0.1190 N.ar  1 <1>  -0.6200 
 12 C       -3.9270    -5.5560     1.9680 C.ar  1 <1>  -0.1500 
 13 C       -4.2600    -6.3560     0.8820 C.ar  1 <1>   0.4100 
 14 N       -5.5110    -6.9240     0.8220 N.pl3 1 <1>  -0.8380 
 15 C       -6.3840    -6.4850    -0.3080 C.3   1 <1>   0.2090 
 16 C       -5.5520    -8.4140     0.8890 C.3   1 <1>   0.2090 
 17 C       -7.2810    -7.6820    -0.6130 C.3   1 <1>   0.2000 
 18 C       -6.3700    -8.8730    -0.3220 C.3   1 <1>  -0.0800 
 19 O       -8.3350    -7.6740     0.2890 O.3   1 <1>  -0.6800 
 20 C       -7.0970   -10.2140    -0.1120 C.3   1 <1>   0.0200 
 21 C       -6.1400   -11.3850     0.0410 C.2   1 <1>  -0.0400 
 22 O       -6.6170   -12.5430     0.4140 O.3   1 <1>  -0.0190 
 23 C       -4.8160   -11.5270    -0.1340 C.2   1 <1>  -0.1500 
 24 N       -5.6870   -13.4480     0.5020 N.2   1 <1>  -0.4100 
 25 C       -4.5900   -12.8650     0.1770 C.2   1 <1>   0.1080 
 26 C       -3.2420   -13.5490     0.1410 C.3   1 <1>  -0.0590 
 27 H        1.5990    -1.7370    -1.8870 H     1 <1>   0.0800 
 28 H        1.1420    -0.7180    -0.5480 H     1 <1>   0.0800 
 29 H       -1.2590    -0.3150    -0.2330 H     1 <1>   0.0800 
 30 H       -2.3370    -1.2320    -1.2510 H     1 <1>   0.0800 
 31 H        1.3330    -2.5390     0.8100 H     1 <1>   0.0800 
 32 H        1.6230    -3.5730    -0.5570 H     1 <1>   0.0800 
 33 H       -2.4340    -2.8380     0.3420 H     1 <1>   0.0800 
 34 H       -1.2670    -1.9910     1.3120 H     1 <1>   0.0800 
 35 H       -0.6850    -3.8000    -0.9100 H     1 <1>   0.4500 
 36 H        0.2860    -5.3570     0.6600 H     1 <1>   0.0800 
 37 H       -0.1640    -4.2830     1.9630 H     1 <1>   0.0800 
 38 H       -1.5590    -6.2730    -0.8450 H     1 <1>   0.1500 
 39 H       -2.4200    -4.3580     2.8850 H     1 <1>   0.1500 
 40 H       -4.6620    -5.4120     2.7380 H     1 <1>   0.1500 
 41 H       -6.9610    -5.6170    -0.0420 H     1 <1>   0.0800 
 42 H       -5.7810    -6.2590    -1.1710 H     1 <1>   0.0800 
 43 H       -4.5610    -8.8370     0.8730 H     1 <1>   0.0800 
 44 H       -6.0380    -8.7050     1.8050 H     1 <1>   0.0800 
 45 H       -7.6780    -7.6750    -1.6130 H     1 <1>   0.0800 
 46 H       -5.6950    -8.9730    -1.1530 H     1 <1>   0.0800 
 47 H       -7.9750    -7.4490     1.1720 H     1 <1>   0.4000 
 48 H       -7.7420   -10.4070    -0.9510 H     1 <1>   0.0800 
 49 H       -7.7150   -10.1630     0.7670 H     1 <1>   0.0800 
 50 H       -4.0730   -10.8160    -0.4410 H     1 <1>   0.1500 
 51 H       -2.7550   -13.3510    -0.7960 H     1 <1>   0.0800 
 52 H       -3.3670   -14.6110     0.2500 H     1 <1>   0.0800 
 53 H       -2.6290   -13.1860     0.9440 H     1 <1>   0.0800 
@<TRIPOS>BOND
  1   1   2  1   
  2   1   3  1   
  3   2   4  1   
  4   2  27  1   
  5   2  28  1   
  6   3   5  1   
  7   3  29  1   
  8   3  30  1   
  9   4   6  1   
 10   4  31  1   
 11   4  32  1   
 12   5   6  1   
 13   5  33  1   
 14   5  34  1   
 15   6   7  1   
 16   6  35  1   
 17   7   8  1   
 18   7  36  1   
 19   7  37  1   
 20   8   9  ar  
 21   8  10  ar  
 22   9  11  ar  
 23   9  38  1   
 24  10  12  ar  
 25  10  39  1   
 26  11  13  ar  
 27  12  13  ar  
 28  12  40  1   
 29  13  14  1   
 30  14  15  1   
 31  14  16  1   
 32  15  17  1   
 33  15  41  1   
 34  15  42  1   
 35  16  18  1   
 36  16  43  1   
 37  16  44  1   
 38  17  18  1   
 39  17  19  1   
 40  17  45  1   
 41  18  20  1   
 42  18  46  1   
 43  19  47  1   
 44  20  21  1   
 45  20  48  1   
 46  20  49  1   
 47  21  22  1   
 48  21  23  2   
 49  22  24  1   
 50  23  25  1   
 51  23  50  1   
 52  24  25  2   
 53  25  26  1   
 54  26  51  1   
 55  26  52  1   
 56  26  53  1   
@<TRIPOS>SUBSTRUCTURE
  1 ****  11 GROUP 4 **** **** 0

# MOE 2024.06 (io_trps.svl 2023.06)
