@<TRIPOS>MOLECULE
NONAME
65 69 1 0 0 
SMALL
USER_CHARGES


@<TRIPOS>ATOM
  1 O        2.7200    -0.3610    -1.2490 O.3   1 <1>  -0.5600 
  2 C        3.1320    -1.1780    -0.1720 C.3   1 <1>   0.4240 
  3 C        1.3480    -0.1230    -1.3910 C.3   1 <1>   0.1200 
  4 C        2.1430    -2.3250     0.1060 C.ar  1 <1>  -0.1440 
  5 C        3.3260    -0.2650     1.0540 C.3   1 <1>  -0.1600 
  6 C        4.4960    -1.7440    -0.5910 C.3   1 <1>  -0.1600 
  7 C        0.6390    -1.4400    -1.6940 C.3   1 <1>  -0.0160 
  8 C        0.9660    -2.4540    -0.6170 C.ar  1 <1>  -0.1440 
  9 C        2.4110    -3.2650     1.0920 C.ar  1 <1>  -0.1500 
 10 C        4.5800     0.6150     0.9800 C.3   1 <1>   0.3430 
 11 C        5.5290    -0.6610    -0.9210 C.3   1 <1>   0.3430 
 12 C        0.0930    -3.4980    -0.3610 C.ar  1 <1>  -0.1500 
 13 C        1.5510    -4.3140     1.3690 C.ar  1 <1>   0.0830 
 14 N        5.0860     0.6740    -0.4220 N.4   1 <1>  -0.9590 
 15 C        0.3640    -4.4420     0.6270 C.ar  1 <1>   0.0830 
 16 O        1.9900    -5.1270     2.3740 O.3   1 <1>  -0.3630 
 17 C        6.0740     1.7570    -0.6820 C.3   1 <1>   0.4860 
 18 O       -0.5010    -5.4710     0.8710 O.3   1 <1>  -0.3630 
 19 C        1.2630    -6.2330     2.8580 C.3   1 <1>   0.0400 
 20 C        5.4440     3.0870    -0.3460 C.ar  1 <1>  -0.1430 
 21 C       -1.6700    -5.6810     0.1090 C.3   1 <1>   0.0400 
 22 C        5.8230     3.8010     0.7670 C.ar  1 <1>   0.1600 
 23 C        4.4530     3.6350    -1.1260 C.ar  1 <1>   0.1600 
 24 N        5.2530     4.9300     1.0940 N.ar  1 <1>  -0.6200 
 25 N        3.8700     4.7620    -0.8180 N.ar  1 <1>  -0.6200 
 26 C        4.2890     5.3760     0.2880 C.ar  1 <1>   0.7200 
 27 N        3.6750     6.5600     0.6280 N.pl3 1 <1>  -0.8380 
 28 C        2.7320     7.2740    -0.2900 C.3   1 <1>   0.2090 
 29 C        4.1470     7.4190     1.7610 C.3   1 <1>   0.2090 
 30 C        1.6450     8.0230     0.5010 C.3   1 <1>   0.1200 
 31 C        2.9720     8.1600     2.4240 C.3   1 <1>   0.1200 
 32 O        2.2110     8.8550     1.4750 O.3   1 <1>  -0.5600 
 33 H        1.2090     0.5700    -2.2020 H     1 <1>   0.0800 
 34 H        0.9650     0.3150    -0.4850 H     1 <1>   0.0800 
 35 H        3.4110    -0.8640     1.9420 H     1 <1>   0.0800 
 36 H        2.4570     0.3500     1.1950 H     1 <1>   0.0800 
 37 H        4.3680    -2.3920    -1.4410 H     1 <1>   0.0800 
 38 H        4.8910    -2.3540     0.2000 H     1 <1>   0.0800 
 39 H        0.9550    -1.8100    -2.6530 H     1 <1>   0.0800 
 40 H       -0.4220    -1.2680    -1.7330 H     1 <1>   0.0800 
 41 H        3.3080    -3.2080     1.6800 H     1 <1>   0.1500 
 42 H        5.3450     0.2070     1.6220 H     1 <1>   0.0800 
 43 H        4.3320     1.6020     1.3370 H     1 <1>   0.0800 
 44 H        5.6500    -0.6140    -1.9910 H     1 <1>   0.0800 
 45 H        6.4800    -0.9280    -0.4860 H     1 <1>   0.0800 
 46 H       -0.8030    -3.5590    -0.9480 H     1 <1>   0.1500 
 47 H        4.2340     0.8690    -0.9820 H     1 <1>   0.4500 
 48 H        6.3620     1.7520    -1.7210 H     1 <1>   0.0800 
 49 H        6.9570     1.6050    -0.0830 H     1 <1>   0.0800 
 50 H        1.8220    -6.6770     3.6610 H     1 <1>   0.0800 
 51 H        1.1400    -6.9450     2.0610 H     1 <1>   0.0800 
 52 H        0.3090    -5.8920     3.2200 H     1 <1>   0.0800 
 53 H       -2.1550    -6.5660     0.4800 H     1 <1>   0.0800 
 54 H       -1.3960    -5.8210    -0.9210 H     1 <1>   0.0800 
 55 H       -2.3210    -4.8330     0.2270 H     1 <1>   0.0800 
 56 H        6.6070     3.4440     1.4140 H     1 <1>   0.1500 
 57 H        4.1180     3.1410    -2.0230 H     1 <1>   0.1500 
 58 H        2.2470     6.5840    -0.9590 H     1 <1>   0.0800 
 59 H        3.2850     7.9790    -0.8860 H     1 <1>   0.0800 
 60 H        4.8540     8.1390     1.3870 H     1 <1>   0.0800 
 61 H        4.6410     6.8290     2.5120 H     1 <1>   0.0800 
 62 H        0.9870     7.3240     0.9850 H     1 <1>   0.0800 
 63 H        1.0660     8.6410    -0.1610 H     1 <1>   0.0800 
 64 H        3.3420     8.8760     3.1350 H     1 <1>   0.0800 
 65 H        2.3320     7.4630     2.9350 H     1 <1>   0.0800 
@<TRIPOS>BOND
  1   1   2  1   
  2   1   3  1   
  3   2   4  1   
  4   2   5  1   
  5   2   6  1   
  6   3   7  1   
  7   3  33  1   
  8   3  34  1   
  9   4   8  ar  
 10   4   9  ar  
 11   5  10  1   
 12   5  35  1   
 13   5  36  1   
 14   6  11  1   
 15   6  37  1   
 16   6  38  1   
 17   7   8  1   
 18   7  39  1   
 19   7  40  1   
 20   8  12  ar  
 21   9  13  ar  
 22   9  41  1   
 23  10  14  1   
 24  10  42  1   
 25  10  43  1   
 26  11  14  1   
 27  11  44  1   
 28  11  45  1   
 29  12  15  ar  
 30  12  46  1   
 31  13  15  ar  
 32  13  16  1   
 33  14  17  1   
 34  14  47  1   
 35  15  18  1   
 36  16  19  1   
 37  17  20  1   
 38  17  48  1   
 39  17  49  1   
 40  18  21  1   
 41  19  50  1   
 42  19  51  1   
 43  19  52  1   
 44  20  22  ar  
 45  20  23  ar  
 46  21  53  1   
 47  21  54  1   
 48  21  55  1   
 49  22  24  ar  
 50  22  56  1   
 51  23  25  ar  
 52  23  57  1   
 53  24  26  ar  
 54  25  26  ar  
 55  26  27  1   
 56  27  28  1   
 57  27  29  1   
 58  28  30  1   
 59  28  58  1   
 60  28  59  1   
 61  29  31  1   
 62  29  60  1   
 63  29  61  1   
 64  30  32  1   
 65  30  62  1   
 66  30  63  1   
 67  31  32  1   
 68  31  64  1   
 69  31  65  1   
@<TRIPOS>SUBSTRUCTURE
  1 ****   5 GROUP 4 **** **** 0

# MOE 2024.06 (io_trps.svl 2023.06)
