@<TRIPOS>MOLECULE
NONAME
40 42 1 0 0 
SMALL
USER_CHARGES


@<TRIPOS>ATOM
  1 CL      -4.4420    -1.4870     3.1870 Cl    1 <1>  -0.1770 
  2 C       -4.0610    -0.3680     1.8990 C.ar  1 <1>   0.1770 
  3 C       -4.0080    -0.8210     0.5770 C.ar  1 <1>   0.1000 
  4 C       -3.8250     0.9460     2.2320 C.ar  1 <1>  -0.1500 
  5 N       -4.2440    -2.1530     0.2280 N.pl3 1 <1>  -0.6000 
  6 C       -3.7070     0.1050    -0.4370 C.ar  1 <1>   0.0860 
  7 C       -3.5260     1.8600     1.2310 C.ar  1 <1>  -0.1500 
  8 C       -4.1960    -2.6000    -1.0750 C.2   1 <1>  -0.0380 
  9 C       -3.6590    -0.3530    -1.8020 C.2   1 <1>   0.4690 
 10 C       -3.4690     1.4400    -0.0810 C.ar  1 <1>  -0.1500 
 11 C       -3.9040    -1.7240    -2.0670 C.2   1 <1>  -0.1360 
 12 C       -4.4630    -4.0850    -1.3260 C.3   1 <1>   0.4810 
 13 O       -3.4260     0.4050    -2.7330 O.2   1 <1>  -0.5700 
 14 N       -5.9330    -4.4310    -1.4610 N.4   1 <1>  -0.9590 
 15 C       -6.1360    -5.8530    -0.9900 C.3   1 <1>   0.3430 
 16 C       -6.8330    -3.4400    -0.7610 C.3   1 <1>   0.3430 
 17 C       -6.5430    -5.9240     0.4790 C.3   1 <1>  -0.1860 
 18 C       -8.1450    -4.0930    -0.3490 C.3   1 <1>  -0.1600 
 19 C       -5.3160    -5.4610     1.2170 C.2   1 <1>   0.9060 
 20 C       -7.8670    -5.1630     0.7130 C.3   1 <1>   0.2000 
 21 O       -4.3040    -6.1430     1.0750 O.co2 1 <1>  -0.9000 
 22 O       -5.2700    -4.3200     1.6950 O.co2 1 <1>  -0.9000 
 23 O       -7.8400    -4.5380     1.9370 O.3   1 <1>  -0.6800 
 24 H       -3.8740     1.2570     3.2610 H     1 <1>   0.1500 
 25 H       -4.4620    -2.8390     1.0050 H     1 <1>   0.4000 
 26 H       -3.3400     2.8910     1.4830 H     1 <1>   0.1500 
 27 H       -3.2370     2.1480    -0.8600 H     1 <1>   0.1500 
 28 H       -3.8420    -2.0160    -3.0990 H     1 <1>   0.1500 
 29 H       -4.0130    -4.6300    -0.5150 H     1 <1>   0.0800 
 30 H       -3.9470    -4.3860    -2.2210 H     1 <1>   0.0800 
 31 H       -6.1550    -4.3900    -2.4590 H     1 <1>   0.4500 
 32 H       -6.9130    -6.3140    -1.5760 H     1 <1>   0.0800 
 33 H       -5.2310    -6.4240    -1.1310 H     1 <1>   0.0800 
 34 H       -6.3620    -3.0840     0.1400 H     1 <1>   0.0800 
 35 H       -7.0150    -2.5890    -1.3970 H     1 <1>   0.0800 
 36 H       -6.6920    -6.9520     0.7440 H     1 <1>   0.0800 
 37 H       -8.6140    -4.5320    -1.2100 H     1 <1>   0.0800 
 38 H       -8.8180    -3.3540     0.0480 H     1 <1>   0.0800 
 39 H       -8.6940    -5.8530     0.7380 H     1 <1>   0.0800 
 40 H       -6.8950    -4.2570     2.1220 H     1 <1>   0.4000 
@<TRIPOS>BOND
  1   1   2  1   
  2   2   3  ar  
  3   2   4  ar  
  4   3   5  1   
  5   3   6  ar  
  6   4   7  ar  
  7   4  24  1   
  8   5   8  1   
  9   5  25  1   
 10   6   9  1   
 11   6  10  ar  
 12   7  10  ar  
 13   7  26  1   
 14   8  11  2   
 15   8  12  1   
 16   9  11  1   
 17   9  13  2   
 18  10  27  1   
 19  11  28  1   
 20  12  14  1   
 21  12  29  1   
 22  12  30  1   
 23  14  15  1   
 24  14  16  1   
 25  14  31  1   
 26  15  17  1   
 27  15  32  1   
 28  15  33  1   
 29  16  18  1   
 30  16  34  1   
 31  16  35  1   
 32  17  19  1   
 33  17  20  1   
 34  17  36  1   
 35  18  20  1   
 36  18  37  1   
 37  18  38  1   
 38  19  21  ar  
 39  19  22  ar  
 40  20  23  1   
 41  20  39  1   
 42  23  40  1   
@<TRIPOS>SUBSTRUCTURE
  1 ****   5 GROUP 4 **** **** 0

# MOE 2024.06 (io_trps.svl 2023.06)
