@<TRIPOS>MOLECULE
NONAME
48 50 1 0 0 
SMALL
USER_CHARGES


@<TRIPOS>ATOM
  1 O        0.5920     1.5590     1.1290 O.2   1 <1>  -0.5700 
  2 C        0.3010     2.6550     0.7220 C.2   1 <1>   0.5690 
  3 N       -0.6060     3.4170     1.3690 N.am  1 <1>  -0.7300 
  4 C        0.9260     3.1900    -0.5660 C.3   1 <1>   0.1810 
  5 C       -1.1010     4.7240     0.8680 C.3   1 <1>   0.3640 
  6 O        0.8620     4.5960    -0.6460 O.3   1 <1>  -0.5600 
  7 C       -2.6200     4.6200     0.7320 C.ar  1 <1>  -0.1440 
  8 C       -0.4420     5.1510    -0.4770 C.3   1 <1>   0.2610 
  9 C       -3.2170     3.5280     0.1130 C.ar  1 <1>  -0.1500 
 10 C       -3.4300     5.6310     1.2310 C.ar  1 <1>  -0.1500 
 11 C       -0.3710     6.6820    -0.5860 C.2   1 <1>   0.5690 
 12 C       -4.5940     3.4470    -0.0020 C.ar  1 <1>  -0.1500 
 13 C       -4.8070     5.5520     1.1160 C.ar  1 <1>  -0.1500 
 14 O       -1.2950     7.3630    -0.2100 O.2   1 <1>  -0.5700 
 15 N        0.7500     7.2490    -1.1110 N.am  1 <1>  -0.7300 
 16 C       -5.3900     4.4600     0.5000 C.ar  1 <1>  -0.1500 
 17 C        0.9800     8.6910    -1.3280 C.3   1 <1>   0.1400 
 18 C        2.1890     9.1340    -0.5070 C.3   1 <1>  -0.1600 
 19 C        2.4500    10.6250    -0.6980 C.3   1 <1>   0.2090 
 20 N        3.6620    10.9970     0.0590 N.pl3 1 <1>  -0.8690 
 21 C        3.9460    12.3480     0.2770 C.ar  1 <1>   0.1000 
 22 C        4.3650    12.8160     1.5260 C.ar  1 <1>   0.1600 
 23 C        3.8340    13.2790    -0.7430 C.ar  1 <1>  -0.1500 
 24 N        4.6490    14.0730     1.8310 N.ar  1 <1>  -0.6200 
 25 C        4.1260    14.5930    -0.4500 C.ar  1 <1>  -0.1500 
 26 C        4.5220    14.9330     0.8330 C.ar  1 <1>   0.1600 
 27 H       -1.0750     3.0280     2.1890 H     1 <1>   0.3700 
 28 H        0.4180     2.7740    -1.4160 H     1 <1>   0.0800 
 29 H        1.9620     2.9050    -0.6030 H     1 <1>   0.0800 
 30 H       -0.8670     5.4670     1.6110 H     1 <1>   0.0800 
 31 H       -1.0470     4.7960    -1.2910 H     1 <1>   0.0800 
 32 H       -2.6160     2.7270    -0.2810 H     1 <1>   0.1500 
 33 H       -2.9950     6.4940     1.7060 H     1 <1>   0.1500 
 34 H       -5.0460     2.5960    -0.4810 H     1 <1>   0.1500 
 35 H       -5.4240     6.3450     1.5040 H     1 <1>   0.1500 
 36 H        1.5190     6.6130    -1.3480 H     1 <1>   0.3700 
 37 H       -6.4610     4.4000     0.4110 H     1 <1>   0.1500 
 38 H        1.1540     8.8660    -2.3760 H     1 <1>   0.0800 
 39 H        0.1070     9.2490    -1.0300 H     1 <1>   0.0800 
 40 H        1.9960     8.9380     0.5330 H     1 <1>   0.0800 
 41 H        3.0560     8.5820    -0.8240 H     1 <1>   0.0800 
 42 H        1.6110    11.2020    -0.3440 H     1 <1>   0.0800 
 43 H        2.6050    10.8390    -1.7420 H     1 <1>   0.0800 
 44 H        3.7900    10.4000     0.8830 H     1 <1>   0.4000 
 45 H        4.4660    12.0960     2.3170 H     1 <1>   0.1500 
 46 H        3.5360    12.9830    -1.7310 H     1 <1>   0.1500 
 47 H        4.0520    15.3510    -1.2080 H     1 <1>   0.1500 
 48 H        4.7480    15.9640     1.0490 H     1 <1>   0.1500 
@<TRIPOS>BOND
  1   1   2  2   
  2   2   3  am  
  3   2   4  1   
  4   3   5  1   
  5   3  27  1   
  6   4   6  1   
  7   4  28  1   
  8   4  29  1   
  9   5   7  1   
 10   5   8  1   
 11   5  30  1   
 12   6   8  1   
 13   7   9  ar  
 14   7  10  ar  
 15   8  11  1   
 16   8  31  1   
 17   9  12  ar  
 18   9  32  1   
 19  10  13  ar  
 20  10  33  1   
 21  11  14  2   
 22  11  15  am  
 23  12  16  ar  
 24  12  34  1   
 25  13  16  ar  
 26  13  35  1   
 27  15  17  1   
 28  15  36  1   
 29  16  37  1   
 30  17  18  1   
 31  17  38  1   
 32  17  39  1   
 33  18  19  1   
 34  18  40  1   
 35  18  41  1   
 36  19  20  1   
 37  19  42  1   
 38  19  43  1   
 39  20  21  1   
 40  20  44  1   
 41  21  22  ar  
 42  21  23  ar  
 43  22  24  ar  
 44  22  45  1   
 45  23  25  ar  
 46  23  46  1   
 47  24  26  ar  
 48  25  26  ar  
 49  25  47  1   
 50  26  48  1   
@<TRIPOS>SUBSTRUCTURE
  1 ****  11 GROUP 4 **** **** 0

# MOE 2024.06 (io_trps.svl 2023.06)
