@<TRIPOS>MOLECULE
NONAME
44 45 1 0 0 
SMALL
USER_CHARGES


@<TRIPOS>ATOM
  1 CL      -4.9490     1.3100    -2.0800 Cl    1 <1>  -0.1770 
  2 C       -3.4630     1.1160    -1.1730 C.ar  1 <1>   0.1770 
  3 C       -2.5750     2.1750    -1.0970 C.ar  1 <1>   0.1770 
  4 C       -3.2010    -0.0890    -0.5230 C.ar  1 <1>   0.0860 
  5 CL      -2.9170     3.6820    -1.9130 Cl    1 <1>  -0.1770 
  6 C       -1.4050     2.0690    -0.3680 C.ar  1 <1>  -0.1500 
  7 C       -4.1150    -1.2050    -0.6030 C.2   1 <1>   0.5440 
  8 C       -2.0150    -0.1780     0.2120 C.ar  1 <1>  -0.1500 
  9 C       -1.1280     0.8830     0.2900 C.ar  1 <1>  -0.1500 
 10 O       -4.3450    -1.7620    -1.6570 O.2   1 <1>  -0.5700 
 11 N       -4.7690    -1.6700     0.5050 N.am  1 <1>  -0.6600 
 12 C       -4.2970    -2.9340     1.1300 C.3   1 <1>   0.3200 
 13 C       -6.1060    -1.1330     0.9380 C.3   1 <1>   0.1400 
 14 C       -5.2570    -4.0510     0.7840 C.2   1 <1>  -0.3320 
 15 C       -7.0360    -0.7260    -0.2310 C.3   1 <1>   0.3430 
 16 N       -6.0460    -4.6950     1.6670 N.pl3 1 <1>   0.0330 
 17 C       -5.4950    -4.6120    -0.4200 C.2   1 <1>   0.0770 
 18 N       -7.1210    -1.7800    -1.2860 N.4   1 <1>  -0.9590 
 19 C       -6.7430    -5.5870     0.9300 C.2   1 <1>   0.0060 
 20 N       -6.4540    -5.5520    -0.3290 N.2   1 <1>  -0.5650 
 21 C       -7.4340    -1.2120    -2.6280 C.3   1 <1>   0.2630 
 22 C       -8.0400    -2.9040    -0.9400 C.3   1 <1>   0.2630 
 23 C       -7.7540    -6.5400     1.5320 C.3   1 <1>  -0.0600 
 24 H       -0.7250     2.9020    -0.3190 H     1 <1>   0.1500 
 25 H       -1.7800    -1.0950     0.7250 H     1 <1>   0.1500 
 26 H       -0.2180     0.7880     0.8610 H     1 <1>   0.1500 
 27 H       -4.2210    -2.8080     2.1960 H     1 <1>   0.0800 
 28 H       -3.3190    -3.1830     0.7500 H     1 <1>   0.0800 
 29 H       -5.9450    -0.2740     1.5670 H     1 <1>   0.0800 
 30 H       -6.6150    -1.8690     1.5330 H     1 <1>   0.0800 
 31 H       -6.6460     0.1780    -0.6650 H     1 <1>   0.0800 
 32 H       -8.0200    -0.5030     0.1460 H     1 <1>   0.0800 
 33 H       -6.0990    -4.5790     2.6840 H     1 <1>   0.2700 
 34 H       -5.0260    -4.3800    -1.3640 H     1 <1>   0.1500 
 35 H       -6.1480    -2.1640    -1.3540 H     1 <1>   0.4500 
 36 H       -8.4070    -0.7500    -2.6250 H     1 <1>   0.0800 
 37 H       -7.4200    -1.9930    -3.3710 H     1 <1>   0.0800 
 38 H       -6.6950    -0.4760    -2.9000 H     1 <1>   0.0800 
 39 H       -9.0620    -2.5640    -0.9120 H     1 <1>   0.0800 
 40 H       -7.7810    -3.3160     0.0210 H     1 <1>   0.0800 
 41 H       -7.9540    -3.6930    -1.6700 H     1 <1>   0.0800 
 42 H       -8.5390    -5.9950     2.0220 H     1 <1>   0.0800 
 43 H       -7.2720    -7.1870     2.2430 H     1 <1>   0.0800 
 44 H       -8.1860    -7.1490     0.7580 H     1 <1>   0.0800 
@<TRIPOS>BOND
  1   1   2  1   
  2   2   3  ar  
  3   2   4  ar  
  4   3   5  1   
  5   3   6  ar  
  6   4   7  1   
  7   4   8  ar  
  8   6   9  ar  
  9   6  24  1   
 10   7  10  2   
 11   7  11  am  
 12   8   9  ar  
 13   8  25  1   
 14   9  26  1   
 15  11  12  1   
 16  11  13  1   
 17  12  14  1   
 18  12  27  1   
 19  12  28  1   
 20  13  15  1   
 21  13  29  1   
 22  13  30  1   
 23  14  16  1   
 24  14  17  2   
 25  15  18  1   
 26  15  31  1   
 27  15  32  1   
 28  16  19  1   
 29  16  33  1   
 30  17  20  1   
 31  17  34  1   
 32  18  21  1   
 33  18  22  1   
 34  18  35  1   
 35  19  20  2   
 36  19  23  1   
 37  21  36  1   
 38  21  37  1   
 39  21  38  1   
 40  22  39  1   
 41  22  40  1   
 42  22  41  1   
 43  23  42  1   
 44  23  43  1   
 45  23  44  1   
@<TRIPOS>SUBSTRUCTURE
  1 ****  11 GROUP 4 **** **** 0

# MOE 2024.06 (io_trps.svl 2023.06)
