@<TRIPOS>MOLECULE
NONAME
41 42 1 0 0 
SMALL
USER_CHARGES


@<TRIPOS>ATOM
  1 O       -1.3710    -0.1170     2.5320 O.2   1 <1>  -0.5700 
  2 C       -1.5780     0.5210     1.5270 C.2   1 <1>   0.5690 
  3 N       -2.0070    -0.0750     0.3680 N.am  1 <1>  -0.6600 
  4 C       -1.3450     2.0340     1.6090 C.3   1 <1>   0.2010 
  5 C       -2.2010    -1.5670     0.3110 C.3   1 <1>   0.3640 
  6 C       -2.3740     0.6910    -0.8690 C.3   1 <1>   0.1400 
  7 N       -0.3100     2.5330     0.6480 N.am  1 <1>  -0.7300 
  8 C       -0.9750    -2.2890    -0.2710 C.ar  1 <1>  -0.1440 
  9 C       -3.4970    -1.9750    -0.4610 C.3   1 <1>   0.2000 
 10 C       -3.0290    -0.1930    -1.9390 C.3   1 <1>   0.1200 
 11 C       -0.3770     3.5780    -0.2030 C.2   1 <1>   0.5690 
 12 C        0.0230    -1.6620    -1.0110 C.ar  1 <1>  -0.1500 
 13 C       -0.8590    -3.6530    -0.0330 C.ar  1 <1>  -0.1500 
 14 O       -3.9980    -0.9890    -1.3370 O.3   1 <1>  -0.5600 
 15 C       -4.6380    -2.3250     0.5020 C.3   1 <1>   0.1200 
 16 O        0.4580     3.7110    -1.0570 O.2   1 <1>  -0.5700 
 17 C       -1.5020     4.5790    -0.1130 C.3   1 <1>  -0.1790 
 18 C        1.0920    -2.3840    -1.5140 C.ar  1 <1>  -0.1500 
 19 C        0.2080    -4.3770    -0.5340 C.ar  1 <1>  -0.1500 
 20 O       -4.3640    -3.5230     1.1570 O.3   1 <1>  -0.6800 
 21 C        1.1850    -3.7430    -1.2780 C.ar  1 <1>  -0.1500 
 22 H       -1.0220     2.2690     2.6080 H     1 <1>   0.0800 
 23 H       -2.2820     2.5310     1.4430 H     1 <1>   0.0800 
 24 H       -2.3020    -1.9360     1.3180 H     1 <1>   0.0800 
 25 H       -3.0640     1.4730    -0.6080 H     1 <1>   0.0800 
 26 H       -1.4960     1.1480    -1.2900 H     1 <1>   0.0800 
 27 H        0.5180     1.9380     0.5560 H     1 <1>   0.3700 
 28 H       -3.2930    -2.8400    -1.0670 H     1 <1>   0.0800 
 29 H       -2.3070    -0.8260    -2.4260 H     1 <1>   0.0800 
 30 H       -3.5120     0.4160    -2.6820 H     1 <1>   0.0800 
 31 H       -0.0090    -0.6070    -1.2040 H     1 <1>   0.1500 
 32 H       -1.6060    -4.1630     0.5530 H     1 <1>   0.1500 
 33 H       -5.5650    -2.4410    -0.0320 H     1 <1>   0.0800 
 34 H       -4.7430    -1.5550     1.2460 H     1 <1>   0.0800 
 35 H       -1.6140     4.9160     0.9000 H     1 <1>   0.0800 
 36 H       -2.4170     4.1320    -0.4520 H     1 <1>   0.0800 
 37 H       -1.2790     5.4270    -0.7350 H     1 <1>   0.0800 
 38 H        1.8550    -1.8850    -2.0860 H     1 <1>   0.1500 
 39 H        0.2810    -5.4330    -0.3410 H     1 <1>   0.1500 
 40 H       -4.5860    -4.2870     0.5880 H     1 <1>   0.4000 
 41 H        2.0160    -4.3030    -1.6690 H     1 <1>   0.1500 
@<TRIPOS>BOND
  1   1   2  2   
  2   2   3  am  
  3   2   4  1   
  4   3   5  1   
  5   3   6  1   
  6   4   7  1   
  7   4  22  1   
  8   4  23  1   
  9   5   8  1   
 10   5   9  1   
 11   5  24  1   
 12   6  10  1   
 13   6  25  1   
 14   6  26  1   
 15   7  11  am  
 16   7  27  1   
 17   8  12  ar  
 18   8  13  ar  
 19   9  14  1   
 20   9  15  1   
 21   9  28  1   
 22  10  14  1   
 23  10  29  1   
 24  10  30  1   
 25  11  16  2   
 26  11  17  1   
 27  12  18  ar  
 28  12  31  1   
 29  13  19  ar  
 30  13  32  1   
 31  15  20  1   
 32  15  33  1   
 33  15  34  1   
 34  17  35  1   
 35  17  36  1   
 36  17  37  1   
 37  18  21  ar  
 38  18  38  1   
 39  19  21  ar  
 40  19  39  1   
 41  20  40  1   
 42  21  41  1   
@<TRIPOS>SUBSTRUCTURE
  1 ****   3 GROUP 4 **** **** 0

# MOE 2024.06 (io_trps.svl 2023.06)
