@<TRIPOS>MOLECULE
NONAME
46 47 1 0 0 
SMALL
USER_CHARGES


@<TRIPOS>ATOM
  1 S       -0.2350     0.2450     1.4800 S.o2  1 <1>   1.4470 
  2 O        0.2680    -0.7490     2.4040 O.2   1 <1>  -0.6500 
  3 O       -1.1130     1.2870     1.9700 O.2   1 <1>  -0.6500 
  4 N       -1.0220    -0.5390     0.1980 N.am  1 <1>  -0.8490 
  5 C        1.1670     1.0430     0.6480 C.ar  1 <1>  -0.0090 
  6 C       -0.3800    -1.7820    -0.2880 C.3   1 <1>   0.1960 
  7 C       -2.4730    -0.6660     0.3240 C.3   1 <1>   0.1960 
  8 C        0.9930     1.7250    -0.5500 C.ar  1 <1>  -0.1500 
  9 C        2.4470     1.0080     1.1930 C.ar  1 <1>  -0.1500 
 10 C       -1.1080    -3.1070     0.0840 C.3   1 <1>  -0.1060 
 11 C       -2.8510    -1.7060     1.3820 C.3   1 <1>  -0.1600 
 12 C        2.0640     2.3400    -1.1690 C.ar  1 <1>   0.1900 
 13 C        3.5200     1.6260     0.5690 C.ar  1 <1>  -0.1500 
 14 C       -2.0580    -3.4710    -1.0740 C.2   1 <1>   0.9060 
 15 C       -1.8880    -2.9030     1.4100 C.3   1 <1>   0.2000 
 16 C       -0.0690    -4.2640     0.2020 C.3   1 <1>  -0.1600 
 17 F        1.8060     2.9600    -2.2930 F     1 <1>  -0.1900 
 18 C        3.3530     2.3060    -0.6270 C.ar  1 <1>   0.0820 
 19 O       -3.2050    -3.8820    -0.8370 O.co2 1 <1>  -0.9000 
 20 O       -1.6510    -3.3780    -2.2370 O.co2 1 <1>  -0.9000 
 21 O       -2.6270    -4.0310     1.7010 O.3   1 <1>  -0.6800 
 22 C        0.8900    -4.2090     1.4080 C.3   1 <1>  -0.1600 
 23 O        4.4810     2.8710    -1.1410 O.3   1 <1>  -0.3630 
 24 C        1.9450    -5.3150     1.3140 C.3   1 <1>  -0.2400 
 25 C        4.4960     3.6000    -2.3480 C.3   1 <1>   0.0400 
 26 H       -0.2870    -1.7070    -1.3580 H     1 <1>   0.0800 
 27 H        0.6290    -1.8120     0.0780 H     1 <1>   0.0800 
 28 H       -2.9170     0.2860     0.5640 H     1 <1>   0.0800 
 29 H       -2.8740    -0.9720    -0.6290 H     1 <1>   0.0800 
 30 H        0.0170     1.7730    -1.0020 H     1 <1>   0.1500 
 31 H        2.6070     0.4870     2.1230 H     1 <1>   0.1500 
 32 H       -3.8520    -2.0370     1.1680 H     1 <1>   0.0800 
 33 H       -2.8570    -1.2420     2.3510 H     1 <1>   0.0800 
 34 H        4.5000     1.5840     1.0110 H     1 <1>   0.1500 
 35 H       -1.1990    -2.7580     2.2220 H     1 <1>   0.0800 
 36 H       -0.6100    -5.1940     0.2500 H     1 <1>   0.0800 
 37 H        0.5060    -4.2910    -0.7090 H     1 <1>   0.0800 
 38 H       -3.1020    -4.2460     0.8450 H     1 <1>   0.4000 
 39 H        1.3860    -3.2580     1.4660 H     1 <1>   0.0800 
 40 H        0.3310    -4.3470     2.3180 H     1 <1>   0.0800 
 41 H        2.5390    -5.1910     0.4260 H     1 <1>   0.0800 
 42 H        1.4700    -6.2800     1.2830 H     1 <1>   0.0800 
 43 H        2.5930    -5.2780     2.1710 H     1 <1>   0.0800 
 44 H        5.5030     3.9320    -2.5250 H     1 <1>   0.0800 
 45 H        3.8450     4.4510    -2.2520 H     1 <1>   0.0800 
 46 H        4.1780     2.9580    -3.1500 H     1 <1>   0.0800 
@<TRIPOS>BOND
  1   1   2  2   
  2   1   3  2   
  3   1   4  am  
  4   1   5  1   
  5   4   6  1   
  6   4   7  1   
  7   5   8  ar  
  8   5   9  ar  
  9   6  10  1   
 10   6  26  1   
 11   6  27  1   
 12   7  11  1   
 13   7  28  1   
 14   7  29  1   
 15   8  12  ar  
 16   8  30  1   
 17   9  13  ar  
 18   9  31  1   
 19  10  14  1   
 20  10  15  1   
 21  10  16  1   
 22  11  15  1   
 23  11  32  1   
 24  11  33  1   
 25  12  17  1   
 26  12  18  ar  
 27  13  18  ar  
 28  13  34  1   
 29  14  19  ar  
 30  14  20  ar  
 31  15  21  1   
 32  15  35  1   
 33  16  22  1   
 34  16  36  1   
 35  16  37  1   
 36  18  23  1   
 37  21  38  1   
 38  22  24  1   
 39  22  39  1   
 40  22  40  1   
 41  23  25  1   
 42  24  41  1   
 43  24  42  1   
 44  24  43  1   
 45  25  44  1   
 46  25  45  1   
 47  25  46  1   
@<TRIPOS>SUBSTRUCTURE
  1 ****   6 GROUP 4 **** **** 0

# MOE 2024.06 (io_trps.svl 2023.06)
