@<TRIPOS>MOLECULE
NONAME
55 56 1 0 0 
SMALL
USER_CHARGES


@<TRIPOS>ATOM
  1 O       -0.7890     0.2680    -0.9350 O.2   1 <1>  -0.5700 
  2 C       -1.7720     0.8920    -0.5990 C.2   1 <1>   0.5690 
  3 N       -2.7590     0.2970     0.1550 N.am  1 <1>  -0.6600 
  4 C       -1.8220     2.3610    -1.0620 C.3   1 <1>   0.2610 
  5 C       -2.5560    -1.0790     0.7090 C.3   1 <1>   0.3210 
  6 C       -4.0690     0.9240     0.5360 C.3   1 <1>   0.1400 
  7 O       -2.2700     3.2230    -0.0220 O.3   1 <1>  -0.3630 
  8 C       -2.6990     2.5830    -2.3020 C.3   1 <1>  -0.2400 
  9 C       -3.5990    -2.0580     0.1780 C.2   1 <1>   0.0460 
 10 C       -4.1630     1.2660     2.0330 C.3   1 <1>   0.1200 
 11 C       -1.5470     4.3420     0.1920 C.ar  1 <1>   0.0820 
 12 N       -4.7430    -2.2990     0.8570 N.2   1 <1>  -0.5650 
 13 C       -3.5530    -2.7890    -0.9610 C.2   1 <1>  -0.3320 
 14 O       -3.0510     1.9840     2.4550 O.3   1 <1>  -0.6800 
 15 C       -0.3700     4.3220     0.9410 C.ar  1 <1>  -0.1440 
 16 C       -2.0220     5.5230    -0.3560 C.ar  1 <1>  -0.1500 
 17 C       -5.3610    -3.1660     0.1230 C.2   1 <1>   0.0360 
 18 N       -4.6910    -3.5060    -0.9960 N.pl3 1 <1>   0.0330 
 19 C       -2.4920    -2.8570    -2.0470 C.3   1 <1>  -0.0600 
 20 C        0.3270     5.5140     1.0900 C.ar  1 <1>  -0.1500 
 21 C        0.1630     3.0430     1.6010 C.3   1 <1>   0.0630 
 22 C       -1.3200     6.7040    -0.1950 C.ar  1 <1>  -0.1430 
 23 C       -0.1400     6.6910     0.5280 C.ar  1 <1>  -0.1500 
 24 C        0.3160     3.2210     3.1150 C.3   1 <1>  -0.2400 
 25 C        1.4890     2.6140     0.9660 C.3   1 <1>  -0.2400 
 26 C       -1.8300     8.0010    -0.7970 C.3   1 <1>  -0.0970 
 27 H       -0.8130     2.6460    -1.3090 H     1 <1>   0.0800 
 28 H       -2.6140    -1.0470     1.7820 H     1 <1>   0.0800 
 29 H       -1.5800    -1.4510     0.4590 H     1 <1>   0.0800 
 30 H       -4.8700     0.2520     0.2860 H     1 <1>   0.0800 
 31 H       -4.2450     1.8180    -0.0280 H     1 <1>   0.0800 
 32 H       -3.7230     2.3290    -2.1040 H     1 <1>   0.0800 
 33 H       -2.3460     1.9580    -3.1020 H     1 <1>   0.0800 
 34 H       -2.6360     3.6070    -2.6210 H     1 <1>   0.0800 
 35 H       -4.2300     0.3700     2.6260 H     1 <1>   0.0800 
 36 H       -5.0370     1.8650     2.2190 H     1 <1>   0.0800 
 37 H       -2.7570     2.5970     1.7430 H     1 <1>   0.4000 
 38 H       -2.9430     5.5080    -0.9080 H     1 <1>   0.1500 
 39 H       -6.3200    -3.5890     0.3660 H     1 <1>   0.1500 
 40 H       -4.9880    -4.1700    -1.7170 H     1 <1>   0.2700 
 41 H       -1.6840    -2.1820    -1.8280 H     1 <1>   0.0800 
 42 H       -2.9150    -2.5780    -2.9960 H     1 <1>   0.0800 
 43 H       -2.0940    -3.8530    -2.1180 H     1 <1>   0.0800 
 44 H        1.2440     5.5370     1.6500 H     1 <1>   0.1500 
 45 H       -0.5350     2.2400     1.4600 H     1 <1>   0.0800 
 46 H        0.4200     7.5990     0.6630 H     1 <1>   0.1500 
 47 H        1.0640     3.9570     3.3490 H     1 <1>   0.0800 
 48 H        0.5970     2.2880     3.5690 H     1 <1>   0.0800 
 49 H       -0.6220     3.5330     3.5390 H     1 <1>   0.0800 
 50 H        2.2490     3.3570     1.1230 H     1 <1>   0.0800 
 51 H        1.3590     2.4720    -0.0920 H     1 <1>   0.0800 
 52 H        1.8190     1.6840     1.3920 H     1 <1>   0.0800 
 53 H       -2.5780     7.8070    -1.5440 H     1 <1>   0.0800 
 54 H       -1.0200     8.5380    -1.2570 H     1 <1>   0.0800 
 55 H       -2.2610     8.6130    -0.0250 H     1 <1>   0.0800 
@<TRIPOS>BOND
  1   1   2  2   
  2   2   3  am  
  3   2   4  1   
  4   3   5  1   
  5   3   6  1   
  6   4   7  1   
  7   4   8  1   
  8   4  27  1   
  9   5   9  1   
 10   5  28  1   
 11   5  29  1   
 12   6  10  1   
 13   6  30  1   
 14   6  31  1   
 15   7  11  1   
 16   8  32  1   
 17   8  33  1   
 18   8  34  1   
 19   9  12  1   
 20   9  13  2   
 21  10  14  1   
 22  10  35  1   
 23  10  36  1   
 24  11  15  ar  
 25  11  16  ar  
 26  12  17  2   
 27  13  18  1   
 28  13  19  1   
 29  14  37  1   
 30  15  20  ar  
 31  15  21  1   
 32  16  22  ar  
 33  16  38  1   
 34  17  18  1   
 35  17  39  1   
 36  18  40  1   
 37  19  41  1   
 38  19  42  1   
 39  19  43  1   
 40  20  23  ar  
 41  20  44  1   
 42  21  24  1   
 43  21  25  1   
 44  21  45  1   
 45  22  23  ar  
 46  22  26  1   
 47  23  46  1   
 48  24  47  1   
 49  24  48  1   
 50  24  49  1   
 51  25  50  1   
 52  25  51  1   
 53  25  52  1   
 54  26  53  1   
 55  26  54  1   
 56  26  55  1   
@<TRIPOS>SUBSTRUCTURE
  1 ****   2 GROUP 4 **** **** 0

# MOE 2024.06 (io_trps.svl 2023.06)
