@<TRIPOS>MOLECULE
NONAME
45 47 1 0 0 
SMALL
USER_CHARGES


@<TRIPOS>ATOM
  1 O        0.5940     0.3380    -1.2450 O.2   1 <1>  -0.5700 
  2 C        1.1700    -0.3970    -0.4760 C.2   1 <1>   0.5690 
  3 N        0.5430    -1.4180     0.1740 N.am  1 <1>  -0.5790 
  4 C        2.6660    -0.1200    -0.2400 C.3   1 <1>   0.4040 
  5 C       -0.8820    -1.7520     0.0250 C.3   1 <1>   0.0490 
  6 N        3.0750     1.2820    -0.6430 N.4   1 <1>  -0.9590 
  7 C       -1.6100    -2.2630     1.2230 C.3   1 <1>  -0.2000 
  8 C       -1.2740    -3.1900     0.0940 C.3   1 <1>  -0.2000 
  9 C        4.5470     1.4310    -0.8220 C.3   1 <1>   0.3430 
 10 C        2.4800     2.3100     0.2640 C.3   1 <1>   0.3430 
 11 C        4.8610     2.8180    -1.3730 C.3   1 <1>  -0.1600 
 12 C        2.7730     3.7020    -0.2810 C.3   1 <1>  -0.1600 
 13 C        4.2740     3.9040    -0.4760 C.3   1 <1>   0.2890 
 14 N        4.4930     5.1990    -1.1160 N.pl3 1 <1>  -0.8690 
 15 C        4.5870     6.3310    -0.3700 C.ar  1 <1>   0.4100 
 16 N        3.6340     7.2030    -0.5810 N.ar  1 <1>  -0.6200 
 17 C        5.5940     6.5560     0.5460 C.ar  1 <1>  -0.1500 
 18 C        3.7000     8.3040     0.1440 C.ar  1 <1>   0.4770 
 19 C        5.5580     7.7330     1.2420 C.ar  1 <1>   0.1600 
 20 N        4.6040     8.6230     1.0540 N.ar  1 <1>  -0.6200 
 21 C        2.6150     9.3280    -0.0860 C.3   1 <1>  -0.0970 
 22 H        1.0360    -2.0510     0.8070 H     1 <1>   0.3700 
 23 H        3.2210    -0.8340    -0.8240 H     1 <1>   0.0800 
 24 H        2.8940    -0.2840     0.7990 H     1 <1>   0.0800 
 25 H       -1.4100    -1.1090    -0.6640 H     1 <1>   0.1000 
 26 H        2.6100     1.4290    -1.5580 H     1 <1>   0.4500 
 27 H       -2.6430    -1.9890     1.3580 H     1 <1>   0.1000 
 28 H       -1.0890    -2.3740     2.1570 H     1 <1>   0.1000 
 29 H       -0.5180    -3.9410     0.2440 H     1 <1>   0.1000 
 30 H       -2.0800    -3.5370    -0.5300 H     1 <1>   0.1000 
 31 H        4.9150     0.6840    -1.5090 H     1 <1>   0.0800 
 32 H        5.0470     1.2980     0.1240 H     1 <1>   0.0800 
 33 H        2.8950     2.2140     1.2540 H     1 <1>   0.0800 
 34 H        1.4110     2.1740     0.3270 H     1 <1>   0.0800 
 35 H        4.4660     2.9050    -2.3690 H     1 <1>   0.0800 
 36 H        5.9280     2.9440    -1.4250 H     1 <1>   0.0800 
 37 H        2.4030     4.4360     0.4140 H     1 <1>   0.0800 
 38 H        2.2510     3.8360    -1.2120 H     1 <1>   0.0800 
 39 H        4.7680     3.8880     0.4820 H     1 <1>   0.0800 
 40 H        3.8620     5.3650    -1.9050 H     1 <1>   0.4000 
 41 H        6.3740     5.8360     0.6900 H     1 <1>   0.1500 
 42 H        6.3210     7.9610     1.9680 H     1 <1>   0.1500 
 43 H        1.8770     8.9510    -0.7690 H     1 <1>   0.0800 
 44 H        3.0490    10.2200    -0.4950 H     1 <1>   0.0800 
 45 H        2.1400     9.5640     0.8480 H     1 <1>   0.0800 
@<TRIPOS>BOND
  1   1   2  2   
  2   2   3  am  
  3   2   4  1   
  4   3   5  1   
  5   3  22  1   
  6   4   6  1   
  7   4  23  1   
  8   4  24  1   
  9   5   7  1   
 10   5   8  1   
 11   5  25  1   
 12   6   9  1   
 13   6  10  1   
 14   6  26  1   
 15   7   8  1   
 16   7  27  1   
 17   7  28  1   
 18   8  29  1   
 19   8  30  1   
 20   9  11  1   
 21   9  31  1   
 22   9  32  1   
 23  10  12  1   
 24  10  33  1   
 25  10  34  1   
 26  11  13  1   
 27  11  35  1   
 28  11  36  1   
 29  12  13  1   
 30  12  37  1   
 31  12  38  1   
 32  13  14  1   
 33  13  39  1   
 34  14  15  1   
 35  14  40  1   
 36  15  16  ar  
 37  15  17  ar  
 38  16  18  ar  
 39  17  19  ar  
 40  17  41  1   
 41  18  20  ar  
 42  18  21  1   
 43  19  20  ar  
 44  19  42  1   
 45  21  43  1   
 46  21  44  1   
 47  21  45  1   
@<TRIPOS>SUBSTRUCTURE
  1 ****  12 GROUP 4 **** **** 0

# MOE 2024.06 (io_trps.svl 2023.06)
