@<TRIPOS>MOLECULE
NONAME
49 52 1 0 0 
SMALL
USER_CHARGES


@<TRIPOS>ATOM
  1 O       -0.4600     0.3440     0.6990 O.2   1 <1>  -0.5700 
  2 C       -1.4810     0.9650     0.4510 C.2   1 <1>   0.7150 
  3 N       -2.6430     0.2280     0.3260 N.am  1 <1>  -0.6600 
  4 C       -1.4310     2.4070     0.2880 C.2   1 <1>   0.1020 
  5 C       -3.9990     0.7590     0.0130 C.3   1 <1>   0.1400 
  6 C       -2.6550    -1.2580     0.2850 C.3   1 <1>   0.1400 
  7 N       -2.3900     3.2490     0.5780 N.2   1 <1>  -0.3380 
  8 N       -0.3640     3.0920    -0.1810 N.pl3 1 <1>   0.0480 
  9 C       -4.9300    -0.4410     0.1820 C.3   1 <1>   0.2000 
 10 C       -4.0550    -1.6330    -0.2110 C.3   1 <1>  -0.0800 
 11 N       -1.9600     4.4730     0.3190 N.2   1 <1>  -0.3380 
 12 C       -0.7560     4.3620    -0.1230 C.2   1 <1>   0.0070 
 13 C        0.9420     2.6170    -0.7010 C.3   1 <1>   0.0960 
 14 O       -5.2660    -0.5370     1.5250 O.3   1 <1>  -0.6800 
 15 C       -4.5380    -3.0090     0.2810 C.3   1 <1>   0.0210 
 16 C        0.1070     5.5460    -0.5160 C.3   1 <1>   0.0200 
 17 C        2.1060     3.1260     0.1610 C.3   1 <1>  -0.1600 
 18 C       -3.5790    -4.1030    -0.1440 C.2   1 <1>   0.1080 
 19 C        1.3940     5.6160     0.3200 C.3   1 <1>  -0.1600 
 20 C        2.4710     4.5980    -0.0930 C.3   1 <1>  -0.1600 
 21 N       -3.2910    -4.3470    -1.3860 N.2   1 <1>  -0.7070 
 22 C       -2.9010    -4.9490     0.7280 C.2   1 <1>  -0.1500 
 23 N       -2.4150    -5.3690    -1.3370 N.pl3 1 <1>   0.3000 
 24 C       -2.1610    -5.7490    -0.0680 C.2   1 <1>  -0.3320 
 25 C       -1.2130    -6.8710     0.3130 C.3   1 <1>  -0.0600 
 26 H       -4.2840     1.5620     0.6700 H     1 <1>   0.0800 
 27 H       -4.0160     1.1020    -1.0070 H     1 <1>   0.0800 
 28 H       -1.8940    -1.6350    -0.3780 H     1 <1>   0.0800 
 29 H       -2.4830    -1.6380     1.2770 H     1 <1>   0.0800 
 30 H       -5.8360    -0.3640    -0.3960 H     1 <1>   0.0800 
 31 H       -4.0110    -1.6640    -1.2860 H     1 <1>   0.0800 
 32 H        0.9590     1.5450    -0.7240 H     1 <1>   0.0800 
 33 H        1.0560     2.9600    -1.7130 H     1 <1>   0.0800 
 34 H       -4.4620    -0.3700     2.0580 H     1 <1>   0.4000 
 35 H       -5.5070    -3.2180    -0.1360 H     1 <1>   0.0800 
 36 H       -4.6280    -3.0190     1.3520 H     1 <1>   0.0800 
 37 H        0.3380     5.5010    -1.5650 H     1 <1>   0.0800 
 38 H       -0.4620     6.4440    -0.3480 H     1 <1>   0.0800 
 39 H        1.8850     2.9650     1.2030 H     1 <1>   0.0800 
 40 H        2.9710     2.5300    -0.0730 H     1 <1>   0.0800 
 41 H        1.8100     6.6030     0.2070 H     1 <1>   0.0800 
 42 H        1.1500     5.4900     1.3610 H     1 <1>   0.0800 
 43 H        3.3640     4.8180     0.4670 H     1 <1>   0.0800 
 44 H        2.7140     4.7350    -1.1340 H     1 <1>   0.0800 
 45 H       -2.9710    -4.9430     1.8010 H     1 <1>   0.1500 
 46 H       -2.0110    -5.7830    -2.1860 H     1 <1>   0.2700 
 47 H       -1.1820    -6.9820     1.3820 H     1 <1>   0.0800 
 48 H       -0.2200    -6.6550    -0.0390 H     1 <1>   0.0800 
 49 H       -1.5450    -7.8000    -0.1170 H     1 <1>   0.0800 
@<TRIPOS>BOND
  1   1   2  2   
  2   2   3  am  
  3   2   4  1   
  4   3   5  1   
  5   3   6  1   
  6   4   7  2   
  7   4   8  1   
  8   5   9  1   
  9   5  26  1   
 10   5  27  1   
 11   6  10  1   
 12   6  28  1   
 13   6  29  1   
 14   7  11  1   
 15   8  12  1   
 16   8  13  1   
 17   9  10  1   
 18   9  14  1   
 19   9  30  1   
 20  10  15  1   
 21  10  31  1   
 22  11  12  2   
 23  12  16  1   
 24  13  17  1   
 25  13  32  1   
 26  13  33  1   
 27  14  34  1   
 28  15  18  1   
 29  15  35  1   
 30  15  36  1   
 31  16  19  1   
 32  16  37  1   
 33  16  38  1   
 34  17  20  1   
 35  17  39  1   
 36  17  40  1   
 37  18  21  2   
 38  18  22  1   
 39  19  20  1   
 40  19  41  1   
 41  19  42  1   
 42  20  43  1   
 43  20  44  1   
 44  21  23  1   
 45  22  24  2   
 46  22  45  1   
 47  23  24  1   
 48  23  46  1   
 49  24  25  1   
 50  25  47  1   
 51  25  48  1   
 52  25  49  1   
@<TRIPOS>SUBSTRUCTURE
  1 ****   3 GROUP 4 **** **** 0

# MOE 2024.06 (io_trps.svl 2023.06)
