@<TRIPOS>MOLECULE
NONAME
44 45 1 0 0 
SMALL
USER_CHARGES


@<TRIPOS>ATOM
  1 O        2.2130     0.0530     1.0770 O.3   1 <1>  -0.6800 
  2 C        2.3020    -0.7250    -0.0640 C.3   1 <1>   0.2800 
  3 C        0.9110    -0.7680    -0.7110 C.3   1 <1>  -0.1600 
  4 C        2.7090    -2.1390     0.3900 C.3   1 <1>  -0.1600 
  5 C        3.3780    -0.0680    -0.9640 C.3   1 <1>   0.2090 
  6 C       -0.1680    -1.3870     0.1930 C.3   1 <1>   0.3430 
  7 C        1.5640    -2.9550     1.0070 C.3   1 <1>   0.3430 
  8 N        4.5800     0.3060    -0.1590 N.pl3 1 <1>  -0.8690 
  9 N        0.4380    -2.0590     1.3790 N.4   1 <1>  -0.9590 
 10 C        5.0100     1.5860     0.0220 C.ar  1 <1>   0.4100 
 11 C       -0.5760    -2.7200     2.2500 C.3   1 <1>   0.2630 
 12 N        6.3100     1.7010     0.1000 N.ar  1 <1>  -0.6200 
 13 C        4.1740     2.6810     0.1300 C.ar  1 <1>  -0.1500 
 14 C        6.7560     2.9310     0.2770 C.ar  1 <1>   0.4700 
 15 C        4.7470     3.9130     0.3150 C.ar  1 <1>   0.1670 
 16 N        6.0580     4.0490     0.3880 N.ar  1 <1>  -0.6200 
 17 C        3.9010     5.1800     0.4460 C.3   1 <1>   0.0630 
 18 C        2.9410     5.0960     1.6410 C.3   1 <1>  -0.2400 
 19 C        3.1300     5.4710    -0.8480 C.3   1 <1>  -0.2400 
 20 H        3.1280     0.4030     1.2280 H     1 <1>   0.4000 
 21 H        0.9640    -1.3460    -1.6160 H     1 <1>   0.0800 
 22 H        0.6060     0.2240    -0.9950 H     1 <1>   0.0800 
 23 H        3.5240    -2.0750     1.0900 H     1 <1>   0.0800 
 24 H        3.0770    -2.6930    -0.4540 H     1 <1>   0.0800 
 25 H        2.9690     0.8090    -1.4360 H     1 <1>   0.0800 
 26 H        3.6680    -0.7450    -1.7500 H     1 <1>   0.0800 
 27 H       -0.7520    -2.0930    -0.3750 H     1 <1>   0.0800 
 28 H       -0.8270    -0.6050     0.5340 H     1 <1>   0.0800 
 29 H        1.9280    -3.4750     1.8790 H     1 <1>   0.0800 
 30 H        1.2170    -3.6880     0.2970 H     1 <1>   0.0800 
 31 H        5.3850    -0.3200    -0.2780 H     1 <1>   0.4000 
 32 H        0.8920    -1.2770     1.8970 H     1 <1>   0.4500 
 33 H       -1.0550    -3.5280     1.7220 H     1 <1>   0.0800 
 34 H       -1.3280    -2.0090     2.5530 H     1 <1>   0.0800 
 35 H       -0.1050    -3.1160     3.1360 H     1 <1>   0.0800 
 36 H        3.1120     2.5660     0.0760 H     1 <1>   0.1500 
 37 H        7.8260     3.0390     0.3410 H     1 <1>   0.1500 
 38 H        4.5690     6.0080     0.6220 H     1 <1>   0.0800 
 39 H        2.2170     4.3140     1.5010 H     1 <1>   0.0800 
 40 H        2.4210     6.0280     1.7650 H     1 <1>   0.0800 
 41 H        3.4970     4.8950     2.5390 H     1 <1>   0.0800 
 42 H        2.4160     4.6940    -1.0540 H     1 <1>   0.0800 
 43 H        3.8170     5.5360    -1.6740 H     1 <1>   0.0800 
 44 H        2.6060     6.4070    -0.7670 H     1 <1>   0.0800 
@<TRIPOS>BOND
  1   1   2  1   
  2   1  20  1   
  3   2   3  1   
  4   2   4  1   
  5   2   5  1   
  6   3   6  1   
  7   3  21  1   
  8   3  22  1   
  9   4   7  1   
 10   4  23  1   
 11   4  24  1   
 12   5   8  1   
 13   5  25  1   
 14   5  26  1   
 15   6   9  1   
 16   6  27  1   
 17   6  28  1   
 18   7   9  1   
 19   7  29  1   
 20   7  30  1   
 21   8  10  1   
 22   8  31  1   
 23   9  11  1   
 24   9  32  1   
 25  10  12  ar  
 26  10  13  ar  
 27  11  33  1   
 28  11  34  1   
 29  11  35  1   
 30  12  14  ar  
 31  13  15  ar  
 32  13  36  1   
 33  14  16  ar  
 34  14  37  1   
 35  15  16  ar  
 36  15  17  1   
 37  17  18  1   
 38  17  19  1   
 39  17  38  1   
 40  18  39  1   
 41  18  40  1   
 42  18  41  1   
 43  19  42  1   
 44  19  43  1   
 45  19  44  1   
@<TRIPOS>SUBSTRUCTURE
  1 ****   1 GROUP 4 **** **** 0

# MOE 2024.06 (io_trps.svl 2023.06)
