@<TRIPOS>MOLECULE
NONAME
48 51 1 0 0 
SMALL
USER_CHARGES


@<TRIPOS>ATOM
  1 O        0.2680    -0.4950     1.5000 O.3   1 <1>  -0.5600 
  2 C        1.2790    -1.4060     1.1690 C.3   1 <1>   0.3440 
  3 C       -0.7810    -0.5730     0.5950 C.3   1 <1>   0.1200 
  4 C        2.5080    -0.6910     0.6020 C.ar  1 <1>  -0.1440 
  5 C        0.6690    -2.3900     0.1580 C.3   1 <1>  -0.0800 
  6 C       -0.7880    -2.0140     0.1130 C.3   1 <1>  -0.0800 
  7 C        3.6670    -1.4260     0.3940 C.ar  1 <1>  -0.1500 
  8 C        2.5120     0.6640     0.2850 C.ar  1 <1>  -0.1500 
  9 C        0.6330    -3.8220     0.6650 C.3   1 <1>   0.1200 
 10 C       -1.4560    -2.9800     1.1060 C.3   1 <1>   0.3440 
 11 C        4.7940    -0.8200    -0.1270 C.ar  1 <1>   0.0830 
 12 C        3.6430     1.2740    -0.2350 C.ar  1 <1>  -0.1500 
 13 O       -0.4650    -3.8840     1.5110 O.3   1 <1>  -0.5600 
 14 C       -2.6510    -3.7060     0.4840 C.ar  1 <1>  -0.1440 
 15 O        5.9050    -1.5480    -0.3280 O.3   1 <1>  -0.5320 
 16 C        4.8010     0.5340    -0.4490 C.ar  1 <1>   0.0830 
 17 C       -3.7960    -2.9750     0.1970 C.ar  1 <1>  -0.1500 
 18 C       -2.6380    -5.0660     0.1930 C.ar  1 <1>  -0.1500 
 19 O        5.9550     1.0540    -0.9580 O.3   1 <1>  -0.3620 
 20 C       -4.8920    -3.5920    -0.3760 C.ar  1 <1>   0.0830 
 21 C       -3.7370    -5.6870    -0.3790 C.ar  1 <1>  -0.1500 
 22 C        6.0480     2.4250    -1.2810 C.3   1 <1>   0.0400 
 23 O       -5.9890    -2.8680    -0.6530 O.3   1 <1>  -0.5330 
 24 C       -4.8810    -4.9510    -0.6720 C.ar  1 <1>   0.0830 
 25 O       -6.0050    -5.4820    -1.2360 O.3   1 <1>  -0.3630 
 26 C       -6.0800    -6.8580    -1.5380 C.3   1 <1>   0.0400 
 27 H        1.5490    -1.9100     2.0810 H     1 <1>   0.0800 
 28 H       -1.6960    -0.2840     1.0820 H     1 <1>   0.0800 
 29 H       -0.5670     0.1000    -0.2180 H     1 <1>   0.0800 
 30 H        1.1510    -2.3150    -0.8010 H     1 <1>   0.0800 
 31 H       -1.2160    -2.1070    -0.8700 H     1 <1>   0.0800 
 32 H        3.7100    -2.4730     0.6320 H     1 <1>   0.1500 
 33 H        1.6300     1.2580     0.4470 H     1 <1>   0.1500 
 34 H        1.5190    -4.1010     1.2080 H     1 <1>   0.0800 
 35 H        0.4650    -4.5100    -0.1460 H     1 <1>   0.0800 
 36 H       -1.7760    -2.4590     1.9920 H     1 <1>   0.0800 
 37 H        3.5990     2.3220    -0.4630 H     1 <1>   0.1500 
 38 H        6.6040    -0.9680    -0.6910 H     1 <1>   0.4500 
 39 H       -3.8520    -1.9240     0.4130 H     1 <1>   0.1500 
 40 H       -1.7660    -5.6570     0.4150 H     1 <1>   0.1500 
 41 H       -3.6810    -6.7380    -0.5850 H     1 <1>   0.1500 
 42 H        7.0390     2.6150    -1.6510 H     1 <1>   0.0800 
 43 H        5.8730     3.0060    -0.3930 H     1 <1>   0.0800 
 44 H        5.3240     2.6550    -2.0420 H     1 <1>   0.0800 
 45 H       -6.6670    -3.4560    -1.0430 H     1 <1>   0.4500 
 46 H       -7.0490    -7.0560    -1.9600 H     1 <1>   0.0800 
 47 H       -5.9550    -7.4220    -0.6300 H     1 <1>   0.0800 
 48 H       -5.3140    -7.1020    -2.2520 H     1 <1>   0.0800 
@<TRIPOS>BOND
  1   1   2  1   
  2   1   3  1   
  3   2   4  1   
  4   2   5  1   
  5   2  27  1   
  6   3   6  1   
  7   3  28  1   
  8   3  29  1   
  9   4   7  ar  
 10   4   8  ar  
 11   5   6  1   
 12   5   9  1   
 13   5  30  1   
 14   6  10  1   
 15   6  31  1   
 16   7  11  ar  
 17   7  32  1   
 18   8  12  ar  
 19   8  33  1   
 20   9  13  1   
 21   9  34  1   
 22   9  35  1   
 23  10  13  1   
 24  10  14  1   
 25  10  36  1   
 26  11  15  1   
 27  11  16  ar  
 28  12  16  ar  
 29  12  37  1   
 30  14  17  ar  
 31  14  18  ar  
 32  15  38  1   
 33  16  19  1   
 34  17  20  ar  
 35  17  39  1   
 36  18  21  ar  
 37  18  40  1   
 38  19  22  1   
 39  20  23  1   
 40  20  24  ar  
 41  21  24  ar  
 42  21  41  1   
 43  22  42  1   
 44  22  43  1   
 45  22  44  1   
 46  23  45  1   
 47  24  25  1   
 48  25  26  1   
 49  26  46  1   
 50  26  47  1   
 51  26  48  1   
@<TRIPOS>SUBSTRUCTURE
  1 ****   6 GROUP 4 **** **** 0

# MOE 2024.06 (io_trps.svl 2023.06)
