@<TRIPOS>MOLECULE
NONAME
43 45 1 0 0 
SMALL
USER_CHARGES


@<TRIPOS>ATOM
  1 F       -2.2060    -0.0780    -1.8020 F     1 <1>  -0.1900 
  2 C       -2.4560     0.7580    -0.8310 C.ar  1 <1>   0.1900 
  3 C       -2.7750     0.2630     0.4340 C.ar  1 <1>   0.0860 
  4 C       -2.3880     2.1060    -1.1240 C.ar  1 <1>  -0.1500 
  5 C       -2.8560    -1.1490     0.7250 C.2   1 <1>   0.5440 
  6 C       -3.0150     1.2110     1.4310 C.ar  1 <1>  -0.1500 
  7 C       -2.6450     3.0140    -0.1110 C.ar  1 <1>   0.0830 
  8 O       -2.0970    -1.6370     1.5410 O.2   1 <1>  -0.5700 
  9 N       -3.7970    -1.9580     0.1340 N.am  1 <1>  -0.6600 
 10 C       -2.9550     2.5670     1.1640 C.ar  1 <1>  -0.1500 
 11 O       -2.5950     4.3290    -0.3480 O.3   1 <1>  -0.5330 
 12 C       -4.9020    -1.5120    -0.7510 C.3   1 <1>   0.1400 
 13 C       -3.9970    -3.3710     0.5240 C.3   1 <1>   0.1400 
 14 C       -5.9090    -2.6700    -0.7710 C.3   1 <1>   0.2000 
 15 C       -5.0550    -3.9010    -0.4460 C.3   1 <1>  -0.0800 
 16 O       -6.8570    -2.4960     0.2430 O.3   1 <1>  -0.5600 
 17 C       -5.8470    -5.1020     0.1020 C.3   1 <1>   0.0200 
 18 C       -7.9500    -1.6990    -0.0920 C.3   1 <1>   0.0400 
 19 C       -5.0070    -6.3610     0.2410 C.2   1 <1>  -0.0400 
 20 O       -5.5570    -7.4280     0.7590 O.3   1 <1>  -0.0190 
 21 C       -3.7370    -6.6680    -0.0690 C.2   1 <1>  -0.1500 
 22 N       -4.7250    -8.4280     0.8150 N.2   1 <1>  -0.4100 
 23 C       -3.6190    -7.9980     0.3240 C.2   1 <1>   0.1080 
 24 C       -2.3640    -8.8310     0.1940 C.3   1 <1>  -0.0590 
 25 H       -2.1390     2.4290    -2.1170 H     1 <1>   0.1500 
 26 H       -3.2480     0.8670     2.4250 H     1 <1>   0.1500 
 27 H       -3.1440     3.2880     1.9410 H     1 <1>   0.1500 
 28 H       -2.3500     4.5630    -1.2610 H     1 <1>   0.4500 
 29 H       -5.3460    -0.6010    -0.3910 H     1 <1>   0.0800 
 30 H       -4.5090    -1.3600    -1.7410 H     1 <1>   0.0800 
 31 H       -3.0720    -3.9160     0.4600 H     1 <1>   0.0800 
 32 H       -4.3600    -3.4010     1.5380 H     1 <1>   0.0800 
 33 H       -6.4130    -2.7680    -1.7180 H     1 <1>   0.0800 
 34 H       -4.5540    -4.1980    -1.3500 H     1 <1>   0.0800 
 35 H       -6.6690    -5.3160    -0.5580 H     1 <1>   0.0800 
 36 H       -6.2600    -4.8570     1.0650 H     1 <1>   0.0800 
 37 H       -8.5930    -1.6370     0.7680 H     1 <1>   0.0800 
 38 H       -8.4840    -2.1540    -0.9090 H     1 <1>   0.0800 
 39 H       -7.6120    -0.7140    -0.3600 H     1 <1>   0.0800 
 40 H       -2.9630    -6.0700    -0.5120 H     1 <1>   0.1500 
 41 H       -1.5640    -8.3730     0.7470 H     1 <1>   0.0800 
 42 H       -2.0830    -8.9080    -0.8390 H     1 <1>   0.0800 
 43 H       -2.5370    -9.8170     0.5840 H     1 <1>   0.0800 
@<TRIPOS>BOND
  1   1   2  1   
  2   2   3  ar  
  3   2   4  ar  
  4   3   5  1   
  5   3   6  ar  
  6   4   7  ar  
  7   4  25  1   
  8   5   8  2   
  9   5   9  am  
 10   6  10  ar  
 11   6  26  1   
 12   7  10  ar  
 13   7  11  1   
 14   9  12  1   
 15   9  13  1   
 16  10  27  1   
 17  11  28  1   
 18  12  14  1   
 19  12  29  1   
 20  12  30  1   
 21  13  15  1   
 22  13  31  1   
 23  13  32  1   
 24  14  15  1   
 25  14  16  1   
 26  14  33  1   
 27  15  17  1   
 28  15  34  1   
 29  16  18  1   
 30  17  19  1   
 31  17  35  1   
 32  17  36  1   
 33  18  37  1   
 34  18  38  1   
 35  18  39  1   
 36  19  20  1   
 37  19  21  2   
 38  20  22  1   
 39  21  23  1   
 40  21  40  1   
 41  22  23  2   
 42  23  24  1   
 43  24  41  1   
 44  24  42  1   
 45  24  43  1   
@<TRIPOS>SUBSTRUCTURE
  1 ****   9 GROUP 4 **** **** 0

# MOE 2024.06 (io_trps.svl 2023.06)
