@<TRIPOS>MOLECULE
NONAME
48 50 1 0 0 
SMALL
USER_CHARGES


@<TRIPOS>ATOM
  1 S       -0.6500    -0.0410    -1.6150 S.o2  1 <1>   1.3330 
  2 O       -0.2280    -0.8830    -2.7100 O.2   1 <1>  -0.6500 
  3 O       -1.4530     1.1290    -1.8690 O.2   1 <1>  -0.6500 
  4 N       -1.5560    -1.0070    -0.5820 N.am  1 <1>  -0.9140 
  5 C        0.8180     0.4440    -0.6920 C.3   1 <1>  -0.0550 
  6 C       -1.2260    -2.4270    -0.4870 C.3   1 <1>   0.2760 
  7 C        0.6080     0.9170     0.7640 C.3   1 <1>  -0.0800 
  8 C       -2.3730    -3.1680     0.1930 C.3   1 <1>  -0.0800 
  9 C       -0.1240    -2.6770     0.5370 C.3   1 <1>   0.1200 
 10 C       -0.1500     2.2490     0.8410 C.3   1 <1>  -0.2400 
 11 C        1.9690     1.0730     1.4520 C.3   1 <1>  -0.2400 
 12 C       -2.0760    -2.9530     1.6850 C.3   1 <1>   0.1200 
 13 C       -3.7890    -2.7340    -0.2450 C.3   1 <1>  -0.0170 
 14 O       -0.7510    -2.5110     1.7700 O.3   1 <1>  -0.5600 
 15 C       -4.9630    -3.5480     0.3110 C.ar  1 <1>  -0.1440 
 16 C       -6.2880    -3.0960     0.0910 C.ar  1 <1>   0.0000 
 17 C       -4.8140    -4.7110     1.0140 C.ar  1 <1>  -0.1500 
 18 C       -7.3500    -3.8600     0.6330 C.ar  1 <1>   0.3100 
 19 C       -6.6230    -1.9310    -0.6410 C.ar  1 <1>  -0.1500 
 20 C       -5.9350    -5.3940     1.5010 C.ar  1 <1>   0.1600 
 21 N       -7.1570    -5.0030     1.3350 N.ar  1 <1>  -0.6200 
 22 C       -8.6720    -3.4270     0.4380 C.ar  1 <1>  -0.1500 
 23 C       -7.9220    -1.5370    -0.8140 C.ar  1 <1>  -0.1500 
 24 C       -8.9620    -2.2910    -0.2680 C.ar  1 <1>  -0.1500 
 25 H       -1.5790    -0.5860     0.3440 H     1 <1>   0.4200 
 26 H        1.4930    -0.3880    -0.6810 H     1 <1>   0.0800 
 27 H        1.3150     1.2250    -1.2370 H     1 <1>   0.0800 
 28 H       -1.0040    -2.8430    -1.4560 H     1 <1>   0.0800 
 29 H        0.0520     0.1750     1.3120 H     1 <1>   0.0800 
 30 H       -2.2490    -4.2130    -0.0310 H     1 <1>   0.0800 
 31 H        0.7130    -2.0130     0.4610 H     1 <1>   0.0800 
 32 H        0.2240    -3.6950     0.4780 H     1 <1>   0.0800 
 33 H        0.3520     3.0080     0.2660 H     1 <1>   0.0800 
 34 H       -0.2170     2.5840     1.8610 H     1 <1>   0.0800 
 35 H       -1.1540     2.1470     0.4670 H     1 <1>   0.0800 
 36 H        2.5680     1.8150     0.9520 H     1 <1>   0.0800 
 37 H        2.5040     0.1400     1.4490 H     1 <1>   0.0800 
 38 H        1.8370     1.3770     2.4770 H     1 <1>   0.0800 
 39 H       -2.1740    -3.8620     2.2530 H     1 <1>   0.0800 
 40 H       -2.7050    -2.1900     2.1120 H     1 <1>   0.0800 
 41 H       -3.8370    -2.7680    -1.3200 H     1 <1>   0.0800 
 42 H       -3.9340    -1.7100     0.0520 H     1 <1>   0.0800 
 43 H       -3.8590    -5.1500     1.2220 H     1 <1>   0.1500 
 44 H       -5.8440    -1.3340    -1.0780 H     1 <1>   0.1500 
 45 H       -5.7690    -6.3050     2.0520 H     1 <1>   0.1500 
 46 H       -9.4540    -4.0250     0.8660 H     1 <1>   0.1500 
 47 H       -8.1580    -0.6470    -1.3720 H     1 <1>   0.1500 
 48 H       -9.9800    -1.9710    -0.4100 H     1 <1>   0.1500 
@<TRIPOS>BOND
  1   1   2  2   
  2   1   3  2   
  3   1   4  am  
  4   1   5  1   
  5   4   6  1   
  6   4  25  1   
  7   5   7  1   
  8   5  26  1   
  9   5  27  1   
 10   6   8  1   
 11   6   9  1   
 12   6  28  1   
 13   7  10  1   
 14   7  11  1   
 15   7  29  1   
 16   8  12  1   
 17   8  13  1   
 18   8  30  1   
 19   9  14  1   
 20   9  31  1   
 21   9  32  1   
 22  10  33  1   
 23  10  34  1   
 24  10  35  1   
 25  11  36  1   
 26  11  37  1   
 27  11  38  1   
 28  12  14  1   
 29  12  39  1   
 30  12  40  1   
 31  13  15  1   
 32  13  41  1   
 33  13  42  1   
 34  15  16  ar  
 35  15  17  ar  
 36  16  18  ar  
 37  16  19  ar  
 38  17  20  ar  
 39  17  43  1   
 40  18  21  ar  
 41  18  22  ar  
 42  19  23  ar  
 43  19  44  1   
 44  20  21  ar  
 45  20  45  1   
 46  22  24  ar  
 47  22  46  1   
 48  23  24  ar  
 49  23  47  1   
 50  24  48  1   
@<TRIPOS>SUBSTRUCTURE
  1 ****  13 GROUP 4 **** **** 0

# MOE 2024.06 (io_trps.svl 2023.06)
