@<TRIPOS>MOLECULE
NONAME
44 46 1 0 0 
SMALL
USER_CHARGES


@<TRIPOS>ATOM
  1 CL      -0.6750     0.2580    -0.4760 Cl    1 <1>  -0.1770 
  2 C       -0.2850     1.8820     0.0220 C.ar  1 <1>   0.1770 
  3 C       -1.0700     2.9300    -0.4110 C.ar  1 <1>  -0.1500 
  4 C        0.8070     2.0940     0.8410 C.ar  1 <1>  -0.1500 
  5 C       -0.7610     4.2300    -0.0170 C.ar  1 <1>   0.0830 
  6 C        1.1130     3.3840     1.2300 C.ar  1 <1>  -0.1500 
  7 O       -1.5050     5.2910    -0.4150 O.3   1 <1>  -0.3630 
  8 C        0.3460     4.4740     0.8120 C.ar  1 <1>   0.0860 
  9 C       -2.7770     5.1400    -1.0100 C.3   1 <1>   0.0400 
 10 C        0.7140     5.8040     1.2510 C.2   1 <1>   0.5440 
 11 O        0.7960     6.0230     2.4480 O.2   1 <1>  -0.5700 
 12 N        1.0400     6.8300     0.3780 N.am  1 <1>  -0.6600 
 13 C        1.3330     8.1910     0.9280 C.3   1 <1>   0.1400 
 14 C        1.3680     6.5590    -1.0570 C.3   1 <1>   0.1400 
 15 C        2.8470     8.5170     1.0110 C.3   1 <1>   0.4230 
 16 C        2.7580     7.0580    -1.5080 C.3   1 <1>  -0.0800 
 17 N        3.3830     9.1610    -0.2440 N.4   1 <1>  -0.9590 
 18 C        3.7480     7.3220     1.4280 C.3   1 <1>   0.1200 
 19 C        3.9630     6.3820    -0.8180 C.3   1 <1>   0.1200 
 20 C        2.8350     8.5860    -1.5090 C.3   1 <1>   0.3430 
 21 C        3.1980    10.6440    -0.2200 C.3   1 <1>   0.2630 
 22 O        3.7770     6.2190     0.5520 O.3   1 <1>  -0.5600 
 23 H       -1.9050     2.7080    -1.0460 H     1 <1>   0.1500 
 24 H        1.4020     1.2600     1.1680 H     1 <1>   0.1500 
 25 H        1.9580     3.5650     1.8730 H     1 <1>   0.1500 
 26 H       -3.2100     6.1180    -1.1260 H     1 <1>   0.0800 
 27 H       -3.3970     4.5430    -0.3640 H     1 <1>   0.0800 
 28 H       -2.6630     4.6750    -1.9730 H     1 <1>   0.0800 
 29 H        0.8170     8.9310     0.3450 H     1 <1>   0.0800 
 30 H        0.9290     8.2660     1.9230 H     1 <1>   0.0800 
 31 H        1.3290     5.5000    -1.2450 H     1 <1>   0.0800 
 32 H        0.6030     7.0100    -1.6660 H     1 <1>   0.0800 
 33 H        2.9460     9.2410     1.8010 H     1 <1>   0.0800 
 34 H        2.8270     6.7820    -2.5450 H     1 <1>   0.0800 
 35 H        4.3920     8.9600    -0.2390 H     1 <1>   0.4500 
 36 H        3.3970     6.9430     2.3730 H     1 <1>   0.0800 
 37 H        4.7610     7.6530     1.5700 H     1 <1>   0.0800 
 38 H        4.8840     6.9130    -0.9860 H     1 <1>   0.0800 
 39 H        4.0800     5.3890    -1.2180 H     1 <1>   0.0800 
 40 H        1.8470     8.9790    -1.6900 H     1 <1>   0.0800 
 41 H        3.4620     8.8990    -2.3290 H     1 <1>   0.0800 
 42 H        2.1490    10.8920    -0.2150 H     1 <1>   0.0800 
 43 H        3.6530    11.0940    -1.0880 H     1 <1>   0.0800 
 44 H        3.6550    11.0660     0.6620 H     1 <1>   0.0800 
@<TRIPOS>BOND
  1   1   2  1   
  2   2   3  ar  
  3   2   4  ar  
  4   3   5  ar  
  5   3  23  1   
  6   4   6  ar  
  7   4  24  1   
  8   5   7  1   
  9   5   8  ar  
 10   6   8  ar  
 11   6  25  1   
 12   7   9  1   
 13   8  10  1   
 14   9  26  1   
 15   9  27  1   
 16   9  28  1   
 17  10  11  2   
 18  10  12  am  
 19  12  13  1   
 20  12  14  1   
 21  13  15  1   
 22  13  29  1   
 23  13  30  1   
 24  14  16  1   
 25  14  31  1   
 26  14  32  1   
 27  15  17  1   
 28  15  18  1   
 29  15  33  1   
 30  16  19  1   
 31  16  20  1   
 32  16  34  1   
 33  17  20  1   
 34  17  21  1   
 35  17  35  1   
 36  18  22  1   
 37  18  36  1   
 38  18  37  1   
 39  19  22  1   
 40  19  38  1   
 41  19  39  1   
 42  20  40  1   
 43  20  41  1   
 44  21  42  1   
 45  21  43  1   
 46  21  44  1   
@<TRIPOS>SUBSTRUCTURE
  1 ****  12 GROUP 4 **** **** 0

# MOE 2024.06 (io_trps.svl 2023.06)
