@<TRIPOS>MOLECULE
NONAME
42 44 1 0 0 
SMALL
USER_CHARGES


@<TRIPOS>ATOM
  1 CL      -1.4400    -2.5220    -0.1300 Cl    1 <1>  -0.1770 
  2 C       -2.2920    -1.0760    -0.6380 C.ar  1 <1>   0.1770 
  3 C       -1.8650    -0.3970    -1.7720 C.ar  1 <1>   0.0830 
  4 C       -3.3780    -0.6300     0.0990 C.ar  1 <1>  -0.1440 
  5 O       -0.8110    -0.8270    -2.4890 O.3   1 <1>  -0.5320 
  6 C       -2.5330     0.7450    -2.1740 C.ar  1 <1>  -0.1500 
  7 C       -4.0360     0.5240    -0.3090 C.ar  1 <1>  -0.1500 
  8 C       -3.8270    -1.3980     1.3230 C.3   1 <1>   0.4860 
  9 C       -3.6150     1.2040    -1.4420 C.ar  1 <1>  -0.1500 
 10 N       -4.6610    -2.5440     0.8810 N.4   1 <1>  -0.9590 
 11 C       -5.9660    -2.1540     0.2590 C.3   1 <1>   0.3430 
 12 C       -4.9510    -3.5620     1.9250 C.3   1 <1>   0.3430 
 13 C       -6.9860    -3.2230     0.6800 C.3   1 <1>   0.2000 
 14 C       -6.2040    -4.3010     1.4420 C.3   1 <1>  -0.0800 
 15 O       -7.9140    -2.6510     1.5410 O.3   1 <1>  -0.6800 
 16 C       -5.8730    -5.5400     0.5740 C.3   1 <1>   0.0200 
 17 C       -4.7890    -5.2870    -0.4590 C.2   1 <1>  -0.0400 
 18 O       -4.9700    -4.3880    -1.3870 O.3   1 <1>  -0.0190 
 19 C       -3.5660    -5.8130    -0.6300 C.2   1 <1>  -0.1500 
 20 N       -3.9200    -4.2410    -2.1320 N.2   1 <1>  -0.4100 
 21 C       -3.0640    -5.1070    -1.7200 C.2   1 <1>   0.1080 
 22 C       -1.7010    -5.3200    -2.3430 C.3   1 <1>  -0.0590 
 23 H       -0.3940    -1.6290    -2.1210 H     1 <1>   0.4500 
 24 H       -2.2020     1.2690    -3.0550 H     1 <1>   0.1500 
 25 H       -4.8780     0.9100     0.2420 H     1 <1>   0.1500 
 26 H       -4.3900    -0.7550     1.9800 H     1 <1>   0.0800 
 27 H       -2.9600    -1.7560     1.8560 H     1 <1>   0.0800 
 28 H       -4.1280     2.0980    -1.7580 H     1 <1>   0.1500 
 29 H       -4.1340    -3.0230     0.1240 H     1 <1>   0.4500 
 30 H       -6.2910    -1.1860     0.6010 H     1 <1>   0.0800 
 31 H       -5.8650    -2.1340    -0.8150 H     1 <1>   0.0800 
 32 H       -4.1200    -4.2350     2.0620 H     1 <1>   0.0800 
 33 H       -5.1680    -3.0700     2.8590 H     1 <1>   0.0800 
 34 H       -7.5260    -3.6080    -0.1700 H     1 <1>   0.0800 
 35 H       -6.7740    -4.6520     2.2860 H     1 <1>   0.0800 
 36 H       -7.5580    -2.4560     2.4290 H     1 <1>   0.4000 
 37 H       -6.7620    -5.8870     0.0750 H     1 <1>   0.0800 
 38 H       -5.5410    -6.3370     1.2170 H     1 <1>   0.0800 
 39 H       -3.0550    -6.5840    -0.0830 H     1 <1>   0.1500 
 40 H       -0.9400    -5.3100    -1.5840 H     1 <1>   0.0800 
 41 H       -1.4950    -4.5410    -3.0540 H     1 <1>   0.0800 
 42 H       -1.6790    -6.2660    -2.8520 H     1 <1>   0.0800 
@<TRIPOS>BOND
  1   1   2  1   
  2   2   3  ar  
  3   2   4  ar  
  4   3   5  1   
  5   3   6  ar  
  6   4   7  ar  
  7   4   8  1   
  8   5  23  1   
  9   6   9  ar  
 10   6  24  1   
 11   7   9  ar  
 12   7  25  1   
 13   8  10  1   
 14   8  26  1   
 15   8  27  1   
 16   9  28  1   
 17  10  11  1   
 18  10  12  1   
 19  10  29  1   
 20  11  13  1   
 21  11  30  1   
 22  11  31  1   
 23  12  14  1   
 24  12  32  1   
 25  12  33  1   
 26  13  14  1   
 27  13  15  1   
 28  13  34  1   
 29  14  16  1   
 30  14  35  1   
 31  15  36  1   
 32  16  17  1   
 33  16  37  1   
 34  16  38  1   
 35  17  18  1   
 36  17  19  2   
 37  18  20  1   
 38  19  21  1   
 39  19  39  1   
 40  20  21  2   
 41  21  22  1   
 42  22  40  1   
 43  22  41  1   
 44  22  42  1   
@<TRIPOS>SUBSTRUCTURE
  1 ****  10 GROUP 4 **** **** 0

# MOE 2024.06 (io_trps.svl 2023.06)
