@<TRIPOS>MOLECULE
NONAME
56 59 1 0 0 
SMALL
USER_CHARGES


@<TRIPOS>ATOM
  1 O        1.5050    -0.2100     0.3290 O.2   1 <1>  -0.5700 
  2 C        2.0980     0.8340     0.2730 C.2   1 <1>   0.5690 
  3 N        1.5560     1.8990    -0.3580 N.am  1 <1>  -0.7300 
  4 C        3.4780     0.9410     0.8960 C.3   1 <1>  -0.0990 
  5 C        2.1140     3.2690    -0.3960 C.3   1 <1>   0.1400 
  6 C        4.0010     2.3890     1.0090 C.3   1 <1>  -0.1600 
  7 C        3.6530     3.2530    -0.2320 C.3   1 <1>   0.0000 
  8 C        4.1530     4.6970    -0.0210 C.3   1 <1>  -0.1600 
  9 C        4.3130     2.7090    -1.5220 C.3   1 <1>  -0.1600 
 10 C        5.6800     4.8000    -0.0190 C.3   1 <1>   0.3430 
 11 C        5.8370     2.8200    -1.4920 C.3   1 <1>   0.3430 
 12 N        6.2350     4.2460    -1.2950 N.4   1 <1>  -0.9590 
 13 C        7.7130     4.4210    -1.4480 C.3   1 <1>   0.4230 
 14 C        8.4990     3.8100    -0.2760 C.3   1 <1>  -0.1600 
 15 C        8.0450     5.9060    -1.6570 C.3   1 <1>  -0.1600 
 16 C        9.9960     4.0580    -0.4530 C.3   1 <1>   0.1400 
 17 C        9.5550     6.1070    -1.7980 C.3   1 <1>   0.1400 
 18 N       10.2080     5.5210    -0.6010 N.am  1 <1>  -0.6600 
 19 C       10.9010     6.2330     0.3550 C.2   1 <1>   0.5770 
 20 O       11.3170     5.6860     1.3490 O.2   1 <1>  -0.5700 
 21 C       11.1450     7.7350     0.1910 C.3   1 <1>   0.0530 
 22 C       11.8630     8.4710     1.3600 C.3   1 <1>   0.0000 
 23 C        9.9090     8.6200     0.5100 C.3   1 <1>   0.0000 
 24 C       10.9010     9.6570     1.0960 C.3   1 <1>   0.0000 
 25 H        0.6050     1.7640    -0.7150 H     1 <1>   0.3700 
 26 H        4.1480     0.3510     0.2990 H     1 <1>   0.0800 
 27 H        3.4440     0.4930     1.8730 H     1 <1>   0.0800 
 28 H        1.6650     3.8350     0.4040 H     1 <1>   0.0800 
 29 H        1.8410     3.7360    -1.3270 H     1 <1>   0.0800 
 30 H        5.0580     2.3600     1.2000 H     1 <1>   0.0800 
 31 H        3.5360     2.8320     1.8740 H     1 <1>   0.0800 
 32 H        3.7820     5.0760     0.9160 H     1 <1>   0.0800 
 33 H        3.7660     5.3390    -0.7940 H     1 <1>   0.0800 
 34 H        3.9460     3.2490    -2.3770 H     1 <1>   0.0800 
 35 H        4.0450     1.6790    -1.6790 H     1 <1>   0.0800 
 36 H        6.0740     4.2520     0.8210 H     1 <1>   0.0800 
 37 H        5.9650     5.8340     0.0940 H     1 <1>   0.0800 
 38 H        6.2380     2.4480    -2.4220 H     1 <1>   0.0800 
 39 H        6.2260     2.2140    -0.6900 H     1 <1>   0.0800 
 40 H        5.7970     4.7750    -2.0590 H     1 <1>   0.4500 
 41 H        8.0230     3.9040    -2.3420 H     1 <1>   0.0800 
 42 H        8.3380     2.7490    -0.2220 H     1 <1>   0.0800 
 43 H        8.2130     4.2500     0.6620 H     1 <1>   0.0800 
 44 H        7.7140     6.4990    -0.8240 H     1 <1>   0.0800 
 45 H        7.5670     6.2680    -2.5490 H     1 <1>   0.0800 
 46 H       10.3680     3.5540    -1.3300 H     1 <1>   0.0800 
 47 H       10.5340     3.6710     0.3970 H     1 <1>   0.0800 
 48 H        9.7790     7.1540    -1.9000 H     1 <1>   0.0800 
 49 H        9.9230     5.6080    -2.6800 H     1 <1>   0.0800 
 50 H       11.5900     7.9870    -0.7570 H     1 <1>   0.0000 
 51 H       12.8960     8.6980     1.1630 H     1 <1>   0.0000 
 52 H       11.6970     8.0300     2.3280 H     1 <1>   0.0000 
 53 H        9.2660     8.1920     1.2610 H     1 <1>   0.0000 
 54 H        9.3810     8.9690    -0.3590 H     1 <1>   0.0000 
 55 H       11.2770    10.3400     0.3520 H     1 <1>   0.0000 
 56 H       10.5490    10.1420     1.9890 H     1 <1>   0.0000 
@<TRIPOS>BOND
  1   1   2  2   
  2   2   3  am  
  3   2   4  1   
  4   3   5  1   
  5   3  25  1   
  6   4   6  1   
  7   4  26  1   
  8   4  27  1   
  9   5   7  1   
 10   5  28  1   
 11   5  29  1   
 12   6   7  1   
 13   6  30  1   
 14   6  31  1   
 15   7   8  1   
 16   7   9  1   
 17   8  10  1   
 18   8  32  1   
 19   8  33  1   
 20   9  11  1   
 21   9  34  1   
 22   9  35  1   
 23  10  12  1   
 24  10  36  1   
 25  10  37  1   
 26  11  12  1   
 27  11  38  1   
 28  11  39  1   
 29  12  13  1   
 30  12  40  1   
 31  13  14  1   
 32  13  15  1   
 33  13  41  1   
 34  14  16  1   
 35  14  42  1   
 36  14  43  1   
 37  15  17  1   
 38  15  44  1   
 39  15  45  1   
 40  16  18  1   
 41  16  46  1   
 42  16  47  1   
 43  17  18  1   
 44  17  48  1   
 45  17  49  1   
 46  18  19  am  
 47  19  20  2   
 48  19  21  1   
 49  21  22  1   
 50  21  23  1   
 51  21  50  1   
 52  22  24  1   
 53  22  51  1   
 54  22  52  1   
 55  23  24  1   
 56  23  53  1   
 57  23  54  1   
 58  24  55  1   
 59  24  56  1   
@<TRIPOS>SUBSTRUCTURE
  1 ****  10 GROUP 4 **** **** 0

# MOE 2024.06 (io_trps.svl 2023.06)
