@<TRIPOS>MOLECULE
NONAME
44 47 1 0 0 
SMALL
USER_CHARGES


@<TRIPOS>ATOM
  1 S       -0.4130     0.7320    -2.2390 S.3   1 <1>  -0.0800 
  2 C       -0.1910     1.8840    -0.9390 C.2   1 <1>  -0.1400 
  3 C        1.1720     1.1310    -2.8870 C.2   1 <1>  -0.1100 
  4 C        0.9980     2.4950    -1.0090 C.2   1 <1>  -0.1810 
  5 C       -1.2390     2.1330     0.1110 C.3   1 <1>   0.0200 
  6 C        1.7810     2.0670    -2.1330 C.2   1 <1>  -0.1500 
  7 C        1.4140     3.5320     0.0380 C.3   1 <1>   0.4610 
  8 C       -0.8990     3.4740     0.7820 C.3   1 <1>   0.1200 
  9 O        0.4720     3.5560     1.0960 O.3   1 <1>  -0.5600 
 10 C        2.7530     3.1420     0.6730 C.3   1 <1>  -0.1600 
 11 C        1.5060     4.9340    -0.5800 C.3   1 <1>  -0.1600 
 12 C        3.2300     4.1930     1.6750 C.3   1 <1>   0.1400 
 13 C        1.9910     5.9700     0.4360 C.3   1 <1>   0.1400 
 14 N        3.2940     5.5210     1.0010 N.am  1 <1>  -0.6600 
 15 C        4.4980     6.1530     0.7620 C.2   1 <1>   0.5440 
 16 O        5.5290     5.5160     0.8610 O.2   1 <1>  -0.5700 
 17 C        4.5690     7.5450     0.3820 C.ar  1 <1>   0.0860 
 18 C        3.8710     8.5210     1.0880 C.ar  1 <1>   0.1600 
 19 C        5.3350     7.9760    -0.6940 C.ar  1 <1>  -0.1500 
 20 N        3.8440     9.8130     0.8090 N.ar  1 <1>  -0.6200 
 21 C        5.3310     9.3180    -0.9990 C.ar  1 <1>  -0.1500 
 22 C        4.5710    10.1980    -0.2290 C.ar  1 <1>   0.3930 
 23 O        4.5190    11.5180    -0.4810 O.3   1 <1>  -0.3630 
 24 C        5.2620    12.1440    -1.5040 C.3   1 <1>   0.0400 
 25 H        1.4840     0.6140    -3.7770 H     1 <1>   0.1500 
 26 H       -1.2290     1.3390     0.8360 H     1 <1>   0.0800 
 27 H       -2.2150     2.1840    -0.3350 H     1 <1>   0.0800 
 28 H        2.7580     2.4750    -2.3230 H     1 <1>   0.1500 
 29 H       -1.4530     3.5820     1.6970 H     1 <1>   0.0800 
 30 H       -1.1500     4.2920     0.1300 H     1 <1>   0.0800 
 31 H        3.5040     3.0380    -0.0880 H     1 <1>   0.0800 
 32 H        2.6500     2.1900     1.1610 H     1 <1>   0.0800 
 33 H        0.5550     5.2250    -0.9820 H     1 <1>   0.0800 
 34 H        2.2010     4.9110    -1.4000 H     1 <1>   0.0800 
 35 H        4.1950     3.9160     2.0650 H     1 <1>   0.0800 
 36 H        2.5430     4.2510     2.5020 H     1 <1>   0.0800 
 37 H        1.2740     6.0670     1.2340 H     1 <1>   0.0800 
 38 H        2.0850     6.9230    -0.0530 H     1 <1>   0.0800 
 39 H        3.2960     8.2020     1.9410 H     1 <1>   0.1500 
 40 H        5.9120     7.2660    -1.2620 H     1 <1>   0.1500 
 41 H        5.9150     9.6670    -1.8280 H     1 <1>   0.1500 
 42 H        5.0510    13.1980    -1.4700 H     1 <1>   0.0800 
 43 H        4.9580    11.7420    -2.4540 H     1 <1>   0.0800 
 44 H        6.3100    11.9760    -1.3280 H     1 <1>   0.0800 
@<TRIPOS>BOND
  1   1   2  1   
  2   1   3  1   
  3   2   4  2   
  4   2   5  1   
  5   3   6  2   
  6   3  25  1   
  7   4   6  1   
  8   4   7  1   
  9   5   8  1   
 10   5  26  1   
 11   5  27  1   
 12   6  28  1   
 13   7   9  1   
 14   7  10  1   
 15   7  11  1   
 16   8   9  1   
 17   8  29  1   
 18   8  30  1   
 19  10  12  1   
 20  10  31  1   
 21  10  32  1   
 22  11  13  1   
 23  11  33  1   
 24  11  34  1   
 25  12  14  1   
 26  12  35  1   
 27  12  36  1   
 28  13  14  1   
 29  13  37  1   
 30  13  38  1   
 31  14  15  am  
 32  15  16  2   
 33  15  17  1   
 34  17  18  ar  
 35  17  19  ar  
 36  18  20  ar  
 37  18  39  1   
 38  19  21  ar  
 39  19  40  1   
 40  20  22  ar  
 41  21  22  ar  
 42  21  41  1   
 43  22  23  1   
 44  23  24  1   
 45  24  42  1   
 46  24  43  1   
 47  24  44  1   
@<TRIPOS>SUBSTRUCTURE
  1 ****  13 GROUP 4 **** **** 0

# MOE 2024.06 (io_trps.svl 2023.06)
