@<TRIPOS>MOLECULE
NONAME
41 42 1 0 0 
SMALL
USER_CHARGES


@<TRIPOS>ATOM
  1 O        0.5510    -0.1920    -0.2020 O.3   1 <1>  -0.5600 
  2 C        1.7890     0.1080     0.3680 C.3   1 <1>   0.2000 
  3 C        0.3010    -1.5550    -0.0910 C.3   1 <1>   0.1200 
  4 C        1.8530    -0.8050     1.5860 C.3   1 <1>  -0.1600 
  5 C        1.9120     1.6080     0.7110 C.3   1 <1>   0.2090 
  6 C        1.0610    -2.0270     1.1460 C.3   1 <1>  -0.1600 
  7 N        2.2020     2.4870    -0.4670 N.pl3 1 <1>  -0.8380 
  8 C        3.5160     2.7830    -0.7490 C.ar  1 <1>   0.4100 
  9 C        1.2610     2.3590    -1.6100 C.3   1 <1>   0.1290 
 10 N        4.3310     1.7600    -0.9120 N.ar  1 <1>  -0.6200 
 11 C        3.9700     4.0920    -0.8560 C.ar  1 <1>  -0.1430 
 12 C        5.5810     2.0570    -1.1980 C.ar  1 <1>   0.4770 
 13 C        5.2970     4.2620    -1.1530 C.ar  1 <1>   0.1600 
 14 C        3.0650     5.3000    -0.6420 C.3   1 <1>  -0.0160 
 15 N        6.1240     3.2520    -1.3320 N.ar  1 <1>  -0.6200 
 16 C        6.5140     0.8870    -1.3930 C.3   1 <1>  -0.0970 
 17 C        2.9540     5.6330     0.8500 C.3   1 <1>  -0.1600 
 18 C        2.0610     6.8550     1.0900 C.3   1 <1>  -0.2400 
 19 H        2.5550    -0.1720    -0.3350 H     1 <1>   0.0800 
 20 H        0.6680    -2.0340    -0.9830 H     1 <1>   0.0800 
 21 H       -0.7620    -1.7030    -0.0010 H     1 <1>   0.0800 
 22 H        1.3680    -0.3310     2.4220 H     1 <1>   0.0800 
 23 H        2.8690    -1.0410     1.8490 H     1 <1>   0.0800 
 24 H        2.7190     1.7250     1.4140 H     1 <1>   0.0800 
 25 H        1.0100     1.9380     1.1930 H     1 <1>   0.0800 
 26 H        1.7130    -2.8400     0.8820 H     1 <1>   0.0800 
 27 H        0.3830    -2.3540     1.9140 H     1 <1>   0.0800 
 28 H        0.2460     2.4240    -1.2590 H     1 <1>   0.0800 
 29 H        1.4050     1.4100    -2.0960 H     1 <1>   0.0800 
 30 H        1.4400     3.1430    -2.3240 H     1 <1>   0.0800 
 31 H        5.7060     5.2540    -1.2460 H     1 <1>   0.1500 
 32 H        2.0860     5.0990    -1.0400 H     1 <1>   0.0800 
 33 H        3.4610     6.1480    -1.1720 H     1 <1>   0.0800 
 34 H        5.9540    -0.0110    -1.5780 H     1 <1>   0.0800 
 35 H        7.1080     0.7580    -0.5090 H     1 <1>   0.0800 
 36 H        7.1600     1.0740    -2.2300 H     1 <1>   0.0800 
 37 H        3.9350     5.8220     1.2500 H     1 <1>   0.0800 
 38 H        2.5420     4.7840     1.3700 H     1 <1>   0.0800 
 39 H        2.4630     7.7210     0.5950 H     1 <1>   0.0800 
 40 H        1.9980     7.0610     2.1440 H     1 <1>   0.0800 
 41 H        1.0670     6.6710     0.7190 H     1 <1>   0.0800 
@<TRIPOS>BOND
  1   1   2  1   
  2   1   3  1   
  3   2   4  1   
  4   2   5  1   
  5   2  19  1   
  6   3   6  1   
  7   3  20  1   
  8   3  21  1   
  9   4   6  1   
 10   4  22  1   
 11   4  23  1   
 12   5   7  1   
 13   5  24  1   
 14   5  25  1   
 15   6  26  1   
 16   6  27  1   
 17   7   8  1   
 18   7   9  1   
 19   8  10  ar  
 20   8  11  ar  
 21   9  28  1   
 22   9  29  1   
 23   9  30  1   
 24  10  12  ar  
 25  11  13  ar  
 26  11  14  1   
 27  12  15  ar  
 28  12  16  1   
 29  13  15  ar  
 30  13  31  1   
 31  14  17  1   
 32  14  32  1   
 33  14  33  1   
 34  16  34  1   
 35  16  35  1   
 36  16  36  1   
 37  17  18  1   
 38  17  37  1   
 39  17  38  1   
 40  18  39  1   
 41  18  40  1   
 42  18  41  1   
@<TRIPOS>SUBSTRUCTURE
  1 ****   7 GROUP 4 **** **** 0

# MOE 2024.06 (io_trps.svl 2023.06)
