@<TRIPOS>MOLECULE
NONAME
46 48 1 0 0 
SMALL
USER_CHARGES


@<TRIPOS>ATOM
  1 O        0.5940    -0.7900     1.6110 O.3   1 <1>  -0.0190 
  2 N        0.1180    -1.8970     2.0960 N.2   1 <1>  -0.4100 
  3 C        0.9380    -1.0990     0.3840 C.2   1 <1>   0.2980 
  4 C        0.2030    -2.7730     1.1790 C.2   1 <1>   0.3350 
  5 N        0.7280    -2.3150     0.0510 N.2   1 <1>  -0.5650 
  6 C        1.5400    -0.0100    -0.4930 C.3   1 <1>   0.3000 
  7 C       -0.2910    -4.2120     1.3130 C.3   1 <1>   0.5240 
  8 O        0.5490     0.9080    -0.8560 O.3   1 <1>  -0.5600 
  9 N       -1.7470    -4.3450     0.9500 N.4   1 <1>  -0.9590 
 10 C        1.0060     1.9650    -1.6360 C.3   1 <1>   0.0400 
 11 C       -2.2650    -5.7080     1.2600 C.3   1 <1>   0.3430 
 12 C       -1.9930    -3.9460    -0.4700 C.3   1 <1>   0.3430 
 13 C       -3.7640    -5.7570     0.9980 C.3   1 <1>  -0.1600 
 14 C       -3.4880    -3.9860    -0.7670 C.3   1 <1>  -0.1600 
 15 C       -4.0680    -5.3610    -0.4470 C.3   1 <1>   0.2000 
 16 O       -5.4460    -5.2720    -0.5880 O.3   1 <1>  -0.5600 
 17 C       -6.0480    -6.2970    -1.3380 C.3   1 <1>   0.2630 
 18 C       -5.9220    -7.6560    -0.6500 C.ar  1 <1>   0.1670 
 19 N       -4.9090    -8.4340    -1.0190 N.ar  1 <1>  -0.6200 
 20 C       -6.8550    -8.0080     0.3140 C.ar  1 <1>  -0.1500 
 21 C       -4.8450    -9.6130    -0.4200 C.ar  1 <1>   0.1600 
 22 C       -6.7660    -9.2340     0.9380 C.ar  1 <1>  -0.1500 
 23 C       -5.7290   -10.0530     0.5490 C.ar  1 <1>  -0.1500 
 24 H        1.9460    -0.4460    -1.3890 H     1 <1>   0.0800 
 25 H        2.3140     0.5070     0.0450 H     1 <1>   0.0800 
 26 H       -0.1430    -4.5200     2.3340 H     1 <1>   0.0800 
 27 H        0.3090    -4.8430     0.6790 H     1 <1>   0.0800 
 28 H       -2.2550    -3.6670     1.5380 H     1 <1>   0.4500 
 29 H        0.1690     2.6030    -1.8590 H     1 <1>   0.0800 
 30 H        1.4200     1.5820    -2.5530 H     1 <1>   0.0800 
 31 H        1.7460     2.5220    -1.0870 H     1 <1>   0.0800 
 32 H       -2.0770    -5.9530     2.2930 H     1 <1>   0.0800 
 33 H       -1.7710    -6.4400     0.6400 H     1 <1>   0.0800 
 34 H       -1.4750    -4.6180    -1.1360 H     1 <1>   0.0800 
 35 H       -1.6240    -2.9470    -0.6470 H     1 <1>   0.0800 
 36 H       -4.2740    -5.0990     1.6780 H     1 <1>   0.0800 
 37 H       -4.1090    -6.7590     1.1790 H     1 <1>   0.0800 
 38 H       -3.6450    -3.7680    -1.8090 H     1 <1>   0.0800 
 39 H       -3.9890    -3.2290    -0.1880 H     1 <1>   0.0800 
 40 H       -3.6700    -6.0910    -1.1350 H     1 <1>   0.0800 
 41 H       -5.5990    -6.3250    -2.3160 H     1 <1>   0.0800 
 42 H       -7.0870    -6.0440    -1.4510 H     1 <1>   0.0800 
 43 H       -7.6470    -7.3280     0.5750 H     1 <1>   0.1500 
 44 H       -4.0440   -10.2690    -0.7180 H     1 <1>   0.1500 
 45 H       -7.4750    -9.5370     1.6890 H     1 <1>   0.1500 
 46 H       -5.6080   -11.0270     0.9900 H     1 <1>   0.1500 
@<TRIPOS>BOND
  1   1   2  1   
  2   1   3  1   
  3   2   4  2   
  4   3   5  2   
  5   3   6  1   
  6   4   5  1   
  7   4   7  1   
  8   6   8  1   
  9   6  24  1   
 10   6  25  1   
 11   7   9  1   
 12   7  26  1   
 13   7  27  1   
 14   8  10  1   
 15   9  11  1   
 16   9  12  1   
 17   9  28  1   
 18  10  29  1   
 19  10  30  1   
 20  10  31  1   
 21  11  13  1   
 22  11  32  1   
 23  11  33  1   
 24  12  14  1   
 25  12  34  1   
 26  12  35  1   
 27  13  15  1   
 28  13  36  1   
 29  13  37  1   
 30  14  15  1   
 31  14  38  1   
 32  14  39  1   
 33  15  16  1   
 34  15  40  1   
 35  16  17  1   
 36  17  18  1   
 37  17  41  1   
 38  17  42  1   
 39  18  19  ar  
 40  18  20  ar  
 41  19  21  ar  
 42  20  22  ar  
 43  20  43  1   
 44  21  23  ar  
 45  21  44  1   
 46  22  23  ar  
 47  22  45  1   
 48  23  46  1   
@<TRIPOS>SUBSTRUCTURE
  1 ****  12 GROUP 4 **** **** 0

# MOE 2024.06 (io_trps.svl 2023.06)
