@<TRIPOS>MOLECULE
NONAME
58 60 1 0 0 
SMALL
USER_CHARGES


@<TRIPOS>ATOM
  1 O       -1.3270    -0.9930     1.9830 O.2   1 <1>  -0.5700 
  2 C       -1.0140    -1.7410     1.0860 C.2   1 <1>   0.5690 
  3 N       -1.7590    -1.8630    -0.0620 N.am  1 <1>  -0.6600 
  4 C        0.2450    -2.5700     1.2830 C.3   1 <1>  -0.0990 
  5 C       -1.3350    -2.6720    -1.2380 C.3   1 <1>   0.1400 
  6 C       -3.0110    -1.0840    -0.2420 C.3   1 <1>   0.1400 
  7 C        0.8310    -3.1210    -0.0230 C.3   1 <1>  -0.1600 
  8 C       -0.2920    -3.7300    -0.8650 C.3   1 <1>  -0.1600 
  9 C       -4.2260    -1.9830     0.0070 C.3   1 <1>  -0.1600 
 10 C       -5.5360    -1.1730    -0.0210 C.3   1 <1>  -0.0990 
 11 C       -6.8030    -2.0150     0.1140 C.2   1 <1>   0.5690 
 12 O       -6.6930    -3.1960     0.3490 O.2   1 <1>  -0.5700 
 13 N       -8.0350    -1.4310    -0.0420 N.am  1 <1>  -0.6600 
 14 C       -8.2510     0.0360    -0.2320 C.3   1 <1>   0.1400 
 15 C       -9.2580    -2.2900    -0.0480 C.3   1 <1>   0.1400 
 16 C       -9.5760     0.4420     0.4130 C.3   1 <1>  -0.1600 
 17 C      -10.3770    -1.6200    -0.8480 C.3   1 <1>  -0.1600 
 18 C      -10.7850    -0.2450    -0.2700 C.3   1 <1>   0.2800 
 19 O      -11.1070     0.5110    -1.4010 O.3   1 <1>  -0.5600 
 20 C      -12.0000    -0.3990     0.6960 C.3   1 <1>  -0.1600 
 21 C      -11.8110     1.7310    -1.3230 C.3   1 <1>   0.1200 
 22 C      -13.2300     0.4540     0.3530 C.3   1 <1>   0.2800 
 23 C      -12.7700     1.8480    -0.1250 C.3   1 <1>   0.2000 
 24 O      -13.9220    -0.1640    -0.6720 O.3   1 <1>  -0.6800 
 25 C      -14.2140     0.5200     1.5260 C.3   1 <1>  -0.2400 
 26 O      -12.1150     2.5270     0.9070 O.3   1 <1>  -0.6800 
 27 H        0.9810    -1.9680     1.7840 H     1 <1>   0.0800 
 28 H       -0.0100    -3.3860     1.9330 H     1 <1>   0.0800 
 29 H       -2.1900    -3.1610    -1.6710 H     1 <1>   0.0800 
 30 H       -0.9210    -2.0060    -1.9760 H     1 <1>   0.0800 
 31 H       -3.0280    -0.2580     0.4480 H     1 <1>   0.0800 
 32 H       -3.0430    -0.6790    -1.2390 H     1 <1>   0.0800 
 33 H        1.3000    -2.3220    -0.5720 H     1 <1>   0.0800 
 34 H        1.5790    -3.8640     0.1970 H     1 <1>   0.0800 
 35 H       -0.7730    -4.5220    -0.3180 H     1 <1>   0.0800 
 36 H        0.1160    -4.1550    -1.7650 H     1 <1>   0.0800 
 37 H       -4.2690    -2.7520    -0.7430 H     1 <1>   0.0800 
 38 H       -4.1260    -2.4530     0.9710 H     1 <1>   0.0800 
 39 H       -5.5930    -0.6360    -0.9490 H     1 <1>   0.0800 
 40 H       -5.5170    -0.4640     0.7860 H     1 <1>   0.0800 
 41 H       -7.4540     0.5970     0.2210 H     1 <1>   0.0800 
 42 H       -8.2740     0.2610    -1.2860 H     1 <1>   0.0800 
 43 H       -9.0260    -3.2450    -0.4890 H     1 <1>   0.0800 
 44 H       -9.5740    -2.4580     0.9670 H     1 <1>   0.0800 
 45 H       -9.6700     1.5100     0.3740 H     1 <1>   0.0800 
 46 H       -9.5150     0.1610     1.4490 H     1 <1>   0.0800 
 47 H      -11.2220    -2.2800    -0.9070 H     1 <1>   0.0800 
 48 H      -10.0150    -1.4990    -1.8550 H     1 <1>   0.0800 
 49 H      -12.3000    -1.4270     0.7860 H     1 <1>   0.0800 
 50 H      -11.6810    -0.1250     1.6840 H     1 <1>   0.0800 
 51 H      -11.1030     2.5400    -1.3290 H     1 <1>   0.0800 
 52 H      -12.3910     1.7900    -2.2270 H     1 <1>   0.0800 
 53 H      -13.6220     2.4470    -0.3930 H     1 <1>   0.0800 
 54 H      -14.1840    -1.0620    -0.4020 H     1 <1>   0.4000 
 55 H      -13.7550     1.0000     2.3710 H     1 <1>   0.0800 
 56 H      -14.5220    -0.4650     1.8250 H     1 <1>   0.0800 
 57 H      -15.0790     1.0960     1.2500 H     1 <1>   0.0800 
 58 H      -11.3140     2.0320     1.1620 H     1 <1>   0.4000 
@<TRIPOS>BOND
  1   1   2  2   
  2   2   3  am  
  3   2   4  1   
  4   3   5  1   
  5   3   6  1   
  6   4   7  1   
  7   4  27  1   
  8   4  28  1   
  9   5   8  1   
 10   5  29  1   
 11   5  30  1   
 12   6   9  1   
 13   6  31  1   
 14   6  32  1   
 15   7   8  1   
 16   7  33  1   
 17   7  34  1   
 18   8  35  1   
 19   8  36  1   
 20   9  10  1   
 21   9  37  1   
 22   9  38  1   
 23  10  11  1   
 24  10  39  1   
 25  10  40  1   
 26  11  12  2   
 27  11  13  am  
 28  13  14  1   
 29  13  15  1   
 30  14  16  1   
 31  14  41  1   
 32  14  42  1   
 33  15  17  1   
 34  15  43  1   
 35  15  44  1   
 36  16  18  1   
 37  16  45  1   
 38  16  46  1   
 39  17  18  1   
 40  17  47  1   
 41  17  48  1   
 42  18  19  1   
 43  18  20  1   
 44  19  21  1   
 45  20  22  1   
 46  20  49  1   
 47  20  50  1   
 48  21  23  1   
 49  21  51  1   
 50  21  52  1   
 51  22  23  1   
 52  22  24  1   
 53  22  25  1   
 54  23  26  1   
 55  23  53  1   
 56  24  54  1   
 57  25  55  1   
 58  25  56  1   
 59  25  57  1   
 60  26  58  1   
@<TRIPOS>SUBSTRUCTURE
  1 ****  13 GROUP 4 **** **** 0

# MOE 2024.06 (io_trps.svl 2023.06)
