@<TRIPOS>MOLECULE
NONAME
59 61 1 0 0 
SMALL
USER_CHARGES


@<TRIPOS>ATOM
  1 O        0.2940    -1.6460    -0.6740 O.3   1 <1>  -0.5600 
  2 C       -0.4950    -2.7090    -0.2070 C.3   1 <1>   0.2800 
  3 C        0.2310    -0.3850    -0.0410 C.3   1 <1>   0.1200 
  4 C       -1.9930    -2.3080    -0.1110 C.3   1 <1>  -0.1600 
  5 C        0.0970    -3.2120     1.1240 C.3   1 <1>  -0.1600 
  6 C       -0.3150    -3.8360    -1.2420 C.3   1 <1>  -0.1600 
  7 C       -1.1630    -0.0020     0.4940 C.3   1 <1>   0.2000 
  8 C       -2.2760    -0.8000    -0.2200 C.3   1 <1>   0.2800 
  9 C        1.5850    -3.5760     1.0230 C.3   1 <1>   0.3430 
 10 C        1.0460    -4.5450    -1.1800 C.3   1 <1>   0.3430 
 11 O       -1.1910    -0.2430     1.8720 O.3   1 <1>  -0.6800 
 12 O       -2.2710    -0.4540    -1.5570 O.3   1 <1>  -0.6800 
 13 C       -3.6820    -0.4540     0.2830 C.3   1 <1>  -0.2400 
 14 N        2.0070    -3.7260    -0.4020 N.4   1 <1>  -0.9590 
 15 C        3.4170    -4.1530    -0.5850 C.3   1 <1>   0.3430 
 16 C        4.3710    -3.0530    -0.1140 C.3   1 <1>  -0.1600 
 17 C        5.8430    -3.3680    -0.4500 C.3   1 <1>  -0.0800 
 18 C        6.3470    -4.5910     0.3490 C.3   1 <1>  -0.1600 
 19 C        6.6790    -2.0960    -0.2070 C.3   1 <1>  -0.1600 
 20 C        7.6630    -5.1610    -0.2040 C.3   1 <1>  -0.1600 
 21 C        8.1850    -2.2270    -0.4840 C.3   1 <1>  -0.1600 
 22 C        8.9350    -4.5410     0.3910 C.3   1 <1>  -0.1600 
 23 C        8.9180    -3.0210     0.6060 C.3   1 <1>  -0.1600 
 24 H        0.9590    -0.3560     0.7500 H     1 <1>   0.0800 
 25 H        0.5150     0.3350    -0.7880 H     1 <1>   0.0800 
 26 H       -2.5810    -2.8260    -0.8460 H     1 <1>   0.0800 
 27 H       -2.3580    -2.6470     0.8410 H     1 <1>   0.0800 
 28 H       -0.0320    -2.4890     1.9060 H     1 <1>   0.0800 
 29 H       -0.4430    -4.0880     1.4360 H     1 <1>   0.0800 
 30 H       -1.0700    -4.5880    -1.0960 H     1 <1>   0.0800 
 31 H       -0.4670    -3.4330    -2.2280 H     1 <1>   0.0800 
 32 H       -1.3200     1.0540     0.3600 H     1 <1>   0.0800 
 33 H        1.7740    -4.4860     1.5680 H     1 <1>   0.0800 
 34 H        2.1620    -2.7870     1.4770 H     1 <1>   0.0800 
 35 H        1.4120    -4.6980    -2.1830 H     1 <1>   0.0800 
 36 H        0.9330    -5.5080    -0.7090 H     1 <1>   0.0800 
 37 H       -1.9920     0.1590     2.2640 H     1 <1>   0.4000 
 38 H       -3.0200    -0.8760    -2.0160 H     1 <1>   0.4000 
 39 H       -3.7860    -0.7140     1.3210 H     1 <1>   0.0800 
 40 H       -4.4280    -0.9980    -0.2680 H     1 <1>   0.0800 
 41 H       -3.8660     0.6010     0.1800 H     1 <1>   0.0800 
 42 H        1.8830    -2.7710    -0.7970 H     1 <1>   0.4500 
 43 H        3.5980    -5.0640    -0.0380 H     1 <1>   0.0800 
 44 H        3.6010    -4.3440    -1.6300 H     1 <1>   0.0800 
 45 H        4.0960    -2.1350    -0.6050 H     1 <1>   0.0800 
 46 H        4.2840    -2.9110     0.9480 H     1 <1>   0.0800 
 47 H        5.9010    -3.5960    -1.5020 H     1 <1>   0.0800 
 48 H        6.4560    -4.3460     1.3920 H     1 <1>   0.0800 
 49 H        5.6250    -5.3840     0.2860 H     1 <1>   0.0800 
 50 H        6.3040    -1.3180    -0.8490 H     1 <1>   0.0800 
 51 H        6.5400    -1.7590     0.8060 H     1 <1>   0.0800 
 52 H        7.6950    -6.2180     0.0010 H     1 <1>   0.0800 
 53 H        7.6830    -5.0570    -1.2750 H     1 <1>   0.0800 
 54 H        8.3650    -2.6530    -1.4560 H     1 <1>   0.0800 
 55 H        8.5980    -1.2330    -0.4940 H     1 <1>   0.0800 
 56 H        9.1410    -5.0080     1.3390 H     1 <1>   0.0800 
 57 H        9.7570    -4.7870    -0.2610 H     1 <1>   0.0800 
 58 H        9.9400    -2.6850     0.6490 H     1 <1>   0.0800 
 59 H        8.4820    -2.8000     1.5650 H     1 <1>   0.0800 
@<TRIPOS>BOND
  1   1   2  1   
  2   1   3  1   
  3   2   4  1   
  4   2   5  1   
  5   2   6  1   
  6   3   7  1   
  7   3  24  1   
  8   3  25  1   
  9   4   8  1   
 10   4  26  1   
 11   4  27  1   
 12   5   9  1   
 13   5  28  1   
 14   5  29  1   
 15   6  10  1   
 16   6  30  1   
 17   6  31  1   
 18   7   8  1   
 19   7  11  1   
 20   7  32  1   
 21   8  12  1   
 22   8  13  1   
 23   9  14  1   
 24   9  33  1   
 25   9  34  1   
 26  10  14  1   
 27  10  35  1   
 28  10  36  1   
 29  11  37  1   
 30  12  38  1   
 31  13  39  1   
 32  13  40  1   
 33  13  41  1   
 34  14  15  1   
 35  14  42  1   
 36  15  16  1   
 37  15  43  1   
 38  15  44  1   
 39  16  17  1   
 40  16  45  1   
 41  16  46  1   
 42  17  18  1   
 43  17  19  1   
 44  17  47  1   
 45  18  20  1   
 46  18  48  1   
 47  18  49  1   
 48  19  21  1   
 49  19  50  1   
 50  19  51  1   
 51  20  22  1   
 52  20  52  1   
 53  20  53  1   
 54  21  23  1   
 55  21  54  1   
 56  21  55  1   
 57  22  23  1   
 58  22  56  1   
 59  22  57  1   
 60  23  58  1   
 61  23  59  1   
@<TRIPOS>SUBSTRUCTURE
  1 ****  14 GROUP 4 **** **** 0

# MOE 2024.06 (io_trps.svl 2023.06)
