@<TRIPOS>MOLECULE
NONAME
47 49 1 0 0 
SMALL
USER_CHARGES


@<TRIPOS>ATOM
  1 S       -0.0760     0.3850    -0.9170 S.o2  1 <1>   1.3330 
  2 O        0.2430     1.3880    -1.9080 O.2   1 <1>  -0.6500 
  3 O       -0.7630    -0.8220    -1.3170 O.2   1 <1>  -0.6500 
  4 N        1.3680    -0.0880    -0.1550 N.am  1 <1>  -0.8490 
  5 C       -1.0000     1.1510     0.4250 C.3   1 <1>  -0.0550 
  6 C        2.5310    -0.0140    -1.0460 C.3   1 <1>   0.1160 
  7 C        1.2980    -1.4140     0.4690 C.3   1 <1>   0.1160 
  8 C       -0.6160     2.5960     0.8200 C.3   1 <1>  -0.0800 
  9 C       -1.0820     3.6570    -0.1800 C.3   1 <1>   0.2000 
 10 C        0.8710     2.8890     1.0200 C.3   1 <1>   0.1400 
 11 O       -2.3970     4.0000     0.0960 O.3   1 <1>  -0.6800 
 12 C       -0.1470     4.8540     0.0120 C.3   1 <1>   0.1400 
 13 N        0.9960     4.3490     0.8150 N.am  1 <1>  -0.6600 
 14 C        2.2090     4.9900     0.9320 C.2   1 <1>   0.5440 
 15 O        3.1760     4.3460     1.2890 O.2   1 <1>  -0.5700 
 16 C        2.3600     6.3980     0.6220 C.ar  1 <1>   0.0860 
 17 C        1.5360     7.3720     1.1860 C.ar  1 <1>  -0.1500 
 18 C        3.3520     6.8310    -0.2560 C.ar  1 <1>  -0.1500 
 19 C        1.6840     8.7110     0.8770 C.ar  1 <1>  -0.1500 
 20 C        3.5070     8.1680    -0.5710 C.ar  1 <1>  -0.1500 
 21 C        2.6720     9.1280    -0.0090 C.ar  1 <1>  -0.0230 
 22 N        2.8310    10.5010    -0.3260 N.pl3 1 <1>   0.3260 
 23 C        1.9040    11.4060    -0.6730 C.2   1 <1>   0.0360 
 24 C        3.9480    11.2400    -0.3610 C.2   1 <1>   0.0360 
 25 N        2.4080    12.5690    -0.8940 N.2   1 <1>  -0.3380 
 26 N        3.7230    12.4630    -0.6940 N.2   1 <1>  -0.3380 
 27 H       -2.0380     1.1580     0.1540 H     1 <1>   0.0800 
 28 H       -0.9100     0.5280     1.2920 H     1 <1>   0.0800 
 29 H        3.4240    -0.3030    -0.5200 H     1 <1>   0.0800 
 30 H        2.6630     0.9960    -1.3990 H     1 <1>   0.0800 
 31 H        2.3930    -0.6620    -1.8960 H     1 <1>   0.0800 
 32 H        2.2010    -1.6100     1.0220 H     1 <1>   0.0800 
 33 H        1.1740    -2.1770    -0.2820 H     1 <1>   0.0800 
 34 H        0.4650    -1.4620     1.1490 H     1 <1>   0.0800 
 35 H       -1.0840     2.8040     1.7660 H     1 <1>   0.0800 
 36 H       -1.0330     3.3180    -1.2000 H     1 <1>   0.0800 
 37 H        1.4850     2.4030     0.2850 H     1 <1>   0.0800 
 38 H        1.2090     2.6100     2.0040 H     1 <1>   0.0800 
 39 H       -2.4850     4.3040     1.0200 H     1 <1>   0.4000 
 40 H       -0.6430     5.6470     0.5420 H     1 <1>   0.0800 
 41 H        0.2020     5.2090    -0.9430 H     1 <1>   0.0800 
 42 H        0.7760     7.0660     1.8840 H     1 <1>   0.1500 
 43 H        4.0080     6.0950    -0.6920 H     1 <1>   0.1500 
 44 H        1.0310     9.4340     1.3360 H     1 <1>   0.1500 
 45 H        4.2820     8.4600    -1.2590 H     1 <1>   0.1500 
 46 H        0.8620    11.1610    -0.7540 H     1 <1>   0.1500 
 47 H        4.9140    10.8330    -0.1280 H     1 <1>   0.1500 
@<TRIPOS>BOND
  1   1   2  2   
  2   1   3  2   
  3   1   4  am  
  4   1   5  1   
  5   4   6  1   
  6   4   7  1   
  7   5   8  1   
  8   5  27  1   
  9   5  28  1   
 10   6  29  1   
 11   6  30  1   
 12   6  31  1   
 13   7  32  1   
 14   7  33  1   
 15   7  34  1   
 16   8   9  1   
 17   8  10  1   
 18   8  35  1   
 19   9  11  1   
 20   9  12  1   
 21   9  36  1   
 22  10  13  1   
 23  10  37  1   
 24  10  38  1   
 25  11  39  1   
 26  12  13  1   
 27  12  40  1   
 28  12  41  1   
 29  13  14  am  
 30  14  15  2   
 31  14  16  1   
 32  16  17  ar  
 33  16  18  ar  
 34  17  19  ar  
 35  17  42  1   
 36  18  20  ar  
 37  18  43  1   
 38  19  21  ar  
 39  19  44  1   
 40  20  21  ar  
 41  20  45  1   
 42  21  22  1   
 43  22  23  1   
 44  22  24  1   
 45  23  25  2   
 46  23  46  1   
 47  24  26  2   
 48  24  47  1   
 49  25  26  1   
@<TRIPOS>SUBSTRUCTURE
  1 ****  14 GROUP 4 **** **** 0

# MOE 2024.06 (io_trps.svl 2023.06)
