@<TRIPOS>MOLECULE
NONAME
51 54 1 0 0 
SMALL
USER_CHARGES


@<TRIPOS>ATOM
  1 O       -0.9320     0.2880    -0.6190 O.2   1 <1>  -0.5700 
  2 C       -1.7180     0.9440     0.0390 C.2   1 <1>   0.5440 
  3 N       -2.7780     0.2900     0.6290 N.am  1 <1>  -0.6600 
  4 C       -1.5380     2.3720     0.1590 C.ar  1 <1>   0.0860 
  5 C       -2.7780    -1.1990     0.7950 C.3   1 <1>   0.1400 
  6 C       -4.1590     0.8640     0.6530 C.3   1 <1>   0.1400 
  7 C       -1.0090     3.1100    -0.8970 C.ar  1 <1>   0.1600 
  8 C       -1.8670     3.0810     1.3110 C.ar  1 <1>  -0.1500 
  9 C       -3.7740    -1.8600    -0.1750 C.3   1 <1>   0.3440 
 10 C       -5.0940     0.0850    -0.2950 C.3   1 <1>   0.2950 
 11 N       -0.8230     4.4180    -0.9170 N.ar  1 <1>  -0.6200 
 12 C       -1.6730     4.4410     1.3110 C.ar  1 <1>  -0.1500 
 13 O       -5.0460    -1.2850    -0.0190 O.3   1 <1>  -0.5600 
 14 C       -3.8510    -3.3630     0.0800 C.ar  1 <1>  -0.1430 
 15 C       -6.5490     0.5350    -0.1400 C.3   1 <1>  -0.1950 
 16 C       -1.1600     5.0830     0.1850 C.ar  1 <1>   0.4100 
 17 C       -4.7690    -3.9060     0.9690 C.ar  1 <1>  -0.1500 
 18 C       -2.9730    -4.2110    -0.5810 C.ar  1 <1>  -0.1500 
 19 C       -7.5480     0.3150    -1.2320 C.3   1 <1>  -0.2000 
 20 C       -7.0820     1.7070    -0.9060 C.3   1 <1>  -0.2000 
 21 N       -0.9810     6.4510     0.1800 N.pl3 1 <1>  -0.8380 
 22 C       -4.8090    -5.2710     1.1930 C.ar  1 <1>  -0.1500 
 23 C       -3.0110    -5.5770    -0.3580 C.ar  1 <1>  -0.1500 
 24 C       -2.0560     7.3690     0.6380 C.3   1 <1>   0.1290 
 25 C        0.0410     7.0700    -0.7090 C.3   1 <1>   0.1290 
 26 C       -3.9290    -6.1080     0.5300 C.ar  1 <1>  -0.1500 
 27 H       -1.7950    -1.6000     0.6220 H     1 <1>   0.0800 
 28 H       -3.0550    -1.4450     1.8040 H     1 <1>   0.0800 
 29 H       -4.5460     0.8130     1.6560 H     1 <1>   0.0800 
 30 H       -4.1470     1.8960     0.3520 H     1 <1>   0.0800 
 31 H       -0.7260     2.5720    -1.7860 H     1 <1>   0.1500 
 32 H       -2.2540     2.5710     2.1750 H     1 <1>   0.1500 
 33 H       -3.4530    -1.6910    -1.1880 H     1 <1>   0.0800 
 34 H       -4.7810     0.2310    -1.3150 H     1 <1>   0.0800 
 35 H       -1.9010     5.0270     2.1800 H     1 <1>   0.1500 
 36 H       -6.9010     0.4120     0.8700 H     1 <1>   0.1000 
 37 H       -5.4610    -3.2650     1.4880 H     1 <1>   0.1500 
 38 H       -2.2520    -3.8120    -1.2740 H     1 <1>   0.1500 
 39 H       -7.2190    -0.1510    -2.1440 H     1 <1>   0.1000 
 40 H       -8.5460     0.0190    -0.9570 H     1 <1>   0.1000 
 41 H       -7.7700     2.3770    -0.4200 H     1 <1>   0.1000 
 42 H       -6.4540     2.2090    -1.6220 H     1 <1>   0.1000 
 43 H       -5.5260    -5.6810     1.8830 H     1 <1>   0.1500 
 44 H       -2.3260    -6.2260    -0.8760 H     1 <1>   0.1500 
 45 H       -1.6960     7.9650     1.4590 H     1 <1>   0.0800 
 46 H       -2.9200     6.8130     0.9580 H     1 <1>   0.0800 
 47 H       -2.3500     8.0190    -0.1680 H     1 <1>   0.0800 
 48 H        0.3920     7.9930    -0.2820 H     1 <1>   0.0800 
 49 H       -0.3890     7.2620    -1.6770 H     1 <1>   0.0800 
 50 H        0.8790     6.4050    -0.8280 H     1 <1>   0.0800 
 51 H       -3.9600    -7.1690     0.7040 H     1 <1>   0.1500 
@<TRIPOS>BOND
  1   1   2  2   
  2   2   3  am  
  3   2   4  1   
  4   3   5  1   
  5   3   6  1   
  6   4   7  ar  
  7   4   8  ar  
  8   5   9  1   
  9   5  27  1   
 10   5  28  1   
 11   6  10  1   
 12   6  29  1   
 13   6  30  1   
 14   7  11  ar  
 15   7  31  1   
 16   8  12  ar  
 17   8  32  1   
 18   9  13  1   
 19   9  14  1   
 20   9  33  1   
 21  10  13  1   
 22  10  15  1   
 23  10  34  1   
 24  11  16  ar  
 25  12  16  ar  
 26  12  35  1   
 27  14  17  ar  
 28  14  18  ar  
 29  15  19  1   
 30  15  20  1   
 31  15  36  1   
 32  16  21  1   
 33  17  22  ar  
 34  17  37  1   
 35  18  23  ar  
 36  18  38  1   
 37  19  20  1   
 38  19  39  1   
 39  19  40  1   
 40  20  41  1   
 41  20  42  1   
 42  21  24  1   
 43  21  25  1   
 44  22  26  ar  
 45  22  43  1   
 46  23  26  ar  
 47  23  44  1   
 48  24  45  1   
 49  24  46  1   
 50  24  47  1   
 51  25  48  1   
 52  25  49  1   
 53  25  50  1   
 54  26  51  1   
@<TRIPOS>SUBSTRUCTURE
  1 ****   3 GROUP 4 **** **** 0

# MOE 2024.06 (io_trps.svl 2023.06)
