@<TRIPOS>MOLECULE
NONAME
52 54 1 0 0 
SMALL
USER_CHARGES


@<TRIPOS>ATOM
  1 O        1.0520    -0.0880    -1.2290 O.2   1 <1>  -0.5700 
  2 C        1.7210    -0.5290    -0.3270 C.2   1 <1>   0.5690 
  3 N        2.5350     0.2890     0.4160 N.am  1 <1>  -0.6600 
  4 C        1.6600    -2.0200    -0.0540 C.3   1 <1>  -0.0990 
  5 C        3.5200    -0.1680     1.4490 C.3   1 <1>   0.1400 
  6 C        2.4700     1.7640     0.2360 C.3   1 <1>   0.1400 
  7 C        0.7900    -2.7740    -1.0750 C.3   1 <1>   0.0960 
  8 C        4.9790    -0.1260     0.9380 C.3   1 <1>   0.3430 
  9 C        3.4320     2.2110    -0.8700 C.3   1 <1>  -0.1600 
 10 N        0.7670    -4.2190    -0.7720 N.pl3 1 <1>   0.3140 
 11 N        5.3810     1.1780     0.2980 N.4   1 <1>  -0.9590 
 12 C        4.6930     1.3570    -1.0180 C.3   1 <1>   0.3430 
 13 N        1.8660    -4.9340    -0.6550 N.2   1 <1>  -0.4180 
 14 C       -0.2590    -5.0270    -0.5530 C.2   1 <1>   0.0060 
 15 C        6.8720     1.2030     0.1450 C.3   1 <1>   0.3430 
 16 N        1.4920    -6.1300    -0.3750 N.2   1 <1>   0.0000 
 17 N        0.1680    -6.2050    -0.3060 N.2   1 <1>  -0.3380 
 18 C       -1.7250    -4.6350    -0.5840 C.3   1 <1>  -0.0600 
 19 C        7.4280     2.6020    -0.1540 C.3   1 <1>   0.0200 
 20 C        8.9400     2.5220    -0.2270 C.2   1 <1>   0.0060 
 21 N        9.5840     1.4100    -0.0790 N.2   1 <1>  -0.5650 
 22 N        9.7460     3.5930    -0.4500 N.pl3 1 <1>   0.0480 
 23 C       10.8760     1.7630    -0.2120 C.2   1 <1>   0.0770 
 24 C       10.9910     3.0880    -0.4370 C.2   1 <1>  -0.3020 
 25 C        9.3900     5.0080    -0.6630 C.3   1 <1>   0.0160 
 26 H        1.2560    -2.1700     0.9310 H     1 <1>   0.0800 
 27 H        2.6580    -2.4140    -0.0920 H     1 <1>   0.0800 
 28 H        3.2950    -1.1700     1.7680 H     1 <1>   0.0800 
 29 H        3.4320     0.4560     2.3220 H     1 <1>   0.0800 
 30 H        2.7150     2.2530     1.1630 H     1 <1>   0.0800 
 31 H        1.4640     2.0590    -0.0210 H     1 <1>   0.0800 
 32 H        1.1870    -2.6450    -2.0660 H     1 <1>   0.0800 
 33 H       -0.2140    -2.3910    -1.0590 H     1 <1>   0.0800 
 34 H        5.1170    -0.9270     0.2300 H     1 <1>   0.0800 
 35 H        5.6280    -0.3280     1.7750 H     1 <1>   0.0800 
 36 H        3.6970     3.2420    -0.7190 H     1 <1>   0.0800 
 37 H        2.8990     2.1660    -1.8040 H     1 <1>   0.0800 
 38 H        5.1010     1.9460     0.9200 H     1 <1>   0.4500 
 39 H        5.3510     1.8320    -1.7270 H     1 <1>   0.0800 
 40 H        4.4220     0.3930    -1.4190 H     1 <1>   0.0800 
 41 H        7.1760     0.5310    -0.6420 H     1 <1>   0.0800 
 42 H        7.3350     0.8580     1.0550 H     1 <1>   0.0800 
 43 H       -1.9260    -3.8850     0.1590 H     1 <1>   0.0800 
 44 H       -2.3360    -5.4950    -0.3750 H     1 <1>   0.0800 
 45 H       -1.9880    -4.2570    -1.5550 H     1 <1>   0.0800 
 46 H        7.1540     3.2810     0.6330 H     1 <1>   0.0800 
 47 H        7.0580     2.9650    -1.0940 H     1 <1>   0.0800 
 48 H       11.6690     1.0360    -0.1370 H     1 <1>   0.1500 
 49 H       11.8760     3.6800    -0.5860 H     1 <1>   0.1500 
 50 H        8.7620     5.0930    -1.5310 H     1 <1>   0.0800 
 51 H       10.2850     5.5840    -0.8150 H     1 <1>   0.0800 
 52 H        8.8720     5.3820     0.2020 H     1 <1>   0.0800 
@<TRIPOS>BOND
  1   1   2  2   
  2   2   3  am  
  3   2   4  1   
  4   3   5  1   
  5   3   6  1   
  6   4   7  1   
  7   4  26  1   
  8   4  27  1   
  9   5   8  1   
 10   5  28  1   
 11   5  29  1   
 12   6   9  1   
 13   6  30  1   
 14   6  31  1   
 15   7  10  1   
 16   7  32  1   
 17   7  33  1   
 18   8  11  1   
 19   8  34  1   
 20   8  35  1   
 21   9  12  1   
 22   9  36  1   
 23   9  37  1   
 24  10  13  1   
 25  10  14  1   
 26  11  12  1   
 27  11  15  1   
 28  11  38  1   
 29  12  39  1   
 30  12  40  1   
 31  13  16  2   
 32  14  17  2   
 33  14  18  1   
 34  15  19  1   
 35  15  41  1   
 36  15  42  1   
 37  16  17  1   
 38  18  43  1   
 39  18  44  1   
 40  18  45  1   
 41  19  20  1   
 42  19  46  1   
 43  19  47  1   
 44  20  21  2   
 45  20  22  1   
 46  21  23  1   
 47  22  24  1   
 48  22  25  1   
 49  23  24  2   
 50  23  48  1   
 51  24  49  1   
 52  25  50  1   
 53  25  51  1   
 54  25  52  1   
@<TRIPOS>SUBSTRUCTURE
  1 ****   8 GROUP 4 **** **** 0

# MOE 2024.06 (io_trps.svl 2023.06)
