@<TRIPOS>MOLECULE
NONAME
57 59 1 0 0 
SMALL
USER_CHARGES


@<TRIPOS>ATOM
  1 F       -0.6560    -1.7140    -2.0000 F     1 <1>  -0.1900 
  2 C       -1.6900    -2.0600    -1.2810 C.ar  1 <1>   0.1900 
  3 C       -2.6980    -1.1380    -1.0770 C.ar  1 <1>  -0.1500 
  4 C       -1.7370    -3.3350    -0.7520 C.ar  1 <1>  -0.1500 
  5 C       -3.7930    -1.5090    -0.3140 C.ar  1 <1>  -0.1500 
  6 C       -2.8380    -3.6930     0.0080 C.ar  1 <1>  -0.1500 
  7 C       -3.8670    -2.7860     0.2310 C.ar  1 <1>  -0.1430 
  8 C       -5.0680    -3.1960     1.0750 C.3   1 <1>   0.2540 
  9 N       -5.6800    -4.4410     0.5750 N.3   1 <1>  -0.8100 
 10 C       -6.6800    -4.9710     1.5440 C.3   1 <1>   0.1710 
 11 C       -6.2330    -4.2690    -0.7790 C.3   1 <1>   0.0300 
 12 C       -7.1220    -6.4290     1.3160 C.2   1 <1>   0.5690 
 13 O       -6.7030    -7.2830     2.0690 O.2   1 <1>  -0.5700 
 14 N       -8.0210    -6.7810     0.3370 N.am  1 <1>  -0.6600 
 15 C       -8.1880    -8.1990    -0.0210 C.3   1 <1>   0.1400 
 16 C       -9.2350    -5.9990     0.0000 C.3   1 <1>   0.1400 
 17 C       -9.4080    -8.6520     0.7950 C.3   1 <1>   0.4230 
 18 C      -10.4880    -6.6890     0.6070 C.3   1 <1>  -0.1600 
 19 N       -9.2870   -10.0380     1.3830 N.4   1 <1>  -0.9590 
 20 C      -10.7570    -8.1970     0.0570 C.3   1 <1>   0.0000 
 21 C       -9.0750   -11.0680     0.3510 C.3   1 <1>   0.3430 
 22 C       -8.2120   -10.0770     2.4290 C.3   1 <1>   0.2630 
 23 C      -11.0250    -9.6640    -0.5720 C.3   1 <1>  -0.1600 
 24 C      -12.1310    -7.7030    -0.6020 C.3   1 <1>   0.1200 
 25 C       -9.8980   -10.6870    -0.8660 C.3   1 <1>  -0.1600 
 26 O      -11.8520    -7.0440    -1.7980 O.3   1 <1>  -0.6800 
 27 H       -2.6240    -0.1560    -1.5070 H     1 <1>   0.1500 
 28 H       -0.9360    -4.0270    -0.9320 H     1 <1>   0.1500 
 29 H       -4.5850    -0.8010    -0.1480 H     1 <1>   0.1500 
 30 H       -2.9030    -4.6840     0.4270 H     1 <1>   0.1500 
 31 H       -5.8030    -2.4090     1.0860 H     1 <1>   0.0800 
 32 H       -4.7250    -3.3470     2.0840 H     1 <1>   0.0800 
 33 H       -6.2430    -4.9420     2.5270 H     1 <1>   0.0800 
 34 H       -7.5390    -4.3270     1.5640 H     1 <1>   0.0800 
 35 H       -5.4730    -3.9030    -1.4480 H     1 <1>   0.0800 
 36 H       -7.0530    -3.5720    -0.7690 H     1 <1>   0.0800 
 37 H       -6.5710    -5.2140    -1.1650 H     1 <1>   0.0800 
 38 H       -8.3670    -8.2800    -1.0790 H     1 <1>   0.0800 
 39 H       -7.2990    -8.7500     0.2280 H     1 <1>   0.0800 
 40 H       -9.1560    -4.9940     0.3740 H     1 <1>   0.0800 
 41 H       -9.3360    -5.9440    -1.0720 H     1 <1>   0.0800 
 42 H       -9.3190    -8.0650     1.6910 H     1 <1>   0.0800 
 43 H      -10.4380    -6.6530     1.6840 H     1 <1>   0.0800 
 44 H      -11.2280    -5.9280     0.4220 H     1 <1>   0.0800 
 45 H      -10.1890   -10.2340     1.8350 H     1 <1>   0.4500 
 46 H       -8.0330   -11.1270     0.0780 H     1 <1>   0.0800 
 47 H       -9.3870   -12.0300     0.7260 H     1 <1>   0.0800 
 48 H       -7.2480    -9.8660     1.9920 H     1 <1>   0.0800 
 49 H       -8.1740   -11.0470     2.8980 H     1 <1>   0.0800 
 50 H       -8.4000    -9.3340     3.1880 H     1 <1>   0.0800 
 51 H      -11.7560   -10.1660     0.0430 H     1 <1>   0.0800 
 52 H      -11.4440    -9.6080    -1.5690 H     1 <1>   0.0800 
 53 H      -12.7190    -7.0530     0.0250 H     1 <1>   0.0800 
 54 H      -12.8670    -8.4600    -0.8290 H     1 <1>   0.0800 
 55 H       -9.2440   -10.2960    -1.6260 H     1 <1>   0.0800 
 56 H      -10.3260   -11.5850    -1.2790 H     1 <1>   0.0800 
 57 H      -12.6760    -6.7580    -2.2450 H     1 <1>   0.4000 
@<TRIPOS>BOND
  1   1   2  1   
  2   2   3  ar  
  3   2   4  ar  
  4   3   5  ar  
  5   3  27  1   
  6   4   6  ar  
  7   4  28  1   
  8   5   7  ar  
  9   5  29  1   
 10   6   7  ar  
 11   6  30  1   
 12   7   8  1   
 13   8   9  1   
 14   8  31  1   
 15   8  32  1   
 16   9  10  1   
 17   9  11  1   
 18  10  12  1   
 19  10  33  1   
 20  10  34  1   
 21  11  35  1   
 22  11  36  1   
 23  11  37  1   
 24  12  13  2   
 25  12  14  am  
 26  14  15  1   
 27  14  16  1   
 28  15  17  1   
 29  15  38  1   
 30  15  39  1   
 31  16  18  1   
 32  16  40  1   
 33  16  41  1   
 34  17  19  1   
 35  17  20  1   
 36  17  42  1   
 37  18  20  1   
 38  18  43  1   
 39  18  44  1   
 40  19  21  1   
 41  19  22  1   
 42  19  45  1   
 43  20  23  1   
 44  20  24  1   
 45  21  25  1   
 46  21  46  1   
 47  21  47  1   
 48  22  48  1   
 49  22  49  1   
 50  22  50  1   
 51  23  25  1   
 52  23  51  1   
 53  23  52  1   
 54  24  26  1   
 55  24  53  1   
 56  24  54  1   
 57  25  55  1   
 58  25  56  1   
 59  26  57  1   
@<TRIPOS>SUBSTRUCTURE
  1 ****  14 GROUP 4 **** **** 0

# MOE 2024.06 (io_trps.svl 2023.06)
