@<TRIPOS>MOLECULE
NONAME
39 41 1 0 0 
SMALL
USER_CHARGES


@<TRIPOS>ATOM
  1 O       -1.1090     0.8560     0.0070 O.2   1 <1>  -0.5700 
  2 C       -0.2730     0.1710     0.5450 C.2   1 <1>   0.5690 
  3 N        1.0690     0.3980     0.4620 N.am  1 <1>  -0.4940 
  4 C       -0.7440    -1.0210     1.3470 C.3   1 <1>  -0.0990 
  5 C        1.7660     1.4560    -0.1730 C.2   1 <1>  -0.0880 
  6 C       -0.5330    -2.3440     0.5950 C.3   1 <1>   0.0960 
  7 N        3.1080     1.4840    -0.4070 N.pl3 1 <1>   0.3140 
  8 C        1.2710     2.6140    -0.6680 C.2   1 <1>  -0.1500 
  9 N        0.8940    -2.7180     0.4280 N.pl3 1 <1>   0.3140 
 10 N        3.4710     2.6290    -1.0410 N.2   1 <1>  -0.7070 
 11 C        4.0690     0.3870    -0.0980 C.3   1 <1>   0.1760 
 12 C        2.3660     3.2910    -1.1860 C.2   1 <1>   0.1390 
 13 N        1.8870    -2.2860     1.2400 N.2   1 <1>  -0.7070 
 14 C        1.3690    -3.5810    -0.4910 C.2   1 <1>  -0.3020 
 15 C        5.4350     0.8580     0.4000 C.3   1 <1>  -0.1600 
 16 C        4.3990    -0.4610    -1.3270 C.3   1 <1>  -0.1600 
 17 C        2.9510    -2.9060     0.8270 C.2   1 <1>   0.1390 
 18 C        2.6910    -3.7260    -0.2630 C.2   1 <1>  -0.1500 
 19 C        6.3520    -0.3440     0.1660 C.3   1 <1>  -0.1600 
 20 C        5.7610    -1.1010    -1.0310 C.3   1 <1>  -0.1600 
 21 H        1.6360    -0.3640     0.8650 H     1 <1>   0.3700 
 22 H       -1.7950    -0.8990     1.5380 H     1 <1>   0.0800 
 23 H       -0.2480    -1.0430     2.3010 H     1 <1>   0.0800 
 24 H       -0.9840    -2.2780    -0.3800 H     1 <1>   0.0800 
 25 H       -1.0140    -3.1390     1.1350 H     1 <1>   0.0800 
 26 H        0.2510     2.9520    -0.6710 H     1 <1>   0.1500 
 27 H        3.6400    -0.2420     0.6580 H     1 <1>   0.0800 
 28 H        2.3120     4.2570    -1.6600 H     1 <1>   0.1500 
 29 H        0.7520    -4.0450    -1.2390 H     1 <1>   0.1500 
 30 H        5.4070     1.1490     1.4350 H     1 <1>   0.0800 
 31 H        5.7820     1.6830    -0.1980 H     1 <1>   0.0800 
 32 H        4.4930     0.1810    -2.1870 H     1 <1>   0.0800 
 33 H        3.6380    -1.1980    -1.5150 H     1 <1>   0.0800 
 34 H        3.9230    -2.7920     1.2800 H     1 <1>   0.1500 
 35 H        3.4060    -4.3350    -0.7870 H     1 <1>   0.1500 
 36 H        6.3390    -0.9810     1.0350 H     1 <1>   0.0800 
 37 H        7.3650    -0.0320    -0.0200 H     1 <1>   0.0800 
 38 H        6.4040    -1.0130    -1.8910 H     1 <1>   0.0800 
 39 H        5.6480    -2.1440    -0.7900 H     1 <1>   0.0800 
@<TRIPOS>BOND
  1   1   2  2   
  2   2   3  am  
  3   2   4  1   
  4   3   5  1   
  5   3  21  1   
  6   4   6  1   
  7   4  22  1   
  8   4  23  1   
  9   5   7  1   
 10   5   8  2   
 11   6   9  1   
 12   6  24  1   
 13   6  25  1   
 14   7  10  1   
 15   7  11  1   
 16   8  12  1   
 17   8  26  1   
 18   9  13  1   
 19   9  14  1   
 20  10  12  2   
 21  11  15  1   
 22  11  16  1   
 23  11  27  1   
 24  12  28  1   
 25  13  17  2   
 26  14  18  2   
 27  14  29  1   
 28  15  19  1   
 29  15  30  1   
 30  15  31  1   
 31  16  20  1   
 32  16  32  1   
 33  16  33  1   
 34  17  18  1   
 35  17  34  1   
 36  18  35  1   
 37  19  20  1   
 38  19  36  1   
 39  19  37  1   
 40  20  38  1   
 41  20  39  1   
@<TRIPOS>SUBSTRUCTURE
  1 ****   3 GROUP 4 **** **** 0

# MOE 2024.06 (io_trps.svl 2023.06)
