@<TRIPOS>MOLECULE
NONAME
49 52 1 0 0 
SMALL
USER_CHARGES


@<TRIPOS>ATOM
  1 O       -0.4560    -0.0440     1.1720 O.2   1 <1>  -0.5700 
  2 C       -1.4590     0.6350     1.0710 C.2   1 <1>   0.7160 
  3 N       -2.6890     0.0140     1.0640 N.am  1 <1>  -0.6600 
  4 C       -1.3510     2.0610     0.9200 C.2   1 <1>  -0.0860 
  5 C       -2.8430    -1.4530     1.3270 C.3   1 <1>   0.1400 
  6 C       -3.8970     0.6090     0.4130 C.3   1 <1>   0.1400 
  7 C       -0.6170     2.7490    -0.0340 C.2   1 <1>   0.1080 
  8 C       -1.9140     3.0800     1.6040 C.2   1 <1>  -0.0400 
  9 C       -3.3340    -2.1900     0.0670 C.3   1 <1>   0.3440 
 10 C       -4.3290    -0.2370    -0.8010 C.3   1 <1>   0.2950 
 11 N       -0.7790     4.0110     0.1020 N.2   1 <1>  -0.4100 
 12 C        0.2550     2.1220    -1.1080 C.3   1 <1>   0.0210 
 13 O       -1.5800     4.2500     1.1160 O.3   1 <1>  -0.0190 
 14 C       -2.8310     3.0450     2.8100 C.3   1 <1>  -0.0600 
 15 O       -4.4950    -1.5740    -0.4310 O.3   1 <1>  -0.5600 
 16 C       -3.6230    -3.6540     0.3840 C.ar  1 <1>  -0.1440 
 17 C       -5.6600     0.2520    -1.3790 C.3   1 <1>  -0.1950 
 18 C       -0.5870     1.4610    -2.2060 C.3   1 <1>  -0.2400 
 19 C       -2.6070    -4.5920     0.2610 C.ar  1 <1>  -0.1500 
 20 C       -4.8770    -4.0740     0.8080 C.ar  1 <1>  -0.1500 
 21 C       -6.0380    -0.0310    -2.7980 C.3   1 <1>  -0.2000 
 22 C       -5.7030     1.3710    -2.3720 C.3   1 <1>  -0.2000 
 23 C       -2.8390    -5.9240     0.5570 C.ar  1 <1>  -0.1500 
 24 C       -5.1110    -5.4050     1.1050 C.ar  1 <1>  -0.1500 
 25 C       -4.0910    -6.3320     0.9800 C.ar  1 <1>  -0.1500 
 26 H       -1.9130    -1.8860     1.6500 H     1 <1>   0.0800 
 27 H       -3.5580    -1.5980     2.1180 H     1 <1>   0.0800 
 28 H       -4.7030     0.6440     1.1250 H     1 <1>   0.0800 
 29 H       -3.7060     1.6130     0.0800 H     1 <1>   0.0800 
 30 H       -2.5790    -2.1390    -0.6980 H     1 <1>   0.0800 
 31 H       -3.5720    -0.1930    -1.5650 H     1 <1>   0.0800 
 32 H        0.8710     2.8890    -1.5460 H     1 <1>   0.0800 
 33 H        0.9090     1.3950    -0.6590 H     1 <1>   0.0800 
 34 H       -3.0000     2.0340     3.1330 H     1 <1>   0.0800 
 35 H       -3.7750     3.4980     2.5640 H     1 <1>   0.0800 
 36 H       -2.3840     3.5940     3.6190 H     1 <1>   0.0800 
 37 H       -6.4510     0.2160    -0.6490 H     1 <1>   0.1000 
 38 H       -1.2570     2.1830    -2.6400 H     1 <1>   0.0800 
 39 H       -1.1620     0.6480    -1.8010 H     1 <1>   0.0800 
 40 H        0.0540     1.0760    -2.9780 H     1 <1>   0.0800 
 41 H       -1.6260    -4.2920    -0.0660 H     1 <1>   0.1500 
 42 H       -5.6790    -3.3620     0.9050 H     1 <1>   0.1500 
 43 H       -5.3450    -0.5720    -3.4190 H     1 <1>   0.1000 
 44 H       -7.0630    -0.2830    -3.0120 H     1 <1>   0.1000 
 45 H       -6.5010     2.0920    -2.3100 H     1 <1>   0.1000 
 46 H       -4.7850     1.8050    -2.7310 H     1 <1>   0.1000 
 47 H       -2.0450    -6.6440     0.4580 H     1 <1>   0.1500 
 48 H       -6.0870    -5.7190     1.4310 H     1 <1>   0.1500 
 49 H       -4.2730    -7.3670     1.2100 H     1 <1>   0.1500 
@<TRIPOS>BOND
  1   1   2  2   
  2   2   3  am  
  3   2   4  1   
  4   3   5  1   
  5   3   6  1   
  6   4   7  1   
  7   4   8  2   
  8   5   9  1   
  9   5  26  1   
 10   5  27  1   
 11   6  10  1   
 12   6  28  1   
 13   6  29  1   
 14   7  11  2   
 15   7  12  1   
 16   8  13  1   
 17   8  14  1   
 18   9  15  1   
 19   9  16  1   
 20   9  30  1   
 21  10  15  1   
 22  10  17  1   
 23  10  31  1   
 24  11  13  1   
 25  12  18  1   
 26  12  32  1   
 27  12  33  1   
 28  14  34  1   
 29  14  35  1   
 30  14  36  1   
 31  16  19  ar  
 32  16  20  ar  
 33  17  21  1   
 34  17  22  1   
 35  17  37  1   
 36  18  38  1   
 37  18  39  1   
 38  18  40  1   
 39  19  23  ar  
 40  19  41  1   
 41  20  24  ar  
 42  20  42  1   
 43  21  22  1   
 44  21  43  1   
 45  21  44  1   
 46  22  45  1   
 47  22  46  1   
 48  23  25  ar  
 49  23  47  1   
 50  24  25  ar  
 51  24  48  1   
 52  25  49  1   
@<TRIPOS>SUBSTRUCTURE
  1 ****   3 GROUP 4 **** **** 0

# MOE 2024.06 (io_trps.svl 2023.06)
