@<TRIPOS>MOLECULE
NONAME
59 62 1 0 0 
SMALL
USER_CHARGES


@<TRIPOS>ATOM
  1 N        0.3960    -0.5850     1.3880 N.ar  1 <1>  -0.6200 
  2 C        1.4130    -0.7970     0.5710 C.ar  1 <1>   0.4100 
  3 C        0.4710     0.5190     2.1020 C.ar  1 <1>   0.4700 
  4 N        1.3870    -1.9310    -0.2160 N.pl3 1 <1>  -0.8380 
  5 C        2.4590     0.0900     0.5010 C.ar  1 <1>  -0.1500 
  6 N        1.4210     1.4310     2.1170 N.ar  1 <1>  -0.6200 
  7 C        1.3480    -1.7600    -1.6900 C.3   1 <1>   0.2090 
  8 C        0.6700    -3.1390     0.2710 C.3   1 <1>   0.2090 
  9 C        2.4370     1.2080     1.3010 C.ar  1 <1>   0.4100 
 10 C        1.9630    -2.9910    -2.3630 C.3   1 <1>  -0.1600 
 11 C        1.2680    -4.3890    -0.3840 C.3   1 <1>  -0.1600 
 12 N        3.4730     2.1250     1.2750 N.pl3 1 <1>  -0.8380 
 13 C        1.2680    -4.2860    -1.9160 C.3   1 <1>  -0.1600 
 14 C        3.3580     3.4260     1.9860 C.3   1 <1>   0.4330 
 15 C        4.8770     1.6520     1.2960 C.3   1 <1>   0.2090 
 16 C        2.5400     4.4490     1.1940 C.ar  1 <1>  -0.1430 
 17 C        4.7990     3.8850     2.1880 C.3   1 <1>  -0.1600 
 18 C        5.6060     2.5930     2.2470 C.3   1 <1>  -0.1600 
 19 C        2.6390     4.5390    -0.1870 C.ar  1 <1>  -0.1500 
 20 C        1.6730     5.3010     1.8600 C.ar  1 <1>  -0.1500 
 21 C        1.8920     5.4670    -0.8900 C.ar  1 <1>  -0.1500 
 22 C        0.9230     6.2310     1.1620 C.ar  1 <1>  -0.1500 
 23 C        1.0320     6.3230    -0.2170 C.ar  1 <1>  -0.1430 
 24 C        0.2170     7.3450    -0.9830 C.3   1 <1>   0.4860 
 25 N        1.1210     8.4550    -1.4020 N.4   1 <1>  -0.9590 
 26 C        1.6600     9.1990    -0.2200 C.3   1 <1>   0.2630 
 27 C        0.4510     9.3740    -2.3680 C.3   1 <1>   0.2630 
 28 H       -0.3580     0.7010     2.7640 H     1 <1>   0.1500 
 29 H        3.2730    -0.0950    -0.1650 H     1 <1>   0.1500 
 30 H        1.8910    -0.8760    -1.9780 H     1 <1>   0.0800 
 31 H        0.3240    -1.6430    -2.0010 H     1 <1>   0.0800 
 32 H       -0.3750    -3.0520     0.0270 H     1 <1>   0.0800 
 33 H        0.7640    -3.2100     1.3420 H     1 <1>   0.0800 
 34 H        3.0080    -3.0340    -2.1110 H     1 <1>   0.0800 
 35 H        1.8850    -2.8880    -3.4310 H     1 <1>   0.0800 
 36 H        0.7070    -5.2520    -0.0770 H     1 <1>   0.0800 
 37 H        2.2770    -4.5090    -0.0290 H     1 <1>   0.0800 
 38 H        1.7730    -5.1370    -2.3400 H     1 <1>   0.0800 
 39 H        0.2520    -4.2870    -2.2730 H     1 <1>   0.0800 
 40 H        2.9110     3.2590     2.9510 H     1 <1>   0.0800 
 41 H        5.2870     1.7320     0.3030 H     1 <1>   0.0800 
 42 H        4.9440     0.6310     1.6340 H     1 <1>   0.0800 
 43 H        4.9020     4.4760     3.0790 H     1 <1>   0.0800 
 44 H        5.1110     4.4690     1.3410 H     1 <1>   0.0800 
 45 H        6.6330     2.7340     1.9620 H     1 <1>   0.0800 
 46 H        5.5680     2.1810     3.2400 H     1 <1>   0.0800 
 47 H        3.2990     3.8690    -0.7130 H     1 <1>   0.1500 
 48 H        1.5750     5.2340     2.9310 H     1 <1>   0.1500 
 49 H        1.9870     5.4970    -1.9610 H     1 <1>   0.1500 
 50 H        0.2540     6.8710     1.7110 H     1 <1>   0.1500 
 51 H       -0.5800     7.7220    -0.3640 H     1 <1>   0.0800 
 52 H       -0.2160     6.8710    -1.8490 H     1 <1>   0.0800 
 53 H        1.9220     7.9990    -1.8650 H     1 <1>   0.4500 
 54 H        0.8580     9.6560     0.3360 H     1 <1>   0.0800 
 55 H        2.3410     9.9700    -0.5420 H     1 <1>   0.0800 
 56 H        2.1930     8.5260     0.4340 H     1 <1>   0.0800 
 57 H       -0.3970     9.8530    -1.9050 H     1 <1>   0.0800 
 58 H        0.1090     8.8270    -3.2320 H     1 <1>   0.0800 
 59 H        1.1390    10.1370    -2.6970 H     1 <1>   0.0800 
@<TRIPOS>BOND
  1   1   2  ar  
  2   1   3  ar  
  3   2   4  1   
  4   2   5  ar  
  5   3   6  ar  
  6   3  28  1   
  7   4   7  1   
  8   4   8  1   
  9   5   9  ar  
 10   5  29  1   
 11   6   9  ar  
 12   7  10  1   
 13   7  30  1   
 14   7  31  1   
 15   8  11  1   
 16   8  32  1   
 17   8  33  1   
 18   9  12  1   
 19  10  13  1   
 20  10  34  1   
 21  10  35  1   
 22  11  13  1   
 23  11  36  1   
 24  11  37  1   
 25  12  14  1   
 26  12  15  1   
 27  13  38  1   
 28  13  39  1   
 29  14  16  1   
 30  14  17  1   
 31  14  40  1   
 32  15  18  1   
 33  15  41  1   
 34  15  42  1   
 35  16  19  ar  
 36  16  20  ar  
 37  17  18  1   
 38  17  43  1   
 39  17  44  1   
 40  18  45  1   
 41  18  46  1   
 42  19  21  ar  
 43  19  47  1   
 44  20  22  ar  
 45  20  48  1   
 46  21  23  ar  
 47  21  49  1   
 48  22  23  ar  
 49  22  50  1   
 50  23  24  1   
 51  24  25  1   
 52  24  51  1   
 53  24  52  1   
 54  25  26  1   
 55  25  27  1   
 56  25  53  1   
 57  26  54  1   
 58  26  55  1   
 59  26  56  1   
 60  27  57  1   
 61  27  58  1   
 62  27  59  1   
@<TRIPOS>SUBSTRUCTURE
  1 ****   9 GROUP 4 **** **** 0

# MOE 2024.06 (io_trps.svl 2023.06)
