@<TRIPOS>MOLECULE
NONAME
54 57 1 0 0 
SMALL
USER_CHARGES


@<TRIPOS>ATOM
  1 O       -2.3830     0.1750    -1.8310 O.2   1 <1>  -0.5700 
  2 C       -2.3800     0.7020    -0.7350 C.2   1 <1>   0.5440 
  3 N       -2.7090    -0.0750     0.3560 N.am  1 <1>  -0.6600 
  4 C       -2.0790     2.1170    -0.6100 C.ar  1 <1>   0.0860 
  5 C       -3.6830     0.3870     1.3720 C.3   1 <1>   0.1400 
  6 C       -2.5120    -1.5440     0.3130 C.3   1 <1>   0.1400 
  7 C       -2.4050     3.0310    -1.6020 C.ar  1 <1>  -0.1500 
  8 C       -1.4400     2.6630     0.4960 C.ar  1 <1>  -0.1500 
  9 C       -5.0430    -0.2270     1.0350 C.3   1 <1>  -0.1600 
 10 C       -3.8430    -2.2000    -0.0530 C.3   1 <1>  -0.1600 
 11 C       -2.1130     4.3720    -1.4420 C.ar  1 <1>   0.1600 
 12 C       -1.1930     4.0200     0.5610 C.ar  1 <1>   0.1600 
 13 C       -4.9510    -1.7550     0.9140 C.3   1 <1>   0.4230 
 14 N       -1.5220     4.8890    -0.3790 N.ar  1 <1>  -0.6200 
 15 N       -6.2810    -2.3010     0.5180 N.4   1 <1>  -0.9590 
 16 C       -6.7980    -1.9230    -0.8340 C.3   1 <1>   0.3430 
 17 C       -6.4200    -3.7870     0.6120 C.3   1 <1>   0.3430 
 18 C       -7.9370    -2.9120    -1.0700 C.3   1 <1>   0.2000 
 19 C       -7.3360    -4.2170    -0.5420 C.3   1 <1>  -0.0800 
 20 O       -9.0030    -2.5260    -0.2610 O.3   1 <1>  -0.6800 
 21 C       -8.3310    -5.3230    -0.1410 C.3   1 <1>  -0.0170 
 22 C       -7.5810    -6.4990     0.4650 C.ar  1 <1>  -0.1430 
 23 C       -7.6310    -6.7780     1.8170 C.ar  1 <1>  -0.1500 
 24 C       -6.8060    -7.3430    -0.3040 C.ar  1 <1>  -0.1500 
 25 C       -6.9050    -7.8440     2.3230 C.ar  1 <1>   0.1600 
 26 C       -6.1180    -8.3820     0.3010 C.ar  1 <1>   0.1600 
 27 N       -6.1410    -8.6420     1.5970 N.ar  1 <1>  -0.6200 
 28 H       -3.3530     0.0780     2.3510 H     1 <1>   0.0800 
 29 H       -3.7590     1.4620     1.3660 H     1 <1>   0.0800 
 30 H       -1.7620    -1.7950    -0.4200 H     1 <1>   0.0800 
 31 H       -2.1660    -1.8880     1.2740 H     1 <1>   0.0800 
 32 H       -2.8830     2.6890    -2.5020 H     1 <1>   0.1500 
 33 H       -1.1300     2.0260     1.3030 H     1 <1>   0.1500 
 34 H       -5.3760     0.2080     0.1100 H     1 <1>   0.0800 
 35 H       -5.7420     0.0380     1.8080 H     1 <1>   0.0800 
 36 H       -3.7120    -3.2650    -0.0190 H     1 <1>   0.0800 
 37 H       -4.0700    -1.9140    -1.0640 H     1 <1>   0.0800 
 38 H       -2.3800     5.0570    -2.2300 H     1 <1>   0.1500 
 39 H       -0.6960     4.4170     1.4320 H     1 <1>   0.1500 
 40 H       -4.7020    -2.1390     1.8910 H     1 <1>   0.0800 
 41 H       -6.9920    -1.9230     1.1620 H     1 <1>   0.4500 
 42 H       -7.1520    -0.9050    -0.8640 H     1 <1>   0.0800 
 43 H       -6.0380    -2.0650    -1.5830 H     1 <1>   0.0800 
 44 H       -5.4670    -4.2820     0.5240 H     1 <1>   0.0800 
 45 H       -6.8620    -4.0540     1.5590 H     1 <1>   0.0800 
 46 H       -8.2580    -2.9500    -2.0970 H     1 <1>   0.0800 
 47 H       -6.6980    -4.6140    -1.3120 H     1 <1>   0.0800 
 48 H       -9.8400    -2.9500    -0.5480 H     1 <1>   0.4000 
 49 H       -8.8790    -5.6570    -1.0050 H     1 <1>   0.0800 
 50 H       -9.0440    -4.9550     0.5770 H     1 <1>   0.0800 
 51 H       -8.2270    -6.1860     2.4880 H     1 <1>   0.1500 
 52 H       -6.7270    -7.2120    -1.3680 H     1 <1>   0.1500 
 53 H       -6.9550    -8.0520     3.3790 H     1 <1>   0.1500 
 54 H       -5.5170    -9.0340    -0.3120 H     1 <1>   0.1500 
@<TRIPOS>BOND
  1   1   2  2   
  2   2   3  am  
  3   2   4  1   
  4   3   5  1   
  5   3   6  1   
  6   4   7  ar  
  7   4   8  ar  
  8   5   9  1   
  9   5  28  1   
 10   5  29  1   
 11   6  10  1   
 12   6  30  1   
 13   6  31  1   
 14   7  11  ar  
 15   7  32  1   
 16   8  12  ar  
 17   8  33  1   
 18   9  13  1   
 19   9  34  1   
 20   9  35  1   
 21  10  13  1   
 22  10  36  1   
 23  10  37  1   
 24  11  14  ar  
 25  11  38  1   
 26  12  14  ar  
 27  12  39  1   
 28  13  15  1   
 29  13  40  1   
 30  15  16  1   
 31  15  17  1   
 32  15  41  1   
 33  16  18  1   
 34  16  42  1   
 35  16  43  1   
 36  17  19  1   
 37  17  44  1   
 38  17  45  1   
 39  18  19  1   
 40  18  20  1   
 41  18  46  1   
 42  19  21  1   
 43  19  47  1   
 44  20  48  1   
 45  21  22  1   
 46  21  49  1   
 47  21  50  1   
 48  22  23  ar  
 49  22  24  ar  
 50  23  25  ar  
 51  23  51  1   
 52  24  26  ar  
 53  24  52  1   
 54  25  27  ar  
 55  25  53  1   
 56  26  27  ar  
 57  26  54  1   
@<TRIPOS>SUBSTRUCTURE
  1 ****  13 GROUP 4 **** **** 0

# MOE 2024.06 (io_trps.svl 2023.06)
