@<TRIPOS>MOLECULE
Untitled Document
34 33 1 0 0 
SMALL
USER_CHARGES


@<TRIPOS>ATOM
  1 N        4.9010     7.3550    -1.2980 N.pl3 1 <1>  -0.9670 
  2 C        4.9020     6.4760    -0.3520 C.cat 1 <1>   1.2000 
  3 N        3.9070     6.3590     0.4860 N.pl3 1 <1>  -0.8440 
  4 N        5.9240     5.6950    -0.2430 N.pl3 1 <1>  -0.9670 
  5 C        2.6460     7.1340     0.5790 C.3   1 <1>   0.1680 
  6 C        1.4730     6.2040     0.2740 C.3   1 <1>  -0.1600 
  7 C        0.1360     6.9530     0.3600 C.3   1 <1>  -0.1600 
  8 C       -1.0400     6.0160     0.0560 C.3   1 <1>  -0.1600 
  9 C       -2.3770     6.7620     0.1430 C.3   1 <1>  -0.1600 
 10 C       -3.5530     5.8240    -0.1590 C.3   1 <1>  -0.1600 
 11 C       -4.8800     6.5740    -0.0710 C.3   1 <1>   0.3430 
 12 N       -5.9870     5.6380    -0.3680 N.4   1 <1>  -0.8530 
 13 H        5.6610     7.4660    -1.9610 H     1 <1>   0.4500 
 14 H        4.1130     7.9800    -1.4280 H     1 <1>   0.4500 
 15 H        3.9800     5.6280     1.1890 H     1 <1>   0.4500 
 16 H        6.7180     5.7520    -0.8730 H     1 <1>   0.4500 
 17 H        6.0020     4.9800     0.4740 H     1 <1>   0.4500 
 18 H        2.6460     7.9610    -0.1110 H     1 <1>   0.0800 
 19 H        2.5460     7.5330     1.5760 H     1 <1>   0.0800 
 20 H        1.4650     5.3920     0.9800 H     1 <1>   0.0800 
 21 H        1.5860     5.7980    -0.7170 H     1 <1>   0.0800 
 22 H        0.1330     7.7690    -0.3440 H     1 <1>   0.0800 
 23 H        0.0170     7.3640     1.3490 H     1 <1>   0.0800 
 24 H       -1.0360     5.2000     0.7600 H     1 <1>   0.0800 
 25 H       -0.9210     5.6030    -0.9330 H     1 <1>   0.0800 
 26 H       -2.3700     7.5790    -0.5600 H     1 <1>   0.0800 
 27 H       -2.4850     7.1750     1.1330 H     1 <1>   0.0800 
 28 H       -3.5430     5.0150     0.5520 H     1 <1>   0.0800 
 29 H       -3.4270     5.4200    -1.1500 H     1 <1>   0.0800 
 30 H       -4.8830     7.3890    -0.7790 H     1 <1>   0.0800 
 31 H       -4.9980     6.9850     0.9200 H     1 <1>   0.0800 
 32 H       -5.8860     5.2430    -1.3100 H     1 <1>   0.4500 
 33 H       -6.8960     6.1120    -0.3170 H     1 <1>   0.4500 
 34 H       -5.9950     4.8600     0.3020 H     1 <1>   0.4500 
@<TRIPOS>BOND
  1   1   2  ar  
  2   1  13  1   
  3   1  14  1   
  4   2   3  ar  
  5   2   4  ar  
  6   3   5  1   
  7   3  15  1   
  8   4  16  1   
  9   4  17  1   
 10   5   6  1   
 11   5  18  1   
 12   5  19  1   
 13   6   7  1   
 14   6  20  1   
 15   6  21  1   
 16   7   8  1   
 17   7  22  1   
 18   7  23  1   
 19   8   9  1   
 20   8  24  1   
 21   8  25  1   
 22   9  10  1   
 23   9  26  1   
 24   9  27  1   
 25  10  11  1   
 26  10  28  1   
 27  10  29  1   
 28  11  12  1   
 29  11  30  1   
 30  11  31  1   
 31  12  32  1   
 32  12  33  1   
 33  12  34  1   
@<TRIPOS>SUBSTRUCTURE
  1 ****   7 GROUP 4 **** **** 0

# MOE 2024.06 (io_trps.svl 2023.06)
