@<TRIPOS>MOLECULE
NONAME
41 43 1 0 0 
SMALL
USER_CHARGES


@<TRIPOS>ATOM
  1 S        0.1930     0.2620    -1.2310 S.o2  1 <1>   1.3330 
  2 O       -0.7900     1.1530    -1.8050 O.2   1 <1>  -0.6500 
  3 O        0.4230    -1.0320    -1.8310 O.2   1 <1>  -0.6500 
  4 N       -0.2460     0.0110     0.3910 N.am  1 <1>  -0.8490 
  5 C        1.7700     1.1110    -1.1260 C.3   1 <1>  -0.0550 
  6 C       -0.8060     1.2070     1.0340 C.3   1 <1>   0.1160 
  7 C       -1.1770    -1.1110     0.5400 C.3   1 <1>   0.1160 
  8 C        2.9330     0.2370    -0.6030 C.3   1 <1>  -0.0800 
  9 C        4.2990     0.9050    -0.6380 C.3   1 <1>   0.2200 
 10 C        2.8090    -0.1990     0.8620 C.3   1 <1>   0.1200 
 11 N        4.2020     2.3100    -0.1830 N.am  1 <1>  -0.7300 
 12 C        5.0430     0.0890     0.4100 C.3   1 <1>   0.1200 
 13 O        4.1000    -0.1930     1.3990 O.3   1 <1>  -0.5600 
 14 C        4.1830     3.4210    -0.9710 C.2   1 <1>   0.7160 
 15 O        4.3680     3.2890    -2.1680 O.2   1 <1>  -0.5700 
 16 C        3.9030     4.7170    -0.3780 C.2   1 <1>   0.1410 
 17 N        3.5450     4.8680     0.9420 N.2   1 <1>  -0.5650 
 18 C        3.9250     5.9440    -0.9900 C.2   1 <1>  -0.3020 
 19 C        3.3810     6.1420     1.0340 C.2   1 <1>   0.2420 
 20 N        3.5890     6.8710    -0.0780 N.pl3 1 <1>   0.3340 
 21 S        2.9110     7.1970     2.3800 S.3   1 <1>  -0.1570 
 22 C        3.3890     8.2590     0.0800 C.2   1 <1>  -0.1810 
 23 C        3.0240     8.6270     1.3200 C.2   1 <1>  -0.0490 
 24 H        2.0320     1.4520    -2.1090 H     1 <1>   0.0800 
 25 H        1.6580     1.9790    -0.5080 H     1 <1>   0.0800 
 26 H       -0.9910     1.0130     2.0770 H     1 <1>   0.0800 
 27 H       -1.7320     1.4910     0.5610 H     1 <1>   0.0800 
 28 H       -0.1160     2.0290     0.9610 H     1 <1>   0.0800 
 29 H       -1.4240    -1.2570     1.5770 H     1 <1>   0.0800 
 30 H       -0.7240    -2.0170     0.1730 H     1 <1>   0.0800 
 31 H       -2.0790    -0.9260    -0.0190 H     1 <1>   0.0800 
 32 H        2.9850    -0.6550    -1.2030 H     1 <1>   0.0800 
 33 H        4.7680     0.8500    -1.6070 H     1 <1>   0.0800 
 34 H        2.3930    -1.1880     0.9530 H     1 <1>   0.0800 
 35 H        2.2200     0.4950     1.4360 H     1 <1>   0.0800 
 36 H        4.0370     2.4460     0.8200 H     1 <1>   0.3700 
 37 H        5.8740     0.6180     0.8400 H     1 <1>   0.0800 
 38 H        5.3760    -0.8480    -0.0030 H     1 <1>   0.0800 
 39 H        4.1580     6.1790    -2.0120 H     1 <1>   0.1500 
 40 H        3.5400     8.8900    -0.7760 H     1 <1>   0.1500 
 41 H        2.7990     9.5800     1.7680 H     1 <1>   0.1500 
@<TRIPOS>BOND
  1   1   2  2   
  2   1   3  2   
  3   1   4  am  
  4   1   5  1   
  5   4   6  1   
  6   4   7  1   
  7   5   8  1   
  8   5  24  1   
  9   5  25  1   
 10   6  26  1   
 11   6  27  1   
 12   6  28  1   
 13   7  29  1   
 14   7  30  1   
 15   7  31  1   
 16   8   9  1   
 17   8  10  1   
 18   8  32  1   
 19   9  11  1   
 20   9  12  1   
 21   9  33  1   
 22  10  13  1   
 23  10  34  1   
 24  10  35  1   
 25  11  14  am  
 26  11  36  1   
 27  12  13  1   
 28  12  37  1   
 29  12  38  1   
 30  14  15  2   
 31  14  16  1   
 32  16  17  1   
 33  16  18  2   
 34  17  19  2   
 35  18  20  1   
 36  18  39  1   
 37  19  20  1   
 38  19  21  1   
 39  20  22  1   
 40  21  23  1   
 41  22  23  2   
 42  22  40  1   
 43  23  41  1   
@<TRIPOS>SUBSTRUCTURE
  1 ****  11 GROUP 4 **** **** 0

# MOE 2024.06 (io_trps.svl 2023.06)
