@<TRIPOS>MOLECULE
NONAME
51 53 1 0 0 
SMALL
USER_CHARGES


@<TRIPOS>ATOM
  1 S        0.1420     0.2450     1.4600 S.o2  1 <1>   1.5760 
  2 O        1.4250    -0.2060     1.9550 O.2   1 <1>  -0.6500 
  3 O       -0.8230     0.8380     2.3570 O.2   1 <1>  -0.6500 
  4 N       -0.6020    -1.0220     0.6250 N.am  1 <1>  -0.8490 
  5 N        0.4340     1.3170     0.1820 N.am  1 <1>  -0.8490 
  6 C       -0.6620    -2.2670     1.4100 C.3   1 <1>   0.1960 
  7 C       -1.8670    -0.6080     0.0020 C.3   1 <1>   0.1960 
  8 C        0.7800     2.6510     0.6700 C.3   1 <1>   0.1160 
  9 C        1.4690     0.8270    -0.7310 C.3   1 <1>   0.1160 
 10 C       -2.0750    -2.5850     1.9120 C.3   1 <1>  -0.1600 
 11 C       -2.6560    -1.8320    -0.4500 C.3   1 <1>  -0.1600 
 12 C       -3.1270    -2.6250     0.7830 C.3   1 <1>   0.4240 
 13 O       -4.2330    -1.9360     1.3150 O.3   1 <1>  -0.5600 
 14 C       -3.4840    -4.0840     0.4160 C.ar  1 <1>  -0.1430 
 15 C       -5.4960    -2.2130     0.7940 C.3   1 <1>   0.1200 
 16 C       -4.7720    -4.5770     0.5830 C.ar  1 <1>  -0.1430 
 17 C       -2.5170    -4.9430    -0.0910 C.ar  1 <1>  -0.1500 
 18 C       -5.8540    -3.6590     1.1160 C.3   1 <1>  -0.0170 
 19 C       -5.0730    -5.8930     0.2700 C.ar  1 <1>  -0.1500 
 20 C       -2.8000    -6.2570    -0.4220 C.ar  1 <1>   0.0820 
 21 C       -4.0980    -6.7550    -0.2250 C.ar  1 <1>   0.0820 
 22 O       -1.7400    -6.9580    -0.9190 O.3   1 <1>  -0.3630 
 23 O       -4.3830    -8.0620    -0.5020 O.3   1 <1>  -0.3630 
 24 C       -1.9180    -8.0210    -1.8280 C.3   1 <1>   0.0400 
 25 C       -5.5840    -8.6710    -0.0810 C.3   1 <1>   0.0400 
 26 H        0.0120    -2.2240     2.2500 H     1 <1>   0.0800 
 27 H       -0.3220    -3.0700     0.7820 H     1 <1>   0.0800 
 28 H       -1.6540     0.0240    -0.8440 H     1 <1>   0.0800 
 29 H       -2.4640    -0.0410     0.6990 H     1 <1>   0.0800 
 30 H       -0.0220     3.0380     1.2780 H     1 <1>   0.0800 
 31 H        0.9310     3.3220    -0.1570 H     1 <1>   0.0800 
 32 H        1.6780     2.6120     1.2650 H     1 <1>   0.0800 
 33 H        1.1950    -0.1430    -1.1120 H     1 <1>   0.0800 
 34 H        2.4150     0.7420    -0.2220 H     1 <1>   0.0800 
 35 H        1.5760     1.5000    -1.5640 H     1 <1>   0.0800 
 36 H       -2.3360    -1.8330     2.6350 H     1 <1>   0.0800 
 37 H       -2.0610    -3.5290     2.4250 H     1 <1>   0.0800 
 38 H       -2.0200    -2.4320    -1.0740 H     1 <1>   0.0800 
 39 H       -3.4930    -1.5320    -1.0490 H     1 <1>   0.0800 
 40 H       -5.4890    -2.0440    -0.2680 H     1 <1>   0.0800 
 41 H       -6.1970    -1.5390     1.2550 H     1 <1>   0.0800 
 42 H       -1.5120    -4.6020    -0.2450 H     1 <1>   0.1500 
 43 H       -6.8010    -3.8970     0.6670 H     1 <1>   0.0800 
 44 H       -5.9410    -3.7780     2.1810 H     1 <1>   0.0800 
 45 H       -6.0790    -6.2300     0.4200 H     1 <1>   0.1500 
 46 H       -0.9840    -8.1920    -2.3310 H     1 <1>   0.0800 
 47 H       -2.6780    -7.7510    -2.5410 H     1 <1>   0.0800 
 48 H       -2.2020    -8.9010    -1.2810 H     1 <1>   0.0800 
 49 H       -5.5250    -9.7190    -0.3140 H     1 <1>   0.0800 
 50 H       -6.4070    -8.2270    -0.6120 H     1 <1>   0.0800 
 51 H       -5.6900    -8.5390     0.9810 H     1 <1>   0.0800 
@<TRIPOS>BOND
  1   1   2  2   
  2   1   3  2   
  3   1   4  am  
  4   1   5  am  
  5   4   6  1   
  6   4   7  1   
  7   5   8  1   
  8   5   9  1   
  9   6  10  1   
 10   6  26  1   
 11   6  27  1   
 12   7  11  1   
 13   7  28  1   
 14   7  29  1   
 15   8  30  1   
 16   8  31  1   
 17   8  32  1   
 18   9  33  1   
 19   9  34  1   
 20   9  35  1   
 21  10  12  1   
 22  10  36  1   
 23  10  37  1   
 24  11  12  1   
 25  11  38  1   
 26  11  39  1   
 27  12  13  1   
 28  12  14  1   
 29  13  15  1   
 30  14  16  ar  
 31  14  17  ar  
 32  15  18  1   
 33  15  40  1   
 34  15  41  1   
 35  16  18  1   
 36  16  19  ar  
 37  17  20  ar  
 38  17  42  1   
 39  18  43  1   
 40  18  44  1   
 41  19  21  ar  
 42  19  45  1   
 43  20  21  ar  
 44  20  22  1   
 45  21  23  1   
 46  22  24  1   
 47  23  25  1   
 48  24  46  1   
 49  24  47  1   
 50  24  48  1   
 51  25  49  1   
 52  25  50  1   
 53  25  51  1   
@<TRIPOS>SUBSTRUCTURE
  1 ****  12 GROUP 4 **** **** 0

# MOE 2024.06 (io_trps.svl 2023.06)
