@<TRIPOS>MOLECULE
NONAME
49 51 1 0 0 
SMALL
USER_CHARGES


@<TRIPOS>ATOM
  1 S        0.2640     0.1020     2.0380 S.o2  1 <1>   1.4470 
  2 O       -0.2540    -0.8490     2.9980 O.2   1 <1>  -0.6500 
  3 O        0.5470     1.4580     2.4620 O.2   1 <1>  -0.6500 
  4 N       -0.8710     0.2110     0.7850 N.am  1 <1>  -0.8490 
  5 C        1.7080    -0.6230     1.2150 C.ar  1 <1>  -0.0090 
  6 C       -2.2200     0.4720     1.3130 C.3   1 <1>   0.1960 
  7 C       -0.5060     1.2320    -0.2020 C.3   1 <1>   0.1960 
  8 C        2.8630     0.1150     0.9950 C.ar  1 <1>  -0.1500 
  9 C        1.6860    -1.9340     0.7620 C.ar  1 <1>  -0.1500 
 10 C       -3.2870     0.3690     0.2040 C.3   1 <1>   0.0000 
 11 C       -1.4680     1.1880    -1.3940 C.3   1 <1>  -0.1600 
 12 C        3.9660    -0.4180     0.3490 C.ar  1 <1>   0.0830 
 13 C        2.7710    -2.4910     0.1080 C.ar  1 <1>  -0.1500 
 14 C       -4.6950     0.5970     0.7890 C.3   1 <1>   0.2000 
 15 C       -2.9300     1.3500    -0.9460 C.3   1 <1>  -0.1600 
 16 C       -3.4230    -1.0700    -0.3300 C.3   1 <1>  -0.1600 
 17 O        5.0170     0.4390     0.2210 O.3   1 <1>  -0.3630 
 18 C        3.9240    -1.7430    -0.1170 C.ar  1 <1>   0.0830 
 19 O       -5.0220     1.9340     0.9090 O.3   1 <1>  -0.6800 
 20 C       -5.6720    -0.1060    -0.1520 C.3   1 <1>  -0.1600 
 21 C       -4.8500    -1.1790    -0.8790 C.3   1 <1>  -0.1600 
 22 C        6.3490    -0.0240     0.2080 C.3   1 <1>   0.0400 
 23 O        4.9890    -2.2670    -0.7900 O.3   1 <1>  -0.3630 
 24 C        4.9540    -3.5480    -1.3790 C.3   1 <1>   0.0400 
 25 H       -2.4530    -0.2450     2.0820 H     1 <1>   0.0800 
 26 H       -2.2530     1.4530     1.7600 H     1 <1>   0.0800 
 27 H       -0.5350     2.2100     0.2530 H     1 <1>   0.0800 
 28 H        0.4950     1.0580    -0.5580 H     1 <1>   0.0800 
 29 H        2.9140     1.1340     1.3360 H     1 <1>   0.1500 
 30 H        0.7990    -2.5260     0.9230 H     1 <1>   0.1500 
 31 H       -1.2140     1.9780    -2.0780 H     1 <1>   0.0800 
 32 H       -1.3320     0.2590    -1.9160 H     1 <1>   0.0800 
 33 H        2.6920    -3.5100    -0.2180 H     1 <1>   0.1500 
 34 H       -4.7620     0.1520     1.7680 H     1 <1>   0.0800 
 35 H       -3.5850     1.2130    -1.7880 H     1 <1>   0.0800 
 36 H       -3.0440     2.3630    -0.6020 H     1 <1>   0.0800 
 37 H       -2.6870    -1.3230    -1.0700 H     1 <1>   0.0800 
 38 H       -3.3170    -1.7630     0.4880 H     1 <1>   0.0800 
 39 H       -5.0480     2.3450     0.0250 H     1 <1>   0.4000 
 40 H       -6.4720    -0.5530     0.4110 H     1 <1>   0.0800 
 41 H       -6.0810     0.5810    -0.8720 H     1 <1>   0.0800 
 42 H       -5.2510    -2.1650    -0.7120 H     1 <1>   0.0800 
 43 H       -4.8510    -0.9810    -1.9380 H     1 <1>   0.0800 
 44 H        6.9930     0.8010     0.4520 H     1 <1>   0.0800 
 45 H        6.5810    -0.3850    -0.7780 H     1 <1>   0.0800 
 46 H        6.4580    -0.8060     0.9380 H     1 <1>   0.0800 
 47 H        5.8880    -3.7070    -1.8870 H     1 <1>   0.0800 
 48 H        4.1440    -3.5850    -2.0870 H     1 <1>   0.0800 
 49 H        4.8300    -4.2860    -0.6070 H     1 <1>   0.0800 
@<TRIPOS>BOND
  1   1   2  2   
  2   1   3  2   
  3   1   4  am  
  4   1   5  1   
  5   4   6  1   
  6   4   7  1   
  7   5   8  ar  
  8   5   9  ar  
  9   6  10  1   
 10   6  25  1   
 11   6  26  1   
 12   7  11  1   
 13   7  27  1   
 14   7  28  1   
 15   8  12  ar  
 16   8  29  1   
 17   9  13  ar  
 18   9  30  1   
 19  10  14  1   
 20  10  15  1   
 21  10  16  1   
 22  11  15  1   
 23  11  31  1   
 24  11  32  1   
 25  12  17  1   
 26  12  18  ar  
 27  13  18  ar  
 28  13  33  1   
 29  14  19  1   
 30  14  20  1   
 31  14  34  1   
 32  15  35  1   
 33  15  36  1   
 34  16  21  1   
 35  16  37  1   
 36  16  38  1   
 37  17  22  1   
 38  18  23  1   
 39  19  39  1   
 40  20  21  1   
 41  20  40  1   
 42  20  41  1   
 43  21  42  1   
 44  21  43  1   
 45  22  44  1   
 46  22  45  1   
 47  22  46  1   
 48  23  24  1   
 49  24  47  1   
 50  24  48  1   
 51  24  49  1   
@<TRIPOS>SUBSTRUCTURE
  1 ****   4 GROUP 4 **** **** 0

# MOE 2024.06 (io_trps.svl 2023.06)
