@<TRIPOS>MOLECULE
NONAME
52 54 1 0 0 
SMALL
USER_CHARGES


@<TRIPOS>ATOM
  1 N        0.4230     0.9410     1.5360 N.ar  1 <1>  -0.6200 
  2 C        1.2290     1.3220     0.5640 C.ar  1 <1>   0.4100 
  3 C       -0.0370     1.9680     2.2400 C.ar  1 <1>   0.1600 
  4 N        1.7400     0.3140    -0.2610 N.pl3 1 <1>  -0.8380 
  5 C        1.5740     2.6900     0.3270 C.ar  1 <1>   0.4100 
  6 C        0.2890     3.2910     1.9980 C.ar  1 <1>   0.1600 
  7 C        2.4690    -0.7750     0.4470 C.3   1 <1>   0.1290 
  8 C        0.7570    -0.2250    -1.2400 C.3   1 <1>   0.1290 
  9 N        1.1090     3.7030     1.0320 N.ar  1 <1>  -0.6200 
 10 N        2.4190     3.0050    -0.7260 N.pl3 1 <1>  -0.8690 
 11 C        3.8140     3.4960    -0.4540 C.3   1 <1>   0.2090 
 12 C        3.9160     4.9510     0.1270 C.3   1 <1>   0.5030 
 13 N        2.7050     5.7400    -0.2870 N.4   1 <1>  -0.9590 
 14 C        5.2090     5.6740    -0.3260 C.3   1 <1>  -0.1600 
 15 C        4.0320     4.8970     1.6700 C.3   1 <1>  -0.1600 
 16 C        2.5420     5.8750    -1.7650 C.3   1 <1>   0.3430 
 17 C        2.4590     7.0290     0.4220 C.3   1 <1>   0.3430 
 18 C        6.0590     5.9370     0.9210 C.3   1 <1>  -0.1600 
 19 C        5.0760     5.9350     2.0820 C.3   1 <1>  -0.1600 
 20 C        1.1210     6.3390    -2.0880 C.3   1 <1>  -0.1600 
 21 C        1.0400     7.5200     0.1290 C.3   1 <1>  -0.1600 
 22 C        0.7780     7.6530    -1.3760 C.3   1 <1>  -0.1600 
 23 H       -0.7080     1.7350     3.0490 H     1 <1>   0.1500 
 24 H       -0.1440     4.0480     2.6270 H     1 <1>   0.1500 
 25 H        3.1070    -0.3560     1.2070 H     1 <1>   0.0800 
 26 H        3.0750    -1.3270    -0.2500 H     1 <1>   0.0800 
 27 H        1.7690    -1.4440     0.9170 H     1 <1>   0.0800 
 28 H        0.2280     0.5830    -1.7150 H     1 <1>   0.0800 
 29 H        0.0430    -0.8540    -0.7340 H     1 <1>   0.0800 
 30 H        1.2650    -0.8010    -1.9940 H     1 <1>   0.0800 
 31 H        2.4810     2.1270    -1.2710 H     1 <1>   0.4000 
 32 H        4.3430     3.4680    -1.3910 H     1 <1>   0.0800 
 33 H        4.3180     2.7950     0.1890 H     1 <1>   0.0800 
 34 H        1.9470     5.0800    -0.0070 H     1 <1>   0.4500 
 35 H        4.9850     6.6200    -0.7850 H     1 <1>   0.0800 
 36 H        5.7790     5.0920    -1.0280 H     1 <1>   0.0800 
 37 H        4.4120     3.9380     1.9750 H     1 <1>   0.0800 
 38 H        3.0970     5.0370     2.1800 H     1 <1>   0.0800 
 39 H        2.7140     4.9260    -2.2460 H     1 <1>   0.0800 
 40 H        3.2520     6.5880    -2.1490 H     1 <1>   0.0800 
 41 H        3.1750     7.7650     0.0960 H     1 <1>   0.0800 
 42 H        2.5640     6.9000     1.4850 H     1 <1>   0.0800 
 43 H        6.6030     6.8650     0.8560 H     1 <1>   0.0800 
 44 H        6.7650     5.1330     1.0540 H     1 <1>   0.0800 
 45 H        5.5560     5.6780     3.0120 H     1 <1>   0.0800 
 46 H        4.6290     6.9090     2.1830 H     1 <1>   0.0800 
 47 H        0.4280     5.5690    -1.7950 H     1 <1>   0.0800 
 48 H        1.0270     6.4710    -3.1510 H     1 <1>   0.0800 
 49 H        0.8920     8.4740     0.6040 H     1 <1>   0.0800 
 50 H        0.3360     6.8300     0.5620 H     1 <1>   0.0800 
 51 H       -0.2560     7.9020    -1.5470 H     1 <1>   0.0800 
 52 H        1.3810     8.4490    -1.7780 H     1 <1>   0.0800 
@<TRIPOS>BOND
  1   1   2  ar  
  2   1   3  ar  
  3   2   4  1   
  4   2   5  ar  
  5   3   6  ar  
  6   3  23  1   
  7   4   7  1   
  8   4   8  1   
  9   5   9  ar  
 10   5  10  1   
 11   6   9  ar  
 12   6  24  1   
 13   7  25  1   
 14   7  26  1   
 15   7  27  1   
 16   8  28  1   
 17   8  29  1   
 18   8  30  1   
 19  10  11  1   
 20  10  31  1   
 21  11  12  1   
 22  11  32  1   
 23  11  33  1   
 24  12  13  1   
 25  12  14  1   
 26  12  15  1   
 27  13  16  1   
 28  13  17  1   
 29  13  34  1   
 30  14  18  1   
 31  14  35  1   
 32  14  36  1   
 33  15  19  1   
 34  15  37  1   
 35  15  38  1   
 36  16  20  1   
 37  16  39  1   
 38  16  40  1   
 39  17  21  1   
 40  17  41  1   
 41  17  42  1   
 42  18  19  1   
 43  18  43  1   
 44  18  44  1   
 45  19  45  1   
 46  19  46  1   
 47  20  22  1   
 48  20  47  1   
 49  20  48  1   
 50  21  22  1   
 51  21  49  1   
 52  21  50  1   
 53  22  51  1   
 54  22  52  1   
@<TRIPOS>SUBSTRUCTURE
  1 ****  10 GROUP 4 **** **** 0

# MOE 2024.06 (io_trps.svl 2023.06)
