@<TRIPOS>MOLECULE
NONAME
24 25 1 0 0 
SMALL
USER_CHARGES


@<TRIPOS>ATOM
  1 N       -0.2830    -0.2790    -0.9930 N.ar  1 <1>  -0.6200 
  2 C       -0.3190    -1.5390    -0.6110 C.ar  1 <1>   0.1600 
  3 C       -1.4140     0.3890    -0.8560 C.ar  1 <1>   0.1600 
  4 C       -1.4390    -2.1980    -0.1070 C.ar  1 <1>  -0.1080 
  5 C       -2.5810    -0.1530    -0.3490 C.ar  1 <1>  -0.1500 
  6 C       -2.6140    -1.4750     0.0450 C.ar  1 <1>  -0.1440 
  7 C       -1.3790    -3.6770     0.2720 C.3   1 <1>   0.1080 
  8 C       -3.9070    -2.0430     0.6190 C.3   1 <1>  -0.0960 
  9 C       -0.1880    -4.5040    -0.2730 C.3   1 <1>   0.4720 
 10 C       -2.2430    -4.5700    -0.6470 C.3   1 <1>   0.4720 
 11 N       -1.1610    -5.6050    -0.5730 N.4   1 <1>  -0.8440 
 12 H        0.6160    -2.0590    -0.7140 H     1 <1>   0.1500 
 13 H       -1.4100     1.4230    -1.1590 H     1 <1>   0.1500 
 14 H       -3.4520     0.4720    -0.2670 H     1 <1>   0.1500 
 15 H       -1.5590    -3.8600     1.3180 H     1 <1>   0.0000 
 16 H       -3.7120    -2.6440     1.4890 H     1 <1>   0.0800 
 17 H       -4.4210    -2.6320    -0.1190 H     1 <1>   0.0800 
 18 H       -4.5640    -1.2460     0.9210 H     1 <1>   0.0800 
 19 H        0.5350    -4.7890     0.4700 H     1 <1>   0.0000 
 20 H        0.2310    -4.1070    -1.1800 H     1 <1>   0.0000 
 21 H       -2.3400    -4.1820    -1.6450 H     1 <1>   0.0000 
 22 H       -3.1630    -4.9070    -0.2050 H     1 <1>   0.0000 
 23 H       -1.2830    -6.2520     0.2130 H     1 <1>   0.4500 
 24 H       -0.9850    -6.0780    -1.4660 H     1 <1>   0.4500 
@<TRIPOS>BOND
  1   1   2  ar  
  2   1   3  ar  
  3   2   4  ar  
  4   2  12  1   
  5   3   5  ar  
  6   3  13  1   
  7   4   6  ar  
  8   4   7  1   
  9   5   6  ar  
 10   5  14  1   
 11   6   8  1   
 12   7   9  1   
 13   7  10  1   
 14   7  15  1   
 15   8  16  1   
 16   8  17  1   
 17   8  18  1   
 18   9  11  1   
 19   9  19  1   
 20   9  20  1   
 21  10  11  1   
 22  10  21  1   
 23  10  22  1   
 24  11  23  1   
 25  11  24  1   
@<TRIPOS>SUBSTRUCTURE
  1 ****   4 GROUP 4 **** **** 0

# MOE 2024.06 (io_trps.svl 2023.06)
