@<TRIPOS>MOLECULE
NONAME
47 50 1 0 0 
SMALL
USER_CHARGES


@<TRIPOS>ATOM
  1 CL      -1.0040    -0.4230    -1.1990 Cl    1 <1>  -0.1770 
  2 C       -2.1730     0.6600    -0.4800 C.ar  1 <1>   0.1770 
  3 C       -3.2300     0.1310     0.2620 C.ar  1 <1>  -0.1440 
  4 C       -2.0200     2.0240    -0.6790 C.ar  1 <1>  -0.1500 
  5 C       -4.1660     0.9920     0.8270 C.ar  1 <1>  -0.1500 
  6 C       -3.3660    -1.3660     0.4540 C.3   1 <1>   0.4870 
  7 C       -2.9680     2.8500    -0.1110 C.ar  1 <1>   0.0830 
  8 C       -4.0080     2.3480     0.6180 C.ar  1 <1>   0.0830 
  9 N       -3.7340    -2.0110    -0.8390 N.4   1 <1>  -0.9590 
 10 O       -3.0440     4.1830    -0.1610 O.3   1 <1>  -0.3630 
 11 O       -4.7860     3.3430     1.0550 O.3   1 <1>  -0.3620 
 12 C       -5.0460    -1.5010    -1.3590 C.3   1 <1>   0.3430 
 13 C       -3.9030    -3.4850    -0.6430 C.3   1 <1>   0.3430 
 14 C       -4.1950     4.5590     0.5950 C.3   1 <1>   0.4000 
 15 C       -6.0960    -2.4810    -0.8360 C.3   1 <1>   0.2000 
 16 C       -5.3650    -3.8140    -0.9620 C.3   1 <1>  -0.0800 
 17 O       -6.3170    -2.2160     0.5220 O.3   1 <1>  -0.5600 
 18 C       -5.9290    -4.9690    -0.1120 C.3   1 <1>   0.0200 
 19 C       -7.4190    -1.4010     0.7910 C.3   1 <1>   0.0400 
 20 C       -4.9900    -6.1590    -0.1510 C.2   1 <1>  -0.0400 
 21 O       -4.5100    -6.5720    -1.2940 O.3   1 <1>  -0.0190 
 22 C       -4.4820    -6.9380     0.8150 C.2   1 <1>  -0.1500 
 23 N       -3.6950    -7.5710    -1.1440 N.2   1 <1>  -0.4100 
 24 C       -3.6650    -7.8240     0.1160 C.2   1 <1>   0.1080 
 25 C       -2.8500    -8.9340     0.7420 C.3   1 <1>  -0.0590 
 26 H       -1.2040     2.4280    -1.2490 H     1 <1>   0.1500 
 27 H       -4.9960     0.6410     1.4160 H     1 <1>   0.1500 
 28 H       -4.1250    -1.5680     1.1940 H     1 <1>   0.0800 
 29 H       -2.4310    -1.7660     0.8120 H     1 <1>   0.0800 
 30 H       -2.9770    -1.8110    -1.5090 H     1 <1>   0.4500 
 31 H       -5.2560    -0.4930    -1.0440 H     1 <1>   0.0800 
 32 H       -5.0410    -1.5380    -2.4360 H     1 <1>   0.0800 
 33 H       -3.2440    -4.0460    -1.2880 H     1 <1>   0.0800 
 34 H       -3.6910    -3.7510     0.3810 H     1 <1>   0.0800 
 35 H       -3.8940     5.1570     1.4370 H     1 <1>   0.0800 
 36 H       -4.8890     5.0830    -0.0380 H     1 <1>   0.0800 
 37 H       -7.0250    -2.4580    -1.3820 H     1 <1>   0.0800 
 38 H       -5.4010    -4.1170    -1.9940 H     1 <1>   0.0800 
 39 H       -6.8900    -5.2650    -0.4950 H     1 <1>   0.0800 
 40 H       -6.0590    -4.6710     0.9140 H     1 <1>   0.0800 
 41 H       -7.4750    -1.2510     1.8560 H     1 <1>   0.0800 
 42 H       -8.3170    -1.8920     0.4540 H     1 <1>   0.0800 
 43 H       -7.3000    -0.4520     0.2990 H     1 <1>   0.0800 
 44 H       -4.6380    -6.9200     1.8780 H     1 <1>   0.1500 
 45 H       -2.1600    -8.5250     1.4570 H     1 <1>   0.0800 
 46 H       -2.2960    -9.4560    -0.0170 H     1 <1>   0.0800 
 47 H       -3.5020    -9.6300     1.2360 H     1 <1>   0.0800 
@<TRIPOS>BOND
  1   1   2  1   
  2   2   3  ar  
  3   2   4  ar  
  4   3   5  ar  
  5   3   6  1   
  6   4   7  ar  
  7   4  26  1   
  8   5   8  ar  
  9   5  27  1   
 10   6   9  1   
 11   6  28  1   
 12   6  29  1   
 13   7   8  ar  
 14   7  10  1   
 15   8  11  1   
 16   9  12  1   
 17   9  13  1   
 18   9  30  1   
 19  10  14  1   
 20  11  14  1   
 21  12  15  1   
 22  12  31  1   
 23  12  32  1   
 24  13  16  1   
 25  13  33  1   
 26  13  34  1   
 27  14  35  1   
 28  14  36  1   
 29  15  16  1   
 30  15  17  1   
 31  15  37  1   
 32  16  18  1   
 33  16  38  1   
 34  17  19  1   
 35  18  20  1   
 36  18  39  1   
 37  18  40  1   
 38  19  41  1   
 39  19  42  1   
 40  19  43  1   
 41  20  21  1   
 42  20  22  2   
 43  21  23  1   
 44  22  24  1   
 45  22  44  1   
 46  23  24  2   
 47  24  25  1   
 48  25  45  1   
 49  25  46  1   
 50  25  47  1   
@<TRIPOS>SUBSTRUCTURE
  1 ****   9 GROUP 4 **** **** 0

# MOE 2024.06 (io_trps.svl 2023.06)
