@<TRIPOS>MOLECULE
NONAME
44 47 1 0 0 
SMALL
USER_CHARGES


@<TRIPOS>ATOM
  1 O       -1.5300     1.3200     2.1240 O.2   1 <1>  -0.5700 
  2 C       -2.2060     1.2260     1.1110 C.2   1 <1>   0.7160 
  3 N       -3.3970     0.5230     1.1970 N.am  1 <1>  -0.6600 
  4 C       -1.7160     1.8620    -0.1080 C.2   1 <1>   0.2030 
  5 C       -3.6400    -0.4910     2.2590 C.3   1 <1>   0.1400 
  6 C       -4.5240     0.6320     0.2310 C.3   1 <1>   0.1400 
  7 N       -2.0380     1.6080    -1.3460 N.2   1 <1>  -0.4100 
  8 C       -0.7600     2.8690    -0.1190 C.2   1 <1>  -0.1500 
  9 C       -3.8180    -1.8640     1.6020 C.3   1 <1>  -0.1600 
 10 C       -4.6990    -0.7120    -0.4770 C.3   1 <1>  -0.1600 
 11 O       -1.3700     2.3820    -2.1660 O.3   1 <1>  -0.0190 
 12 C       -0.6000     3.1370    -1.4170 C.2   1 <1>  -0.0100 
 13 C       -4.9240    -1.8610     0.5290 C.3   1 <1>   0.4240 
 14 O       -6.0900    -1.5380     1.2570 O.3   1 <1>  -0.5600 
 15 C       -5.0480    -3.2480    -0.1660 C.ar  1 <1>  -0.1430 
 16 C       -7.3180    -1.8810     0.7050 C.3   1 <1>   0.1200 
 17 C       -3.9950    -3.8100    -0.9020 C.ar  1 <1>   0.0830 
 18 C       -6.2380    -3.9690    -0.0710 C.ar  1 <1>  -0.1430 
 19 C       -7.4190    -3.3980     0.6850 C.3   1 <1>  -0.0170 
 20 O       -2.8360    -3.1120    -1.0280 O.3   1 <1>  -0.3630 
 21 C       -4.1420    -5.0610    -1.4960 C.ar  1 <1>  -0.1500 
 22 C       -6.3730    -5.2130    -0.6660 C.ar  1 <1>  -0.1500 
 23 C       -1.8010    -3.4980    -1.9050 C.3   1 <1>   0.0400 
 24 C       -5.3260    -5.7600    -1.3780 C.ar  1 <1>  -0.1500 
 25 H       -4.5260    -0.2240     2.8090 H     1 <1>   0.0800 
 26 H       -2.8160    -0.5290     2.9510 H     1 <1>   0.0800 
 27 H       -4.3550     1.4150    -0.4850 H     1 <1>   0.0800 
 28 H       -5.4220     0.8780     0.7710 H     1 <1>   0.0800 
 29 H       -0.2880     3.2950     0.7480 H     1 <1>   0.1500 
 30 H       -4.0580    -2.5970     2.3490 H     1 <1>   0.0800 
 31 H       -2.8740    -2.1420     1.1790 H     1 <1>   0.0800 
 32 H       -3.8150    -0.8880    -1.0570 H     1 <1>   0.0800 
 33 H       -5.5160    -0.6620    -1.1690 H     1 <1>   0.0800 
 34 H        0.0420     3.8510    -1.9000 H     1 <1>   0.1500 
 35 H       -7.3930    -1.4710    -0.2870 H     1 <1>   0.0800 
 36 H       -8.0890    -1.4580     1.3240 H     1 <1>   0.0800 
 37 H       -8.3410    -3.6840     0.2120 H     1 <1>   0.0800 
 38 H       -7.4230    -3.7720     1.6930 H     1 <1>   0.0800 
 39 H       -3.3460    -5.5130    -2.0540 H     1 <1>   0.1500 
 40 H       -7.2950    -5.7600    -0.5790 H     1 <1>   0.1500 
 41 H       -1.0450    -2.7330    -1.8830 H     1 <1>   0.0800 
 42 H       -2.2010    -3.5870    -2.8990 H     1 <1>   0.0800 
 43 H       -1.3860    -4.4310    -1.5670 H     1 <1>   0.0800 
 44 H       -5.4330    -6.7270    -1.8370 H     1 <1>   0.1500 
@<TRIPOS>BOND
  1   1   2  2   
  2   2   3  am  
  3   2   4  1   
  4   3   5  1   
  5   3   6  1   
  6   4   7  2   
  7   4   8  1   
  8   5   9  1   
  9   5  25  1   
 10   5  26  1   
 11   6  10  1   
 12   6  27  1   
 13   6  28  1   
 14   7  11  1   
 15   8  12  2   
 16   8  29  1   
 17   9  13  1   
 18   9  30  1   
 19   9  31  1   
 20  10  13  1   
 21  10  32  1   
 22  10  33  1   
 23  11  12  1   
 24  12  34  1   
 25  13  14  1   
 26  13  15  1   
 27  14  16  1   
 28  15  17  ar  
 29  15  18  ar  
 30  16  19  1   
 31  16  35  1   
 32  16  36  1   
 33  17  20  1   
 34  17  21  ar  
 35  18  19  1   
 36  18  22  ar  
 37  19  37  1   
 38  19  38  1   
 39  20  23  1   
 40  21  24  ar  
 41  21  39  1   
 42  22  24  ar  
 43  22  40  1   
 44  23  41  1   
 45  23  42  1   
 46  23  43  1   
 47  24  44  1   
@<TRIPOS>SUBSTRUCTURE
  1 ****  10 GROUP 4 **** **** 0

# MOE 2024.06 (io_trps.svl 2023.06)
