@<TRIPOS>MOLECULE
NONAME
50 53 1 0 0 
SMALL
USER_CHARGES


@<TRIPOS>ATOM
  1 O       -1.9390     0.4430    -1.7940 O.2   1 <1>  -0.5700 
  2 C       -1.9230     0.6200    -0.5920 C.2   1 <1>   0.5440 
  3 N       -2.0970    -0.4610     0.2210 N.am  1 <1>  -0.7300 
  4 C       -1.7580     1.9370    -0.0190 C.ar  1 <1>   0.0860 
  5 C       -2.1980    -1.8690    -0.2340 C.3   1 <1>   0.2200 
  6 C       -0.6700     2.7880    -0.3440 C.ar  1 <1>   0.0000 
  7 C       -2.6640     2.4150     0.8920 C.ar  1 <1>  -0.1500 
  8 C       -3.6320    -2.3760    -0.1600 C.3   1 <1>  -0.0800 
  9 C       -1.5330    -2.7660     0.8000 C.3   1 <1>   0.1200 
 10 C       -0.5950     4.0520     0.2870 C.ar  1 <1>   0.3100 
 11 C        0.3500     2.4350    -1.2550 C.ar  1 <1>  -0.1500 
 12 C       -2.5100     3.6770     1.4640 C.ar  1 <1>   0.1660 
 13 C       -3.7660    -2.8270     1.2990 C.3   1 <1>   0.1200 
 14 C       -4.7190    -1.3890    -0.6240 C.3   1 <1>  -0.0170 
 15 O       -2.4710    -2.8920     1.8240 O.3   1 <1>  -0.5600 
 16 N       -1.5260     4.4680     1.1860 N.ar  1 <1>  -0.6200 
 17 C        0.4860     4.9120    -0.0210 C.ar  1 <1>  -0.1430 
 18 C        1.3850     3.2830    -1.5350 C.ar  1 <1>  -0.1500 
 19 C       -3.5290     4.1800     2.4650 C.3   1 <1>  -0.0970 
 20 C       -6.0880    -2.0510    -0.6200 C.ar  1 <1>  -0.1430 
 21 C        1.4530     4.5300    -0.9140 C.ar  1 <1>  -0.1500 
 22 C        0.5820     6.2810     0.6440 C.3   1 <1>  -0.0970 
 23 C       -6.9700    -1.9130     0.4330 C.ar  1 <1>  -0.1500 
 24 C       -6.5180    -2.8290    -1.6760 C.ar  1 <1>  -0.1500 
 25 C       -8.2010    -2.5470     0.3830 C.ar  1 <1>   0.1600 
 26 C       -7.7700    -3.4190    -1.6270 C.ar  1 <1>   0.1600 
 27 N       -8.6210    -3.2990    -0.6220 N.ar  1 <1>  -0.6200 
 28 H       -2.0690    -0.3570     1.2380 H     1 <1>   0.3700 
 29 H       -1.7650    -1.9850    -1.2140 H     1 <1>   0.0800 
 30 H       -3.5120     1.8180     1.1710 H     1 <1>   0.1500 
 31 H       -3.6980    -3.2560    -0.7750 H     1 <1>   0.0800 
 32 H       -0.6190    -2.3520     1.1890 H     1 <1>   0.0800 
 33 H       -1.3500    -3.7470     0.3950 H     1 <1>   0.0800 
 34 H        0.3150     1.4790    -1.7470 H     1 <1>   0.1500 
 35 H       -4.2240    -3.7990     1.3740 H     1 <1>   0.0800 
 36 H       -4.3200    -2.1170     1.8880 H     1 <1>   0.0800 
 37 H       -4.4900    -1.0490    -1.6200 H     1 <1>   0.0800 
 38 H       -4.7390    -0.5230     0.0140 H     1 <1>   0.0800 
 39 H        2.1540     3.0010    -2.2340 H     1 <1>   0.1500 
 40 H       -4.3210     3.4700     2.6110 H     1 <1>   0.0800 
 41 H       -3.9520     5.1030     2.1110 H     1 <1>   0.0800 
 42 H       -3.0450     4.3630     3.4070 H     1 <1>   0.0800 
 43 H        2.2780     5.1790    -1.1540 H     1 <1>   0.1500 
 44 H        1.4510     6.8190     0.3100 H     1 <1>   0.0800 
 45 H        0.6400     6.1650     1.7110 H     1 <1>   0.0800 
 46 H       -0.2920     6.8620     0.4090 H     1 <1>   0.0800 
 47 H       -6.7160    -1.3200     1.2920 H     1 <1>   0.1500 
 48 H       -5.8910    -2.9810    -2.5350 H     1 <1>   0.1500 
 49 H       -8.8760    -2.4300     1.2130 H     1 <1>   0.1500 
 50 H       -8.0870    -4.0220    -2.4600 H     1 <1>   0.1500 
@<TRIPOS>BOND
  1   1   2  2   
  2   2   3  am  
  3   2   4  1   
  4   3   5  1   
  5   3  28  1   
  6   4   6  ar  
  7   4   7  ar  
  8   5   8  1   
  9   5   9  1   
 10   5  29  1   
 11   6  10  ar  
 12   6  11  ar  
 13   7  12  ar  
 14   7  30  1   
 15   8  13  1   
 16   8  14  1   
 17   8  31  1   
 18   9  15  1   
 19   9  32  1   
 20   9  33  1   
 21  10  16  ar  
 22  10  17  ar  
 23  11  18  ar  
 24  11  34  1   
 25  12  16  ar  
 26  12  19  1   
 27  13  15  1   
 28  13  35  1   
 29  13  36  1   
 30  14  20  1   
 31  14  37  1   
 32  14  38  1   
 33  17  21  ar  
 34  17  22  1   
 35  18  21  ar  
 36  18  39  1   
 37  19  40  1   
 38  19  41  1   
 39  19  42  1   
 40  20  23  ar  
 41  20  24  ar  
 42  21  43  1   
 43  22  44  1   
 44  22  45  1   
 45  22  46  1   
 46  23  25  ar  
 47  23  47  1   
 48  24  26  ar  
 49  24  48  1   
 50  25  27  ar  
 51  25  49  1   
 52  26  27  ar  
 53  26  50  1   
@<TRIPOS>SUBSTRUCTURE
  1 ****   2 GROUP 4 **** **** 0

# MOE 2024.06 (io_trps.svl 2023.06)
