@<TRIPOS>MOLECULE
NONAME
51 55 1 0 0 
SMALL
USER_CHARGES


@<TRIPOS>ATOM
  1 O       -0.9230    -0.1520     1.6720 O.2   1 <1>  -0.5700 
  2 C       -0.6180    -0.1920     0.5060 C.2   1 <1>   0.5690 
  3 N       -0.5940    -1.3630    -0.1740 N.am  1 <1>  -0.7300 
  4 C       -0.2680     1.1230    -0.1910 C.3   1 <1>   0.0610 
  5 C       -1.4510    -2.5030     0.2180 C.3   1 <1>   0.3200 
  6 C       -1.1910     2.2560     0.3280 C.3   1 <1>   0.4230 
  7 C       -0.5940     1.1850    -1.7140 C.3   1 <1>  -0.1600 
  8 C        1.2360     1.3950     0.1060 C.3   1 <1>  -0.0170 
  9 C       -2.8180    -2.3110    -0.4190 C.2   1 <1>   0.0060 
 10 N       -1.0800     3.2480    -0.7510 N.4   1 <1>  -0.9060 
 11 C       -2.6900     1.9240     0.1930 C.3   1 <1>  -0.1600 
 12 C       -1.5350     2.3940    -1.8420 C.3   1 <1>   0.4230 
 13 C        1.7130     2.8030    -0.2340 C.ar  1 <1>  -0.1440 
 14 N       -3.0410    -1.6070    -1.4850 N.2   1 <1>  -0.3380 
 15 N       -3.9420    -2.8420     0.0750 N.pl3 1 <1>   0.3340 
 16 C       -2.9210     2.0160    -1.3230 C.3   1 <1>  -0.1600 
 17 C        1.6360     3.8060     0.7220 C.ar  1 <1>  -0.1500 
 18 C        2.2070     3.1060    -1.4940 C.ar  1 <1>  -0.1500 
 19 N       -4.3420    -1.6420    -1.7230 N.2   1 <1>  -0.3380 
 20 C       -4.8810    -2.3860    -0.7900 C.2   1 <1>   0.1410 
 21 C       -4.2850    -3.6470     1.1590 C.2   1 <1>  -0.1810 
 22 C        2.0060     5.1020     0.4090 C.ar  1 <1>  -0.1500 
 23 C        2.5770     4.4010    -1.8080 C.ar  1 <1>  -0.1500 
 24 C       -6.2380    -2.7460    -0.5900 C.2   1 <1>  -0.1050 
 25 C       -5.5830    -3.9960     1.3610 C.2   1 <1>  -0.1500 
 26 C        2.4700     5.4010    -0.8590 C.ar  1 <1>  -0.1500 
 27 C       -6.5850    -3.5360     0.4650 C.2   1 <1>  -0.1500 
 28 H       -0.3990    -1.3600    -1.1770 H     1 <1>   0.3700 
 29 H       -1.0090    -3.4230    -0.1250 H     1 <1>   0.0800 
 30 H       -1.5390    -2.5420     1.2910 H     1 <1>   0.0800 
 31 H       -0.9140     2.6240     1.3040 H     1 <1>   0.0800 
 32 H       -1.0910     0.3060    -2.0840 H     1 <1>   0.0800 
 33 H        0.2820     1.3350    -2.3150 H     1 <1>   0.0800 
 34 H        1.4230     1.2260     1.1550 H     1 <1>   0.0800 
 35 H        1.8400     0.6780    -0.4240 H     1 <1>   0.0800 
 36 H       -1.6960     4.0500    -0.6010 H     1 <1>   0.4500 
 37 H       -0.0980     3.5550    -0.8650 H     1 <1>   0.4500 
 38 H       -2.9570     0.9560     0.5800 H     1 <1>   0.0800 
 39 H       -3.2780     2.6590     0.7140 H     1 <1>   0.0800 
 40 H       -1.5360     2.8630    -2.8140 H     1 <1>   0.0800 
 41 H       -3.6360     2.7850    -1.5600 H     1 <1>   0.0800 
 42 H       -3.2700     1.0880    -1.7440 H     1 <1>   0.0800 
 43 H        1.2930     3.5910     1.7210 H     1 <1>   0.1500 
 44 H        2.3210     2.3400    -2.2430 H     1 <1>   0.1500 
 45 H       -3.4880    -3.9660     1.8060 H     1 <1>   0.1500 
 46 H        1.9460     5.8780     1.1540 H     1 <1>   0.1500 
 47 H        2.9600     4.6330    -2.7880 H     1 <1>   0.1500 
 48 H       -6.9620    -2.3750    -1.2940 H     1 <1>   0.1500 
 49 H       -5.8850    -4.6180     2.1880 H     1 <1>   0.1500 
 50 H        2.7640     6.4090    -1.1020 H     1 <1>   0.1500 
 51 H       -7.6080    -3.8250     0.6420 H     1 <1>   0.1500 
@<TRIPOS>BOND
  1   1   2  2   
  2   2   3  am  
  3   2   4  1   
  4   3   5  1   
  5   3  28  1   
  6   4   6  1   
  7   4   7  1   
  8   4   8  1   
  9   5   9  1   
 10   5  29  1   
 11   5  30  1   
 12   6  10  1   
 13   6  11  1   
 14   6  31  1   
 15   7  12  1   
 16   7  32  1   
 17   7  33  1   
 18   8  13  1   
 19   8  34  1   
 20   8  35  1   
 21   9  14  2   
 22   9  15  1   
 23  10  12  1   
 24  10  36  1   
 25  10  37  1   
 26  11  16  1   
 27  11  38  1   
 28  11  39  1   
 29  12  16  1   
 30  12  40  1   
 31  13  17  ar  
 32  13  18  ar  
 33  14  19  1   
 34  15  20  1   
 35  15  21  1   
 36  16  41  1   
 37  16  42  1   
 38  17  22  ar  
 39  17  43  1   
 40  18  23  ar  
 41  18  44  1   
 42  19  20  2   
 43  20  24  1   
 44  21  25  2   
 45  21  45  1   
 46  22  26  ar  
 47  22  46  1   
 48  23  26  ar  
 49  23  47  1   
 50  24  27  2   
 51  24  48  1   
 52  25  27  1   
 53  25  49  1   
 54  26  50  1   
 55  27  51  1   
@<TRIPOS>SUBSTRUCTURE
  1 ****   2 GROUP 4 **** **** 0

# MOE 2024.06 (io_trps.svl 2023.06)
