@<TRIPOS>MOLECULE
NONAME
36 36 1 0 0 
SMALL
USER_CHARGES


@<TRIPOS>ATOM
  1 CL      -0.4140    -0.4070    -0.5830 Cl    1 <1>  -0.1770 
  2 C       -0.2740    -2.1340    -0.3770 C.ar  1 <1>   0.1770 
  3 C       -1.4190    -2.9030    -0.3090 C.ar  1 <1>  -0.1500 
  4 C        0.9820    -2.7040    -0.2840 C.ar  1 <1>  -0.1500 
  5 C       -1.3110    -4.2750    -0.1450 C.ar  1 <1>   0.0830 
  6 C        1.0930    -4.0750    -0.1200 C.ar  1 <1>  -0.1500 
  7 O       -2.4730    -4.9730    -0.0850 O.3   1 <1>  -0.3630 
  8 C       -0.0480    -4.8600    -0.0510 C.ar  1 <1>  -0.1500 
  9 C       -2.4850    -6.3670     0.1050 C.3   1 <1>   0.1200 
 10 C       -3.9530    -6.8090     0.1220 C.3   1 <1>   0.3430 
 11 N       -4.1150    -8.2910     0.2840 N.4   1 <1>  -0.9590 
 12 C       -5.5210    -8.6960     0.0190 C.3   1 <1>   0.5430 
 13 C       -3.6640    -8.7870     1.6270 C.3   1 <1>   0.2630 
 14 C       -5.5200   -10.1640    -0.2130 C.1   1 <1>  -0.2000 
 15 C       -5.4960   -11.3380    -0.3920 C.1   1 <1>  -0.2000 
 16 C       -5.4740   -12.8130    -0.6150 C.3   1 <1>   0.0400 
 17 C       -4.2290   -13.4340     0.0200 C.3   1 <1>  -0.2400 
 18 H       -2.3830    -2.4370    -0.3840 H     1 <1>   0.1500 
 19 H        1.8570    -2.0810    -0.3400 H     1 <1>   0.1500 
 20 H        2.0680    -4.5260    -0.0480 H     1 <1>   0.1500 
 21 H        0.0770    -5.9180     0.0750 H     1 <1>   0.1500 
 22 H       -2.0010    -6.5770     1.0420 H     1 <1>   0.0800 
 23 H       -1.9570    -6.8200    -0.7160 H     1 <1>   0.0800 
 24 H       -4.4010    -6.5000    -0.8090 H     1 <1>   0.0800 
 25 H       -4.4580    -6.2990     0.9260 H     1 <1>   0.0800 
 26 H       -3.5690    -8.7800    -0.4410 H     1 <1>   0.4500 
 27 H       -5.8960    -8.2020    -0.8630 H     1 <1>   0.0800 
 28 H       -6.1550    -8.4490     0.8540 H     1 <1>   0.0800 
 29 H       -4.2380    -8.3220     2.4130 H     1 <1>   0.0800 
 30 H       -2.6210    -8.5650     1.7830 H     1 <1>   0.0800 
 31 H       -3.7960    -9.8560     1.6950 H     1 <1>   0.0800 
 32 H       -5.4820   -13.0140    -1.6720 H     1 <1>   0.0800 
 33 H       -6.3580   -13.2510    -0.1850 H     1 <1>   0.0800 
 34 H       -3.3380   -13.0170    -0.4140 H     1 <1>   0.0800 
 35 H       -4.2260   -14.4970    -0.1470 H     1 <1>   0.0800 
 36 H       -4.2200   -13.2550     1.0810 H     1 <1>   0.0800 
@<TRIPOS>BOND
  1   1   2  1   
  2   2   3  ar  
  3   2   4  ar  
  4   3   5  ar  
  5   3  18  1   
  6   4   6  ar  
  7   4  19  1   
  8   5   7  1   
  9   5   8  ar  
 10   6   8  ar  
 11   6  20  1   
 12   7   9  1   
 13   8  21  1   
 14   9  10  1   
 15   9  22  1   
 16   9  23  1   
 17  10  11  1   
 18  10  24  1   
 19  10  25  1   
 20  11  12  1   
 21  11  13  1   
 22  11  26  1   
 23  12  14  1   
 24  12  27  1   
 25  12  28  1   
 26  13  29  1   
 27  13  30  1   
 28  13  31  1   
 29  14  15  3   
 30  15  16  1   
 31  16  17  1   
 32  16  32  1   
 33  16  33  1   
 34  17  34  1   
 35  17  35  1   
 36  17  36  1   
@<TRIPOS>SUBSTRUCTURE
  1 ****   9 GROUP 4 **** **** 0

# MOE 2024.06 (io_trps.svl 2023.06)
