@<TRIPOS>MOLECULE
NONAME
42 44 1 0 0 
SMALL
USER_CHARGES


@<TRIPOS>ATOM
  1 S        2.7940     0.7540    -1.3970 S.3   1 <1>  -0.0800 
  2 C        3.1210     1.3090     0.2340 C.2   1 <1>  -0.1100 
  3 C        1.5230     1.9450    -1.5960 C.2   1 <1>  -0.1100 
  4 C        2.3180     2.3420     0.5560 C.2   1 <1>  -0.1810 
  5 C        1.3970     2.6950    -0.4870 C.2   1 <1>  -0.1500 
  6 C        2.3550     3.1170     1.8610 C.3   1 <1>   0.3900 
  7 N        2.7740     4.5500     1.6700 N.pl3 1 <1>  -0.8380 
  8 C        3.6650     5.0610     0.7640 C.ar  1 <1>   0.7710 
  9 C        2.2510     5.4190     2.7800 C.3   1 <1>   0.1290 
 10 N        4.1460     6.2810     0.9670 N.ar  1 <1>  -0.6200 
 11 N        4.0460     4.3430    -0.3100 N.ar  1 <1>  -0.1790 
 12 C        5.0270     6.7790     0.1190 C.ar  1 <1>   0.4100 
 13 C        4.9250     4.8160    -1.2220 C.ar  1 <1>   0.2110 
 14 N        5.5270     8.0170     0.3790 N.pl3 1 <1>  -0.8380 
 15 C        5.4310     6.0530    -1.0180 C.ar  1 <1>  -0.1500 
 16 C        6.9000     8.4800    -0.0100 C.3   1 <1>   0.2090 
 17 C        4.7770     9.0370     1.1750 C.3   1 <1>   0.2090 
 18 C        6.8120     9.7780    -0.8310 C.3   1 <1>   0.2000 
 19 C        4.6640    10.3370     0.3670 C.3   1 <1>  -0.1600 
 20 O        8.0860    10.2500    -1.0950 O.3   1 <1>  -0.6800 
 21 C        6.0360    10.8680    -0.0850 C.3   1 <1>  -0.1600 
 22 H        3.8960     0.7920     0.7780 H     1 <1>   0.1500 
 23 H        0.9900     1.9490    -2.5330 H     1 <1>   0.1500 
 24 H        0.6760     3.4880    -0.3540 H     1 <1>   0.1500 
 25 H        3.0350     2.6430     2.5500 H     1 <1>   0.0800 
 26 H        1.3710     3.0790     2.2970 H     1 <1>   0.0800 
 27 H        1.2490     5.1320     3.0510 H     1 <1>   0.0800 
 28 H        2.2190     6.4550     2.4860 H     1 <1>   0.0800 
 29 H        2.8860     5.3290     3.6460 H     1 <1>   0.0800 
 30 H        3.5810     3.4400    -0.4150 H     1 <1>   0.4570 
 31 H        5.1820     4.2050    -2.0730 H     1 <1>   0.1500 
 32 H        6.1180     6.4960    -1.7130 H     1 <1>   0.1500 
 33 H        7.4230     7.7300    -0.5730 H     1 <1>   0.0800 
 34 H        7.4590     8.6690     0.8900 H     1 <1>   0.0800 
 35 H        5.3000     9.2190     2.0990 H     1 <1>   0.0800 
 36 H        3.7870     8.6880     1.4160 H     1 <1>   0.0800 
 37 H        6.3450     9.5660    -1.7780 H     1 <1>   0.0800 
 38 H        4.1700    11.0820     0.9650 H     1 <1>   0.0800 
 39 H        4.0470    10.1510    -0.4950 H     1 <1>   0.0800 
 40 H        8.4680    10.6660    -0.2980 H     1 <1>   0.4000 
 41 H        5.8970    11.7180    -0.7310 H     1 <1>   0.0800 
 42 H        6.5880    11.1790     0.7850 H     1 <1>   0.0800 
@<TRIPOS>BOND
  1   1   2  1   
  2   1   3  1   
  3   2   4  2   
  4   2  22  1   
  5   3   5  2   
  6   3  23  1   
  7   4   5  1   
  8   4   6  1   
  9   5  24  1   
 10   6   7  1   
 11   6  25  1   
 12   6  26  1   
 13   7   8  1   
 14   7   9  1   
 15   8  10  ar  
 16   8  11  ar  
 17   9  27  1   
 18   9  28  1   
 19   9  29  1   
 20  10  12  ar  
 21  11  13  ar  
 22  11  30  1   
 23  12  14  1   
 24  12  15  ar  
 25  13  15  ar  
 26  13  31  1   
 27  14  16  1   
 28  14  17  1   
 29  15  32  1   
 30  16  18  1   
 31  16  33  1   
 32  16  34  1   
 33  17  19  1   
 34  17  35  1   
 35  17  36  1   
 36  18  20  1   
 37  18  21  1   
 38  18  37  1   
 39  19  21  1   
 40  19  38  1   
 41  19  39  1   
 42  20  40  1   
 43  21  41  1   
 44  21  42  1   
@<TRIPOS>SUBSTRUCTURE
  1 ****  10 GROUP 4 **** **** 0

# MOE 2024.06 (io_trps.svl 2023.06)
