@<TRIPOS>MOLECULE
NONAME
49 52 1 0 0 
SMALL
USER_CHARGES


@<TRIPOS>ATOM
  1 F        0.1760    -0.8460    -0.6040 F     1 <1>  -0.1900 
  2 C       -0.5680    -1.8690    -0.2640 C.ar  1 <1>   0.1900 
  3 C       -0.1320    -2.8310     0.6540 C.ar  1 <1>   0.0830 
  4 C       -1.8120    -1.9470    -0.8580 C.ar  1 <1>  -0.1500 
  5 O        1.0680    -2.8630     1.3030 O.3   1 <1>  -0.3630 
  6 C       -0.9960    -3.8740     0.9490 C.ar  1 <1>  -0.1500 
  7 C       -2.6490    -3.0000    -0.5390 C.ar  1 <1>  -0.1500 
  8 C        2.0850    -1.9110     1.0850 C.3   1 <1>   0.0400 
  9 C       -2.2620    -3.9900     0.3680 C.ar  1 <1>   0.0530 
 10 C       -3.1310    -5.0930     0.7000 C.2   1 <1>   0.0870 
 11 O       -2.9710    -5.7570     1.8240 O.3   1 <1>  -0.0190 
 12 C       -4.1810    -5.6680     0.0620 C.2   1 <1>  -0.2330 
 13 N       -3.8470    -6.7190     1.9790 N.2   1 <1>  -0.4100 
 14 C       -4.5880    -6.6740     0.9320 C.2   1 <1>   0.3720 
 15 C       -4.8050    -5.4110    -1.1910 C.2   1 <1>   1.0330 
 16 N       -5.6620    -7.5440     0.7280 N.pl3 1 <1>  -0.8210 
 17 O       -4.5970    -6.1580    -2.1640 O.co2 1 <1>  -0.9000 
 18 O       -5.6500    -4.5090    -1.2960 O.co2 1 <1>  -0.9000 
 19 C       -5.4550    -8.4020    -0.4840 C.3   1 <1>   0.2090 
 20 C       -6.9570    -6.8170     0.6700 C.3   1 <1>   0.2090 
 21 C       -5.8710    -9.8460    -0.1730 C.3   1 <1>   0.4230 
 22 C       -8.0910    -7.7380     1.1190 C.3   1 <1>  -0.1600 
 23 N       -7.0830    -9.9710     0.6910 N.4   1 <1>  -0.9590 
 24 C       -6.1860   -10.7200    -1.3810 C.3   1 <1>  -0.1600 
 25 C       -8.1900    -9.0390     0.3190 C.3   1 <1>   0.3430 
 26 C       -7.4800   -11.3930     0.5900 C.3   1 <1>   0.3430 
 27 C       -7.1300   -11.8030    -0.8410 C.3   1 <1>  -0.1600 
 28 H       -2.1260    -1.1960    -1.5590 H     1 <1>   0.1500 
 29 H       -0.6720    -4.6210     1.6500 H     1 <1>   0.1500 
 30 H       -3.6210    -3.0480    -1.0000 H     1 <1>   0.1500 
 31 H        2.9290    -2.1780     1.6950 H     1 <1>   0.0800 
 32 H        1.7230    -0.9390     1.3700 H     1 <1>   0.0800 
 33 H        2.3650    -1.9310     0.0460 H     1 <1>   0.0800 
 34 H       -6.0230    -8.0240    -1.3180 H     1 <1>   0.0800 
 35 H       -4.4190    -8.3920    -0.7820 H     1 <1>   0.0800 
 36 H       -6.9170    -5.9560     1.3190 H     1 <1>   0.0800 
 37 H       -7.1430    -6.4540    -0.3290 H     1 <1>   0.0800 
 38 H       -5.0470   -10.3000     0.3540 H     1 <1>   0.0800 
 39 H       -9.0110    -7.1960     0.9910 H     1 <1>   0.0800 
 40 H       -7.9920    -7.9480     2.1680 H     1 <1>   0.0800 
 41 H       -6.7680    -9.6900     1.6320 H     1 <1>   0.4500 
 42 H       -6.6780   -10.1400    -2.1420 H     1 <1>   0.0800 
 43 H       -5.2840   -11.1360    -1.7960 H     1 <1>   0.0800 
 44 H       -8.1680    -8.8300    -0.7390 H     1 <1>   0.0800 
 45 H       -9.1340    -9.5030     0.5490 H     1 <1>   0.0800 
 46 H       -6.8960   -11.9780     1.2830 H     1 <1>   0.0800 
 47 H       -8.5270   -11.5320     0.8050 H     1 <1>   0.0800 
 48 H       -6.6580   -12.7700    -0.8380 H     1 <1>   0.0800 
 49 H       -8.0220   -11.8610    -1.4410 H     1 <1>   0.0800 
@<TRIPOS>BOND
  1   1   2  1   
  2   2   3  ar  
  3   2   4  ar  
  4   3   5  1   
  5   3   6  ar  
  6   4   7  ar  
  7   4  28  1   
  8   5   8  1   
  9   6   9  ar  
 10   6  29  1   
 11   7   9  ar  
 12   7  30  1   
 13   8  31  1   
 14   8  32  1   
 15   8  33  1   
 16   9  10  1   
 17  10  11  1   
 18  10  12  2   
 19  11  13  1   
 20  12  14  1   
 21  12  15  1   
 22  13  14  2   
 23  14  16  1   
 24  15  17  ar  
 25  15  18  ar  
 26  16  19  1   
 27  16  20  1   
 28  19  21  1   
 29  19  34  1   
 30  19  35  1   
 31  20  22  1   
 32  20  36  1   
 33  20  37  1   
 34  21  23  1   
 35  21  24  1   
 36  21  38  1   
 37  22  25  1   
 38  22  39  1   
 39  22  40  1   
 40  23  25  1   
 41  23  26  1   
 42  23  41  1   
 43  24  27  1   
 44  24  42  1   
 45  24  43  1   
 46  25  44  1   
 47  25  45  1   
 48  26  27  1   
 49  26  46  1   
 50  26  47  1   
 51  27  48  1   
 52  27  49  1   
@<TRIPOS>SUBSTRUCTURE
  1 ****  12 GROUP 4 **** **** 0

# MOE 2024.06 (io_trps.svl 2023.06)
