@<TRIPOS>MOLECULE
NONAME
34 35 1 0 0 
SMALL
USER_CHARGES


@<TRIPOS>ATOM
  1 F        0.1570     2.2210    -0.4410 F     1 <1>  -0.3400 
  2 C       -1.0030     1.8650     0.0930 C.3   1 <1>   1.1640 
  3 F       -1.4130     0.7960    -0.5780 F     1 <1>  -0.3400 
  4 F       -0.7360     1.4540     1.3250 F     1 <1>  -0.3400 
  5 C       -2.0130     3.0070     0.0780 C.ar  1 <1>  -0.1440 
  6 C       -1.7000     4.1730     0.7550 C.ar  1 <1>   0.1600 
  7 C       -3.2300     2.9420    -0.5770 C.ar  1 <1>  -0.1500 
  8 N       -2.4750     5.2370     0.8250 N.ar  1 <1>  -0.6200 
  9 C       -4.0450     4.0510    -0.5090 C.ar  1 <1>  -0.1500 
 10 C       -3.6610     5.1960     0.1950 C.ar  1 <1>   0.3960 
 11 C       -4.5540     6.3610     0.2440 C.2   1 <1>   0.5140 
 12 O       -5.7760     6.2360    -0.3060 O.3   1 <1>  -0.4300 
 13 N       -4.3380     7.5100     0.7460 N.2   1 <1>  -0.6960 
 14 C       -6.4990     7.4260    -0.1280 C.3   1 <1>   0.1200 
 15 C       -5.4920     8.3680     0.5340 C.3   1 <1>   0.1660 
 16 C       -5.1320     9.6470    -0.2820 C.3   1 <1>   0.0000 
 17 C       -4.1090    10.4880     0.5040 C.3   1 <1>  -0.2400 
 18 C       -6.3860    10.5170    -0.4900 C.3   1 <1>  -0.2400 
 19 C       -4.5260     9.3210    -1.6620 C.3   1 <1>  -0.2400 
 20 H       -0.7550     4.2410     1.2720 H     1 <1>   0.1500 
 21 H       -3.5400     2.0660    -1.1250 H     1 <1>   0.1500 
 22 H       -4.9960     4.0300    -1.0100 H     1 <1>   0.1500 
 23 H       -6.8450     7.7690    -1.0850 H     1 <1>   0.0800 
 24 H       -7.3330     7.2290     0.5210 H     1 <1>   0.0800 
 25 H       -5.8760     8.6690     1.4940 H     1 <1>   0.0800 
 26 H       -3.8740    11.3970    -0.0200 H     1 <1>   0.0800 
 27 H       -3.1960     9.9360     0.6420 H     1 <1>   0.0800 
 28 H       -4.4950    10.7410     1.4750 H     1 <1>   0.0800 
 29 H       -6.1260    11.4360    -0.9850 H     1 <1>   0.0800 
 30 H       -6.8340    10.7620     0.4570 H     1 <1>   0.0800 
 31 H       -7.1170    10.0140    -1.0950 H     1 <1>   0.0800 
 32 H       -4.2730    10.2250    -2.1850 H     1 <1>   0.0800 
 33 H       -5.2130     8.7630    -2.2710 H     1 <1>   0.0800 
 34 H       -3.6280     8.7400    -1.5490 H     1 <1>   0.0800 
@<TRIPOS>BOND
  1   1   2  1   
  2   2   3  1   
  3   2   4  1   
  4   2   5  1   
  5   5   6  ar  
  6   5   7  ar  
  7   6   8  ar  
  8   6  20  1   
  9   7   9  ar  
 10   7  21  1   
 11   8  10  ar  
 12   9  10  ar  
 13   9  22  1   
 14  10  11  1   
 15  11  12  1   
 16  11  13  2   
 17  12  14  1   
 18  13  15  1   
 19  14  15  1   
 20  14  23  1   
 21  14  24  1   
 22  15  16  1   
 23  15  25  1   
 24  16  17  1   
 25  16  18  1   
 26  16  19  1   
 27  17  26  1   
 28  17  27  1   
 29  17  28  1   
 30  18  29  1   
 31  18  30  1   
 32  18  31  1   
 33  19  32  1   
 34  19  33  1   
 35  19  34  1   
@<TRIPOS>SUBSTRUCTURE
  1 ****  10 GROUP 4 **** **** 0

# MOE 2024.06 (io_trps.svl 2023.06)
