@<TRIPOS>MOLECULE
NONAME
47 50 1 0 0 
SMALL
USER_CHARGES


@<TRIPOS>ATOM
  1 S       -2.0440     0.1870     1.6710 S.3   1 <1>  -0.0800 
  2 C       -1.5600    -1.3490     1.0050 C.2   1 <1>  -0.1400 
  3 C       -2.0860    -0.5490     3.2590 C.2   1 <1>   0.2280 
  4 C       -1.4760    -2.2440     2.0020 C.2   1 <1>   0.0770 
  5 C       -1.3250    -1.4520    -0.4820 C.3   1 <1>   0.5230 
  6 N       -1.7820    -1.7840     3.2720 N.2   1 <1>  -0.5650 
  7 N       -2.5170    -2.0900    -1.0870 N.4   1 <1>  -0.9590 
  8 C       -2.2590    -2.7200    -2.4150 C.3   1 <1>   0.3430 
  9 C       -3.7630    -1.2770    -1.0400 C.3   1 <1>   0.3430 
 10 C       -3.2710    -3.8530    -2.7080 C.3   1 <1>   0.1400 
 11 C       -4.9150    -2.1120    -0.4680 C.3   1 <1>  -0.1600 
 12 N       -4.1260    -4.2130    -1.5250 N.am  1 <1>  -0.6600 
 13 C       -5.3090    -3.3420    -1.3010 C.3   1 <1>   0.1400 
 14 C       -3.6240    -4.9780    -0.4960 C.2   1 <1>   0.5440 
 15 O       -2.4680    -4.7620    -0.1770 O.2   1 <1>  -0.5700 
 16 C       -4.4460    -5.9280     0.2340 C.ar  1 <1>   0.0860 
 17 C       -5.5010    -6.5980    -0.3810 C.ar  1 <1>  -0.1500 
 18 C       -4.1930    -6.1950     1.5950 C.ar  1 <1>  -0.1500 
 19 C       -6.2870    -7.4930     0.3400 C.ar  1 <1>   0.0000 
 20 C       -4.9630    -7.0810     2.3190 C.ar  1 <1>  -0.1500 
 21 C       -6.0110    -7.7220     1.6750 C.ar  1 <1>   0.1400 
 22 C       -7.3970    -8.3150     0.0590 C.2   1 <1>  -0.1500 
 23 O       -6.8700    -8.6020     2.1830 O.3   1 <1>  -0.2800 
 24 C       -7.6980    -8.9530     1.2060 C.2   1 <1>  -0.0400 
 25 C       -8.7820    -9.9590     1.5230 C.3   1 <1>  -0.0600 
 26 H       -2.3610     0.0800     4.0890 H     1 <1>   0.1500 
 27 H       -1.1990    -3.2830     1.9040 H     1 <1>   0.1500 
 28 H       -0.4590    -2.0700    -0.6530 H     1 <1>   0.0800 
 29 H       -1.1490    -0.4780    -0.9090 H     1 <1>   0.0800 
 30 H       -2.6980    -2.9240    -0.4880 H     1 <1>   0.4500 
 31 H       -1.2740    -3.1580    -2.4130 H     1 <1>   0.0800 
 32 H       -2.2900    -1.9830    -3.2000 H     1 <1>   0.0800 
 33 H       -4.0150    -0.9230    -2.0260 H     1 <1>   0.0800 
 34 H       -3.6160    -0.4170    -0.4060 H     1 <1>   0.0800 
 35 H       -2.7240    -4.7270    -3.0200 H     1 <1>   0.0800 
 36 H       -3.9000    -3.5680    -3.5330 H     1 <1>   0.0800 
 37 H       -5.7790    -1.4760    -0.3920 H     1 <1>   0.0800 
 38 H       -4.6720    -2.4170     0.5350 H     1 <1>   0.0800 
 39 H       -5.7200    -3.0360    -2.2490 H     1 <1>   0.0800 
 40 H       -6.0730    -3.8940    -0.7800 H     1 <1>   0.0800 
 41 H       -5.7210    -6.4380    -1.4200 H     1 <1>   0.1500 
 42 H       -3.3720    -5.6930     2.0790 H     1 <1>   0.1500 
 43 H       -4.7750    -7.2870     3.3580 H     1 <1>   0.1500 
 44 H       -7.8760    -8.3870    -0.9000 H     1 <1>   0.1500 
 45 H       -9.3770   -10.1550     0.6500 H     1 <1>   0.0800 
 46 H       -9.4160    -9.5750     2.3020 H     1 <1>   0.0800 
 47 H       -8.3360   -10.8780     1.8580 H     1 <1>   0.0800 
@<TRIPOS>BOND
  1   1   2  1   
  2   1   3  1   
  3   2   4  2   
  4   2   5  1   
  5   3   6  2   
  6   3  26  1   
  7   4   6  1   
  8   4  27  1   
  9   5   7  1   
 10   5  28  1   
 11   5  29  1   
 12   7   8  1   
 13   7   9  1   
 14   7  30  1   
 15   8  10  1   
 16   8  31  1   
 17   8  32  1   
 18   9  11  1   
 19   9  33  1   
 20   9  34  1   
 21  10  12  1   
 22  10  35  1   
 23  10  36  1   
 24  11  13  1   
 25  11  37  1   
 26  11  38  1   
 27  12  13  1   
 28  12  14  am  
 29  13  39  1   
 30  13  40  1   
 31  14  15  2   
 32  14  16  1   
 33  16  17  ar  
 34  16  18  ar  
 35  17  19  ar  
 36  17  41  1   
 37  18  20  ar  
 38  18  42  1   
 39  19  21  ar  
 40  19  22  1   
 41  20  21  ar  
 42  20  43  1   
 43  21  23  1   
 44  22  24  2   
 45  22  44  1   
 46  23  24  1   
 47  24  25  1   
 48  25  45  1   
 49  25  46  1   
 50  25  47  1   
@<TRIPOS>SUBSTRUCTURE
  1 ****  14 GROUP 4 **** **** 0

# MOE 2024.06 (io_trps.svl 2023.06)
