@<TRIPOS>MOLECULE
NONAME
52 55 1 0 0 
SMALL
USER_CHARGES


@<TRIPOS>ATOM
  1 O       -1.1490    -0.3160     1.0830 O.2   1 <1>  -0.5700 
  2 C       -1.6740     0.6220     0.5080 C.2   1 <1>   0.5440 
  3 N       -2.8590     0.3830    -0.1530 N.am  1 <1>  -0.6600 
  4 C       -1.0970     1.9540     0.5760 C.ar  1 <1>   0.0860 
  5 C       -3.2140    -0.9980    -0.5650 C.3   1 <1>   0.1400 
  6 C       -4.0480     1.2220     0.1850 C.3   1 <1>   0.1400 
  7 C       -1.2340     2.8710    -0.4440 C.ar  1 <1>  -0.1500 
  8 C       -0.3660     2.3570     1.7130 C.ar  1 <1>  -0.1500 
  9 C       -4.4160    -1.3890     0.3180 C.3   1 <1>   0.4230 
 10 C       -5.3840     0.5720    -0.3010 C.3   1 <1>  -0.1600 
 11 C       -0.7040     4.1710    -0.3770 C.ar  1 <1>   0.0000 
 12 C        0.1670     3.6110     1.8110 C.ar  1 <1>  -0.1500 
 13 N       -4.1740    -2.6320     1.1310 N.4   1 <1>  -0.9590 
 14 C       -5.7610    -1.0120    -0.4540 C.3   1 <1>   0.0000 
 15 C        0.0100     4.5550     0.7780 C.ar  1 <1>   0.0000 
 16 C       -0.8580     5.1090    -1.4180 C.ar  1 <1>  -0.1500 
 17 C       -4.2440    -3.8210     0.3040 C.3   1 <1>   0.3430 
 18 C       -2.9100    -2.5680     1.9380 C.3   1 <1>   0.2630 
 19 C       -6.1970    -2.5540    -0.7140 C.3   1 <1>  -0.1600 
 20 C       -7.1290    -0.5530    -1.1740 C.3   1 <1>   0.1200 
 21 C        0.5380     5.8590     0.8490 C.ar  1 <1>  -0.1500 
 22 C       -0.3350     6.3690    -1.3230 C.ar  1 <1>  -0.1500 
 23 C       -5.6980    -3.8570    -0.0520 C.3   1 <1>  -0.1600 
 24 O       -8.1170    -0.4570    -0.1970 O.3   1 <1>  -0.6800 
 25 C        0.3700     6.7490    -0.1760 C.ar  1 <1>  -0.1500 
 26 H       -3.4920    -0.9930    -1.6040 H     1 <1>   0.0800 
 27 H       -2.3780    -1.6640    -0.4540 H     1 <1>   0.0800 
 28 H       -4.0830     1.3550     1.2540 H     1 <1>   0.0800 
 29 H       -3.9380     2.2010    -0.2540 H     1 <1>   0.0800 
 30 H       -1.7620     2.5940    -1.3390 H     1 <1>   0.1500 
 31 H       -0.2320     1.6470     2.5110 H     1 <1>   0.1500 
 32 H       -4.4030    -0.6880     1.1310 H     1 <1>   0.0800 
 33 H       -6.1470     1.0760     0.2720 H     1 <1>   0.0800 
 34 H       -5.3880     1.0060    -1.2890 H     1 <1>   0.0800 
 35 H        0.7210     3.9000     2.6860 H     1 <1>   0.1500 
 36 H       -4.9640    -2.6850     1.7880 H     1 <1>   0.4500 
 37 H       -1.3990     4.8140    -2.3000 H     1 <1>   0.1500 
 38 H       -3.6210    -3.7270    -0.5720 H     1 <1>   0.0800 
 39 H       -3.9670    -4.7020     0.8610 H     1 <1>   0.0800 
 40 H       -2.0440    -2.5880     1.2970 H     1 <1>   0.0800 
 41 H       -2.8520    -3.4040     2.6160 H     1 <1>   0.0800 
 42 H       -2.8770    -1.6550     2.5110 H     1 <1>   0.0800 
 43 H       -7.2580    -2.7090    -0.5790 H     1 <1>   0.0800 
 44 H       -6.0030    -2.7200    -1.7630 H     1 <1>   0.0800 
 45 H       -7.4970    -1.2160    -1.9420 H     1 <1>   0.0800 
 46 H       -7.1480     0.3910    -1.6930 H     1 <1>   0.0800 
 47 H        1.0800     6.1450     1.7320 H     1 <1>   0.1500 
 48 H       -0.4570     7.0810    -2.1210 H     1 <1>   0.1500 
 49 H       -5.8750    -4.6870    -0.7140 H     1 <1>   0.0800 
 50 H       -6.2700    -4.0510     0.8410 H     1 <1>   0.0800 
 51 H       -8.9770    -0.1940    -0.5860 H     1 <1>   0.4000 
 52 H        0.7750     7.7440    -0.1160 H     1 <1>   0.1500 
@<TRIPOS>BOND
  1   1   2  2   
  2   2   3  am  
  3   2   4  1   
  4   3   5  1   
  5   3   6  1   
  6   4   7  ar  
  7   4   8  ar  
  8   5   9  1   
  9   5  26  1   
 10   5  27  1   
 11   6  10  1   
 12   6  28  1   
 13   6  29  1   
 14   7  11  ar  
 15   7  30  1   
 16   8  12  ar  
 17   8  31  1   
 18   9  13  1   
 19   9  14  1   
 20   9  32  1   
 21  10  14  1   
 22  10  33  1   
 23  10  34  1   
 24  11  15  ar  
 25  11  16  ar  
 26  12  15  ar  
 27  12  35  1   
 28  13  17  1   
 29  13  18  1   
 30  13  36  1   
 31  14  19  1   
 32  14  20  1   
 33  15  21  ar  
 34  16  22  ar  
 35  16  37  1   
 36  17  23  1   
 37  17  38  1   
 38  17  39  1   
 39  18  40  1   
 40  18  41  1   
 41  18  42  1   
 42  19  23  1   
 43  19  43  1   
 44  19  44  1   
 45  20  24  1   
 46  20  45  1   
 47  20  46  1   
 48  21  25  ar  
 49  21  47  1   
 50  22  25  ar  
 51  22  48  1   
 52  23  49  1   
 53  23  50  1   
 54  24  51  1   
 55  25  52  1   
@<TRIPOS>SUBSTRUCTURE
  1 ****   3 GROUP 4 **** **** 0

# MOE 2024.06 (io_trps.svl 2023.06)
