@<TRIPOS>MOLECULE
NONAME
52 56 1 0 0 
SMALL
USER_CHARGES


@<TRIPOS>ATOM
  1 S       -0.1380    -0.8770    -2.1870 S.3   1 <1>  -0.0800 
  2 C        1.4540    -1.3340    -1.6130 C.2   1 <1>   0.4620 
  3 C       -0.8320    -2.0490    -1.1000 C.2   1 <1>  -0.1100 
  4 N        1.4490    -2.2500    -0.7210 N.2   1 <1>  -0.5650 
  5 N        2.5410    -0.7130    -2.1290 N.pl3 1 <1>  -0.8840 
  6 C        0.1610    -2.6570    -0.4290 C.2   1 <1>   0.0460 
  7 C        0.0350    -3.7490     0.6240 C.3   1 <1>   0.0210 
  8 C       -1.4030    -4.2710     0.7870 C.3   1 <1>  -0.0990 
  9 C       -1.5320    -5.4030     1.7970 C.2   1 <1>   0.5690 
 10 O       -0.5720    -5.6790     2.4760 O.2   1 <1>  -0.5700 
 11 N       -2.7150    -6.0920     1.9110 N.am  1 <1>  -0.6600 
 12 C       -3.9460    -5.8510     1.1090 C.3   1 <1>   0.1400 
 13 C       -2.8470    -7.2570     2.8290 C.3   1 <1>   0.1400 
 14 C       -4.1950    -7.0760     0.2290 C.3   1 <1>  -0.1600 
 15 C       -3.0950    -8.5140     1.9930 C.3   1 <1>  -0.1600 
 16 C       -4.3110    -8.3530     1.0740 C.3   1 <1>   0.4600 
 17 O       -5.4330    -8.2380     1.9230 O.3   1 <1>  -0.5600 
 18 C       -4.4690    -9.5840     0.1900 C.2   1 <1>  -0.3320 
 19 C       -6.7040    -8.5380     1.3950 C.3   1 <1>   0.1200 
 20 N       -3.5300   -10.1010    -0.6590 N.pl3 1 <1>   0.0330 
 21 C       -5.5830   -10.3410     0.1350 C.2   1 <1>  -0.1810 
 22 C       -6.7970   -10.0120     0.9660 C.3   1 <1>   0.0210 
 23 C       -4.0680   -11.2140    -1.2590 C.ar  1 <1>  -0.1520 
 24 C       -5.3620   -11.3940    -0.7770 C.ar  1 <1>   0.0000 
 25 C       -3.5250   -12.0950    -2.1980 C.ar  1 <1>  -0.1500 
 26 C       -6.1290   -12.4690    -1.2350 C.ar  1 <1>  -0.1500 
 27 C       -4.2910   -13.1490    -2.6410 C.ar  1 <1>  -0.1500 
 28 C       -5.5930   -13.3370    -2.1590 C.ar  1 <1>  -0.1500 
 29 H       -1.9010    -2.1440    -1.0910 H     1 <1>   0.1500 
 30 H        3.4670    -0.9590    -1.7780 H     1 <1>   0.4000 
 31 H        2.4710     0.0380    -2.8150 H     1 <1>   0.4000 
 32 H        0.3910    -3.3640     1.5630 H     1 <1>   0.0800 
 33 H        0.6770    -4.5660     0.3430 H     1 <1>   0.0800 
 34 H       -1.7390    -4.6290    -0.1680 H     1 <1>   0.0800 
 35 H       -2.0380    -3.4660     1.1050 H     1 <1>   0.0800 
 36 H       -3.8590    -4.9710     0.5000 H     1 <1>   0.0800 
 37 H       -4.7780    -5.7070     1.7790 H     1 <1>   0.0800 
 38 H       -3.6730    -7.0900     3.4990 H     1 <1>   0.0800 
 39 H       -1.9580    -7.3850     3.4230 H     1 <1>   0.0800 
 40 H       -3.3740    -7.1790    -0.4570 H     1 <1>   0.0800 
 41 H       -5.0830    -6.9400    -0.3560 H     1 <1>   0.0800 
 42 H       -3.2500    -9.3590     2.6380 H     1 <1>   0.0800 
 43 H       -2.2160    -8.7080     1.4080 H     1 <1>   0.0800 
 44 H       -6.8860    -7.8940     0.5540 H     1 <1>   0.0800 
 45 H       -7.4340    -8.3270     2.1560 H     1 <1>   0.0800 
 46 H       -2.5820    -9.7470    -0.8170 H     1 <1>   0.2700 
 47 H       -7.6930   -10.1670     0.3930 H     1 <1>   0.0800 
 48 H       -6.8270   -10.6460     1.8340 H     1 <1>   0.0800 
 49 H       -2.5250   -11.9450    -2.5620 H     1 <1>   0.1500 
 50 H       -7.1250   -12.6010    -0.8560 H     1 <1>   0.1500 
 51 H       -3.8960   -13.8420    -3.3630 H     1 <1>   0.1500 
 52 H       -6.1700   -14.1690    -2.5220 H     1 <1>   0.1500 
@<TRIPOS>BOND
  1   1   2  1   
  2   1   3  1   
  3   2   4  2   
  4   2   5  1   
  5   3   6  2   
  6   3  29  1   
  7   4   6  1   
  8   5  30  1   
  9   5  31  1   
 10   6   7  1   
 11   7   8  1   
 12   7  32  1   
 13   7  33  1   
 14   8   9  1   
 15   8  34  1   
 16   8  35  1   
 17   9  10  2   
 18   9  11  am  
 19  11  12  1   
 20  11  13  1   
 21  12  14  1   
 22  12  36  1   
 23  12  37  1   
 24  13  15  1   
 25  13  38  1   
 26  13  39  1   
 27  14  16  1   
 28  14  40  1   
 29  14  41  1   
 30  15  16  1   
 31  15  42  1   
 32  15  43  1   
 33  16  17  1   
 34  16  18  1   
 35  17  19  1   
 36  18  20  1   
 37  18  21  2   
 38  19  22  1   
 39  19  44  1   
 40  19  45  1   
 41  20  23  1   
 42  20  46  1   
 43  21  22  1   
 44  21  24  1   
 45  22  47  1   
 46  22  48  1   
 47  23  24  ar  
 48  23  25  ar  
 49  24  26  ar  
 50  25  27  ar  
 51  25  49  1   
 52  26  28  ar  
 53  26  50  1   
 54  27  28  ar  
 55  27  51  1   
 56  28  52  1   
@<TRIPOS>SUBSTRUCTURE
  1 ****  14 GROUP 4 **** **** 0

# MOE 2024.06 (io_trps.svl 2023.06)
