@<TRIPOS>MOLECULE
NONAME
46 47 1 0 0 
SMALL
USER_CHARGES


@<TRIPOS>ATOM
  1 O        0.3570     0.2880    -0.1760 O.3   1 <1>  -0.5600 
  2 C        0.3510     1.6440     0.1840 C.3   1 <1>   0.2000 
  3 C        1.5650    -0.3740     0.0660 C.3   1 <1>   0.2000 
  4 C       -1.0810     2.1910    -0.0310 C.3   1 <1>  -0.0800 
  5 C        1.4270     2.4080    -0.6250 C.3   1 <1>   0.2090 
  6 C        2.6920     0.2760    -0.7660 C.3   1 <1>   0.2090 
  7 C        1.3330    -1.8520    -0.2760 C.3   1 <1>  -0.1600 
  8 C       -1.2040     3.6760     0.3530 C.3   1 <1>  -0.2400 
  9 C       -2.1170     1.3890     0.7750 C.3   1 <1>  -0.2400 
 10 N        2.7750     1.7540    -0.5110 N.pl3 1 <1>  -0.8380 
 11 C        2.5290    -2.7500     0.0790 C.3   1 <1>  -0.1600 
 12 C        3.9190     2.4240    -0.2120 C.ar  1 <1>   0.1000 
 13 C        2.2060    -4.2240    -0.1940 C.3   1 <1>  -0.1600 
 14 C        4.1410     3.7300    -0.6710 C.ar  1 <1>  -0.1500 
 15 C        4.9350     1.8510     0.5650 C.ar  1 <1>  -0.1500 
 16 C        3.3950    -5.1230     0.1550 C.3   1 <1>  -0.2400 
 17 C        5.2980     4.3990    -0.3700 C.ar  1 <1>   0.2110 
 18 C        6.0830     2.5430     0.8500 C.ar  1 <1>   0.2110 
 19 N        6.2570     3.8050     0.3840 N.ar  1 <1>  -0.1790 
 20 H        0.5910     1.7070     1.2310 H     1 <1>   0.0800 
 21 H        1.7890    -0.2840     1.1150 H     1 <1>   0.0800 
 22 H       -1.3210     2.0950    -1.0770 H     1 <1>   0.0800 
 23 H        1.4850     3.4160    -0.2590 H     1 <1>   0.0800 
 24 H        1.1320     2.4400    -1.6600 H     1 <1>   0.0800 
 25 H        2.4860     0.1140    -1.8100 H     1 <1>   0.0800 
 26 H        3.6300    -0.1980    -0.5470 H     1 <1>   0.0800 
 27 H        0.4720    -2.1890     0.2750 H     1 <1>   0.0800 
 28 H        1.1120    -1.9420    -1.3260 H     1 <1>   0.0800 
 29 H       -0.9070     3.8290     1.3760 H     1 <1>   0.0800 
 30 H       -2.2240     4.0020     0.2450 H     1 <1>   0.0800 
 31 H       -0.6000     4.2950    -0.2840 H     1 <1>   0.0800 
 32 H       -1.9000     1.4380     1.8270 H     1 <1>   0.0800 
 33 H       -2.1100     0.3560     0.4740 H     1 <1>   0.0800 
 34 H       -3.1070     1.7750     0.6070 H     1 <1>   0.0800 
 35 H        3.3880    -2.4710    -0.5040 H     1 <1>   0.0800 
 36 H        2.7710    -2.6300     1.1210 H     1 <1>   0.0800 
 37 H        1.3530    -4.5230     0.3910 H     1 <1>   0.0800 
 38 H        1.9570    -4.3540    -1.2340 H     1 <1>   0.0800 
 39 H        3.3890     4.1990    -1.2800 H     1 <1>   0.1500 
 40 H        4.7970     0.8580     0.9520 H     1 <1>   0.1500 
 41 H        3.6470    -5.0260     1.1970 H     1 <1>   0.0800 
 42 H        4.2550    -4.8590    -0.4360 H     1 <1>   0.0800 
 43 H        3.1490    -6.1510    -0.0420 H     1 <1>   0.0800 
 44 H        5.4650     5.4030    -0.7290 H     1 <1>   0.1500 
 45 H        6.8620     2.0990     1.4500 H     1 <1>   0.1500 
 46 H        7.1210     4.3150     0.6030 H     1 <1>   0.4570 
@<TRIPOS>BOND
  1   1   2  1   
  2   1   3  1   
  3   2   4  1   
  4   2   5  1   
  5   2  20  1   
  6   3   6  1   
  7   3   7  1   
  8   3  21  1   
  9   4   8  1   
 10   4   9  1   
 11   4  22  1   
 12   5  10  1   
 13   5  23  1   
 14   5  24  1   
 15   6  10  1   
 16   6  25  1   
 17   6  26  1   
 18   7  11  1   
 19   7  27  1   
 20   7  28  1   
 21   8  29  1   
 22   8  30  1   
 23   8  31  1   
 24   9  32  1   
 25   9  33  1   
 26   9  34  1   
 27  10  12  1   
 28  11  13  1   
 29  11  35  1   
 30  11  36  1   
 31  12  14  ar  
 32  12  15  ar  
 33  13  16  1   
 34  13  37  1   
 35  13  38  1   
 36  14  17  ar  
 37  14  39  1   
 38  15  18  ar  
 39  15  40  1   
 40  16  41  1   
 41  16  42  1   
 42  16  43  1   
 43  17  19  ar  
 44  17  44  1   
 45  18  19  ar  
 46  18  45  1   
 47  19  46  1   
@<TRIPOS>SUBSTRUCTURE
  1 ****  10 GROUP 4 **** **** 0

# MOE 2024.06 (io_trps.svl 2023.06)
