@<TRIPOS>MOLECULE
NONAME
63 67 1 0 0 
SMALL
USER_CHARGES


@<TRIPOS>ATOM
  1 N       -1.2050     0.0080    -0.1930 N.ar  1 <1>  -0.6200 
  2 C       -0.0500     0.3400    -0.7400 C.ar  1 <1>   0.7710 
  3 C       -1.9040     0.9400     0.4210 C.ar  1 <1>   0.4100 
  4 N        0.4420     1.5840    -0.6370 N.ar  1 <1>  -0.1790 
  5 N        0.6570    -0.6010    -1.4290 N.pl3 1 <1>  -0.8380 
  6 N       -3.1220     0.5690     0.8840 N.pl3 1 <1>  -0.8380 
  7 C       -1.4170     2.2610     0.5760 C.ar  1 <1>  -0.1430 
  8 C       -0.2160     2.5690     0.0190 C.ar  1 <1>   0.2180 
  9 C        1.8900    -0.3930    -2.2520 C.3   1 <1>   0.1290 
 10 C        0.1550    -2.0150    -1.5150 C.3   1 <1>   0.1290 
 11 C       -4.3630     1.0620     0.2300 C.3   1 <1>   0.2090 
 12 C       -3.2900    -0.6890     1.6620 C.3   1 <1>   0.2090 
 13 C       -2.2160     3.2970     1.3700 C.3   1 <1>  -0.0170 
 14 C        0.4380     3.9450     0.1060 C.3   1 <1>  -0.0170 
 15 C       -4.9220    -0.0280    -0.6840 C.3   1 <1>  -0.1600 
 16 C       -3.8690    -1.7890     0.7690 C.3   1 <1>  -0.1600 
 17 C       -1.3620     4.5010     1.7880 C.3   1 <1>  -0.1600 
 18 C       -0.5360     5.0210     0.6060 C.3   1 <1>  -0.1600 
 19 C       -5.1650    -1.3410     0.0790 C.3   1 <1>   0.1000 
 20 C       -5.6800    -2.4500    -0.8390 C.2   1 <1>   0.0060 
 21 N       -5.4990    -2.4810    -2.1170 N.2   1 <1>  -0.3380 
 22 N       -6.3700    -3.5240    -0.4240 N.pl3 1 <1>   0.0480 
 23 N       -6.0750    -3.5910    -2.5730 N.2   1 <1>  -0.3380 
 24 C       -6.5830    -4.1960    -1.5570 C.2   1 <1>   0.0060 
 25 C       -6.8050    -3.9090     0.9370 C.3   1 <1>   0.0960 
 26 C       -7.3270    -5.5150    -1.6430 C.3   1 <1>   0.0200 
 27 C       -6.2110    -5.2590     1.3620 C.3   1 <1>  -0.1600 
 28 C       -6.6590    -6.6130    -0.8020 C.3   1 <1>  -0.1600 
 29 C       -6.8920    -6.4750     0.7110 C.3   1 <1>  -0.1600 
 30 H        1.3460     1.7250    -1.0630 H     1 <1>   0.4570 
 31 H        2.0880     0.6470    -2.4330 H     1 <1>   0.0800 
 32 H        1.7710    -0.8750    -3.2090 H     1 <1>   0.0800 
 33 H        2.7380    -0.8340    -1.7540 H     1 <1>   0.0800 
 34 H       -0.3680    -2.2970    -0.6170 H     1 <1>   0.0800 
 35 H        0.9740    -2.7000    -1.6470 H     1 <1>   0.0800 
 36 H       -0.5210    -2.1120    -2.3490 H     1 <1>   0.0800 
 37 H       -4.1490     1.9370    -0.3590 H     1 <1>   0.0800 
 38 H       -5.0850     1.3260     0.9840 H     1 <1>   0.0800 
 39 H       -3.9480    -0.5020     2.4940 H     1 <1>   0.0800 
 40 H       -2.3380    -1.0050     2.0550 H     1 <1>   0.0800 
 41 H       -2.6290     2.8410     2.2540 H     1 <1>   0.0800 
 42 H       -3.0370     3.6420     0.7660 H     1 <1>   0.0800 
 43 H        0.8150     4.2430    -0.8570 H     1 <1>   0.0800 
 44 H        1.2700     3.8870     0.7880 H     1 <1>   0.0800 
 45 H       -4.2210    -0.1960    -1.4830 H     1 <1>   0.0800 
 46 H       -5.8440     0.3080    -1.1240 H     1 <1>   0.0800 
 47 H       -4.0490    -2.6660     1.3620 H     1 <1>   0.0800 
 48 H       -3.1410    -2.0480     0.0200 H     1 <1>   0.0800 
 49 H       -0.7040     4.2140     2.5910 H     1 <1>   0.0800 
 50 H       -2.0040     5.2830     2.1570 H     1 <1>   0.0800 
 51 H       -1.2030     5.3040    -0.1920 H     1 <1>   0.0800 
 52 H        0.0130     5.8990     0.9010 H     1 <1>   0.0800 
 53 H       -5.9100    -1.1430     0.8280 H     1 <1>   0.0800 
 54 H       -7.8790    -3.9500     0.9570 H     1 <1>   0.0800 
 55 H       -6.4890    -3.1540     1.6320 H     1 <1>   0.0800 
 56 H       -7.3330    -5.8260    -2.6730 H     1 <1>   0.0800 
 57 H       -8.3490    -5.3760    -1.3410 H     1 <1>   0.0800 
 58 H       -6.3340    -5.3500     2.4270 H     1 <1>   0.0800 
 59 H       -5.1530    -5.2720     1.1610 H     1 <1>   0.0800 
 60 H       -5.6030    -6.6290    -1.0130 H     1 <1>   0.0800 
 61 H       -7.0620    -7.5600    -1.1160 H     1 <1>   0.0800 
 62 H       -7.9500    -6.4500     0.9130 H     1 <1>   0.0800 
 63 H       -6.5050    -7.3620     1.1840 H     1 <1>   0.0800 
@<TRIPOS>BOND
  1   1   2  ar  
  2   1   3  ar  
  3   2   4  ar  
  4   2   5  1   
  5   3   6  1   
  6   3   7  ar  
  7   4   8  ar  
  8   4  30  1   
  9   5   9  1   
 10   5  10  1   
 11   6  11  1   
 12   6  12  1   
 13   7   8  ar  
 14   7  13  1   
 15   8  14  1   
 16   9  31  1   
 17   9  32  1   
 18   9  33  1   
 19  10  34  1   
 20  10  35  1   
 21  10  36  1   
 22  11  15  1   
 23  11  37  1   
 24  11  38  1   
 25  12  16  1   
 26  12  39  1   
 27  12  40  1   
 28  13  17  1   
 29  13  41  1   
 30  13  42  1   
 31  14  18  1   
 32  14  43  1   
 33  14  44  1   
 34  15  19  1   
 35  15  45  1   
 36  15  46  1   
 37  16  19  1   
 38  16  47  1   
 39  16  48  1   
 40  17  18  1   
 41  17  49  1   
 42  17  50  1   
 43  18  51  1   
 44  18  52  1   
 45  19  20  1   
 46  19  53  1   
 47  20  21  2   
 48  20  22  1   
 49  21  23  1   
 50  22  24  1   
 51  22  25  1   
 52  23  24  2   
 53  24  26  1   
 54  25  27  1   
 55  25  54  1   
 56  25  55  1   
 57  26  28  1   
 58  26  56  1   
 59  26  57  1   
 60  27  29  1   
 61  27  58  1   
 62  27  59  1   
 63  28  29  1   
 64  28  60  1   
 65  28  61  1   
 66  29  62  1   
 67  29  63  1   
@<TRIPOS>SUBSTRUCTURE
  1 ****  16 GROUP 4 **** **** 0

# MOE 2024.06 (io_trps.svl 2023.06)
