@<TRIPOS>MOLECULE
NONAME
56 58 1 0 0 
SMALL
USER_CHARGES


@<TRIPOS>ATOM
  1 O        0.0300    -0.3240    -0.9470 O.2   1 <1>  -0.5700 
  2 C        1.0580    -0.7720    -0.4900 C.2   1 <1>   0.5690 
  3 N        2.1440    -0.0070    -0.1640 N.am  1 <1>  -0.4930 
  4 C        1.0980    -2.2940    -0.2660 C.3   1 <1>   0.4040 
  5 C        2.2870     1.4020    -0.2760 C.2   1 <1>   0.0630 
  6 N       -0.2760    -2.9270    -0.2220 N.4   1 <1>  -0.9590 
  7 C        3.3970     2.1620     0.1050 C.2   1 <1>   0.1080 
  8 C        1.4150     2.3080    -0.7620 C.2   1 <1>  -0.3020 
  9 C       -1.0350    -2.5230     0.9980 C.3   1 <1>   0.3430 
 10 C       -0.2440    -4.4020    -0.4210 C.3   1 <1>   0.3430 
 11 N        3.2270     3.4260    -0.1240 N.2   1 <1>  -0.7070 
 12 C        4.6750     1.6320     0.7160 C.3   1 <1>  -0.0590 
 13 N        2.0000     3.5190    -0.6610 N.pl3 1 <1>   0.3140 
 14 C       -2.4740    -3.0310     0.9000 C.3   1 <1>  -0.1600 
 15 C       -1.6720    -4.9350    -0.5360 C.3   1 <1>  -0.1600 
 16 C        1.4270     4.8040    -1.0720 C.3   1 <1>   0.0160 
 17 C       -2.5300    -4.5520     0.6850 C.3   1 <1>  -0.0800 
 18 C       -3.9830    -5.0280     0.5320 C.3   1 <1>   0.1200 
 19 O       -3.9830    -6.4280     0.3650 O.3   1 <1>  -0.3630 
 20 C       -5.1450    -7.1150     0.2120 C.ar  1 <1>   0.0830 
 21 C       -6.4030    -6.5180     0.1880 C.ar  1 <1>  -0.1500 
 22 C       -5.0410    -8.4900     0.0750 C.ar  1 <1>  -0.1500 
 23 C       -7.5340    -7.3000     0.0270 C.ar  1 <1>  -0.1500 
 24 C       -6.1720    -9.2720    -0.0860 C.ar  1 <1>  -0.1500 
 25 C       -7.4300    -8.6750    -0.1110 C.ar  1 <1>   0.0830 
 26 O       -8.5920    -9.3630    -0.2640 O.3   1 <1>  -0.3620 
 27 C       -8.5920   -10.7650    -0.4120 C.3   1 <1>   0.0400 
 28 H        2.9830    -0.4590     0.1980 H     1 <1>   0.3700 
 29 H        1.6210    -2.5010     0.6520 H     1 <1>   0.0800 
 30 H        1.6590    -2.7240    -1.0780 H     1 <1>   0.0800 
 31 H       -0.7900    -2.4990    -1.0120 H     1 <1>   0.4500 
 32 H        0.4310     2.1670    -1.1680 H     1 <1>   0.1500 
 33 H       -1.0450    -1.4470     1.0890 H     1 <1>   0.0800 
 34 H       -0.5670    -2.9360     1.8770 H     1 <1>   0.0800 
 35 H        0.2480    -4.8740     0.4140 H     1 <1>   0.0800 
 36 H        0.3000    -4.6450    -1.3200 H     1 <1>   0.0800 
 37 H        4.4600     1.1270     1.6390 H     1 <1>   0.0800 
 38 H        5.3430     2.4500     0.9210 H     1 <1>   0.0800 
 39 H        5.1580     0.9590     0.0330 H     1 <1>   0.0800 
 40 H       -2.9730    -2.5200     0.0940 H     1 <1>   0.0800 
 41 H       -2.9920    -2.7780     1.8100 H     1 <1>   0.0800 
 42 H       -1.6270    -6.0080    -0.6220 H     1 <1>   0.0800 
 43 H       -2.1220    -4.5620    -1.4390 H     1 <1>   0.0800 
 44 H        0.4360     4.8960    -0.6700 H     1 <1>   0.0800 
 45 H        1.3950     4.8470    -2.1440 H     1 <1>   0.0800 
 46 H        2.0440     5.6000    -0.6980 H     1 <1>   0.0800 
 47 H       -2.1240    -5.0310     1.5610 H     1 <1>   0.0800 
 48 H       -4.4450    -4.5860    -0.3330 H     1 <1>   0.0800 
 49 H       -4.5550    -4.7970     1.4150 H     1 <1>   0.0800 
 50 H       -6.5280    -5.4580     0.2910 H     1 <1>   0.1500 
 51 H       -4.0680    -8.9460     0.0950 H     1 <1>   0.1500 
 52 H       -8.5100    -6.8500     0.0070 H     1 <1>   0.1500 
 53 H       -6.0540   -10.3330    -0.1890 H     1 <1>   0.1500 
 54 H       -9.6110   -11.0890    -0.5170 H     1 <1>   0.0800 
 55 H       -8.1560   -11.2090     0.4660 H     1 <1>   0.0800 
 56 H       -8.0330   -11.0230    -1.2940 H     1 <1>   0.0800 
@<TRIPOS>BOND
  1   1   2  2   
  2   2   3  am  
  3   2   4  1   
  4   3   5  1   
  5   3  28  1   
  6   4   6  1   
  7   4  29  1   
  8   4  30  1   
  9   5   7  1   
 10   5   8  2   
 11   6   9  1   
 12   6  10  1   
 13   6  31  1   
 14   7  11  2   
 15   7  12  1   
 16   8  13  1   
 17   8  32  1   
 18   9  14  1   
 19   9  33  1   
 20   9  34  1   
 21  10  15  1   
 22  10  35  1   
 23  10  36  1   
 24  11  13  1   
 25  12  37  1   
 26  12  38  1   
 27  12  39  1   
 28  13  16  1   
 29  14  17  1   
 30  14  40  1   
 31  14  41  1   
 32  15  17  1   
 33  15  42  1   
 34  15  43  1   
 35  16  44  1   
 36  16  45  1   
 37  16  46  1   
 38  17  18  1   
 39  17  47  1   
 40  18  19  1   
 41  18  48  1   
 42  18  49  1   
 43  19  20  1   
 44  20  21  ar  
 45  20  22  ar  
 46  21  23  ar  
 47  21  50  1   
 48  22  24  ar  
 49  22  51  1   
 50  23  25  ar  
 51  23  52  1   
 52  24  25  ar  
 53  24  53  1   
 54  25  26  1   
 55  26  27  1   
 56  27  54  1   
 57  27  55  1   
 58  27  56  1   
@<TRIPOS>SUBSTRUCTURE
  1 ****  14 GROUP 4 **** **** 0

# MOE 2024.06 (io_trps.svl 2023.06)
