@<TRIPOS>MOLECULE
NONAME
51 53 1 0 0 
SMALL
USER_CHARGES


@<TRIPOS>ATOM
  1 S        0.3690     0.0450    -2.1640 S.o2  1 <1>   1.4470 
  2 O       -0.2180    -1.1170    -2.8000 O.2   1 <1>  -0.6500 
  3 O        0.9160     1.0940    -2.9970 O.2   1 <1>  -0.6500 
  4 N       -0.8650     0.7460    -1.2300 N.am  1 <1>  -0.8490 
  5 C        1.5840    -0.5370    -0.9260 C.ar  1 <1>  -0.0090 
  6 C       -1.5640    -0.2010    -0.3480 C.3   1 <1>   0.1960 
  7 C       -0.4710     1.9710    -0.5390 C.3   1 <1>   0.1960 
  8 C        2.7010     0.1870    -0.4910 C.ar  1 <1>  -0.1440 
  9 C        1.3640    -1.7830    -0.3480 C.ar  1 <1>  -0.1500 
 10 C       -2.8530     0.4050     0.2580 C.3   1 <1>   0.0000 
 11 C       -1.6990     2.6630     0.0570 C.3   1 <1>  -0.1600 
 12 C        3.5210    -0.3250     0.5050 C.ar  1 <1>  -0.1500 
 13 C        3.0940     1.5370    -1.0820 C.3   1 <1>  -0.0970 
 14 C        2.1860    -2.3000     0.6450 C.ar  1 <1>   0.0830 
 15 C       -3.5010    -0.6470     1.1830 C.3   1 <1>   0.2000 
 16 C       -2.4900     1.7240     0.9790 C.3   1 <1>  -0.1600 
 17 C       -3.9180     0.6030    -0.8400 C.3   1 <1>  -0.1600 
 18 C        3.2720    -1.5570     1.0810 C.ar  1 <1>  -0.1430 
 19 O        1.9760    -3.5150     1.2170 O.3   1 <1>  -0.3630 
 20 O       -4.4290    -0.0490     2.0180 O.3   1 <1>  -0.6800 
 21 C       -4.2730    -1.5780     0.2500 C.3   1 <1>  -0.1600 
 22 C       -4.6700    -0.7300    -0.9670 C.3   1 <1>  -0.1600 
 23 C        4.1900    -2.0880     2.1730 C.3   1 <1>  -0.0970 
 24 C        1.0590    -4.4420     0.6790 C.3   1 <1>   0.0400 
 25 H       -1.8220    -1.0820    -0.9110 H     1 <1>   0.0800 
 26 H       -0.9060    -0.4950     0.4520 H     1 <1>   0.0800 
 27 H        0.2350     1.7420     0.2420 H     1 <1>   0.0800 
 28 H       -0.0050     2.6470    -1.2380 H     1 <1>   0.0800 
 29 H        0.5220    -2.3540    -0.6920 H     1 <1>   0.1500 
 30 H       -1.3840     3.5290     0.6100 H     1 <1>   0.0800 
 31 H       -2.3280     3.0030    -0.7470 H     1 <1>   0.0800 
 32 H        4.3740     0.2400     0.8370 H     1 <1>   0.1500 
 33 H        3.9560     1.9460    -0.5860 H     1 <1>   0.0800 
 34 H        2.2960     2.2490    -0.9900 H     1 <1>   0.0800 
 35 H        3.3390     1.4240    -2.1240 H     1 <1>   0.0800 
 36 H       -2.7890    -1.1680     1.8000 H     1 <1>   0.0800 
 37 H       -3.3760     2.2280     1.3220 H     1 <1>   0.0800 
 38 H       -1.8920     1.4970     1.8460 H     1 <1>   0.0800 
 39 H       -4.6140     1.3660    -0.5380 H     1 <1>   0.0800 
 40 H       -3.4850     0.9010    -1.7800 H     1 <1>   0.0800 
 41 H       -5.1000     0.3990     1.4700 H     1 <1>   0.4000 
 42 H       -3.6200    -2.3680    -0.0730 H     1 <1>   0.0800 
 43 H       -5.1240    -2.0250     0.7360 H     1 <1>   0.0800 
 44 H       -4.3850    -1.2340    -1.8750 H     1 <1>   0.0800 
 45 H       -5.7320    -0.5590    -0.9860 H     1 <1>   0.0800 
 46 H        4.9710    -1.3860     2.4050 H     1 <1>   0.0800 
 47 H        4.6410    -3.0090     1.8510 H     1 <1>   0.0800 
 48 H        3.6220    -2.2770     3.0660 H     1 <1>   0.0800 
 49 H        1.1480    -5.3590     1.2340 H     1 <1>   0.0800 
 50 H        1.3030    -4.6160    -0.3550 H     1 <1>   0.0800 
 51 H        0.0630    -4.0510     0.7810 H     1 <1>   0.0800 
@<TRIPOS>BOND
  1   1   2  2   
  2   1   3  2   
  3   1   4  am  
  4   1   5  1   
  5   4   6  1   
  6   4   7  1   
  7   5   8  ar  
  8   5   9  ar  
  9   6  10  1   
 10   6  25  1   
 11   6  26  1   
 12   7  11  1   
 13   7  27  1   
 14   7  28  1   
 15   8  12  ar  
 16   8  13  1   
 17   9  14  ar  
 18   9  29  1   
 19  10  15  1   
 20  10  16  1   
 21  10  17  1   
 22  11  16  1   
 23  11  30  1   
 24  11  31  1   
 25  12  18  ar  
 26  12  32  1   
 27  13  33  1   
 28  13  34  1   
 29  13  35  1   
 30  14  18  ar  
 31  14  19  1   
 32  15  20  1   
 33  15  21  1   
 34  15  36  1   
 35  16  37  1   
 36  16  38  1   
 37  17  22  1   
 38  17  39  1   
 39  17  40  1   
 40  18  23  1   
 41  19  24  1   
 42  20  41  1   
 43  21  22  1   
 44  21  42  1   
 45  21  43  1   
 46  22  44  1   
 47  22  45  1   
 48  23  46  1   
 49  23  47  1   
 50  23  48  1   
 51  24  49  1   
 52  24  50  1   
 53  24  51  1   
@<TRIPOS>SUBSTRUCTURE
  1 ****   6 GROUP 4 **** **** 0

# MOE 2024.06 (io_trps.svl 2023.06)
