@<TRIPOS>MOLECULE
NONAME
48 49 1 0 0 
SMALL
USER_CHARGES


@<TRIPOS>ATOM
  1 O        3.8480    -1.0190     2.1480 O.2   1 <1>  -0.5700 
  2 C        2.7300    -1.2790     1.7750 C.2   1 <1>   0.5690 
  3 N        2.2940    -1.2340     0.4970 N.am  1 <1>  -0.6600 
  4 C        1.6180    -1.6770     2.7050 C.3   1 <1>  -0.0990 
  5 C        0.8660    -1.5610     0.3620 C.3   1 <1>   0.1400 
  6 C        3.1240    -0.8670    -0.6670 C.3   1 <1>   0.1400 
  7 C        0.4670    -2.0620     1.7580 C.3   1 <1>  -0.1600 
  8 C        3.0940     0.6510    -0.8440 C.3   1 <1>  -0.1600 
  9 C        4.0920     1.1050    -1.9230 C.3   1 <1>  -0.0990 
 10 C        4.1240     2.6130    -2.0840 C.2   1 <1>   0.5690 
 11 O        3.7580     3.0830    -3.1330 O.2   1 <1>  -0.5700 
 12 N        4.5820     3.3480    -1.0270 N.am  1 <1>  -0.4940 
 13 C        4.8100     4.7350    -0.8410 C.2   1 <1>  -0.0880 
 14 N        4.2040     5.7920    -1.4540 N.pl3 1 <1>   0.3140 
 15 C        5.6910     5.2650     0.0420 C.2   1 <1>  -0.1810 
 16 N        4.6750     6.9680    -0.9830 N.2   1 <1>  -0.7070 
 17 C        3.1050     5.7980    -2.4280 C.3   1 <1>   0.0160 
 18 C        5.5600     6.6450    -0.0960 C.2   1 <1>   0.1080 
 19 C        6.6270     4.5220     0.9810 C.3   1 <1>   0.0210 
 20 C        6.3350     7.6990     0.6760 C.3   1 <1>   0.0210 
 21 C        5.9360     4.2450     2.3180 C.3   1 <1>  -0.2400 
 22 C        7.6390     8.0630    -0.0410 C.3   1 <1>  -0.2400 
 23 H        1.3560    -0.8330     3.3160 H     1 <1>   0.0800 
 24 H        1.9220    -2.5010     3.3230 H     1 <1>   0.0800 
 25 H        0.7180    -2.3240    -0.3850 H     1 <1>   0.0800 
 26 H        0.3170    -0.6730     0.0970 H     1 <1>   0.0800 
 27 H        2.7590    -1.3640    -1.5500 H     1 <1>   0.0800 
 28 H        4.1340    -1.1930    -0.4840 H     1 <1>   0.0800 
 29 H       -0.4700    -1.6350     2.0720 H     1 <1>   0.0800 
 30 H        0.3640    -3.1320     1.7290 H     1 <1>   0.0800 
 31 H        3.3490     1.1110     0.0950 H     1 <1>   0.0800 
 32 H        2.1020     0.9630    -1.1200 H     1 <1>   0.0800 
 33 H        3.8250     0.6650    -2.8680 H     1 <1>   0.0800 
 34 H        5.0820     0.7700    -1.6730 H     1 <1>   0.0800 
 35 H        4.8840     2.7860    -0.2310 H     1 <1>   0.3700 
 36 H        2.3910     5.0430    -2.1630 H     1 <1>   0.0800 
 37 H        3.5040     5.6020    -3.4050 H     1 <1>   0.0800 
 38 H        2.6310     6.7610    -2.4190 H     1 <1>   0.0800 
 39 H        7.5180     5.1030     1.1430 H     1 <1>   0.0800 
 40 H        6.9260     3.5930     0.5300 H     1 <1>   0.0800 
 41 H        6.5460     7.3410     1.6660 H     1 <1>   0.0800 
 42 H        5.7200     8.5770     0.7670 H     1 <1>   0.0800 
 43 H        5.6480     5.1700     2.7850 H     1 <1>   0.0800 
 44 H        6.6000     3.7150     2.9770 H     1 <1>   0.0800 
 45 H        5.0530     3.6500     2.1640 H     1 <1>   0.0800 
 46 H        8.2660     7.1950    -0.1390 H     1 <1>   0.0800 
 47 H        8.1680     8.8200     0.5090 H     1 <1>   0.0800 
 48 H        7.4170     8.4380    -1.0250 H     1 <1>   0.0800 
@<TRIPOS>BOND
  1   1   2  2   
  2   2   3  am  
  3   2   4  1   
  4   3   5  1   
  5   3   6  1   
  6   4   7  1   
  7   4  23  1   
  8   4  24  1   
  9   5   7  1   
 10   5  25  1   
 11   5  26  1   
 12   6   8  1   
 13   6  27  1   
 14   6  28  1   
 15   7  29  1   
 16   7  30  1   
 17   8   9  1   
 18   8  31  1   
 19   8  32  1   
 20   9  10  1   
 21   9  33  1   
 22   9  34  1   
 23  10  11  2   
 24  10  12  am  
 25  12  13  1   
 26  12  35  1   
 27  13  14  1   
 28  13  15  2   
 29  14  16  1   
 30  14  17  1   
 31  15  18  1   
 32  15  19  1   
 33  16  18  2   
 34  17  36  1   
 35  17  37  1   
 36  17  38  1   
 37  18  20  1   
 38  19  21  1   
 39  19  39  1   
 40  19  40  1   
 41  20  22  1   
 42  20  41  1   
 43  20  42  1   
 44  21  43  1   
 45  21  44  1   
 46  21  45  1   
 47  22  46  1   
 48  22  47  1   
 49  22  48  1   
@<TRIPOS>SUBSTRUCTURE
  1 ****  12 GROUP 4 **** **** 0

# MOE 2024.06 (io_trps.svl 2023.06)
