@<TRIPOS>MOLECULE
NONAME
50 52 1 0 0 
SMALL
USER_CHARGES


@<TRIPOS>ATOM
  1 O       -0.2740    -0.6300    -0.3670 O.2   1 <1>  -0.5700 
  2 C       -1.1390     0.2160    -0.4020 C.2   1 <1>   0.5690 
  3 N       -2.4330    -0.0740    -0.0610 N.am  1 <1>  -0.6600 
  4 C       -0.7590     1.6120    -0.8870 C.3   1 <1>   0.1810 
  5 C       -3.5590     0.8860    -0.0430 C.3   1 <1>   0.1400 
  6 C       -2.8790    -1.4260     0.3250 C.3   1 <1>   0.1400 
  7 O       -0.9690     2.5880     0.1240 O.3   1 <1>  -0.3620 
  8 C       -4.7310     0.1360     0.6060 C.3   1 <1>  -0.0800 
  9 C       -4.4070    -1.3560     0.3930 C.3   1 <1>  -0.0800 
 10 C       -1.0090     3.8810    -0.2630 C.ar  1 <1>   0.0820 
 11 C       -6.1590     0.5760     0.1570 C.3   1 <1>   0.2800 
 12 C       -5.0810    -1.8860    -0.8820 C.3   1 <1>  -0.1600 
 13 C       -0.0400     4.7640     0.2000 C.ar  1 <1>  -0.1430 
 14 C       -2.0230     4.3260    -1.1020 C.ar  1 <1>  -0.1500 
 15 O       -6.1300     1.0720    -1.1340 O.3   1 <1>  -0.6800 
 16 C       -7.1010    -0.6430     0.1310 C.3   1 <1>  -0.1600 
 17 C       -6.7520     1.6860     1.0520 C.3   1 <1>  -0.1600 
 18 C       -6.6150    -1.7790    -0.7970 C.3   1 <1>  -0.1600 
 19 C       -0.0890     6.0900    -0.2000 C.ar  1 <1>  -0.1500 
 20 C        1.0610     4.2850     1.1350 C.3   1 <1>  -0.0970 
 21 C       -2.0620     5.6510    -1.4960 C.ar  1 <1>  -0.1500 
 22 C       -5.9550     3.0030     1.0970 C.3   1 <1>  -0.2400 
 23 C       -1.0940     6.5320    -1.0460 C.ar  1 <1>  -0.1500 
 24 H       -1.3500     1.8560    -1.7480 H     1 <1>   0.0800 
 25 H        0.2810     1.6340    -1.1530 H     1 <1>   0.0800 
 26 H       -3.3050     1.7630     0.5250 H     1 <1>   0.0800 
 27 H       -3.7710     1.1670    -1.0580 H     1 <1>   0.0800 
 28 H       -2.5380    -2.1560    -0.3900 H     1 <1>   0.0800 
 29 H       -2.4710    -1.6610     1.2930 H     1 <1>   0.0800 
 30 H       -4.6550     0.3030     1.6660 H     1 <1>   0.0800 
 31 H       -4.7510    -1.9420     1.2280 H     1 <1>   0.0800 
 32 H       -4.7350    -1.3050    -1.7210 H     1 <1>   0.0800 
 33 H       -4.7990    -2.9100    -1.0580 H     1 <1>   0.0800 
 34 H       -2.7820     3.6450    -1.4380 H     1 <1>   0.1500 
 35 H       -7.0390     1.2630    -1.4240 H     1 <1>   0.4000 
 36 H       -7.1630    -1.0310     1.1320 H     1 <1>   0.0800 
 37 H       -8.0960    -0.3470    -0.1490 H     1 <1>   0.0800 
 38 H       -7.7510     1.9050     0.7190 H     1 <1>   0.0800 
 39 H       -6.8370     1.3100     2.0560 H     1 <1>   0.0800 
 40 H       -7.0220    -2.7100    -0.4420 H     1 <1>   0.0800 
 41 H       -6.9980    -1.6180    -1.7900 H     1 <1>   0.0800 
 42 H        0.6530     6.7880     0.1440 H     1 <1>   0.1500 
 43 H        1.7020     5.0960     1.4280 H     1 <1>   0.0800 
 44 H        1.6540     3.5350     0.6440 H     1 <1>   0.0800 
 45 H        0.6250     3.8540     2.0180 H     1 <1>   0.0800 
 46 H       -2.8450     5.9970    -2.1470 H     1 <1>   0.1500 
 47 H       -5.7950     3.3890     0.1060 H     1 <1>   0.0800 
 48 H       -5.0010     2.8590     1.5720 H     1 <1>   0.0800 
 49 H       -6.4990     3.7380     1.6630 H     1 <1>   0.0800 
 50 H       -1.1220     7.5630    -1.3520 H     1 <1>   0.1500 
@<TRIPOS>BOND
  1   1   2  2   
  2   2   3  am  
  3   2   4  1   
  4   3   5  1   
  5   3   6  1   
  6   4   7  1   
  7   4  24  1   
  8   4  25  1   
  9   5   8  1   
 10   5  26  1   
 11   5  27  1   
 12   6   9  1   
 13   6  28  1   
 14   6  29  1   
 15   7  10  1   
 16   8   9  1   
 17   8  11  1   
 18   8  30  1   
 19   9  12  1   
 20   9  31  1   
 21  10  13  ar  
 22  10  14  ar  
 23  11  15  1   
 24  11  16  1   
 25  11  17  1   
 26  12  18  1   
 27  12  32  1   
 28  12  33  1   
 29  13  19  ar  
 30  13  20  1   
 31  14  21  ar  
 32  14  34  1   
 33  15  35  1   
 34  16  18  1   
 35  16  36  1   
 36  16  37  1   
 37  17  22  1   
 38  17  38  1   
 39  17  39  1   
 40  18  40  1   
 41  18  41  1   
 42  19  23  ar  
 43  19  42  1   
 44  20  43  1   
 45  20  44  1   
 46  20  45  1   
 47  21  23  ar  
 48  21  46  1   
 49  22  47  1   
 50  22  48  1   
 51  22  49  1   
 52  23  50  1   
@<TRIPOS>SUBSTRUCTURE
  1 ****   5 GROUP 4 **** **** 0

# MOE 2024.06 (io_trps.svl 2023.06)
