@<TRIPOS>MOLECULE
NONAME
52 55 1 0 0 
SMALL
USER_CHARGES


@<TRIPOS>ATOM
  1 O        0.6170     0.9220    -1.2470 O.2   1 <1>  -0.5700 
  2 C        0.4230     2.1100    -1.0810 C.2   1 <1>   0.5440 
  3 N        1.4800     2.9140    -1.3270 N.am  1 <1>  -0.8000 
  4 C       -0.8660     2.6210    -0.6630 C.ar  1 <1>   0.0860 
  5 C       -1.0470     3.8800    -0.0510 C.ar  1 <1>   0.4100 
  6 C       -2.0050     1.8540    -0.8740 C.ar  1 <1>  -0.1500 
  7 N       -2.2370     4.3670     0.2950 N.ar  1 <1>  -0.6200 
  8 N        0.0120     4.7120     0.2770 N.pl3 1 <1>  -0.8380 
  9 C       -3.2360     2.3500    -0.5050 C.ar  1 <1>  -0.1430 
 10 C       -3.2940     3.6150     0.0680 C.ar  1 <1>   0.1670 
 11 C       -0.1160     6.1610    -0.0400 C.3   1 <1>   0.2090 
 12 C        0.6750     4.4430     1.5770 C.3   1 <1>   0.2090 
 13 C       -4.4780     1.4990    -0.7380 C.3   1 <1>  -0.0970 
 14 C       -4.6190     4.2230     0.4870 C.3   1 <1>  -0.0970 
 15 C        1.2660     6.8330    -0.0580 C.3   1 <1>  -0.0800 
 16 C        2.0710     5.0720     1.5800 C.3   1 <1>  -0.1600 
 17 C        2.0210     6.5740     1.2620 C.3   1 <1>  -0.1600 
 18 C        1.1120     8.3360    -0.3530 C.3   1 <1>   0.0200 
 19 C        2.4530     9.0330    -0.5020 C.2   1 <1>   0.0060 
 20 N        3.1750     8.9670    -1.5650 N.2   1 <1>  -0.5650 
 21 N        3.0010     9.7880     0.4860 N.pl3 1 <1>   0.0330 
 22 C        4.2750     9.7160    -1.2760 C.ar  1 <1>   0.2270 
 23 C        4.1840    10.2360     0.0010 C.ar  1 <1>  -0.1520 
 24 C        5.3930     9.9940    -2.0610 C.ar  1 <1>  -0.1500 
 25 C        5.1950    11.0410     0.5310 C.ar  1 <1>  -0.1500 
 26 C        6.3960    10.7860    -1.5470 C.ar  1 <1>  -0.1500 
 27 C        6.2960    11.3090    -0.2510 C.ar  1 <1>  -0.1500 
 28 H        2.3910     2.5170    -1.5490 H     1 <1>   0.3700 
 29 H        1.4360     3.8890    -1.0020 H     1 <1>   0.3700 
 30 H       -1.9120     0.8820    -1.3260 H     1 <1>   0.1500 
 31 H       -0.7440     6.6260     0.7020 H     1 <1>   0.0800 
 32 H       -0.5920     6.2730    -1.0000 H     1 <1>   0.0800 
 33 H        0.7510     3.3800     1.7350 H     1 <1>   0.0800 
 34 H        0.0770     4.8610     2.3700 H     1 <1>   0.0800 
 35 H       -4.2110     0.5130    -1.0740 H     1 <1>   0.0800 
 36 H       -5.1010     1.9540    -1.4870 H     1 <1>   0.0800 
 37 H       -5.0390     1.4010     0.1740 H     1 <1>   0.0800 
 38 H       -4.4990     5.2700     0.7020 H     1 <1>   0.0800 
 39 H       -4.9790     3.7320     1.3720 H     1 <1>   0.0800 
 40 H       -5.3450     4.1240    -0.2990 H     1 <1>   0.0800 
 41 H        1.8300     6.3990    -0.8670 H     1 <1>   0.0800 
 42 H        2.6810     4.5670     0.8530 H     1 <1>   0.0800 
 43 H        2.5220     4.9220     2.5440 H     1 <1>   0.0800 
 44 H        1.5260     7.0870     2.0680 H     1 <1>   0.0800 
 45 H        3.0290     6.9470     1.1910 H     1 <1>   0.0800 
 46 H        0.5370     8.8110     0.4210 H     1 <1>   0.0800 
 47 H        0.5760     8.4580    -1.2790 H     1 <1>   0.0800 
 48 H        2.6100     9.9870     1.4090 H     1 <1>   0.2700 
 49 H        5.4420     9.5800    -3.0510 H     1 <1>   0.1500 
 50 H        5.1090    11.4380     1.5270 H     1 <1>   0.1500 
 51 H        7.2660    11.0100    -2.1400 H     1 <1>   0.1500 
 52 H        7.0930    11.9250     0.1260 H     1 <1>   0.1500 
@<TRIPOS>BOND
  1   1   2  2   
  2   2   3  am  
  3   2   4  1   
  4   3  28  1   
  5   3  29  1   
  6   4   5  ar  
  7   4   6  ar  
  8   5   7  ar  
  9   5   8  1   
 10   6   9  ar  
 11   6  30  1   
 12   7  10  ar  
 13   8  11  1   
 14   8  12  1   
 15   9  10  ar  
 16   9  13  1   
 17  10  14  1   
 18  11  15  1   
 19  11  31  1   
 20  11  32  1   
 21  12  16  1   
 22  12  33  1   
 23  12  34  1   
 24  13  35  1   
 25  13  36  1   
 26  13  37  1   
 27  14  38  1   
 28  14  39  1   
 29  14  40  1   
 30  15  17  1   
 31  15  18  1   
 32  15  41  1   
 33  16  17  1   
 34  16  42  1   
 35  16  43  1   
 36  17  44  1   
 37  17  45  1   
 38  18  19  1   
 39  18  46  1   
 40  18  47  1   
 41  19  20  2   
 42  19  21  1   
 43  20  22  1   
 44  21  23  1   
 45  21  48  1   
 46  22  23  ar  
 47  22  24  ar  
 48  23  25  ar  
 49  24  26  ar  
 50  24  49  1   
 51  25  27  ar  
 52  25  50  1   
 53  26  27  ar  
 54  26  51  1   
 55  27  52  1   
@<TRIPOS>SUBSTRUCTURE
  1 ****  15 GROUP 4 **** **** 0

# MOE 2024.06 (io_trps.svl 2023.06)
