@<TRIPOS>MOLECULE
NONAME
50 52 1 0 0 
SMALL
USER_CHARGES


@<TRIPOS>ATOM
  1 O       -0.0280     0.9420     0.9860 O.2   1 <1>  -0.5700 
  2 C       -0.0360     1.9970     0.4070 C.2   1 <1>   0.5690 
  3 N       -0.6160     3.0850     0.9590 N.am  1 <1>  -0.7300 
  4 C        0.5850     2.1160    -0.9870 C.3   1 <1>   0.1810 
  5 C       -0.7280     4.3980     0.2770 C.3   1 <1>   0.3640 
  6 O        0.8530     3.4540    -1.3480 O.3   1 <1>  -0.5600 
  7 C       -2.1710     4.8820     0.3960 C.ar  1 <1>  -0.1440 
  8 C       -0.2580     4.3330    -1.2000 C.3   1 <1>   0.2610 
  9 C       -3.2420     4.0260     0.1690 C.ar  1 <1>  -0.1500 
 10 C       -2.4270     6.2040     0.7330 C.ar  1 <1>  -0.1500 
 11 C        0.1120     5.7420    -1.6690 C.2   1 <1>   0.5690 
 12 C       -4.5440     4.4830     0.2840 C.ar  1 <1>  -0.1500 
 13 C       -3.7280     6.6610     0.8470 C.ar  1 <1>  -0.1500 
 14 O       -0.7580     6.5010    -2.0230 O.2   1 <1>  -0.5700 
 15 N        1.4190     6.1160    -1.6530 N.am  1 <1>  -0.7300 
 16 C       -4.7880     5.8010     0.6240 C.ar  1 <1>  -0.1500 
 17 C        1.9390     7.4700    -1.9600 C.3   1 <1>   0.1400 
 18 C        2.5100     8.1390    -0.6940 C.3   1 <1>   0.0000 
 19 C        1.4010     8.4770     0.3490 C.3   1 <1>   0.0000 
 20 C        2.7090     9.6710    -0.9040 C.3   1 <1>   0.0000 
 21 C        3.7480     7.3780    -0.1420 C.3   1 <1>  -0.1600 
 22 C        1.9540     9.9240     0.4270 C.3   1 <1>   0.0000 
 23 C        4.4440     7.9680     1.0980 C.3   1 <1>  -0.1600 
 24 C        5.6380     7.1050     1.5150 C.3   1 <1>  -0.2400 
 25 H       -1.0710     2.9940     1.8690 H     1 <1>   0.3700 
 26 H       -0.0820     1.6930    -1.7160 H     1 <1>   0.0800 
 27 H        1.5140     1.5760    -1.0100 H     1 <1>   0.0800 
 28 H       -0.0900     5.0900     0.8000 H     1 <1>   0.0800 
 29 H       -1.0560     3.9700    -1.8220 H     1 <1>   0.0800 
 30 H       -3.0740     2.9960    -0.0960 H     1 <1>   0.1500 
 31 H       -1.6160     6.8920     0.9000 H     1 <1>   0.1500 
 32 H       -5.3670     3.8120     0.1080 H     1 <1>   0.1500 
 33 H       -3.9150     7.6890     1.1050 H     1 <1>   0.1500 
 34 H        2.1120     5.3930    -1.4360 H     1 <1>   0.3700 
 35 H       -5.7990     6.1570     0.7120 H     1 <1>   0.1500 
 36 H        2.7040     7.3940    -2.7120 H     1 <1>   0.0800 
 37 H        1.1410     8.0730    -2.3630 H     1 <1>   0.0800 
 38 H        0.4080     8.4570    -0.0670 H     1 <1>   0.0000 
 39 H        1.4760     7.9320     1.2730 H     1 <1>   0.0000 
 40 H        3.7330     9.9980    -0.8920 H     1 <1>   0.0000 
 41 H        2.1630    10.0590    -1.7470 H     1 <1>   0.0000 
 42 H        3.4460     6.3740     0.1010 H     1 <1>   0.0800 
 43 H        4.4750     7.3080    -0.9330 H     1 <1>   0.0800 
 44 H        2.6130    10.0790     1.2630 H     1 <1>   0.0000 
 45 H        1.1910    10.6770     0.3480 H     1 <1>   0.0000 
 46 H        4.7970     8.9630     0.8910 H     1 <1>   0.0800 
 47 H        3.7530     8.0190     1.9220 H     1 <1>   0.0800 
 48 H        6.3620     7.0540     0.7210 H     1 <1>   0.0800 
 49 H        5.3170     6.1080     1.7590 H     1 <1>   0.0800 
 50 H        6.1130     7.5310     2.3820 H     1 <1>   0.0800 
@<TRIPOS>BOND
  1   1   2  2   
  2   2   3  am  
  3   2   4  1   
  4   3   5  1   
  5   3  25  1   
  6   4   6  1   
  7   4  26  1   
  8   4  27  1   
  9   5   7  1   
 10   5   8  1   
 11   5  28  1   
 12   6   8  1   
 13   7   9  ar  
 14   7  10  ar  
 15   8  11  1   
 16   8  29  1   
 17   9  12  ar  
 18   9  30  1   
 19  10  13  ar  
 20  10  31  1   
 21  11  14  2   
 22  11  15  am  
 23  12  16  ar  
 24  12  32  1   
 25  13  16  ar  
 26  13  33  1   
 27  15  17  1   
 28  15  34  1   
 29  16  35  1   
 30  17  18  1   
 31  17  36  1   
 32  17  37  1   
 33  18  19  1   
 34  18  20  1   
 35  18  21  1   
 36  19  22  1   
 37  19  38  1   
 38  19  39  1   
 39  20  22  1   
 40  20  40  1   
 41  20  41  1   
 42  21  23  1   
 43  21  42  1   
 44  21  43  1   
 45  22  44  1   
 46  22  45  1   
 47  23  24  1   
 48  23  46  1   
 49  23  47  1   
 50  24  48  1   
 51  24  49  1   
 52  24  50  1   
@<TRIPOS>SUBSTRUCTURE
  1 ****  11 GROUP 4 **** **** 0

# MOE 2024.06 (io_trps.svl 2023.06)
