@<TRIPOS>MOLECULE
NONAME
59 61 1 0 0 
SMALL
USER_CHARGES


@<TRIPOS>ATOM
  1 O       -1.7760     1.5150    -0.9400 O.2   1 <1>  -0.5700 
  2 C       -1.1820     2.5660    -0.9180 C.2   1 <1>   0.5690 
  3 N       -1.2240     3.4080     0.1670 N.am  1 <1>  -0.6600 
  4 C       -0.3770     2.9590    -2.1680 C.3   1 <1>   0.1810 
  5 C       -0.4090     4.6630     0.1620 C.3   1 <1>   0.3640 
  6 C       -1.9220     3.0400     1.4350 C.3   1 <1>   0.0600 
  7 O        0.4980     4.0540    -1.9730 O.3   1 <1>  -0.5600 
  8 C       -0.9910     5.7620     1.0680 C.ar  1 <1>  -0.1430 
  9 C       -0.1070     5.1230    -1.2790 C.3   1 <1>   0.2610 
 10 C       -2.1920     6.4360     0.8320 C.ar  1 <1>  -0.1430 
 11 C       -0.2590     6.0790     2.2090 C.ar  1 <1>  -0.1500 
 12 C        0.7940     6.3540    -1.2660 C.2   1 <1>   0.5690 
 13 C       -2.6220     7.4000     1.7320 C.ar  1 <1>  -0.1500 
 14 C       -3.0900     6.1670    -0.3700 C.3   1 <1>  -0.0960 
 15 C       -0.6990     7.0390     3.1010 C.ar  1 <1>  -0.1500 
 16 O        0.3250     7.4310    -1.5530 O.2   1 <1>  -0.5700 
 17 N        2.1050     6.2330    -0.9160 N.am  1 <1>  -0.7300 
 18 C       -1.8850     7.7020     2.8610 C.ar  1 <1>  -0.1500 
 19 C        3.1240     7.3220    -0.8430 C.3   1 <1>   0.1400 
 20 C        2.8320     8.3390     0.2830 C.3   1 <1>   0.3430 
 21 N        1.7180     9.2690    -0.0680 N.4   1 <1>  -0.9590 
 22 C        2.1870    10.4510    -0.8310 C.3   1 <1>   0.3430 
 23 C        0.9220     9.6590     1.1220 C.3   1 <1>   0.3430 
 24 C        1.2630    10.7410    -2.0130 C.3   1 <1>  -0.1600 
 25 C       -0.4930    10.0930     0.7330 C.3   1 <1>  -0.1600 
 26 C       -0.2450    10.7970    -1.7110 C.3   1 <1>  -0.1600 
 27 C       -0.6040    11.2410    -0.2860 C.3   1 <1>  -0.1600 
 28 H       -1.0590     3.2120    -2.9590 H     1 <1>   0.0800 
 29 H        0.2150     2.1200    -2.4850 H     1 <1>   0.0800 
 30 H        0.5430     4.3910     0.5810 H     1 <1>   0.0800 
 31 H       -2.7380     3.7190     1.6150 H     1 <1>   0.0800 
 32 H       -1.2350     3.0880     2.2610 H     1 <1>   0.0800 
 33 H       -2.3180     2.0410     1.3760 H     1 <1>   0.0800 
 34 H       -1.0120     5.3800    -1.7950 H     1 <1>   0.0800 
 35 H        0.6610     5.5660     2.4270 H     1 <1>   0.1500 
 36 H       -3.5480     7.9230     1.5620 H     1 <1>   0.1500 
 37 H       -4.1050     6.4480    -0.1520 H     1 <1>   0.0800 
 38 H       -3.1000     5.1250    -0.6300 H     1 <1>   0.0800 
 39 H       -2.7580     6.7440    -1.2140 H     1 <1>   0.0800 
 40 H       -0.1290     7.2600     3.9870 H     1 <1>   0.1500 
 41 H        2.4850     5.2770    -0.9390 H     1 <1>   0.3700 
 42 H       -2.2430     8.4450     3.5540 H     1 <1>   0.1500 
 43 H        4.0820     6.8690    -0.6510 H     1 <1>   0.0800 
 44 H        3.1850     7.8250    -1.7930 H     1 <1>   0.0800 
 45 H        3.7210     8.9130     0.4870 H     1 <1>   0.0800 
 46 H        2.5840     7.7870     1.1740 H     1 <1>   0.0800 
 47 H        1.0670     8.7390    -0.6880 H     1 <1>   0.4500 
 48 H        2.2200    11.3110    -0.1810 H     1 <1>   0.0800 
 49 H        3.1820    10.2810    -1.2070 H     1 <1>   0.0800 
 50 H        0.8370     8.8170     1.7900 H     1 <1>   0.0800 
 51 H        1.4170    10.4580     1.6500 H     1 <1>   0.0800 
 52 H        1.5600    11.6930    -2.4170 H     1 <1>   0.0800 
 53 H        1.4370    10.0120    -2.7850 H     1 <1>   0.0800 
 54 H       -1.0270     9.2350     0.3640 H     1 <1>   0.0800 
 55 H       -0.9920    10.3980     1.6350 H     1 <1>   0.0800 
 56 H       -0.6990    11.4800    -2.4100 H     1 <1>   0.0800 
 57 H       -0.6880     9.8340    -1.9040 H     1 <1>   0.0800 
 58 H       -1.6330    11.5620    -0.2970 H     1 <1>   0.0800 
 59 H       -0.0150    12.0900     0.0160 H     1 <1>   0.0800 
@<TRIPOS>BOND
  1   1   2  2   
  2   2   3  am  
  3   2   4  1   
  4   3   5  1   
  5   3   6  1   
  6   4   7  1   
  7   4  28  1   
  8   4  29  1   
  9   5   8  1   
 10   5   9  1   
 11   5  30  1   
 12   6  31  1   
 13   6  32  1   
 14   6  33  1   
 15   7   9  1   
 16   8  10  ar  
 17   8  11  ar  
 18   9  12  1   
 19   9  34  1   
 20  10  13  ar  
 21  10  14  1   
 22  11  15  ar  
 23  11  35  1   
 24  12  16  2   
 25  12  17  am  
 26  13  18  ar  
 27  13  36  1   
 28  14  37  1   
 29  14  38  1   
 30  14  39  1   
 31  15  18  ar  
 32  15  40  1   
 33  17  19  1   
 34  17  41  1   
 35  18  42  1   
 36  19  20  1   
 37  19  43  1   
 38  19  44  1   
 39  20  21  1   
 40  20  45  1   
 41  20  46  1   
 42  21  22  1   
 43  21  23  1   
 44  21  47  1   
 45  22  24  1   
 46  22  48  1   
 47  22  49  1   
 48  23  25  1   
 49  23  50  1   
 50  23  51  1   
 51  24  26  1   
 52  24  52  1   
 53  24  53  1   
 54  25  27  1   
 55  25  54  1   
 56  25  55  1   
 57  26  27  1   
 58  26  56  1   
 59  26  57  1   
 60  27  58  1   
 61  27  59  1   
@<TRIPOS>SUBSTRUCTURE
  1 ****  12 GROUP 4 **** **** 0

# MOE 2024.06 (io_trps.svl 2023.06)
