@<TRIPOS>MOLECULE
NONAME
51 54 1 0 0 
SMALL
USER_CHARGES


@<TRIPOS>ATOM
  1 F        2.0000     4.8790    -3.0550 F     1 <1>  -0.1900 
  2 C        2.9990     4.1480    -2.6340 C.ar  1 <1>   0.1900 
  3 C        4.0170     4.7540    -1.9380 C.ar  1 <1>  -0.1500 
  4 C        2.9750     2.7790    -2.9190 C.ar  1 <1>  -0.1500 
  5 C        5.0680     3.9480    -1.5060 C.ar  1 <1>   0.2270 
  6 C        4.0150     1.9850    -2.4860 C.ar  1 <1>  -0.1500 
  7 N        6.1930     4.2860    -0.8090 N.2   1 <1>  -0.5650 
  8 C        5.0580     2.5900    -1.7770 C.ar  1 <1>  -0.1520 
  9 C        6.8240     3.1700    -0.6640 C.2   1 <1>   0.0060 
 10 N        6.1970     2.1030    -1.2250 N.pl3 1 <1>   0.0330 
 11 C        8.1480     3.0520     0.0680 C.3   1 <1>   0.0200 
 12 C        8.0050     3.5560     1.5170 C.3   1 <1>  -0.1600 
 13 C        9.2830     4.1850     2.0710 C.3   1 <1>   0.2090 
 14 N        9.6890     5.4650     1.4190 N.pl3 1 <1>  -0.8690 
 15 C        9.1580     6.4140     0.6320 C.ar  1 <1>   0.7710 
 16 N        9.9090     7.4890     0.5000 N.ar  1 <1>  -0.6200 
 17 N        7.9660     6.2900     0.0200 N.ar  1 <1>  -0.1790 
 18 C        9.4700     8.4750    -0.2620 C.ar  1 <1>   0.4100 
 19 C        7.4700     7.2790    -0.7560 C.ar  1 <1>   0.2110 
 20 N       10.2680     9.5650    -0.4080 N.pl3 1 <1>  -0.8380 
 21 C        8.2170     8.3970    -0.9030 C.ar  1 <1>  -0.1500 
 22 C       10.3140    10.4270    -1.6350 C.3   1 <1>   0.2090 
 23 C       11.2660     9.9780     0.6260 C.3   1 <1>   0.2090 
 24 C       10.0520    11.8960    -1.2620 C.3   1 <1>   0.2000 
 25 C       11.0160    11.4400     1.0240 C.3   1 <1>  -0.1600 
 26 O       10.1950    12.6950    -2.3830 O.3   1 <1>  -0.6800 
 27 C       11.0280    12.3890    -0.1880 C.3   1 <1>  -0.1600 
 28 H        4.0050     5.8050    -1.7310 H     1 <1>   0.1500 
 29 H        2.1460     2.3710    -3.4690 H     1 <1>   0.1500 
 30 H        4.0280     0.9270    -2.6870 H     1 <1>   0.1500 
 31 H        6.5020     1.1250    -1.2390 H     1 <1>   0.2700 
 32 H        8.8840     3.6230    -0.4710 H     1 <1>   0.0800 
 33 H        8.4860     2.0300     0.0740 H     1 <1>   0.0800 
 34 H        7.7550     2.7100     2.1340 H     1 <1>   0.0800 
 35 H        7.1930     4.2500     1.6370 H     1 <1>   0.0800 
 36 H       10.0910     3.4780     1.9740 H     1 <1>   0.0800 
 37 H        9.1490     4.3720     3.1250 H     1 <1>   0.0800 
 38 H       10.6150     5.7640     1.7490 H     1 <1>   0.4000 
 39 H        7.4560     5.4010     0.0950 H     1 <1>   0.4570 
 40 H        6.5080     7.1400    -1.2240 H     1 <1>   0.1500 
 41 H        7.8680     9.2250    -1.4880 H     1 <1>   0.1500 
 42 H        9.5970    10.1060    -2.3670 H     1 <1>   0.0800 
 43 H       11.2940    10.3430    -2.0710 H     1 <1>   0.0800 
 44 H       12.2590     9.8680     0.2240 H     1 <1>   0.0800 
 45 H       11.1920     9.3590     1.5040 H     1 <1>   0.0800 
 46 H        9.0360    11.9980    -0.9210 H     1 <1>   0.0800 
 47 H       11.7700    11.7470     1.7280 H     1 <1>   0.0800 
 48 H       10.0640    11.5000     1.5210 H     1 <1>   0.0800 
 49 H       11.1390    12.8240    -2.5930 H     1 <1>   0.4000 
 50 H       10.7460    13.3780     0.1290 H     1 <1>   0.0800 
 51 H       12.0250    12.4230    -0.5890 H     1 <1>   0.0800 
@<TRIPOS>BOND
  1   1   2  1   
  2   2   3  ar  
  3   2   4  ar  
  4   3   5  ar  
  5   3  28  1   
  6   4   6  ar  
  7   4  29  1   
  8   5   7  1   
  9   5   8  ar  
 10   6   8  ar  
 11   6  30  1   
 12   7   9  2   
 13   8  10  1   
 14   9  10  1   
 15   9  11  1   
 16  10  31  1   
 17  11  12  1   
 18  11  32  1   
 19  11  33  1   
 20  12  13  1   
 21  12  34  1   
 22  12  35  1   
 23  13  14  1   
 24  13  36  1   
 25  13  37  1   
 26  14  15  1   
 27  14  38  1   
 28  15  16  ar  
 29  15  17  ar  
 30  16  18  ar  
 31  17  19  ar  
 32  17  39  1   
 33  18  20  1   
 34  18  21  ar  
 35  19  21  ar  
 36  19  40  1   
 37  20  22  1   
 38  20  23  1   
 39  21  41  1   
 40  22  24  1   
 41  22  42  1   
 42  22  43  1   
 43  23  25  1   
 44  23  44  1   
 45  23  45  1   
 46  24  26  1   
 47  24  27  1   
 48  24  46  1   
 49  25  27  1   
 50  25  47  1   
 51  25  48  1   
 52  26  49  1   
 53  27  50  1   
 54  27  51  1   
@<TRIPOS>SUBSTRUCTURE
  1 ****  17 GROUP 4 **** **** 0

# MOE 2024.06 (io_trps.svl 2023.06)
