@<TRIPOS>MOLECULE
NONAME
49 52 1 0 0 
SMALL
USER_CHARGES


@<TRIPOS>ATOM
  1 F       -1.5340    -0.2170     1.1560 F     1 <1>  -0.1900 
  2 C       -2.2660    -1.2980     1.0600 C.ar  1 <1>   0.1900 
  3 C       -2.3580    -2.0230    -0.1330 C.ar  1 <1>   0.0820 
  4 C       -2.9490    -1.6820     2.1980 C.ar  1 <1>  -0.1500 
  5 O       -1.7440    -1.7470    -1.3170 O.3   1 <1>  -0.3630 
  6 C       -3.1630    -3.1510    -0.1410 C.ar  1 <1>  -0.1500 
  7 C       -3.7540    -2.8080     2.1620 C.ar  1 <1>  -0.1500 
  8 C       -0.7690    -0.7350    -1.4560 C.3   1 <1>   0.0400 
  9 C       -3.8680    -3.5440     0.9890 C.ar  1 <1>  -0.1430 
 10 C       -4.7750    -4.7600     0.9310 C.3   1 <1>   0.4870 
 11 N       -5.9210    -4.4350     0.0400 N.4   1 <1>  -0.9590 
 12 C       -6.7380    -3.3030     0.6010 C.3   1 <1>   0.3430 
 13 C       -6.7690    -5.6260    -0.2440 C.3   1 <1>   0.3430 
 14 C       -7.8380    -2.8540    -0.3740 C.3   1 <1>   0.1430 
 15 C       -7.8560    -5.2540    -1.2580 C.3   1 <1>  -0.1600 
 16 C       -8.6750    -1.8080     0.3200 C.ar  1 <1>   0.1670 
 17 C       -8.7090    -4.0590    -0.7880 C.3   1 <1>  -0.1600 
 18 C       -7.2800    -2.0810    -1.6010 C.3   1 <1>  -0.1600 
 19 N       -9.1480    -1.9260     1.5350 N.ar  1 <1>  -0.6200 
 20 C       -8.8630    -0.7060    -0.4600 C.ar  1 <1>  -0.1430 
 21 C       -8.1890    -0.8520    -1.8010 C.3   1 <1>  -0.0170 
 22 C       -9.8300    -0.8650     1.9450 C.ar  1 <1>   0.7200 
 23 C       -9.5970     0.3280     0.0690 C.ar  1 <1>   0.1600 
 24 N      -10.0920     0.2540     1.2850 N.ar  1 <1>  -0.6200 
 25 N      -10.3320    -0.9360     3.1770 N.pl3 1 <1>  -0.9000 
 26 H       -2.8510    -1.1000     3.0990 H     1 <1>   0.1500 
 27 H       -3.2190    -3.7130    -1.0570 H     1 <1>   0.1500 
 28 H       -4.2840    -3.0960     3.0560 H     1 <1>   0.1500 
 29 H       -0.3820    -0.7780    -2.4580 H     1 <1>   0.0800 
 30 H        0.0250    -0.9120    -0.7520 H     1 <1>   0.0800 
 31 H       -1.2290     0.2220    -1.2850 H     1 <1>   0.0800 
 32 H       -5.1260    -5.0100     1.9190 H     1 <1>   0.0800 
 33 H       -4.2220    -5.5980     0.5390 H     1 <1>   0.0800 
 34 H       -5.5180    -4.1030    -0.8450 H     1 <1>   0.4500 
 35 H       -6.1080    -2.4560     0.8220 H     1 <1>   0.0800 
 36 H       -7.2040    -3.6140     1.5220 H     1 <1>   0.0800 
 37 H       -7.2330    -5.9690     0.6670 H     1 <1>   0.0800 
 38 H       -6.1670    -6.4280    -0.6420 H     1 <1>   0.0800 
 39 H       -8.4990    -6.1050    -1.4050 H     1 <1>   0.0800 
 40 H       -7.3990    -5.0370    -2.2080 H     1 <1>   0.0800 
 41 H       -9.4000    -3.7690    -1.5610 H     1 <1>   0.0800 
 42 H       -9.2960    -4.3690     0.0610 H     1 <1>   0.0800 
 43 H       -7.2410    -2.6780    -2.4940 H     1 <1>   0.0800 
 44 H       -6.2870    -1.7240    -1.3850 H     1 <1>   0.0800 
 45 H       -8.9310    -1.0420    -2.5590 H     1 <1>   0.0800 
 46 H       -7.6220     0.0260    -2.0600 H     1 <1>   0.0800 
 47 H       -9.7790     1.2210    -0.5050 H     1 <1>   0.1500 
 48 H      -11.0430    -0.2380     3.3840 H     1 <1>   0.4000 
 49 H      -10.5020    -1.8690     3.5390 H     1 <1>   0.4000 
@<TRIPOS>BOND
  1   1   2  1   
  2   2   3  ar  
  3   2   4  ar  
  4   3   5  1   
  5   3   6  ar  
  6   4   7  ar  
  7   4  26  1   
  8   5   8  1   
  9   6   9  ar  
 10   6  27  1   
 11   7   9  ar  
 12   7  28  1   
 13   8  29  1   
 14   8  30  1   
 15   8  31  1   
 16   9  10  1   
 17  10  11  1   
 18  10  32  1   
 19  10  33  1   
 20  11  12  1   
 21  11  13  1   
 22  11  34  1   
 23  12  14  1   
 24  12  35  1   
 25  12  36  1   
 26  13  15  1   
 27  13  37  1   
 28  13  38  1   
 29  14  16  1   
 30  14  17  1   
 31  14  18  1   
 32  15  17  1   
 33  15  39  1   
 34  15  40  1   
 35  16  19  ar  
 36  16  20  ar  
 37  17  41  1   
 38  17  42  1   
 39  18  21  1   
 40  18  43  1   
 41  18  44  1   
 42  19  22  ar  
 43  20  21  1   
 44  20  23  ar  
 45  21  45  1   
 46  21  46  1   
 47  22  24  ar  
 48  22  25  1   
 49  23  24  ar  
 50  23  47  1   
 51  25  48  1   
 52  25  49  1   
@<TRIPOS>SUBSTRUCTURE
  1 ****  12 GROUP 4 **** **** 0

# MOE 2024.06 (io_trps.svl 2023.06)
