@<TRIPOS>MOLECULE
NONAME
57 59 1 0 0 
SMALL
USER_CHARGES


@<TRIPOS>ATOM
  1 O        0.0940     0.2650     0.5610 O.2   1 <1>  -0.5700 
  2 C        0.0880     1.4380     0.2690 C.2   1 <1>   0.5690 
  3 N       -1.0030     2.0330    -0.3120 N.am  1 <1>  -0.6600 
  4 C        1.3420     2.2530     0.5580 C.3   1 <1>  -0.0990 
  5 C       -1.0810     3.4470    -0.7750 C.3   1 <1>   0.1400 
  6 C       -2.2740     1.2840    -0.5240 C.3   1 <1>   0.1400 
  7 C        2.3660     1.5310     1.4550 C.3   1 <1>  -0.0990 
  8 C       -2.1800     4.1650     0.0110 C.3   1 <1>  -0.1600 
  9 C       -3.4000     1.9780     0.2470 C.3   1 <1>  -0.1600 
 10 C        3.6110     2.3700     1.6510 C.2   1 <1>   0.5690 
 11 C       -3.5320     3.4540    -0.1410 C.3   1 <1>   0.4180 
 12 O        3.5020     3.4220     2.2300 O.2   1 <1>  -0.5700 
 13 N        4.7820     1.8930     1.1340 N.am  1 <1>  -0.5470 
 14 O       -3.9160     3.4700    -1.4950 O.3   1 <1>  -0.5600 
 15 C       -4.6000     4.1180     0.7240 C.2   1 <1>  -0.2880 
 16 C        6.0830     2.4300     1.1240 C.ar  1 <1>   0.1170 
 17 C       -4.5210     4.6350    -1.9830 C.3   1 <1>   0.1200 
 18 C       -5.6630     4.7640     0.2400 C.2   1 <1>  -0.2760 
 19 C        6.9820     2.0630     0.1150 C.ar  1 <1>  -0.1430 
 20 C        6.5030     3.3070     2.1190 C.ar  1 <1>  -0.1500 
 21 C       -5.8490     4.8980    -1.2600 C.3   1 <1>  -0.0220 
 22 C       -6.7510     5.3930     1.0920 C.3   1 <1>  -0.1020 
 23 C        8.2710     2.5850     0.1360 C.ar  1 <1>  -0.1500 
 24 C        6.5250     1.0980    -0.9890 C.3   1 <1>  -0.0170 
 25 C        7.7840     3.8220     2.1250 C.ar  1 <1>  -0.1500 
 26 C        8.6710     3.4590     1.1310 C.ar  1 <1>  -0.1500 
 27 C        7.5150     0.8710    -2.1390 C.3   1 <1>  -0.2400 
 28 H        1.0540     3.1640     1.0490 H     1 <1>   0.0800 
 29 H        1.8040     2.5020    -0.3790 H     1 <1>   0.0800 
 30 H       -1.3210     3.4580    -1.8250 H     1 <1>   0.0800 
 31 H       -0.1460     3.9600    -0.6460 H     1 <1>   0.0800 
 32 H       -2.1820     0.2650    -0.1880 H     1 <1>   0.0800 
 33 H       -2.5050     1.2680    -1.5760 H     1 <1>   0.0800 
 34 H        2.6280     0.5830     1.0210 H     1 <1>   0.0800 
 35 H        1.9260     1.3420     2.4180 H     1 <1>   0.0800 
 36 H       -2.2600     5.1860    -0.3100 H     1 <1>   0.0800 
 37 H       -1.9040     4.1810     1.0500 H     1 <1>   0.0800 
 38 H       -3.1940     1.8960     1.2980 H     1 <1>   0.0800 
 39 H       -4.3330     1.4790     0.0580 H     1 <1>   0.0800 
 40 H        4.7000     1.0140     0.6290 H     1 <1>   0.3700 
 41 H       -4.4120     4.0040     1.7760 H     1 <1>   0.1500 
 42 H       -4.6900     4.5020    -3.0360 H     1 <1>   0.0800 
 43 H       -3.8460     5.4600    -1.8420 H     1 <1>   0.0800 
 44 H        5.8280     3.5930     2.9040 H     1 <1>   0.1500 
 45 H       -6.5930     4.1990    -1.5990 H     1 <1>   0.0800 
 46 H       -6.1820     5.8900    -1.5080 H     1 <1>   0.0800 
 47 H       -7.7040     4.9500     0.8600 H     1 <1>   0.0800 
 48 H       -6.8040     6.4510     0.9080 H     1 <1>   0.0800 
 49 H       -6.5490     5.2370     2.1360 H     1 <1>   0.0800 
 50 H        8.9920     2.3290    -0.6170 H     1 <1>   0.1500 
 51 H        5.6140     1.4780    -1.4160 H     1 <1>   0.0800 
 52 H        6.3080     0.1440    -0.5410 H     1 <1>   0.0800 
 53 H        8.0890     4.5010     2.9020 H     1 <1>   0.1500 
 54 H        9.6710     3.8560     1.1310 H     1 <1>   0.1500 
 55 H        7.7550     1.8050    -2.6160 H     1 <1>   0.0800 
 56 H        7.0780     0.2180    -2.8730 H     1 <1>   0.0800 
 57 H        8.4180     0.4130    -1.7750 H     1 <1>   0.0800 
@<TRIPOS>BOND
  1   1   2  2   
  2   2   3  am  
  3   2   4  1   
  4   3   5  1   
  5   3   6  1   
  6   4   7  1   
  7   4  28  1   
  8   4  29  1   
  9   5   8  1   
 10   5  30  1   
 11   5  31  1   
 12   6   9  1   
 13   6  32  1   
 14   6  33  1   
 15   7  10  1   
 16   7  34  1   
 17   7  35  1   
 18   8  11  1   
 19   8  36  1   
 20   8  37  1   
 21   9  11  1   
 22   9  38  1   
 23   9  39  1   
 24  10  12  2   
 25  10  13  am  
 26  11  14  1   
 27  11  15  1   
 28  13  16  1   
 29  13  40  1   
 30  14  17  1   
 31  15  18  2   
 32  15  41  1   
 33  16  19  ar  
 34  16  20  ar  
 35  17  21  1   
 36  17  42  1   
 37  17  43  1   
 38  18  21  1   
 39  18  22  1   
 40  19  23  ar  
 41  19  24  1   
 42  20  25  ar  
 43  20  44  1   
 44  21  45  1   
 45  21  46  1   
 46  22  47  1   
 47  22  48  1   
 48  22  49  1   
 49  23  26  ar  
 50  23  50  1   
 51  24  27  1   
 52  24  51  1   
 53  24  52  1   
 54  25  26  ar  
 55  25  53  1   
 56  26  54  1   
 57  27  55  1   
 58  27  56  1   
 59  27  57  1   
@<TRIPOS>SUBSTRUCTURE
  1 ****   4 GROUP 4 **** **** 0

# MOE 2024.06 (io_trps.svl 2023.06)
