@<TRIPOS>MOLECULE
NONAME
43 43 1 0 0 
SMALL
USER_CHARGES


@<TRIPOS>ATOM
  1 O       -0.8740    -0.6080    -1.8070 O.co2 1 <1>  -0.9000 
  2 C       -1.8090    -0.9090    -1.0430 C.2   1 <1>   0.9790 
  3 O       -1.9190    -2.0790    -0.6430 O.co2 1 <1>  -0.9000 
  4 C       -2.7420     0.1210    -0.6090 C.ar  1 <1>  -0.1790 
  5 C       -2.6990     1.3940    -1.1700 C.ar  1 <1>  -0.1500 
  6 C       -3.6930    -0.1060     0.3870 C.ar  1 <1>  -0.1500 
  7 C       -3.5290     2.4080    -0.7340 C.ar  1 <1>  -0.1440 
  8 C       -4.5410     0.8950     0.8230 C.ar  1 <1>  -0.1500 
  9 C       -4.4570     2.1710     0.2720 C.ar  1 <1>   0.0830 
 10 C       -3.3930     3.7850    -1.3320 C.3   1 <1>   0.4870 
 11 O       -5.2220     3.2170     0.6770 O.3   1 <1>  -0.3630 
 12 N       -2.7640     4.6660    -0.3020 N.4   1 <1>  -0.9590 
 13 C       -6.2970     3.0220     1.5730 C.3   1 <1>   0.0400 
 14 C       -2.8650     6.1280    -0.5920 C.3   1 <1>   0.4230 
 15 C       -1.3780     4.1790    -0.0240 C.3   1 <1>   0.3430 
 16 C       -2.3040     6.9480     0.5850 C.3   1 <1>  -0.1600 
 17 C       -4.3320     6.5010    -0.8520 C.3   1 <1>  -0.2400 
 18 C       -1.2910     3.7500     1.4350 C.3   1 <1>  -0.2400 
 19 C       -2.2350     8.4470     0.2820 C.3   1 <1>   0.1200 
 20 O       -1.4510     9.0370     1.2510 O.3   1 <1>  -0.6800 
 21 H       -1.9800     1.5660    -1.9560 H     1 <1>   0.1500 
 22 H       -3.7490    -1.0930     0.8180 H     1 <1>   0.1500 
 23 H       -5.2470     0.6570     1.5950 H     1 <1>   0.1500 
 24 H       -4.3780     4.1310    -1.5880 H     1 <1>   0.0800 
 25 H       -2.7890     3.7500    -2.2240 H     1 <1>   0.0800 
 26 H       -3.3240     4.4600     0.5380 H     1 <1>   0.4500 
 27 H       -6.8080     3.9590     1.7000 H     1 <1>   0.0800 
 28 H       -5.9100     2.6850     2.5190 H     1 <1>   0.0800 
 29 H       -6.9720     2.2930     1.1570 H     1 <1>   0.0800 
 30 H       -2.2850     6.3520    -1.4740 H     1 <1>   0.0800 
 31 H       -0.6560     4.9530    -0.2270 H     1 <1>   0.0800 
 32 H       -1.1380     3.3340    -0.6510 H     1 <1>   0.0800 
 33 H       -1.2980     6.6380     0.7960 H     1 <1>   0.0800 
 34 H       -2.9100     6.7920     1.4600 H     1 <1>   0.0800 
 35 H       -4.9580     6.1860    -0.0350 H     1 <1>   0.0800 
 36 H       -4.6920     6.0730    -1.7680 H     1 <1>   0.0800 
 37 H       -4.4420     7.5640    -0.9640 H     1 <1>   0.0800 
 38 H       -1.5150     4.5630     2.1010 H     1 <1>   0.0800 
 39 H       -0.2910     3.4120     1.6410 H     1 <1>   0.0800 
 40 H       -1.9570     2.9270     1.6280 H     1 <1>   0.0800 
 41 H       -3.2020     8.9210     0.2970 H     1 <1>   0.0800 
 42 H       -1.7590     8.6280    -0.6670 H     1 <1>   0.0800 
 43 H       -1.9290     9.1300     2.0990 H     1 <1>   0.4000 
@<TRIPOS>BOND
  1   1   2  ar  
  2   2   3  ar  
  3   2   4  1   
  4   4   5  ar  
  5   4   6  ar  
  6   5   7  ar  
  7   5  21  1   
  8   6   8  ar  
  9   6  22  1   
 10   7   9  ar  
 11   7  10  1   
 12   8   9  ar  
 13   8  23  1   
 14   9  11  1   
 15  10  12  1   
 16  10  24  1   
 17  10  25  1   
 18  11  13  1   
 19  12  14  1   
 20  12  15  1   
 21  12  26  1   
 22  13  27  1   
 23  13  28  1   
 24  13  29  1   
 25  14  16  1   
 26  14  17  1   
 27  14  30  1   
 28  15  18  1   
 29  15  31  1   
 30  15  32  1   
 31  16  19  1   
 32  16  33  1   
 33  16  34  1   
 34  17  35  1   
 35  17  36  1   
 36  17  37  1   
 37  18  38  1   
 38  18  39  1   
 39  18  40  1   
 40  19  20  1   
 41  19  41  1   
 42  19  42  1   
 43  20  43  1   
@<TRIPOS>SUBSTRUCTURE
  1 ****   7 GROUP 4 **** **** 0

# MOE 2024.06 (io_trps.svl 2023.06)
