@<TRIPOS>MOLECULE
NONAME
50 52 1 0 0 
SMALL
USER_CHARGES


@<TRIPOS>ATOM
  1 O       -0.3340     1.4290     1.7950 O.2   1 <1>  -0.5700 
  2 C       -0.4050     2.5460     1.3500 C.2   1 <1>   0.5690 
  3 N       -1.5320     3.2750     1.4860 N.am  1 <1>  -0.7300 
  4 C        0.7720     3.1490     0.5850 C.3   1 <1>   0.1810 
  5 C       -1.7360     4.6080     0.8630 C.3   1 <1>   0.3640 
  6 O        0.7310     4.5570     0.5750 O.3   1 <1>  -0.5600 
  7 C       -2.9570     4.5110    -0.0530 C.ar  1 <1>  -0.1440 
  8 C       -0.4870     5.1200     0.0870 C.3   1 <1>   0.2610 
  9 C       -3.9260     5.5040    -0.0200 C.ar  1 <1>  -0.1500 
 10 C       -3.1210     3.4430    -0.9280 C.ar  1 <1>  -0.1500 
 11 C       -0.4210     6.6530     0.1580 C.2   1 <1>   0.5690 
 12 C       -5.0370     5.4330    -0.8410 C.ar  1 <1>  -0.1500 
 13 C       -4.2330     3.3700    -1.7500 C.ar  1 <1>  -0.1500 
 14 O       -1.3880     7.3110    -0.1450 O.2   1 <1>  -0.5700 
 15 N        0.7330     7.2430     0.5720 N.am  1 <1>  -0.7300 
 16 C       -5.1930     4.3650    -1.7060 C.ar  1 <1>  -0.1500 
 17 C        0.9840     8.6940     0.6840 C.3   1 <1>   0.1400 
 18 C        2.2110     9.0530    -0.1570 C.3   1 <1>  -0.1600 
 19 C        2.4810    10.5690    -0.2110 C.3   1 <1>  -0.0800 
 20 C        3.6180    10.8560    -1.2070 C.3   1 <1>  -0.1600 
 21 C        2.8270    11.1480     1.1750 C.3   1 <1>  -0.1600 
 22 C        3.9390    12.3550    -1.2860 C.3   1 <1>  -0.1600 
 23 C        3.1550    12.6460     1.0970 C.3   1 <1>  -0.1600 
 24 C        4.2840    12.9190     0.0970 C.3   1 <1>  -0.1600 
 25 H       -2.3410     2.8470     1.9360 H     1 <1>   0.3700 
 26 H        0.7640     2.7970    -0.4300 H     1 <1>   0.0800 
 27 H        1.6920     2.8490     1.0530 H     1 <1>   0.0800 
 28 H       -1.9520     5.3060     1.6540 H     1 <1>   0.0800 
 29 H       -0.5760     4.8450    -0.9480 H     1 <1>   0.0800 
 30 H       -3.8180     6.3490     0.6390 H     1 <1>   0.1500 
 31 H       -2.3880     2.6570    -0.9770 H     1 <1>   0.1500 
 32 H       -5.7790     6.2110    -0.8080 H     1 <1>   0.1500 
 33 H       -4.3520     2.5390    -2.4220 H     1 <1>   0.1500 
 34 H        1.5050     6.6190     0.8270 H     1 <1>   0.3700 
 35 H       -6.0570     4.3100    -2.3450 H     1 <1>   0.1500 
 36 H        0.1250     9.2420     0.3320 H     1 <1>   0.0800 
 37 H        1.1460     8.9400     1.7190 H     1 <1>   0.0800 
 38 H        3.0750     8.5480     0.2380 H     1 <1>   0.0800 
 39 H        2.0420     8.7010    -1.1590 H     1 <1>   0.0800 
 40 H        1.5920    11.0590    -0.5720 H     1 <1>   0.0800 
 41 H        4.5040    10.3240    -0.9060 H     1 <1>   0.0800 
 42 H        3.3410    10.5060    -2.1860 H     1 <1>   0.0800 
 43 H        2.0010    11.0180     1.8510 H     1 <1>   0.0800 
 44 H        3.6750    10.6250     1.5820 H     1 <1>   0.0800 
 45 H        4.7670    12.5110    -1.9560 H     1 <1>   0.0800 
 46 H        3.0890    12.8810    -1.6850 H     1 <1>   0.0800 
 47 H        2.2740    13.1870     0.7950 H     1 <1>   0.0800 
 48 H        3.4430    13.0030     2.0710 H     1 <1>   0.0800 
 49 H        4.4530    13.9790     0.0230 H     1 <1>   0.0800 
 50 H        5.1930    12.4630     0.4510 H     1 <1>   0.0800 
@<TRIPOS>BOND
  1   1   2  2   
  2   2   3  am  
  3   2   4  1   
  4   3   5  1   
  5   3  25  1   
  6   4   6  1   
  7   4  26  1   
  8   4  27  1   
  9   5   7  1   
 10   5   8  1   
 11   5  28  1   
 12   6   8  1   
 13   7   9  ar  
 14   7  10  ar  
 15   8  11  1   
 16   8  29  1   
 17   9  12  ar  
 18   9  30  1   
 19  10  13  ar  
 20  10  31  1   
 21  11  14  2   
 22  11  15  am  
 23  12  16  ar  
 24  12  32  1   
 25  13  16  ar  
 26  13  33  1   
 27  15  17  1   
 28  15  34  1   
 29  16  35  1   
 30  17  18  1   
 31  17  36  1   
 32  17  37  1   
 33  18  19  1   
 34  18  38  1   
 35  18  39  1   
 36  19  20  1   
 37  19  21  1   
 38  19  40  1   
 39  20  22  1   
 40  20  41  1   
 41  20  42  1   
 42  21  23  1   
 43  21  43  1   
 44  21  44  1   
 45  22  24  1   
 46  22  45  1   
 47  22  46  1   
 48  23  24  1   
 49  23  47  1   
 50  23  48  1   
 51  24  49  1   
 52  24  50  1   
@<TRIPOS>SUBSTRUCTURE
  1 ****  11 GROUP 4 **** **** 0

# MOE 2024.06 (io_trps.svl 2023.06)
