@<TRIPOS>MOLECULE
NONAME
46 47 1 0 0 
SMALL
USER_CHARGES


@<TRIPOS>ATOM
  1 CL       1.2020     1.4670    -2.1400 Cl    1 <1>  -0.1770 
  2 C        0.7050     2.4760    -0.8000 C.ar  1 <1>   0.1770 
  3 C        1.5100     2.6490     0.3230 C.ar  1 <1>  -0.1440 
  4 C       -0.5260     3.0970    -0.9070 C.ar  1 <1>  -0.1500 
  5 C        1.0380     3.4630     1.3460 C.ar  1 <1>  -0.1500 
  6 C        2.8800     1.9950     0.4810 C.3   1 <1>   0.3640 
  7 C       -0.9780     3.9060     0.1190 C.ar  1 <1>  -0.1500 
  8 C       -0.1950     4.0870     1.2450 C.ar  1 <1>  -0.1500 
  9 N        2.7460     0.5230     0.4480 N.am  1 <1>  -0.7300 
 10 C        3.9180     2.5150    -0.5460 C.3   1 <1>   0.2610 
 11 C        3.5930    -0.2850    -0.2290 C.2   1 <1>   0.5690 
 12 O        5.0400     1.6530    -0.6440 O.3   1 <1>  -0.5600 
 13 C        4.3180     3.9540    -0.1900 C.2   1 <1>   0.5690 
 14 O        3.4640    -1.4820    -0.1870 O.2   1 <1>  -0.5700 
 15 C        4.7170     0.3410    -1.0620 C.3   1 <1>   0.1810 
 16 O        3.8240     4.8370    -0.8570 O.2   1 <1>  -0.5700 
 17 N        5.1920     4.2840     0.8300 N.am  1 <1>  -0.6600 
 18 C        5.5090     5.7180     1.1020 C.3   1 <1>   0.1400 
 19 C        5.9340     3.3020     1.6820 C.3   1 <1>   0.0600 
 20 C        6.2880     6.3390    -0.0770 C.3   1 <1>   0.3430 
 21 N        5.8190     7.7200    -0.4430 N.4   1 <1>  -0.9590 
 22 C        4.4530     7.6740    -1.0630 C.3   1 <1>   0.2630 
 23 C        6.7800     8.3550    -1.3940 C.3   1 <1>   0.2630 
 24 H       -1.1240     2.9450    -1.7880 H     1 <1>   0.1500 
 25 H        1.6230     3.6230     2.2360 H     1 <1>   0.1500 
 26 H        3.2490     2.2450     1.4600 H     1 <1>   0.0800 
 27 H       -1.9360     4.3930     0.0420 H     1 <1>   0.1500 
 28 H       -0.5480     4.7150     2.0450 H     1 <1>   0.1500 
 29 H        1.9650     0.0990     0.9520 H     1 <1>   0.3700 
 30 H        3.4720     2.5490    -1.5210 H     1 <1>   0.0800 
 31 H        4.4190     0.3750    -2.0940 H     1 <1>   0.0800 
 32 H        5.6020    -0.2610    -0.9750 H     1 <1>   0.0800 
 33 H        4.5810     6.2400     1.2570 H     1 <1>   0.0800 
 34 H        6.0930     5.8040     2.0020 H     1 <1>   0.0800 
 35 H        5.9380     3.6300     2.7080 H     1 <1>   0.0800 
 36 H        6.9500     3.2170     1.3370 H     1 <1>   0.0800 
 37 H        5.4840     2.3270     1.6520 H     1 <1>   0.0800 
 38 H        6.1770     5.6960    -0.9350 H     1 <1>   0.0800 
 39 H        7.3330     6.3660     0.1840 H     1 <1>   0.0800 
 40 H        5.7730     8.2960     0.4110 H     1 <1>   0.4500 
 41 H        4.4640     7.0530    -1.9450 H     1 <1>   0.0800 
 42 H        4.1280     8.6640    -1.3390 H     1 <1>   0.0800 
 43 H        3.7370     7.2560    -0.3740 H     1 <1>   0.0800 
 44 H        6.8460     7.7760    -2.3010 H     1 <1>   0.0800 
 45 H        7.7620     8.4170    -0.9520 H     1 <1>   0.0800 
 46 H        6.4540     9.3520    -1.6450 H     1 <1>   0.0800 
@<TRIPOS>BOND
  1   1   2  1   
  2   2   3  ar  
  3   2   4  ar  
  4   3   5  ar  
  5   3   6  1   
  6   4   7  ar  
  7   4  24  1   
  8   5   8  ar  
  9   5  25  1   
 10   6   9  1   
 11   6  10  1   
 12   6  26  1   
 13   7   8  ar  
 14   7  27  1   
 15   8  28  1   
 16   9  11  am  
 17   9  29  1   
 18  10  12  1   
 19  10  13  1   
 20  10  30  1   
 21  11  14  2   
 22  11  15  1   
 23  12  15  1   
 24  13  16  2   
 25  13  17  am  
 26  15  31  1   
 27  15  32  1   
 28  17  18  1   
 29  17  19  1   
 30  18  20  1   
 31  18  33  1   
 32  18  34  1   
 33  19  35  1   
 34  19  36  1   
 35  19  37  1   
 36  20  21  1   
 37  20  38  1   
 38  20  39  1   
 39  21  22  1   
 40  21  23  1   
 41  21  40  1   
 42  22  41  1   
 43  22  42  1   
 44  22  43  1   
 45  23  44  1   
 46  23  45  1   
 47  23  46  1   
@<TRIPOS>SUBSTRUCTURE
  1 ****  13 GROUP 4 **** **** 0

# MOE 2024.06 (io_trps.svl 2023.06)
