@<TRIPOS>MOLECULE
NONAME
44 44 1 0 0 
SMALL
USER_CHARGES


@<TRIPOS>ATOM
  1 S       -0.5370    -0.3270     1.0650 S.o2  1 <1>   1.3330 
  2 O       -0.0980    -1.2080     2.1230 O.2   1 <1>  -0.6500 
  3 O       -1.6450     0.5750     1.2790 O.2   1 <1>  -0.6500 
  4 N        0.7930     0.5420     0.4720 N.am  1 <1>  -0.8490 
  5 C       -0.9860    -1.3550    -0.3350 C.3   1 <1>  -0.0550 
  6 C        0.8150     1.9310     0.9440 C.3   1 <1>   0.1160 
  7 C        2.0830    -0.0990     0.7510 C.3   1 <1>   0.1160 
  8 C       -2.1890    -2.2630    -0.0220 C.3   1 <1>  -0.1600 
  9 C       -2.5610    -3.1510    -1.2070 C.3   1 <1>   0.3430 
 10 N       -3.6020    -4.1270    -0.7870 N.4   1 <1>  -0.9590 
 11 C       -3.6890    -5.2760    -1.7300 C.3   1 <1>   0.4860 
 12 C       -4.9470    -3.4960    -0.5820 C.3   1 <1>   0.2630 
 13 C       -4.3790    -6.4160    -1.0060 C.ar  1 <1>  -0.1440 
 14 C       -3.7040    -7.1240    -0.0210 C.ar  1 <1>  -0.1500 
 15 C       -5.6860    -6.7580    -1.3150 C.ar  1 <1>  -0.1500 
 16 C       -4.3230    -8.1570     0.6760 C.ar  1 <1>  -0.1440 
 17 C       -6.3110    -7.7870    -0.6370 C.ar  1 <1>  -0.1500 
 18 C       -5.6370    -8.4800     0.3520 C.ar  1 <1>  -0.1500 
 19 C       -3.5630    -8.9270     1.7710 C.3   1 <1>   1.1630 
 20 F       -4.3630    -9.4790     2.6740 F     1 <1>  -0.3400 
 21 F       -2.8250    -9.9060     1.2670 F     1 <1>  -0.3400 
 22 F       -2.7310    -8.1380     2.4420 F     1 <1>  -0.3400 
 23 H       -0.1400    -1.9570    -0.6060 H     1 <1>   0.0800 
 24 H       -1.2200    -0.7170    -1.1660 H     1 <1>   0.0800 
 25 H       -0.0800     2.4420     0.6320 H     1 <1>   0.0800 
 26 H        1.6600     2.4530     0.5300 H     1 <1>   0.0800 
 27 H        0.8720     1.9600     2.0200 H     1 <1>   0.0800 
 28 H        2.0870    -1.1080     0.3740 H     1 <1>   0.0800 
 29 H        2.2670    -0.1280     1.8130 H     1 <1>   0.0800 
 30 H        2.8790     0.4450     0.2720 H     1 <1>   0.0800 
 31 H       -3.0210    -1.6360     0.2490 H     1 <1>   0.0800 
 32 H       -1.9340    -2.8760     0.8260 H     1 <1>   0.0800 
 33 H       -1.6790    -3.6810    -1.5330 H     1 <1>   0.0800 
 34 H       -2.9180    -2.5490    -2.0280 H     1 <1>   0.0800 
 35 H       -3.3170    -4.5350     0.1150 H     1 <1>   0.4500 
 36 H       -2.7020    -5.5950    -2.0240 H     1 <1>   0.0800 
 37 H       -4.2400    -5.0010    -2.6150 H     1 <1>   0.0800 
 38 H       -5.3040    -3.0600    -1.5010 H     1 <1>   0.0800 
 39 H       -4.8910    -2.7230     0.1680 H     1 <1>   0.0800 
 40 H       -5.6600    -4.2350    -0.2500 H     1 <1>   0.0800 
 41 H       -2.6800    -6.8770     0.2130 H     1 <1>   0.1500 
 42 H       -6.2330    -6.2370    -2.0840 H     1 <1>   0.1500 
 43 H       -7.3270    -8.0540    -0.8780 H     1 <1>   0.1500 
 44 H       -6.1470    -9.2800     0.8660 H     1 <1>   0.1500 
@<TRIPOS>BOND
  1   1   2  2   
  2   1   3  2   
  3   1   4  am  
  4   1   5  1   
  5   4   6  1   
  6   4   7  1   
  7   5   8  1   
  8   5  23  1   
  9   5  24  1   
 10   6  25  1   
 11   6  26  1   
 12   6  27  1   
 13   7  28  1   
 14   7  29  1   
 15   7  30  1   
 16   8   9  1   
 17   8  31  1   
 18   8  32  1   
 19   9  10  1   
 20   9  33  1   
 21   9  34  1   
 22  10  11  1   
 23  10  12  1   
 24  10  35  1   
 25  11  13  1   
 26  11  36  1   
 27  11  37  1   
 28  12  38  1   
 29  12  39  1   
 30  12  40  1   
 31  13  14  ar  
 32  13  15  ar  
 33  14  16  ar  
 34  14  41  1   
 35  15  17  ar  
 36  15  42  1   
 37  16  18  ar  
 38  16  19  1   
 39  17  18  ar  
 40  17  43  1   
 41  18  44  1   
 42  19  20  1   
 43  19  21  1   
 44  19  22  1   
@<TRIPOS>SUBSTRUCTURE
  1 ****  10 GROUP 4 **** **** 0

# MOE 2024.06 (io_trps.svl 2023.06)
