@<TRIPOS>MOLECULE
NONAME
51 54 1 0 0 
SMALL
USER_CHARGES


@<TRIPOS>ATOM
  1 O       -0.4450     0.4030    -0.2250 O.2   1 <1>  -0.5700 
  2 C       -1.5010     0.9980    -0.1150 C.2   1 <1>   0.5440 
  3 N       -2.6640     0.2660    -0.0320 N.am  1 <1>  -0.6600 
  4 C       -1.5000     2.4350    -0.0940 C.ar  1 <1>   0.0860 
  5 C       -3.9990     0.7420    -0.4850 C.3   1 <1>   0.1400 
  6 C       -2.6460    -1.2190     0.0360 C.3   1 <1>   0.1400 
  7 C       -0.6620     3.1760    -0.9030 C.ar  1 <1>   0.1600 
  8 C       -2.3190     3.1810     0.7320 C.ar  1 <1>   0.1600 
  9 C       -4.7270    -0.5180    -0.9520 C.3   1 <1>   0.2000 
 10 C       -4.0990    -1.6550    -0.1540 C.3   1 <1>  -0.0800 
 11 N       -0.6550     4.4870    -0.9230 N.ar  1 <1>  -0.6200 
 12 N       -2.3400     4.4910     0.7360 N.ar  1 <1>  -0.6200 
 13 O       -6.0870    -0.4460    -0.7010 O.3   1 <1>  -0.6800 
 14 C       -4.2450    -3.0280    -0.8280 C.3   1 <1>   0.0210 
 15 C       -1.5020     5.1060    -0.1000 C.ar  1 <1>   0.7200 
 16 C       -3.4880    -4.0930    -0.0580 C.2   1 <1>   0.1080 
 17 N       -1.5140     6.4790    -0.1150 N.pl3 1 <1>  -0.8380 
 18 N       -3.7090    -4.3470     1.1940 N.2   1 <1>  -0.7070 
 19 C       -2.4820    -4.8930    -0.5880 C.2   1 <1>  -0.1500 
 20 C       -2.4140     7.3140     0.7410 C.3   1 <1>   0.2090 
 21 C       -0.6010     7.3080    -0.9650 C.3   1 <1>   0.2090 
 22 N       -2.8420    -5.3310     1.4990 N.pl3 1 <1>   0.3000 
 23 C       -2.0850    -5.6770     0.4360 C.2   1 <1>  -0.3320 
 24 C       -1.6100     8.3940     1.4860 C.3   1 <1>   0.1200 
 25 C        0.0970     8.3890    -0.1200 C.3   1 <1>   0.1200 
 26 C       -1.0130    -6.7510     0.4660 C.3   1 <1>  -0.0600 
 27 O       -0.8350     9.1520     0.5970 O.3   1 <1>  -0.5600 
 28 H       -4.5180     1.1870     0.3460 H     1 <1>   0.0800 
 29 H       -3.9050     1.4490    -1.2910 H     1 <1>   0.0800 
 30 H       -2.0230    -1.6020    -0.7550 H     1 <1>   0.0800 
 31 H       -2.2580    -1.5540     0.9840 H     1 <1>   0.0800 
 32 H        0.0210     2.6550    -1.5520 H     1 <1>   0.1500 
 33 H       -2.9740     2.6680     1.4140 H     1 <1>   0.1500 
 34 H       -4.5810    -0.6500    -2.0110 H     1 <1>   0.0800 
 35 H       -4.5430    -1.6980     0.8260 H     1 <1>   0.0800 
 36 H       -6.2600    -0.5100     0.2580 H     1 <1>   0.4000 
 37 H       -3.8730    -2.9870    -1.8360 H     1 <1>   0.0800 
 38 H       -5.2840    -3.3020    -0.8640 H     1 <1>   0.0800 
 39 H       -2.1160    -4.8720    -1.5990 H     1 <1>   0.1500 
 40 H       -3.1490     7.7900     0.1170 H     1 <1>   0.0800 
 41 H       -2.9380     6.7170     1.4650 H     1 <1>   0.0800 
 42 H        0.1530     6.7050    -1.4390 H     1 <1>   0.0800 
 43 H       -1.1760     7.7820    -1.7400 H     1 <1>   0.0800 
 44 H       -2.7900    -5.7430     2.4380 H     1 <1>   0.2700 
 45 H       -0.9570     7.9380     2.2100 H     1 <1>   0.0800 
 46 H       -2.2760     9.0660     1.9950 H     1 <1>   0.0800 
 47 H        0.6470     9.0570    -0.7570 H     1 <1>   0.0800 
 48 H        0.7790     7.9340     0.5760 H     1 <1>   0.0800 
 49 H       -0.5520    -6.8390    -0.5020 H     1 <1>   0.0800 
 50 H       -1.4450    -7.7000     0.7280 H     1 <1>   0.0800 
 51 H       -0.2540    -6.4980     1.1840 H     1 <1>   0.0800 
@<TRIPOS>BOND
  1   1   2  2   
  2   2   3  am  
  3   2   4  1   
  4   3   5  1   
  5   3   6  1   
  6   4   7  ar  
  7   4   8  ar  
  8   5   9  1   
  9   5  28  1   
 10   5  29  1   
 11   6  10  1   
 12   6  30  1   
 13   6  31  1   
 14   7  11  ar  
 15   7  32  1   
 16   8  12  ar  
 17   8  33  1   
 18   9  10  1   
 19   9  13  1   
 20   9  34  1   
 21  10  14  1   
 22  10  35  1   
 23  11  15  ar  
 24  12  15  ar  
 25  13  36  1   
 26  14  16  1   
 27  14  37  1   
 28  14  38  1   
 29  15  17  1   
 30  16  18  2   
 31  16  19  1   
 32  17  20  1   
 33  17  21  1   
 34  18  22  1   
 35  19  23  2   
 36  19  39  1   
 37  20  24  1   
 38  20  40  1   
 39  20  41  1   
 40  21  25  1   
 41  21  42  1   
 42  21  43  1   
 43  22  23  1   
 44  22  44  1   
 45  23  26  1   
 46  24  27  1   
 47  24  45  1   
 48  24  46  1   
 49  25  27  1   
 50  25  47  1   
 51  25  48  1   
 52  26  49  1   
 53  26  50  1   
 54  26  51  1   
@<TRIPOS>SUBSTRUCTURE
  1 ****   2 GROUP 4 **** **** 0

# MOE 2024.06 (io_trps.svl 2023.06)
