@<TRIPOS>MOLECULE
NONAME
42 44 1 0 0 
SMALL
USER_CHARGES


@<TRIPOS>ATOM
  1 O       -0.1420    -0.9230    -2.1540 O.3   1 <1>  -0.2800 
  2 C       -0.0280    -2.0310    -1.4540 C.2   1 <1>  -0.0100 
  3 C       -1.2720    -0.9880    -2.8270 C.2   1 <1>  -0.0100 
  4 C       -1.0950    -2.8350    -1.6560 C.2   1 <1>  -0.1810 
  5 C       -1.9130    -2.1470    -2.5670 C.2   1 <1>  -0.1500 
  6 C       -1.3660    -4.1910    -1.0450 C.3   1 <1>   0.5240 
  7 N       -2.2670    -4.0030     0.1190 N.4   1 <1>  -0.9590 
  8 C       -3.6560    -3.6290    -0.2910 C.3   1 <1>   0.3430 
  9 C       -2.3570    -5.2020     1.0080 C.3   1 <1>   0.3430 
 10 C       -4.5700    -4.3450     0.6890 C.3   1 <1>  -0.0800 
 11 C       -3.8180    -5.6510     0.9690 C.3   1 <1>  -0.0800 
 12 C       -6.0200    -4.5040     0.1790 C.3   1 <1>   0.2800 
 13 C       -4.0170    -6.7150    -0.1310 C.3   1 <1>  -0.1600 
 14 O       -6.3630    -3.3130    -0.4200 O.3   1 <1>  -0.6800 
 15 C       -6.1260    -5.5830    -0.9140 C.3   1 <1>  -0.1600 
 16 C       -7.0310    -4.7730     1.3190 C.3   1 <1>  -0.1600 
 17 C       -5.4930    -6.9130    -0.4830 C.3   1 <1>  -0.1600 
 18 C       -7.2380    -3.6320     2.3350 C.3   1 <1>  -0.2400 
 19 H        0.8510    -2.1530    -0.8410 H     1 <1>   0.1500 
 20 H       -1.5400    -0.1660    -3.4690 H     1 <1>   0.1500 
 21 H       -2.8520    -2.4810    -2.9760 H     1 <1>   0.1500 
 22 H       -0.4330    -4.6210    -0.7190 H     1 <1>   0.0800 
 23 H       -1.8140    -4.8480    -1.7720 H     1 <1>   0.0800 
 24 H       -1.8880    -3.2130     0.6570 H     1 <1>   0.4500 
 25 H       -3.8120    -2.5620    -0.2660 H     1 <1>   0.0800 
 26 H       -3.8600    -3.9880    -1.2860 H     1 <1>   0.0800 
 27 H       -1.7000    -5.9940     0.6860 H     1 <1>   0.0800 
 28 H       -2.0980    -4.9220     2.0170 H     1 <1>   0.0800 
 29 H       -4.5810    -3.7560     1.5870 H     1 <1>   0.0800 
 30 H       -4.1150    -6.0650     1.9180 H     1 <1>   0.0800 
 31 H       -3.4950    -6.4330    -1.0300 H     1 <1>   0.0800 
 32 H       -3.6060    -7.6560     0.1970 H     1 <1>   0.0800 
 33 H       -7.3290    -3.2970    -0.5740 H     1 <1>   0.4000 
 34 H       -7.1590    -5.7540    -1.1630 H     1 <1>   0.0800 
 35 H       -5.6310    -5.2440    -1.8080 H     1 <1>   0.0800 
 36 H       -7.9880    -5.0070     0.8870 H     1 <1>   0.0800 
 37 H       -6.7220    -5.6490     1.8620 H     1 <1>   0.0800 
 38 H       -6.0210    -7.3210     0.3620 H     1 <1>   0.0800 
 39 H       -5.5780    -7.6250    -1.2880 H     1 <1>   0.0800 
 40 H       -7.5460    -2.7260     1.8430 H     1 <1>   0.0800 
 41 H       -6.3440    -3.4340     2.8960 H     1 <1>   0.0800 
 42 H       -8.0090    -3.9080     3.0330 H     1 <1>   0.0800 
@<TRIPOS>BOND
  1   1   2  1   
  2   1   3  1   
  3   2   4  2   
  4   2  19  1   
  5   3   5  2   
  6   3  20  1   
  7   4   5  1   
  8   4   6  1   
  9   5  21  1   
 10   6   7  1   
 11   6  22  1   
 12   6  23  1   
 13   7   8  1   
 14   7   9  1   
 15   7  24  1   
 16   8  10  1   
 17   8  25  1   
 18   8  26  1   
 19   9  11  1   
 20   9  27  1   
 21   9  28  1   
 22  10  11  1   
 23  10  12  1   
 24  10  29  1   
 25  11  13  1   
 26  11  30  1   
 27  12  14  1   
 28  12  15  1   
 29  12  16  1   
 30  13  17  1   
 31  13  31  1   
 32  13  32  1   
 33  14  33  1   
 34  15  17  1   
 35  15  34  1   
 36  15  35  1   
 37  16  18  1   
 38  16  36  1   
 39  16  37  1   
 40  17  38  1   
 41  17  39  1   
 42  18  40  1   
 43  18  41  1   
 44  18  42  1   
@<TRIPOS>SUBSTRUCTURE
  1 ****   8 GROUP 4 **** **** 0

# MOE 2024.06 (io_trps.svl 2023.06)
