@<TRIPOS>MOLECULE
NONAME
44 46 1 0 0 
SMALL
USER_CHARGES


@<TRIPOS>ATOM
  1 S        0.2540    -0.2100     0.7740 S.3   1 <1>  -0.0800 
  2 C       -0.4250     1.4010     0.5980 C.2   1 <1>  -0.1400 
  3 C       -1.3350    -0.9510     0.7150 C.2   1 <1>  -0.1400 
  4 C       -1.7670     1.3290     0.5110 C.2   1 <1>  -0.1500 
  5 C        0.5600     2.5640     0.5810 C.3   1 <1>   0.1000 
  6 C       -2.2850    -0.0030     0.5770 C.2   1 <1>  -0.1500 
  7 C       -1.3550    -2.4640     0.8270 C.3   1 <1>   0.5230 
  8 C       -0.1590     3.9120     0.7640 C.3   1 <1>  -0.1600 
  9 C        1.3690     2.5630    -0.7270 C.3   1 <1>  -0.1600 
 10 N       -2.7340    -2.9590     0.5710 N.4   1 <1>  -0.9590 
 11 C        0.8270     5.0890     0.7170 C.3   1 <1>  -0.1600 
 12 C        2.3530     3.7410    -0.7880 C.3   1 <1>  -0.1600 
 13 C       -2.8740    -4.4350     0.8830 C.3   1 <1>   0.3170 
 14 C       -3.1070    -2.8970    -0.8630 C.3   1 <1>   0.3430 
 15 C        1.6330     5.0800    -0.5880 C.3   1 <1>  -0.1600 
 16 C       -1.6170    -5.2530     0.4920 C.2   1 <1>   0.9060 
 17 C       -4.1190    -4.8740     0.0880 C.3   1 <1>  -0.1600 
 18 C       -4.3640    -3.7630    -0.9340 C.3   1 <1>   0.2000 
 19 O       -1.3680    -5.4020    -0.7110 O.co2 1 <1>  -0.9000 
 20 O       -0.8270    -5.5550     1.3860 O.co2 1 <1>  -0.9000 
 21 O       -5.4360    -3.0000    -0.4820 O.3   1 <1>  -0.6800 
 22 H       -2.4320     2.1680     0.4010 H     1 <1>   0.1500 
 23 H        1.2390     2.4340     1.4060 H     1 <1>   0.0800 
 24 H       -3.3470    -0.1650     0.5150 H     1 <1>   0.1500 
 25 H       -1.0340    -2.7570     1.8140 H     1 <1>   0.0800 
 26 H       -0.6710    -2.8960     0.1130 H     1 <1>   0.0800 
 27 H       -0.8870     4.0380    -0.0180 H     1 <1>   0.0800 
 28 H       -0.6770     3.9170     1.7070 H     1 <1>   0.0800 
 29 H        1.9170     1.6410    -0.8130 H     1 <1>   0.0800 
 30 H        0.6910     2.6210    -1.5610 H     1 <1>   0.0800 
 31 H       -3.4240    -2.4280     1.1100 H     1 <1>   0.4500 
 32 H        0.2860     6.0160     0.8000 H     1 <1>   0.0800 
 33 H        1.5010     5.0250     1.5540 H     1 <1>   0.0800 
 34 H        3.1000     3.6210    -0.0210 H     1 <1>   0.0800 
 35 H        2.8570     3.7410    -1.7390 H     1 <1>   0.0800 
 36 H       -3.0260    -4.5830     1.9370 H     1 <1>   0.0800 
 37 H       -3.2950    -1.8910    -1.1970 H     1 <1>   0.0800 
 38 H       -2.3290    -3.3460    -1.4610 H     1 <1>   0.0800 
 39 H        2.3550     5.8790    -0.5720 H     1 <1>   0.0800 
 40 H        0.9690     5.2540    -1.4180 H     1 <1>   0.0800 
 41 H       -4.9560    -5.0190     0.7470 H     1 <1>   0.0800 
 42 H       -3.9210    -5.8060    -0.4130 H     1 <1>   0.0800 
 43 H       -4.5690    -4.1180    -1.9300 H     1 <1>   0.0800 
 44 H       -6.2730    -3.5020    -0.5720 H     1 <1>   0.4000 
@<TRIPOS>BOND
  1   1   2  1   
  2   1   3  1   
  3   2   4  2   
  4   2   5  1   
  5   3   6  2   
  6   3   7  1   
  7   4   6  1   
  8   4  22  1   
  9   5   8  1   
 10   5   9  1   
 11   5  23  1   
 12   6  24  1   
 13   7  10  1   
 14   7  25  1   
 15   7  26  1   
 16   8  11  1   
 17   8  27  1   
 18   8  28  1   
 19   9  12  1   
 20   9  29  1   
 21   9  30  1   
 22  10  13  1   
 23  10  14  1   
 24  10  31  1   
 25  11  15  1   
 26  11  32  1   
 27  11  33  1   
 28  12  15  1   
 29  12  34  1   
 30  12  35  1   
 31  13  16  1   
 32  13  17  1   
 33  13  36  1   
 34  14  18  1   
 35  14  37  1   
 36  14  38  1   
 37  15  39  1   
 38  15  40  1   
 39  16  19  ar  
 40  16  20  ar  
 41  17  18  1   
 42  17  41  1   
 43  17  42  1   
 44  18  21  1   
 45  18  43  1   
 46  21  44  1   
@<TRIPOS>SUBSTRUCTURE
  1 ****   3 GROUP 4 **** **** 0

# MOE 2024.06 (io_trps.svl 2023.06)
