@<TRIPOS>MOLECULE
NONAME
48 50 1 0 0 
SMALL
USER_CHARGES


@<TRIPOS>ATOM
  1 O        0.5320     0.0360     0.9360 O.2   1 <1>  -0.5700 
  2 C        1.3680    -0.3200     0.1390 C.2   1 <1>   0.5690 
  3 N        2.2460     0.5700    -0.4310 N.am  1 <1>  -0.6600 
  4 C        1.4390    -1.8010    -0.2110 C.3   1 <1>  -0.0990 
  5 C        3.2770     0.2010    -1.4500 C.3   1 <1>   0.1400 
  6 C        2.1860     2.0150    -0.0640 C.3   1 <1>   0.1400 
  7 C        0.3730    -2.6580     0.4870 C.3   1 <1>   0.0200 
  8 C        4.6220    -0.1370    -0.7870 C.3   1 <1>   0.1100 
  9 C        3.5610     2.6900     0.0320 C.3   1 <1>  -0.1600 
 10 C        0.5760    -4.1240     0.1350 C.2   1 <1>  -0.3320 
 11 N        5.3690     1.0460    -0.3160 N.3   1 <1>  -0.8100 
 12 C        4.6410     1.8340     0.6990 C.3   1 <1>   0.1100 
 13 N        1.3910    -4.9790     0.7930 N.pl3 1 <1>   0.3140 
 14 C        0.0020    -4.8270    -0.8640 C.2   1 <1>  -0.1500 
 15 C        6.7090     0.6400     0.1820 C.3   1 <1>   0.2900 
 16 N        1.3660    -6.2030     0.2390 N.2   1 <1>  -0.7070 
 17 C        2.2110    -4.7050     1.9810 C.3   1 <1>   0.0160 
 18 C        0.5310    -6.1050    -0.7490 C.2   1 <1>   0.1390 
 19 C        7.6550     1.8120     0.4320 C.2   1 <1>   0.2980 
 20 O        8.0490     2.5640    -0.5460 O.3   1 <1>  -0.2800 
 21 N        8.1530     2.1750     1.5540 N.2   1 <1>  -0.3380 
 22 C        8.8170     3.4290     0.0280 C.2   1 <1>   0.2980 
 23 N        8.9140     3.2380     1.2880 N.2   1 <1>  -0.3380 
 24 C        9.4800     4.5090    -0.7930 C.3   1 <1>  -0.0600 
 25 H        2.4120    -2.1670     0.0550 H     1 <1>   0.0800 
 26 H        1.3090    -1.9130    -1.2700 H     1 <1>   0.0800 
 27 H        3.4120     1.0060    -2.1520 H     1 <1>   0.0800 
 28 H        2.9440    -0.6500    -2.0140 H     1 <1>   0.0800 
 29 H        1.7010     2.1160     0.8930 H     1 <1>   0.0800 
 30 H        1.5810     2.5350    -0.7870 H     1 <1>   0.0800 
 31 H       -0.6020    -2.3430     0.1580 H     1 <1>   0.0800 
 32 H        0.4150    -2.5210     1.5540 H     1 <1>   0.0800 
 33 H        5.2230    -0.6410    -1.5250 H     1 <1>   0.0800 
 34 H        4.4580    -0.8210     0.0280 H     1 <1>   0.0800 
 35 H        3.4330     3.5840     0.6150 H     1 <1>   0.0800 
 36 H        3.8950     3.0050    -0.9410 H     1 <1>   0.0800 
 37 H        4.2160     1.1930     1.4540 H     1 <1>   0.0800 
 38 H        5.3230     2.5090     1.1880 H     1 <1>   0.0800 
 39 H       -0.7080    -4.5010    -1.6030 H     1 <1>   0.1500 
 40 H        7.1780     0.0010    -0.5440 H     1 <1>   0.0800 
 41 H        6.5990     0.0830     1.0960 H     1 <1>   0.0800 
 42 H        2.8850    -3.8980     1.7700 H     1 <1>   0.0800 
 43 H        2.7720    -5.5870     2.2310 H     1 <1>   0.0800 
 44 H        1.5670    -4.4460     2.7990 H     1 <1>   0.0800 
 45 H        0.2840    -6.9280    -1.3980 H     1 <1>   0.1500 
 46 H       10.1070     4.0600    -1.5410 H     1 <1>   0.0800 
 47 H       10.0800     5.1350    -0.1590 H     1 <1>   0.0800 
 48 H        8.7290     5.1090    -1.2730 H     1 <1>   0.0800 
@<TRIPOS>BOND
  1   1   2  2   
  2   2   3  am  
  3   2   4  1   
  4   3   5  1   
  5   3   6  1   
  6   4   7  1   
  7   4  25  1   
  8   4  26  1   
  9   5   8  1   
 10   5  27  1   
 11   5  28  1   
 12   6   9  1   
 13   6  29  1   
 14   6  30  1   
 15   7  10  1   
 16   7  31  1   
 17   7  32  1   
 18   8  11  1   
 19   8  33  1   
 20   8  34  1   
 21   9  12  1   
 22   9  35  1   
 23   9  36  1   
 24  10  13  1   
 25  10  14  2   
 26  11  12  1   
 27  11  15  1   
 28  12  37  1   
 29  12  38  1   
 30  13  16  1   
 31  13  17  1   
 32  14  18  1   
 33  14  39  1   
 34  15  19  1   
 35  15  40  1   
 36  15  41  1   
 37  16  18  2   
 38  17  42  1   
 39  17  43  1   
 40  17  44  1   
 41  18  45  1   
 42  19  20  1   
 43  19  21  2   
 44  20  22  1   
 45  21  23  1   
 46  22  23  2   
 47  22  24  1   
 48  24  46  1   
 49  24  47  1   
 50  24  48  1   
@<TRIPOS>SUBSTRUCTURE
  1 ****   8 GROUP 4 **** **** 0

# MOE 2024.06 (io_trps.svl 2023.06)
