@<TRIPOS>MOLECULE
NONAME
54 57 1 0 0 
SMALL
USER_CHARGES


@<TRIPOS>ATOM
  1 O        0.5330    -1.8300    -2.8710 O.3   1 <1>  -0.5600 
  2 C       -0.5190    -1.4170    -2.0540 C.3   1 <1>   0.2580 
  3 C        1.6950    -2.1440    -2.1780 C.3   1 <1>   0.1200 
  4 C       -0.7160    -2.4080    -0.9110 C.2   1 <1>  -0.2880 
  5 C        1.4550    -3.4370    -1.3890 C.3   1 <1>  -0.0220 
  6 C        0.1580    -3.3710    -0.5720 C.2   1 <1>  -0.2760 
  7 C       -0.0270    -4.4210     0.5700 C.3   1 <1>   0.1380 
  8 C       -0.0300    -5.8990     0.0680 C.3   1 <1>   0.4230 
  9 C       -1.4330    -4.3050     1.2450 C.3   1 <1>   0.1200 
 10 C        1.0560    -4.1820     1.6640 C.3   1 <1>  -0.1600 
 11 N        1.2940    -6.6040    -0.1390 N.4   1 <1>  -0.9590 
 12 C       -1.0520    -6.0880    -1.0630 C.3   1 <1>  -0.1600 
 13 O       -2.4060    -5.1490     0.6670 O.3   1 <1>  -0.5600 
 14 C        1.9170    -5.4210     1.9650 C.3   1 <1>  -0.1600 
 15 C        2.4250    -6.0700     0.6780 C.3   1 <1>   0.3430 
 16 C        1.7250    -6.8740    -1.5360 C.3   1 <1>   0.5240 
 17 C       -2.3490    -5.3410    -0.7140 C.3   1 <1>   0.1200 
 18 C        2.7170    -8.0090    -1.4740 C.2   1 <1>  -0.1810 
 19 C        2.4260    -9.3570    -1.2910 C.2   1 <1>   0.1080 
 20 C        4.0660    -7.9600    -1.5660 C.2   1 <1>  -0.3020 
 21 N        3.4970   -10.0760    -1.2490 N.2   1 <1>  -0.7070 
 22 C        1.0610    -9.9980    -1.1490 C.3   1 <1>  -0.0590 
 23 N        4.5150    -9.2230    -1.4320 N.pl3 1 <1>   0.3140 
 24 C        5.9050    -9.6910    -1.4770 C.3   1 <1>   0.0160 
 25 H       -0.2980    -0.4320    -1.6790 H     1 <1>   0.0800 
 26 H       -1.4010    -1.3690    -2.6690 H     1 <1>   0.0800 
 27 H        2.4850    -2.2720    -2.8970 H     1 <1>   0.0800 
 28 H        1.9410    -1.3240    -1.5240 H     1 <1>   0.0800 
 29 H       -1.6570    -2.2190    -0.4290 H     1 <1>   0.1500 
 30 H        1.3850    -4.2310    -2.1040 H     1 <1>   0.0800 
 31 H        2.3140    -3.5960    -0.7700 H     1 <1>   0.0800 
 32 H       -0.4700    -6.4250     0.9010 H     1 <1>   0.0800 
 33 H       -1.8090    -3.3020     1.2670 H     1 <1>   0.0800 
 34 H       -1.3700    -4.6240     2.2710 H     1 <1>   0.0800 
 35 H        1.7050    -3.3780     1.3650 H     1 <1>   0.0800 
 36 H        0.6100    -3.8460     2.5850 H     1 <1>   0.0800 
 37 H        1.1430    -7.5500     0.2310 H     1 <1>   0.4500 
 38 H       -1.2800    -7.1320    -1.1800 H     1 <1>   0.0800 
 39 H       -0.6940    -5.6980    -1.9980 H     1 <1>   0.0800 
 40 H        1.3600    -6.1410     2.5410 H     1 <1>   0.0800 
 41 H        2.7620    -5.1220     2.5610 H     1 <1>   0.0800 
 42 H        3.1070    -6.8720     0.9170 H     1 <1>   0.0800 
 43 H        2.9710    -5.3350     0.1100 H     1 <1>   0.0800 
 44 H        0.8930    -7.1680    -2.1530 H     1 <1>   0.0800 
 45 H        2.1950    -6.0080    -1.9670 H     1 <1>   0.0800 
 46 H       -3.2130    -5.9140    -1.0060 H     1 <1>   0.0800 
 47 H       -2.4010    -4.3800    -1.1950 H     1 <1>   0.0800 
 48 H        4.7280    -7.1270    -1.7190 H     1 <1>   0.1500 
 49 H        0.2830    -9.3570    -1.5180 H     1 <1>   0.0800 
 50 H        0.8760   -10.2360    -0.1180 H     1 <1>   0.0800 
 51 H        1.0430   -10.9130    -1.7140 H     1 <1>   0.0800 
 52 H        6.5670    -8.8590    -1.6210 H     1 <1>   0.0800 
 53 H        6.0110   -10.3860    -2.2890 H     1 <1>   0.0800 
 54 H        6.1360   -10.1870    -0.5520 H     1 <1>   0.0800 
@<TRIPOS>BOND
  1   1   2  1   
  2   1   3  1   
  3   2   4  1   
  4   2  25  1   
  5   2  26  1   
  6   3   5  1   
  7   3  27  1   
  8   3  28  1   
  9   4   6  2   
 10   4  29  1   
 11   5   6  1   
 12   5  30  1   
 13   5  31  1   
 14   6   7  1   
 15   7   8  1   
 16   7   9  1   
 17   7  10  1   
 18   8  11  1   
 19   8  12  1   
 20   8  32  1   
 21   9  13  1   
 22   9  33  1   
 23   9  34  1   
 24  10  14  1   
 25  10  35  1   
 26  10  36  1   
 27  11  15  1   
 28  11  16  1   
 29  11  37  1   
 30  12  17  1   
 31  12  38  1   
 32  12  39  1   
 33  13  17  1   
 34  14  15  1   
 35  14  40  1   
 36  14  41  1   
 37  15  42  1   
 38  15  43  1   
 39  16  18  1   
 40  16  44  1   
 41  16  45  1   
 42  17  46  1   
 43  17  47  1   
 44  18  19  1   
 45  18  20  2   
 46  19  21  2   
 47  19  22  1   
 48  20  23  1   
 49  20  48  1   
 50  21  23  1   
 51  22  49  1   
 52  22  50  1   
 53  22  51  1   
 54  23  24  1   
 55  24  52  1   
 56  24  53  1   
 57  24  54  1   
@<TRIPOS>SUBSTRUCTURE
  1 ****  11 GROUP 4 **** **** 0

# MOE 2024.06 (io_trps.svl 2023.06)
