@<TRIPOS>MOLECULE
NONAME
62 65 1 0 0 
SMALL
USER_CHARGES


@<TRIPOS>ATOM
  1 O       -0.9580     1.3390     0.0510 O.2   1 <1>  -0.5700 
  2 C       -1.6160     2.0800     0.7540 C.2   1 <1>   0.7800 
  3 O       -1.0510     3.1630     1.2890 O.3   1 <1>  -0.4300 
  4 N       -2.9470     1.8590     1.0120 N.am  1 <1>  -0.6600 
  5 C        0.3130     3.4460     1.0750 C.3   1 <1>   0.1200 
  6 C       -3.7860     2.7790     1.8070 C.3   1 <1>   0.1400 
  7 C       -3.6550     0.6780     0.4760 C.3   1 <1>   0.1400 
  8 C        0.6500     4.7380     1.8120 C.3   1 <1>  -0.2400 
  9 C       -4.8990     3.3100     0.9050 C.3   1 <1>  -0.1600 
 10 C       -4.7660     1.1650    -0.4530 C.3   1 <1>  -0.1600 
 11 C       -5.7020     2.1720     0.2430 C.3   1 <1>   0.4230 
 12 N       -6.6760     2.7250    -0.7580 N.4   1 <1>  -0.9590 
 13 C       -7.5370     3.8250    -0.1840 C.3   1 <1>   0.3430 
 14 C       -7.5540     1.6630    -1.3490 C.3   1 <1>   0.3430 
 15 C       -8.4560     4.4780    -1.2290 C.3   1 <1>   0.1430 
 16 C       -8.4480     2.2470    -2.4470 C.3   1 <1>  -0.1600 
 17 C       -9.3310     5.4670    -0.5020 C.ar  1 <1>   0.1670 
 18 C       -9.3130     3.4090    -1.9320 C.3   1 <1>  -0.1600 
 19 C       -7.6980     5.3820    -2.2400 C.3   1 <1>  -0.1600 
 20 N       -9.9550     5.2090     0.6170 N.ar  1 <1>  -0.6200 
 21 C       -9.3670     6.6740    -1.1290 C.ar  1 <1>  -0.1430 
 22 C       -8.5310     6.6720    -2.3840 C.3   1 <1>  -0.0170 
 23 C      -10.6560     6.2330     1.1150 C.ar  1 <1>   0.7200 
 24 C      -10.1140     7.6650    -0.5450 C.ar  1 <1>   0.1600 
 25 N      -10.7570     7.4530     0.5790 N.ar  1 <1>  -0.6200 
 26 N      -11.3240     6.0080     2.2990 N.pl3 1 <1>  -0.8380 
 27 C      -11.8350     7.1330     3.1300 C.3   1 <1>   0.1290 
 28 C      -11.8130     4.6580     2.6920 C.3   1 <1>   0.1290 
 29 H        0.4800     3.5500     0.0150 H     1 <1>   0.0800 
 30 H        0.8960     2.6220     1.4530 H     1 <1>   0.0800 
 31 H       -3.2060     3.6010     2.1930 H     1 <1>   0.0800 
 32 H       -4.1990     2.2440     2.6460 H     1 <1>   0.0800 
 33 H       -4.0620     0.1080     1.2940 H     1 <1>   0.0800 
 34 H       -2.9770     0.0400    -0.0670 H     1 <1>   0.0800 
 35 H        0.0560     5.5490     1.4300 H     1 <1>   0.0800 
 36 H        1.6880     4.9770     1.6680 H     1 <1>   0.0800 
 37 H        0.4680     4.6220     2.8650 H     1 <1>   0.0800 
 38 H       -4.4500     3.9360     0.1540 H     1 <1>   0.0800 
 39 H       -5.5340     3.9140     1.5260 H     1 <1>   0.0800 
 40 H       -5.3080     0.2960    -0.7740 H     1 <1>   0.0800 
 41 H       -4.3040     1.6190    -1.3120 H     1 <1>   0.0800 
 42 H       -6.2440     1.6520     1.0170 H     1 <1>   0.0800 
 43 H       -6.1200     3.1310    -1.5210 H     1 <1>   0.4500 
 44 H       -6.9270     4.6020     0.2430 H     1 <1>   0.0800 
 45 H       -8.1530     3.4230     0.6040 H     1 <1>   0.0800 
 46 H       -8.1720     1.2330    -0.5770 H     1 <1>   0.0800 
 47 H       -6.9560     0.8760    -1.7790 H     1 <1>   0.0800 
 48 H       -9.0940     1.4690    -2.8170 H     1 <1>   0.0800 
 49 H       -7.8370     2.5670    -3.2730 H     1 <1>   0.0800 
 50 H       -9.8680     3.8500    -2.7430 H     1 <1>   0.0800 
 51 H      -10.0330     3.0220    -1.2290 H     1 <1>   0.0800 
 52 H       -7.5470     4.9140    -3.1960 H     1 <1>   0.0800 
 53 H       -6.7380     5.6530    -1.8350 H     1 <1>   0.0800 
 54 H       -9.1750     6.6200    -3.2460 H     1 <1>   0.0800 
 55 H       -7.9060     7.5470    -2.4490 H     1 <1>   0.0800 
 56 H      -10.1830     8.6400    -0.9980 H     1 <1>   0.1500 
 57 H      -11.1890     7.9900     3.0390 H     1 <1>   0.0800 
 58 H      -11.8700     6.8430     4.1650 H     1 <1>   0.0800 
 59 H      -12.8220     7.4050     2.8010 H     1 <1>   0.0800 
 60 H      -11.7710     3.9770     1.8600 H     1 <1>   0.0800 
 61 H      -12.8340     4.7200     3.0240 H     1 <1>   0.0800 
 62 H      -11.2040     4.2740     3.4920 H     1 <1>   0.0800 
@<TRIPOS>BOND
  1   1   2  2   
  2   2   3  1   
  3   2   4  am  
  4   3   5  1   
  5   4   6  1   
  6   4   7  1   
  7   5   8  1   
  8   5  29  1   
  9   5  30  1   
 10   6   9  1   
 11   6  31  1   
 12   6  32  1   
 13   7  10  1   
 14   7  33  1   
 15   7  34  1   
 16   8  35  1   
 17   8  36  1   
 18   8  37  1   
 19   9  11  1   
 20   9  38  1   
 21   9  39  1   
 22  10  11  1   
 23  10  40  1   
 24  10  41  1   
 25  11  12  1   
 26  11  42  1   
 27  12  13  1   
 28  12  14  1   
 29  12  43  1   
 30  13  15  1   
 31  13  44  1   
 32  13  45  1   
 33  14  16  1   
 34  14  46  1   
 35  14  47  1   
 36  15  17  1   
 37  15  18  1   
 38  15  19  1   
 39  16  18  1   
 40  16  48  1   
 41  16  49  1   
 42  17  20  ar  
 43  17  21  ar  
 44  18  50  1   
 45  18  51  1   
 46  19  22  1   
 47  19  52  1   
 48  19  53  1   
 49  20  23  ar  
 50  21  22  1   
 51  21  24  ar  
 52  22  54  1   
 53  22  55  1   
 54  23  25  ar  
 55  23  26  1   
 56  24  25  ar  
 57  24  56  1   
 58  26  27  1   
 59  26  28  1   
 60  27  57  1   
 61  27  58  1   
 62  27  59  1   
 63  28  60  1   
 64  28  61  1   
 65  28  62  1   
@<TRIPOS>SUBSTRUCTURE
  1 ****  13 GROUP 4 **** **** 0

# MOE 2024.06 (io_trps.svl 2023.06)
