@<TRIPOS>MOLECULE
NONAME
53 55 1 0 0 
SMALL
USER_CHARGES


@<TRIPOS>ATOM
  1 O        0.9180     3.0710    -2.5880 O.2   1 <1>  -0.5700 
  2 C        0.1750     3.8300    -2.0100 C.2   1 <1>   0.5690 
  3 N       -0.7010     3.4050    -1.0490 N.am  1 <1>  -0.6600 
  4 C        0.2560     5.3150    -2.3740 C.3   1 <1>   0.1810 
  5 C       -1.6350     4.3580    -0.3730 C.3   1 <1>   0.3640 
  6 C       -0.8390     1.9740    -0.6600 C.3   1 <1>   0.0600 
  7 O       -0.8340     6.0960    -1.9260 O.3   1 <1>  -0.5600 
  8 C       -3.0800     4.1090    -0.8300 C.ar  1 <1>  -0.1430 
  9 C       -1.2610     5.8470    -0.5900 C.3   1 <1>   0.2610 
 10 C       -4.1360     4.0580     0.0810 C.ar  1 <1>  -0.1430 
 11 C       -3.3510     3.9460    -2.1840 C.ar  1 <1>  -0.1500 
 12 C       -0.2630     6.3580     0.4590 C.2   1 <1>   0.5690 
 13 C       -5.4260     3.8340    -0.3780 C.ar  1 <1>  -0.1500 
 14 C       -3.9320     4.2440     1.5800 C.3   1 <1>  -0.0960 
 15 C       -4.6390     3.7250    -2.6320 C.ar  1 <1>  -0.1500 
 16 O       -0.3270     5.9340     1.5900 O.2   1 <1>  -0.5700 
 17 N        0.6370     7.3120     0.0890 N.am  1 <1>  -0.7300 
 18 C       -5.6800     3.6670    -1.7260 C.ar  1 <1>  -0.1500 
 19 C        1.7240     7.9340     0.8640 C.3   1 <1>   0.3000 
 20 C        2.7010     6.8640     1.3900 C.3   1 <1>  -0.1600 
 21 C        2.4750     8.8850    -0.0860 C.3   1 <1>  -0.1600 
 22 C        1.1100     8.7350     2.0130 C.3   1 <1>  -0.2400 
 23 C        3.4320     6.1080     0.2680 C.3   1 <1>  -0.1600 
 24 C        3.2100     8.1530    -1.2250 C.3   1 <1>  -0.1600 
 25 C        4.1570     7.0780    -0.6740 C.3   1 <1>  -0.1600 
 26 H        0.2980     5.4070    -3.4440 H     1 <1>   0.0800 
 27 H        1.1610     5.7210    -1.9680 H     1 <1>   0.0800 
 28 H       -1.5790     4.1450     0.6770 H     1 <1>   0.0800 
 29 H       -0.6660     1.8660     0.3960 H     1 <1>   0.0800 
 30 H       -0.1280     1.3650    -1.1900 H     1 <1>   0.0800 
 31 H       -1.8310     1.6270    -0.8940 H     1 <1>   0.0800 
 32 H       -2.1530     6.4270    -0.4490 H     1 <1>   0.0800 
 33 H       -2.5530     3.9920    -2.9050 H     1 <1>   0.1500 
 34 H       -6.2490     3.7880     0.3140 H     1 <1>   0.1500 
 35 H       -4.8740     4.2830     2.0970 H     1 <1>   0.0800 
 36 H       -3.4090     5.1630     1.7780 H     1 <1>   0.0800 
 37 H       -3.3650     3.4230     1.9810 H     1 <1>   0.0800 
 38 H       -4.8300     3.5990    -3.6830 H     1 <1>   0.1500 
 39 H        0.5940     7.6340    -0.8780 H     1 <1>   0.3700 
 40 H       -6.6840     3.4940    -2.0700 H     1 <1>   0.1500 
 41 H        3.4380     7.3480     2.0060 H     1 <1>   0.0800 
 42 H        2.1800     6.1650     2.0200 H     1 <1>   0.0800 
 43 H        1.7910     9.6070    -0.4970 H     1 <1>   0.0800 
 44 H        3.2060     9.4310     0.4840 H     1 <1>   0.0800 
 45 H        1.8770     9.2600     2.5520 H     1 <1>   0.0800 
 46 H        0.6090     8.0820     2.7040 H     1 <1>   0.0800 
 47 H        0.4050     9.4540     1.6370 H     1 <1>   0.0800 
 48 H        4.1460     5.4290     0.7020 H     1 <1>   0.0800 
 49 H        2.7250     5.5190    -0.2890 H     1 <1>   0.0800 
 50 H        2.4970     7.6950    -1.8880 H     1 <1>   0.0800 
 51 H        3.7760     8.8640    -1.8010 H     1 <1>   0.0800 
 52 H        4.5940     6.5290    -1.4900 H     1 <1>   0.0800 
 53 H        4.9580     7.5570    -0.1360 H     1 <1>   0.0800 
@<TRIPOS>BOND
  1   1   2  2   
  2   2   3  am  
  3   2   4  1   
  4   3   5  1   
  5   3   6  1   
  6   4   7  1   
  7   4  26  1   
  8   4  27  1   
  9   5   8  1   
 10   5   9  1   
 11   5  28  1   
 12   6  29  1   
 13   6  30  1   
 14   6  31  1   
 15   7   9  1   
 16   8  10  ar  
 17   8  11  ar  
 18   9  12  1   
 19   9  32  1   
 20  10  13  ar  
 21  10  14  1   
 22  11  15  ar  
 23  11  33  1   
 24  12  16  2   
 25  12  17  am  
 26  13  18  ar  
 27  13  34  1   
 28  14  35  1   
 29  14  36  1   
 30  14  37  1   
 31  15  18  ar  
 32  15  38  1   
 33  17  19  1   
 34  17  39  1   
 35  18  40  1   
 36  19  20  1   
 37  19  21  1   
 38  19  22  1   
 39  20  23  1   
 40  20  41  1   
 41  20  42  1   
 42  21  24  1   
 43  21  43  1   
 44  21  44  1   
 45  22  45  1   
 46  22  46  1   
 47  22  47  1   
 48  23  25  1   
 49  23  48  1   
 50  23  49  1   
 51  24  25  1   
 52  24  50  1   
 53  24  51  1   
 54  25  52  1   
 55  25  53  1   
@<TRIPOS>SUBSTRUCTURE
  1 ****   9 GROUP 4 **** **** 0

# MOE 2024.06 (io_trps.svl 2023.06)
