@<TRIPOS>MOLECULE
NONAME
47 49 1 0 0 
SMALL
USER_CHARGES


@<TRIPOS>ATOM
  1 S       -0.4950    -0.7420    -0.3950 S.o2  1 <1>   1.5010 
  2 O       -1.1700    -1.9680    -0.0240 O.2   1 <1>  -0.6500 
  3 O       -0.5160    -0.3170    -1.7790 O.2   1 <1>  -0.6500 
  4 N       -1.1150     0.5120     0.5720 N.am  1 <1>  -0.8490 
  5 C        1.2190    -0.8470     0.1960 C.2   1 <1>  -0.0630 
  6 C       -2.5140     0.3810     1.0210 C.3   1 <1>   0.1960 
  7 C       -0.7420     1.8730     0.1940 C.3   1 <1>   0.1960 
  8 C        2.3270    -0.2630    -0.3200 C.2   1 <1>  -0.1400 
  9 C        1.5160    -1.6010     1.3850 C.2   1 <1>  -0.1500 
 10 C       -3.5620     0.9370     0.0230 C.3   1 <1>   0.0000 
 11 C       -1.6960     2.4630    -0.8510 C.3   1 <1>  -0.1600 
 12 S        3.7510    -0.6370     0.6360 S.3   1 <1>  -0.0800 
 13 C        2.5820     0.6230    -1.5260 C.3   1 <1>  -0.0600 
 14 C        2.8080    -1.5940     1.7540 C.2   1 <1>  -0.1400 
 15 C       -4.9710     0.9770     0.6540 C.3   1 <1>   0.2000 
 16 C       -3.1620     2.3720    -0.4040 C.3   1 <1>  -0.1600 
 17 C       -3.7670     0.0260    -1.2030 C.3   1 <1>  -0.1600 
 18 C        3.5420    -2.2400     2.9100 C.3   1 <1>  -0.0600 
 19 O       -5.1720    -0.1720     1.4260 O.3   1 <1>  -0.5600 
 20 C       -5.9410     0.9510    -0.5320 C.3   1 <1>  -0.1600 
 21 C       -5.2110     0.2330    -1.6730 C.3   1 <1>  -0.1600 
 22 C       -6.1520    -0.0660     2.4100 C.3   1 <1>   0.0400 
 23 H       -2.7350    -0.6470     1.2550 H     1 <1>   0.0800 
 24 H       -2.6130     0.9290     1.9420 H     1 <1>   0.0800 
 25 H       -0.7730     2.4890     1.0770 H     1 <1>   0.0800 
 26 H        0.2690     1.8900    -0.1760 H     1 <1>   0.0800 
 27 H        0.7260    -2.1170     1.9040 H     1 <1>   0.1500 
 28 H       -1.4390     3.4950    -1.0110 H     1 <1>   0.0800 
 29 H       -1.5640     1.9620    -1.7920 H     1 <1>   0.0800 
 30 H        1.6750     0.8410    -2.0570 H     1 <1>   0.0800 
 31 H        3.2600     0.1300    -2.2000 H     1 <1>   0.0800 
 32 H        3.0240     1.5500    -1.2100 H     1 <1>   0.0800 
 33 H       -5.1040     1.8440     1.2780 H     1 <1>   0.0800 
 34 H       -3.7960     2.7220    -1.1990 H     1 <1>   0.0800 
 35 H       -3.2940     3.0350     0.4330 H     1 <1>   0.0800 
 36 H       -3.0670     0.2190    -1.9960 H     1 <1>   0.0800 
 37 H       -3.6570    -1.0020    -0.9010 H     1 <1>   0.0800 
 38 H        2.8550    -2.7960     3.5210 H     1 <1>   0.0800 
 39 H        4.0120    -1.4840     3.5130 H     1 <1>   0.0800 
 40 H        4.2970    -2.9080     2.5360 H     1 <1>   0.0800 
 41 H       -6.8710     0.4690    -0.2910 H     1 <1>   0.0800 
 42 H       -6.1480     1.9620    -0.8340 H     1 <1>   0.0800 
 43 H       -5.6700    -0.7190    -1.8800 H     1 <1>   0.0800 
 44 H       -5.2350     0.8340    -2.5660 H     1 <1>   0.0800 
 45 H       -6.2240    -1.0150     2.9110 H     1 <1>   0.0800 
 46 H       -7.0970     0.1750     1.9560 H     1 <1>   0.0800 
 47 H       -5.8650     0.6940     3.1150 H     1 <1>   0.0800 
@<TRIPOS>BOND
  1   1   2  2   
  2   1   3  2   
  3   1   4  am  
  4   1   5  1   
  5   4   6  1   
  6   4   7  1   
  7   5   8  2   
  8   5   9  1   
  9   6  10  1   
 10   6  23  1   
 11   6  24  1   
 12   7  11  1   
 13   7  25  1   
 14   7  26  1   
 15   8  12  1   
 16   8  13  1   
 17   9  14  2   
 18   9  27  1   
 19  10  15  1   
 20  10  16  1   
 21  10  17  1   
 22  11  16  1   
 23  11  28  1   
 24  11  29  1   
 25  12  14  1   
 26  13  30  1   
 27  13  31  1   
 28  13  32  1   
 29  14  18  1   
 30  15  19  1   
 31  15  20  1   
 32  15  33  1   
 33  16  34  1   
 34  16  35  1   
 35  17  21  1   
 36  17  36  1   
 37  17  37  1   
 38  18  38  1   
 39  18  39  1   
 40  18  40  1   
 41  19  22  1   
 42  20  21  1   
 43  20  41  1   
 44  20  42  1   
 45  21  43  1   
 46  21  44  1   
 47  22  45  1   
 48  22  46  1   
 49  22  47  1   
@<TRIPOS>SUBSTRUCTURE
  1 ****   4 GROUP 4 **** **** 0

# MOE 2024.06 (io_trps.svl 2023.06)
