@<TRIPOS>MOLECULE
NONAME
52 55 1 0 0 
SMALL
USER_CHARGES


@<TRIPOS>ATOM
  1 O       -3.1680     1.7710    -1.6700 O.2   1 <1>  -0.5700 
  2 C       -2.2140     1.5950    -0.9320 C.2   1 <1>   0.5440 
  3 N       -1.6760     0.3460    -0.9130 N.am  1 <1>  -0.7300 
  4 C       -1.6950     2.6610    -0.0870 C.ar  1 <1>   0.0860 
  5 C       -2.2280    -0.8620    -1.5550 C.3   1 <1>   0.2200 
  6 C       -0.6200     2.5040     0.8240 C.ar  1 <1>   0.1000 
  7 C       -2.2920     3.9260    -0.1630 C.ar  1 <1>  -0.1500 
  8 C       -3.3140    -1.4460    -0.6680 C.3   1 <1>  -0.0800 
  9 C       -1.1840    -1.9740    -1.5430 C.3   1 <1>   0.1200 
 10 N        0.0820     1.3090     0.9970 N.pl3 1 <1>  -0.8380 
 11 C       -0.2160     3.5930     1.5950 C.ar  1 <1>  -0.1500 
 12 C       -1.8750     4.9900     0.6090 C.ar  1 <1>  -0.1500 
 13 C       -2.5010    -2.2780     0.3260 C.3   1 <1>   0.1200 
 14 C       -4.3090    -2.3010    -1.4750 C.3   1 <1>  -0.0170 
 15 O       -1.2960    -2.6120    -0.3030 O.3   1 <1>  -0.5600 
 16 C        1.4810     1.2640     0.4680 C.3   1 <1>   0.2090 
 17 C       -0.0560     0.5970     2.3060 C.3   1 <1>   0.2090 
 18 C       -0.8300     4.8230     1.4960 C.ar  1 <1>  -0.1500 
 19 C       -5.4090    -2.8540    -0.5830 C.ar  1 <1>  -0.1430 
 20 C        2.0570    -0.1620     0.5310 C.3   1 <1>   0.1200 
 21 C        0.6150    -0.7890     2.2620 C.3   1 <1>   0.1200 
 22 C       -5.4640    -4.1850    -0.2200 C.ar  1 <1>  -0.1500 
 23 C       -6.4120    -2.0450    -0.0890 C.ar  1 <1>  -0.1500 
 24 O        1.9420    -0.6860     1.8240 O.3   1 <1>  -0.5600 
 25 C       -6.4870    -4.6270     0.6020 C.ar  1 <1>   0.1600 
 26 C       -7.3890    -2.5880     0.7280 C.ar  1 <1>   0.1600 
 27 N       -7.4490    -3.8600     1.0880 N.ar  1 <1>  -0.6200 
 28 H       -0.9300     0.2100    -0.2140 H     1 <1>   0.3700 
 29 H       -2.5690    -0.6230    -2.5480 H     1 <1>   0.0800 
 30 H       -3.1080     4.0760    -0.8480 H     1 <1>   0.1500 
 31 H       -3.8610    -0.6690    -0.1630 H     1 <1>   0.0800 
 32 H       -0.1840    -1.6020    -1.6710 H     1 <1>   0.0800 
 33 H       -1.4010    -2.7030    -2.3030 H     1 <1>   0.0800 
 34 H        0.5990     3.4700     2.2840 H     1 <1>   0.1500 
 35 H       -2.3610     5.9470     0.5220 H     1 <1>   0.1500 
 36 H       -3.0000    -3.1800     0.6330 H     1 <1>   0.0800 
 37 H       -2.2620    -1.6900     1.1940 H     1 <1>   0.0800 
 38 H       -3.7960    -3.1100    -1.9640 H     1 <1>   0.0800 
 39 H       -4.7600    -1.6920    -2.2400 H     1 <1>   0.0800 
 40 H        1.4880     1.6090    -0.5520 H     1 <1>   0.0800 
 41 H        2.1080     1.9210     1.0460 H     1 <1>   0.0800 
 42 H        0.4020     1.1800     3.0860 H     1 <1>   0.0800 
 43 H       -1.1000     0.4840     2.5420 H     1 <1>   0.0800 
 44 H       -0.4990     5.6480     2.1030 H     1 <1>   0.1500 
 45 H        3.1010    -0.1520     0.2730 H     1 <1>   0.0800 
 46 H        1.5380    -0.8110    -0.1510 H     1 <1>   0.0800 
 47 H        0.0850    -1.4480     1.5970 H     1 <1>   0.0800 
 48 H        0.6270    -1.2280     3.2440 H     1 <1>   0.0800 
 49 H       -4.7220    -4.8810    -0.5660 H     1 <1>   0.1500 
 50 H       -6.4400    -0.9980    -0.3300 H     1 <1>   0.1500 
 51 H       -6.5140    -5.6680     0.8760 H     1 <1>   0.1500 
 52 H       -8.1630    -1.9410     1.1050 H     1 <1>   0.1500 
@<TRIPOS>BOND
  1   1   2  2   
  2   2   3  am  
  3   2   4  1   
  4   3   5  1   
  5   3  28  1   
  6   4   6  ar  
  7   4   7  ar  
  8   5   8  1   
  9   5   9  1   
 10   5  29  1   
 11   6  10  1   
 12   6  11  ar  
 13   7  12  ar  
 14   7  30  1   
 15   8  13  1   
 16   8  14  1   
 17   8  31  1   
 18   9  15  1   
 19   9  32  1   
 20   9  33  1   
 21  10  16  1   
 22  10  17  1   
 23  11  18  ar  
 24  11  34  1   
 25  12  18  ar  
 26  12  35  1   
 27  13  15  1   
 28  13  36  1   
 29  13  37  1   
 30  14  19  1   
 31  14  38  1   
 32  14  39  1   
 33  16  20  1   
 34  16  40  1   
 35  16  41  1   
 36  17  21  1   
 37  17  42  1   
 38  17  43  1   
 39  18  44  1   
 40  19  22  ar  
 41  19  23  ar  
 42  20  24  1   
 43  20  45  1   
 44  20  46  1   
 45  21  24  1   
 46  21  47  1   
 47  21  48  1   
 48  22  25  ar  
 49  22  49  1   
 50  23  26  ar  
 51  23  50  1   
 52  25  27  ar  
 53  25  51  1   
 54  26  27  ar  
 55  26  52  1   
@<TRIPOS>SUBSTRUCTURE
  1 ****   3 GROUP 4 **** **** 0

# MOE 2024.06 (io_trps.svl 2023.06)
