@<TRIPOS>MOLECULE
NONAME
45 47 1 0 0 
SMALL
USER_CHARGES


@<TRIPOS>ATOM
  1 O       -2.9570     1.3340    -1.6510 O.2   1 <1>  -0.5700 
  2 C       -2.4680     1.1740    -0.5610 C.2   1 <1>   0.5690 
  3 N       -2.3210    -0.0540    -0.0110 N.am  1 <1>  -0.7300 
  4 C       -1.9970     2.3810     0.2080 C.3   1 <1>  -0.0990 
  5 C       -2.7160    -1.3240    -0.6610 C.3   1 <1>   0.2200 
  6 C       -0.8170     3.0280    -0.5210 C.3   1 <1>   0.0960 
  7 C       -3.9580    -1.8710     0.0200 C.3   1 <1>  -0.0800 
  8 C       -1.6860    -2.4020    -0.3430 C.3   1 <1>   0.1200 
  9 N       -0.3320     4.1950     0.2370 N.pl3 1 <1>   0.3140 
 10 C       -3.3650    -2.6110     1.2250 C.3   1 <1>   0.1200 
 11 C       -4.7460    -2.8110    -0.9130 C.3   1 <1>  -0.0170 
 12 O       -2.0370    -2.9180     0.9070 O.3   1 <1>  -0.5600 
 13 N        0.4730     4.0370     1.3030 N.2   1 <1>  -0.7070 
 14 C       -0.6160     5.5020     0.0240 C.2   1 <1>  -0.3320 
 15 C       -6.0020    -3.3430    -0.2380 C.ar  1 <1>  -0.1440 
 16 C        0.6890     5.2390     1.7390 C.2   1 <1>   0.1390 
 17 C        0.0330     6.1990     0.9800 C.2   1 <1>  -0.1500 
 18 C       -1.5040     6.0340    -1.0880 C.3   1 <1>  -0.0600 
 19 C       -6.0880    -4.6350     0.2380 C.ar  1 <1>  -0.1500 
 20 C       -7.1230    -2.5560    -0.0700 C.ar  1 <1>  -0.1500 
 21 C       -7.2560    -5.0650     0.8470 C.ar  1 <1>   0.1600 
 22 C       -8.2430    -3.0830     0.5530 C.ar  1 <1>   0.1600 
 23 N       -8.3350    -4.3190     1.0170 N.ar  1 <1>  -0.6200 
 24 H       -1.9050    -0.1680     0.9170 H     1 <1>   0.3700 
 25 H       -2.8090     3.0810     0.2780 H     1 <1>   0.0800 
 26 H       -1.6980     2.0930     1.1990 H     1 <1>   0.0800 
 27 H       -2.8400    -1.1790    -1.7220 H     1 <1>   0.0800 
 28 H       -1.1090     3.3400    -1.5060 H     1 <1>   0.0800 
 29 H       -0.0070     2.3270    -0.6080 H     1 <1>   0.0800 
 30 H       -4.6090    -1.0760     0.3380 H     1 <1>   0.0800 
 31 H       -0.6810    -2.0200    -0.3080 H     1 <1>   0.0800 
 32 H       -1.7440    -3.2060    -1.0550 H     1 <1>   0.0800 
 33 H       -3.8860    -3.5210     1.4640 H     1 <1>   0.0800 
 34 H       -3.3500    -1.9730     2.0910 H     1 <1>   0.0800 
 35 H       -4.1280    -3.6350    -1.2230 H     1 <1>   0.0800 
 36 H       -5.0350    -2.2720    -1.7990 H     1 <1>   0.0800 
 37 H        1.3070     5.4570     2.5940 H     1 <1>   0.1500 
 38 H        0.0580     7.2610     1.1470 H     1 <1>   0.1500 
 39 H       -1.5850     7.1050    -1.0170 H     1 <1>   0.0800 
 40 H       -2.4900     5.6120    -1.0140 H     1 <1>   0.0800 
 41 H       -1.0870     5.7880    -2.0480 H     1 <1>   0.0800 
 42 H       -5.2590    -5.3140     0.1430 H     1 <1>   0.1500 
 43 H       -7.1390    -1.5400    -0.4190 H     1 <1>   0.1500 
 44 H       -7.3040    -6.0760     1.2130 H     1 <1>   0.1500 
 45 H       -9.1080    -2.4540     0.6750 H     1 <1>   0.1500 
@<TRIPOS>BOND
  1   1   2  2   
  2   2   3  am  
  3   2   4  1   
  4   3   5  1   
  5   3  24  1   
  6   4   6  1   
  7   4  25  1   
  8   4  26  1   
  9   5   7  1   
 10   5   8  1   
 11   5  27  1   
 12   6   9  1   
 13   6  28  1   
 14   6  29  1   
 15   7  10  1   
 16   7  11  1   
 17   7  30  1   
 18   8  12  1   
 19   8  31  1   
 20   8  32  1   
 21   9  13  1   
 22   9  14  1   
 23  10  12  1   
 24  10  33  1   
 25  10  34  1   
 26  11  15  1   
 27  11  35  1   
 28  11  36  1   
 29  13  16  2   
 30  14  17  2   
 31  14  18  1   
 32  15  19  ar  
 33  15  20  ar  
 34  16  17  1   
 35  16  37  1   
 36  17  38  1   
 37  18  39  1   
 38  18  40  1   
 39  18  41  1   
 40  19  21  ar  
 41  19  42  1   
 42  20  22  ar  
 43  20  43  1   
 44  21  23  ar  
 45  21  44  1   
 46  22  23  ar  
 47  22  45  1   
@<TRIPOS>SUBSTRUCTURE
  1 ****   3 GROUP 4 **** **** 0

# MOE 2024.06 (io_trps.svl 2023.06)
