@<TRIPOS>MOLECULE
NONAME
54 57 1 0 0 
SMALL
USER_CHARGES


@<TRIPOS>ATOM
  1 O        1.0130     3.4450    -1.2220 O.2   1 <1>  -0.5700 
  2 C        0.1040     4.2360    -1.1280 C.2   1 <1>   0.5690 
  3 N       -1.0290     3.9940    -0.3900 N.am  1 <1>  -0.6600 
  4 C        0.2750     5.5680    -1.8690 C.3   1 <1>   0.1810 
  5 C       -2.1330     5.0020    -0.3440 C.3   1 <1>   0.3640 
  6 C       -1.2810     2.7640     0.4060 C.3   1 <1>   0.2200 
  7 O       -0.8960     6.3620    -1.9640 O.3   1 <1>  -0.5600 
  8 C       -3.3140     4.5120    -1.1840 C.ar  1 <1>  -0.1440 
  9 C       -1.6870     6.4170    -0.7850 C.3   1 <1>   0.2610 
 10 C       -0.2600     2.6510     1.5370 C.3   1 <1>  -0.2400 
 11 C       -1.3000     1.5240    -0.4880 C.3   1 <1>  -0.2400 
 12 C       -3.1580     4.1510    -2.5150 C.ar  1 <1>  -0.1500 
 13 C       -4.5760     4.4270    -0.6090 C.ar  1 <1>  -0.1500 
 14 C       -0.9760     7.1800     0.3410 C.2   1 <1>   0.5690 
 15 C       -4.2400     3.7140    -3.2590 C.ar  1 <1>  -0.1500 
 16 C       -5.6590     3.9900    -1.3520 C.ar  1 <1>  -0.1500 
 17 O       -1.1940     6.8920     1.4960 O.2   1 <1>  -0.5700 
 18 N       -0.1010     8.1610    -0.0110 N.am  1 <1>  -0.5790 
 19 C       -5.4920     3.6330    -2.6770 C.ar  1 <1>  -0.1500 
 20 C        1.0300     8.6010     0.8080 C.3   1 <1>   0.1810 
 21 C        2.2240     7.6790     0.6190 C.ar  1 <1>  -0.0320 
 22 C        0.7600     9.2260     2.1390 C.3   1 <1>  -0.2000 
 23 C        1.2020    10.0750     0.9900 C.3   1 <1>  -0.2000 
 24 C        2.2370     6.4420     1.2450 C.ar  1 <1>  -0.1500 
 25 C        3.2800     8.0340    -0.2070 C.ar  1 <1>  -0.1500 
 26 C        3.2880     5.5640     1.0420 C.ar  1 <1>  -0.1500 
 27 C        4.3360     7.1600    -0.4060 C.ar  1 <1>  -0.1500 
 28 C        4.3380     5.9240     0.2160 C.ar  1 <1>  -0.1500 
 29 H        0.6050     5.3630    -2.8710 H     1 <1>   0.0800 
 30 H        1.0410     6.1370    -1.3780 H     1 <1>   0.0800 
 31 H       -2.4760     5.0660     0.6730 H     1 <1>   0.0800 
 32 H       -2.2560     2.8410     0.8580 H     1 <1>   0.0800 
 33 H       -2.5680     6.9810    -1.0300 H     1 <1>   0.0800 
 34 H        0.7290     2.4930     1.1470 H     1 <1>   0.0800 
 35 H       -0.5080     1.8190     2.1700 H     1 <1>   0.0800 
 36 H       -0.2670     3.5470     2.1320 H     1 <1>   0.0800 
 37 H       -0.3290     1.3310    -0.9060 H     1 <1>   0.0800 
 38 H       -2.0100     1.6560    -1.2840 H     1 <1>   0.0800 
 39 H       -1.5920     0.6660     0.0880 H     1 <1>   0.0800 
 40 H       -2.1890     4.2060    -2.9810 H     1 <1>   0.1500 
 41 H       -4.7270     4.6990     0.4210 H     1 <1>   0.1500 
 42 H       -4.1050     3.4360    -4.2900 H     1 <1>   0.1500 
 43 H       -6.6330     3.9260    -0.8980 H     1 <1>   0.1500 
 44 H        0.0420     8.3050    -1.0130 H     1 <1>   0.3700 
 45 H       -6.3330     3.2930    -3.2550 H     1 <1>   0.1500 
 46 H       -0.2590     9.2770     2.4780 H     1 <1>   0.1000 
 47 H        1.4550     9.0420     2.9390 H     1 <1>   0.1000 
 48 H        2.1910    10.4960     1.0420 H     1 <1>   0.1000 
 49 H        0.4870    10.7440     0.5470 H     1 <1>   0.1000 
 50 H        1.4200     6.1590     1.8860 H     1 <1>   0.1500 
 51 H        3.2810     8.9890    -0.7010 H     1 <1>   0.1500 
 52 H        3.2840     4.6010     1.5220 H     1 <1>   0.1500 
 53 H        5.1540     7.4400    -1.0470 H     1 <1>   0.1500 
 54 H        5.1540     5.2410     0.0580 H     1 <1>   0.1500 
@<TRIPOS>BOND
  1   1   2  2   
  2   2   3  am  
  3   2   4  1   
  4   3   5  1   
  5   3   6  1   
  6   4   7  1   
  7   4  29  1   
  8   4  30  1   
  9   5   8  1   
 10   5   9  1   
 11   5  31  1   
 12   6  10  1   
 13   6  11  1   
 14   6  32  1   
 15   7   9  1   
 16   8  12  ar  
 17   8  13  ar  
 18   9  14  1   
 19   9  33  1   
 20  10  34  1   
 21  10  35  1   
 22  10  36  1   
 23  11  37  1   
 24  11  38  1   
 25  11  39  1   
 26  12  15  ar  
 27  12  40  1   
 28  13  16  ar  
 29  13  41  1   
 30  14  17  2   
 31  14  18  am  
 32  15  19  ar  
 33  15  42  1   
 34  16  19  ar  
 35  16  43  1   
 36  18  20  1   
 37  18  44  1   
 38  19  45  1   
 39  20  21  1   
 40  20  22  1   
 41  20  23  1   
 42  21  24  ar  
 43  21  25  ar  
 44  22  23  1   
 45  22  46  1   
 46  22  47  1   
 47  23  48  1   
 48  23  49  1   
 49  24  26  ar  
 50  24  50  1   
 51  25  27  ar  
 52  25  51  1   
 53  26  28  ar  
 54  26  52  1   
 55  27  28  ar  
 56  27  53  1   
 57  28  54  1   
@<TRIPOS>SUBSTRUCTURE
  1 ****   9 GROUP 4 **** **** 0

# MOE 2024.06 (io_trps.svl 2023.06)
