@<TRIPOS>MOLECULE
NONAME
35 37 1 0 0 
SMALL
USER_CHARGES


@<TRIPOS>ATOM
  1 O        0.0100    -0.6310    -0.1510 O.3   1 <1>  -0.5600 
  2 C        0.7390     0.2160    -0.9910 C.3   1 <1>   0.1200 
  3 C       -1.2900    -0.1540     0.0350 C.3   1 <1>   0.1200 
  4 C        0.0360     1.5700    -0.9570 C.3   1 <1>   0.2890 
  5 C       -1.4140     1.1310    -0.7860 C.3   1 <1>  -0.0800 
  6 N        0.5320     2.3450     0.2090 N.pl3 1 <1>  -0.8690 
  7 C       -2.3890     2.1580    -0.1800 C.3   1 <1>  -0.0170 
  8 C        0.4030     3.7040     0.3260 C.ar  1 <1>   0.4100 
  9 C       -3.8090     1.6150    -0.1680 C.ar  1 <1>  -0.1440 
 10 N       -0.0200     4.0900     1.5160 N.ar  1 <1>  -0.6200 
 11 C        0.6820     4.6090    -0.7140 C.ar  1 <1>   0.1600 
 12 C       -4.3710     1.0650     0.9670 C.ar  1 <1>  -0.1500 
 13 C       -4.6100     1.6450    -1.2910 C.ar  1 <1>  -0.1500 
 14 C       -0.1540     5.4040     1.6000 C.ar  1 <1>   0.1600 
 15 N        0.5370     5.9180    -0.6370 N.ar  1 <1>  -0.6200 
 16 C       -5.6670     0.5780     0.9220 C.ar  1 <1>   0.1600 
 17 C       -5.8950     1.1310    -1.2300 C.ar  1 <1>   0.1600 
 18 C        0.1110     6.2890     0.5630 C.ar  1 <1>   0.1600 
 19 N       -6.4420     0.5960    -0.1500 N.ar  1 <1>  -0.6200 
 20 H        1.7580     0.2730    -0.6500 H     1 <1>   0.0800 
 21 H        0.7060    -0.2020    -1.9810 H     1 <1>   0.0800 
 22 H       -1.9910    -0.9070    -0.2830 H     1 <1>   0.0800 
 23 H       -1.4140     0.0370     1.0860 H     1 <1>   0.0800 
 24 H        0.1920     2.1160    -1.8700 H     1 <1>   0.0800 
 25 H       -1.7850     0.8510    -1.7560 H     1 <1>   0.0800 
 26 H        0.3620     1.8640     1.0970 H     1 <1>   0.4000 
 27 H       -2.3600     3.0670    -0.7550 H     1 <1>   0.0800 
 28 H       -2.0970     2.4030     0.8260 H     1 <1>   0.0800 
 29 H        1.0430     4.2080    -1.6410 H     1 <1>   0.1500 
 30 H       -3.8150     1.0100     1.8850 H     1 <1>   0.1500 
 31 H       -4.2490     2.0620    -2.2130 H     1 <1>   0.1500 
 32 H       -0.4920     5.8010     2.5400 H     1 <1>   0.1500 
 33 H       -6.0880     0.1510     1.8160 H     1 <1>   0.1500 
 34 H       -6.5060     1.1620    -2.1160 H     1 <1>   0.1500 
 35 H       -0.0310     7.3420     0.7280 H     1 <1>   0.1500 
@<TRIPOS>BOND
  1   1   2  1   
  2   1   3  1   
  3   2   4  1   
  4   2  20  1   
  5   2  21  1   
  6   3   5  1   
  7   3  22  1   
  8   3  23  1   
  9   4   5  1   
 10   4   6  1   
 11   4  24  1   
 12   5   7  1   
 13   5  25  1   
 14   6   8  1   
 15   6  26  1   
 16   7   9  1   
 17   7  27  1   
 18   7  28  1   
 19   8  10  ar  
 20   8  11  ar  
 21   9  12  ar  
 22   9  13  ar  
 23  10  14  ar  
 24  11  15  ar  
 25  11  29  1   
 26  12  16  ar  
 27  12  30  1   
 28  13  17  ar  
 29  13  31  1   
 30  14  18  ar  
 31  14  32  1   
 32  15  18  ar  
 33  16  19  ar  
 34  16  33  1   
 35  17  19  ar  
 36  17  34  1   
 37  18  35  1   
@<TRIPOS>SUBSTRUCTURE
  1 ****   7 GROUP 4 **** **** 0

# MOE 2024.06 (io_trps.svl 2023.06)
