@<TRIPOS>MOLECULE
NONAME
53 55 1 0 0 
SMALL
USER_CHARGES


@<TRIPOS>ATOM
  1 O       -0.8770     1.0260    -1.2720 O.2   1 <1>  -0.5700 
  2 C       -1.8400     1.1080    -0.5280 C.2   1 <1>   0.5440 
  3 N       -2.5980    -0.0260    -0.3150 N.am  1 <1>  -0.6600 
  4 C       -2.1760     2.3920     0.0520 C.ar  1 <1>   0.0860 
  5 C       -4.0650    -0.1470    -0.5920 C.3   1 <1>   0.2200 
  6 C       -1.9010    -1.3410    -0.2470 C.3   1 <1>   0.0600 
  7 C       -2.1310     3.5640    -0.7140 C.ar  1 <1>   0.0820 
  8 C       -2.5760     2.5210     1.3840 C.ar  1 <1>  -0.1500 
  9 C       -4.6120     0.8190    -1.6490 C.3   1 <1>  -0.1600 
 10 C       -4.9060     0.0460     0.6690 C.3   1 <1>  -0.1600 
 11 O       -1.6910     3.5250    -1.9800 O.3   1 <1>  -0.5330 
 12 C       -2.5380     4.7840    -0.2070 C.ar  1 <1>  -0.1500 
 13 C       -3.0010     3.7330     1.8950 C.ar  1 <1>  -0.1500 
 14 C       -6.0390     1.1830    -1.2120 C.3   1 <1>  -0.0800 
 15 C       -6.1080     0.9300     0.3000 C.3   1 <1>  -0.0800 
 16 C       -3.0120     4.8640     1.0930 C.ar  1 <1>   0.0820 
 17 C       -6.3410     2.6740    -1.3970 C.3   1 <1>  -0.1600 
 18 C       -6.1110     2.3180     0.9680 C.3   1 <1>  -0.1600 
 19 O       -3.5190     6.0000     1.6100 O.3   1 <1>  -0.3630 
 20 C       -5.7390     3.2990    -0.1440 C.3   1 <1>   0.4230 
 21 C       -2.8620     7.2240     1.3480 C.3   1 <1>   0.0400 
 22 N       -6.1410     4.7160     0.1130 N.4   1 <1>  -0.9590 
 23 C       -7.5820     4.9250     0.4580 C.3   1 <1>   0.2630 
 24 C       -5.7570     5.5920    -1.0350 C.3   1 <1>   0.2630 
 25 H       -4.2630    -1.1420    -0.9580 H     1 <1>   0.0800 
 26 H       -2.3640    -1.9670     0.4960 H     1 <1>   0.0800 
 27 H       -0.8660    -1.2000     0.0180 H     1 <1>   0.0800 
 28 H       -1.9460    -1.8270    -1.2060 H     1 <1>   0.0800 
 29 H       -2.5490     1.6530     2.0190 H     1 <1>   0.1500 
 30 H       -4.0120     1.7010    -1.7330 H     1 <1>   0.0800 
 31 H       -4.6260     0.3400    -2.6130 H     1 <1>   0.0800 
 32 H       -5.2620    -0.9180     0.9910 H     1 <1>   0.0800 
 33 H       -4.3320     0.4590     1.4720 H     1 <1>   0.0800 
 34 H       -1.2210     2.6740    -2.1750 H     1 <1>   0.4500 
 35 H       -2.4840     5.6490    -0.8410 H     1 <1>   0.1500 
 36 H       -3.3190     3.8110     2.9210 H     1 <1>   0.1500 
 37 H       -6.7500     0.5640    -1.7350 H     1 <1>   0.0800 
 38 H       -7.0220     0.4140     0.5460 H     1 <1>   0.0800 
 39 H       -7.4070     2.8140    -1.4180 H     1 <1>   0.0800 
 40 H       -5.9020     3.0540    -2.3020 H     1 <1>   0.0800 
 41 H       -5.4300     2.3800     1.7960 H     1 <1>   0.0800 
 42 H       -7.1060     2.4960     1.3290 H     1 <1>   0.0800 
 43 H       -4.6680     3.2620    -0.2570 H     1 <1>   0.0800 
 44 H       -3.2580     7.9690     2.0150 H     1 <1>   0.0800 
 45 H       -3.0390     7.5170     0.3290 H     1 <1>   0.0800 
 46 H       -1.8080     7.1010     1.5290 H     1 <1>   0.0800 
 47 H       -5.5650     5.0230     0.9180 H     1 <1>   0.4500 
 48 H       -8.2150     4.5640    -0.3360 H     1 <1>   0.0800 
 49 H       -7.7800     5.9740     0.6060 H     1 <1>   0.0800 
 50 H       -7.8330     4.4040     1.3660 H     1 <1>   0.0800 
 51 H       -6.3550     5.3600    -1.9010 H     1 <1>   0.0800 
 52 H       -4.7190     5.4460    -1.2860 H     1 <1>   0.0800 
 53 H       -5.9060     6.6290    -0.7790 H     1 <1>   0.0800 
@<TRIPOS>BOND
  1   1   2  2   
  2   2   3  am  
  3   2   4  1   
  4   3   5  1   
  5   3   6  1   
  6   4   7  ar  
  7   4   8  ar  
  8   5   9  1   
  9   5  10  1   
 10   5  25  1   
 11   6  26  1   
 12   6  27  1   
 13   6  28  1   
 14   7  11  1   
 15   7  12  ar  
 16   8  13  ar  
 17   8  29  1   
 18   9  14  1   
 19   9  30  1   
 20   9  31  1   
 21  10  15  1   
 22  10  32  1   
 23  10  33  1   
 24  11  34  1   
 25  12  16  ar  
 26  12  35  1   
 27  13  16  ar  
 28  13  36  1   
 29  14  15  1   
 30  14  17  1   
 31  14  37  1   
 32  15  18  1   
 33  15  38  1   
 34  16  19  1   
 35  17  20  1   
 36  17  39  1   
 37  17  40  1   
 38  18  20  1   
 39  18  41  1   
 40  18  42  1   
 41  19  21  1   
 42  20  22  1   
 43  20  43  1   
 44  21  44  1   
 45  21  45  1   
 46  21  46  1   
 47  22  23  1   
 48  22  24  1   
 49  22  47  1   
 50  23  48  1   
 51  23  49  1   
 52  23  50  1   
 53  24  51  1   
 54  24  52  1   
 55  24  53  1   
@<TRIPOS>SUBSTRUCTURE
  1 ****   4 GROUP 4 **** **** 0

# MOE 2024.06 (io_trps.svl 2023.06)
