@<TRIPOS>MOLECULE
NONAME
58 60 1 0 0 
SMALL
USER_CHARGES


@<TRIPOS>ATOM
  1 O       -1.8280     0.5880     1.8250 O.2   1 <1>  -0.5700 
  2 C       -2.0080     0.8860     0.6600 C.2   1 <1>   0.7160 
  3 N       -2.4350    -0.0670    -0.2340 N.am  1 <1>  -0.6600 
  4 C       -1.7760     2.2370     0.2180 C.2   1 <1>  -0.0860 
  5 C       -2.4790    -1.5170     0.1580 C.3   1 <1>   0.3640 
  6 C       -3.0310     0.3300    -1.5470 C.3   1 <1>   0.1400 
  7 C       -0.7160     2.6770    -0.5820 C.2   1 <1>   0.1080 
  8 C       -2.4920     3.3740     0.4350 C.2   1 <1>  -0.3020 
  9 C       -1.1510    -2.2050    -0.1810 C.ar  1 <1>  -0.1440 
 10 C       -3.6700    -2.3160    -0.4610 C.3   1 <1>   0.2000 
 11 C       -3.6580    -0.8500    -2.3000 C.3   1 <1>   0.1200 
 12 N       -0.7830     3.9390    -0.8550 N.2   1 <1>  -0.7070 
 13 C        0.4150     1.8080    -1.0900 C.3   1 <1>  -0.0590 
 14 N       -1.8800     4.3760    -0.2130 N.pl3 1 <1>   0.3140 
 15 C       -0.6910    -3.2030     0.6700 C.ar  1 <1>  -0.1500 
 16 C       -0.3940    -1.8880    -1.3040 C.ar  1 <1>  -0.1500 
 17 O       -4.4190    -1.6040    -1.4150 O.3   1 <1>  -0.5600 
 18 C       -4.6600    -2.7870     0.6130 C.3   1 <1>   0.1200 
 19 C       -2.2930     5.7920    -0.2500 C.3   1 <1>   0.0960 
 20 C        0.4890    -3.8790     0.4090 C.ar  1 <1>   0.0830 
 21 C        0.7970    -2.5440    -1.5640 C.ar  1 <1>  -0.1500 
 22 O       -4.0610    -3.7270     1.4480 O.3   1 <1>  -0.6800 
 23 C       -1.7560     6.5500     0.9720 C.3   1 <1>  -0.1600 
 24 O        0.8430    -4.8690     1.2670 O.3   1 <1>  -0.3620 
 25 C        1.2550    -3.5290    -0.7070 C.ar  1 <1>   0.0830 
 26 C       -2.1810     8.0230     0.9480 C.3   1 <1>  -0.2400 
 27 C        0.8710    -6.1780     0.7410 C.3   1 <1>   0.0400 
 28 O        2.4470    -4.1070    -0.9980 O.3   1 <1>  -0.3630 
 29 C        3.4930    -3.8750    -0.0800 C.3   1 <1>   0.0400 
 30 H       -2.5850    -1.5720     1.2290 H     1 <1>   0.0800 
 31 H       -3.7980     1.0650    -1.3700 H     1 <1>   0.0800 
 32 H       -2.2780     0.7870    -2.1650 H     1 <1>   0.0800 
 33 H       -3.3880     3.5010     1.0140 H     1 <1>   0.1500 
 34 H       -3.2860    -3.1860    -0.9640 H     1 <1>   0.0800 
 35 H       -2.9080    -1.4810    -2.7440 H     1 <1>   0.0800 
 36 H       -4.3100    -0.4900    -3.0760 H     1 <1>   0.0800 
 37 H        0.5580     0.9570    -0.4500 H     1 <1>   0.0800 
 38 H        1.3250     2.3810    -1.1070 H     1 <1>   0.0800 
 39 H        0.1980     1.4740    -2.0860 H     1 <1>   0.0800 
 40 H       -1.2510    -3.4700     1.5490 H     1 <1>   0.1500 
 41 H       -0.7150    -1.1230    -1.9840 H     1 <1>   0.1500 
 42 H       -5.5220    -3.2450     0.1590 H     1 <1>   0.0800 
 43 H       -4.9720    -1.9550     1.2200 H     1 <1>   0.0800 
 44 H       -1.9080     6.2290    -1.1540 H     1 <1>   0.0800 
 45 H       -3.3650     5.8340    -0.2760 H     1 <1>   0.0800 
 46 H        1.3820    -2.2910    -2.4290 H     1 <1>   0.1500 
 47 H       -3.9750    -4.5910     0.9980 H     1 <1>   0.4000 
 48 H       -2.1260     6.0890     1.8730 H     1 <1>   0.0800 
 49 H       -0.6800     6.4910     0.9780 H     1 <1>   0.0800 
 50 H       -3.2530     8.1080     0.9600 H     1 <1>   0.0800 
 51 H       -1.8020     8.5090     0.0650 H     1 <1>   0.0800 
 52 H       -1.7880     8.5320     1.8110 H     1 <1>   0.0800 
 53 H        1.0500    -6.8610     1.5510 H     1 <1>   0.0800 
 54 H        1.6610    -6.2550     0.0160 H     1 <1>   0.0800 
 55 H       -0.0780    -6.3890     0.2830 H     1 <1>   0.0800 
 56 H        4.3970    -4.2920    -0.4880 H     1 <1>   0.0800 
 57 H        3.2600    -4.3510     0.8550 H     1 <1>   0.0800 
 58 H        3.6050    -2.8150     0.0590 H     1 <1>   0.0800 
@<TRIPOS>BOND
  1   1   2  2   
  2   2   3  am  
  3   2   4  1   
  4   3   5  1   
  5   3   6  1   
  6   4   7  1   
  7   4   8  2   
  8   5   9  1   
  9   5  10  1   
 10   5  30  1   
 11   6  11  1   
 12   6  31  1   
 13   6  32  1   
 14   7  12  2   
 15   7  13  1   
 16   8  14  1   
 17   8  33  1   
 18   9  15  ar  
 19   9  16  ar  
 20  10  17  1   
 21  10  18  1   
 22  10  34  1   
 23  11  17  1   
 24  11  35  1   
 25  11  36  1   
 26  12  14  1   
 27  13  37  1   
 28  13  38  1   
 29  13  39  1   
 30  14  19  1   
 31  15  20  ar  
 32  15  40  1   
 33  16  21  ar  
 34  16  41  1   
 35  18  22  1   
 36  18  42  1   
 37  18  43  1   
 38  19  23  1   
 39  19  44  1   
 40  19  45  1   
 41  20  24  1   
 42  20  25  ar  
 43  21  25  ar  
 44  21  46  1   
 45  22  47  1   
 46  23  26  1   
 47  23  48  1   
 48  23  49  1   
 49  24  27  1   
 50  25  28  1   
 51  26  50  1   
 52  26  51  1   
 53  26  52  1   
 54  27  53  1   
 55  27  54  1   
 56  27  55  1   
 57  28  29  1   
 58  29  56  1   
 59  29  57  1   
 60  29  58  1   
@<TRIPOS>SUBSTRUCTURE
  1 ****   3 GROUP 4 **** **** 0

# MOE 2024.06 (io_trps.svl 2023.06)
