@<TRIPOS>MOLECULE
NONAME
35 36 1 0 0 
SMALL
USER_CHARGES


@<TRIPOS>ATOM
  1 F        0.5380    -1.5330    -1.7050 F     1 <1>  -0.1900 
  2 C        1.4200    -1.5740    -0.7410 C.ar  1 <1>   0.1900 
  3 C        1.1140    -2.2510     0.4350 C.ar  1 <1>  -0.1440 
  4 C        2.6290    -0.9280    -0.9480 C.ar  1 <1>  -0.1500 
  5 C        2.0750    -2.2760     1.4370 C.ar  1 <1>  -0.1500 
  6 C       -0.2280    -2.9570     0.6330 C.3   1 <1>   0.0450 
  7 C        3.5800    -0.9530     0.0590 C.ar  1 <1>  -0.1500 
  8 C        3.2820    -1.6280     1.2310 C.ar  1 <1>   0.1900 
  9 C       -0.2250    -4.4100     0.1600 C.2   1 <1>   0.5690 
 10 F        4.1770    -1.6530     2.1820 F     1 <1>  -0.1900 
 11 O        0.7950    -5.0430     0.3170 O.2   1 <1>  -0.5700 
 12 N       -1.3460    -4.9810    -0.3950 N.am  1 <1>  -0.6600 
 13 C       -1.3040    -6.3910    -0.9230 C.3   1 <1>   0.1400 
 14 C       -2.6900    -4.3160    -0.4680 C.3   1 <1>   0.1400 
 15 C       -2.3550    -7.3180    -0.2720 C.3   1 <1>   0.2000 
 16 C       -3.8590    -5.3060    -0.3470 C.3   1 <1>  -0.1600 
 17 O       -2.9310    -8.0610    -1.2890 O.3   1 <1>  -0.6800 
 18 C       -3.4590    -6.5450     0.4730 C.3   1 <1>  -0.1860 
 19 C       -4.6470    -7.4040     0.8710 C.2   1 <1>   0.9060 
 20 O       -5.1250    -7.2510     1.9970 O.co2 1 <1>  -0.9000 
 21 O       -5.1090    -8.2190     0.0600 O.co2 1 <1>  -0.9000 
 22 H        2.8150    -0.4190    -1.8760 H     1 <1>   0.1500 
 23 H        1.9030    -2.7950     2.3630 H     1 <1>   0.1500 
 24 H       -0.9810    -2.3980     0.1140 H     1 <1>   0.0800 
 25 H       -0.4850    -2.9540     1.6760 H     1 <1>   0.0800 
 26 H        4.5310    -0.4660    -0.0570 H     1 <1>   0.1500 
 27 H       -1.4820    -6.3470    -1.9830 H     1 <1>   0.0800 
 28 H       -0.3310    -6.8230    -0.7750 H     1 <1>   0.0800 
 29 H       -2.7820    -3.6180     0.3450 H     1 <1>   0.0800 
 30 H       -2.7710    -3.7720    -1.3940 H     1 <1>   0.0800 
 31 H       -1.8820    -8.0120     0.4010 H     1 <1>   0.0800 
 32 H       -4.6960    -4.8160     0.1200 H     1 <1>   0.0800 
 33 H       -4.1780    -5.6160    -1.3280 H     1 <1>   0.0800 
 34 H       -3.8480    -8.3190    -0.9560 H     1 <1>   0.4000 
 35 H       -3.0360    -6.1980     1.3960 H     1 <1>   0.0800 
@<TRIPOS>BOND
  1   1   2  1   
  2   2   3  ar  
  3   2   4  ar  
  4   3   5  ar  
  5   3   6  1   
  6   4   7  ar  
  7   4  22  1   
  8   5   8  ar  
  9   5  23  1   
 10   6   9  1   
 11   6  24  1   
 12   6  25  1   
 13   7   8  ar  
 14   7  26  1   
 15   8  10  1   
 16   9  11  2   
 17   9  12  am  
 18  12  13  1   
 19  12  14  1   
 20  13  15  1   
 21  13  27  1   
 22  13  28  1   
 23  14  16  1   
 24  14  29  1   
 25  14  30  1   
 26  15  17  1   
 27  15  18  1   
 28  15  31  1   
 29  16  18  1   
 30  16  32  1   
 31  16  33  1   
 32  17  34  1   
 33  18  19  1   
 34  18  35  1   
 35  19  20  ar  
 36  19  21  ar  
@<TRIPOS>SUBSTRUCTURE
  1 ****   9 GROUP 4 **** **** 0

# MOE 2024.06 (io_trps.svl 2023.06)
