@<TRIPOS>MOLECULE
NONAME
53 55 1 0 0 
SMALL
USER_CHARGES


@<TRIPOS>ATOM
  1 CL       0.2720     0.9200    -0.4890 Cl    1 <1>  -0.1770 
  2 C       -1.4310     1.1900    -0.2330 C.ar  1 <1>   0.1770 
  3 C       -2.3490     0.6130    -1.0900 C.ar  1 <1>  -0.1500 
  4 C       -1.8450     1.9790     0.8230 C.ar  1 <1>  -0.1500 
  5 C       -3.6990     0.8320    -0.8840 C.ar  1 <1>  -0.1500 
  6 C       -3.1980     2.1890     1.0200 C.ar  1 <1>  -0.1500 
  7 C       -4.1550     1.6190     0.1770 C.ar  1 <1>   0.0530 
  8 C       -5.5570     1.8660     0.4000 C.2   1 <1>   0.0870 
  9 O       -5.9520     3.0900     0.6450 O.3   1 <1>  -0.0190 
 10 C       -6.6660     1.0750     0.4350 C.2   1 <1>  -0.0860 
 11 N       -7.2400     3.1860     0.8280 N.2   1 <1>  -0.4100 
 12 C       -7.6920     1.9960     0.6950 C.2   1 <1>   0.3720 
 13 C       -6.8170    -0.3440     0.2970 C.2   1 <1>   0.7160 
 14 N       -9.0550     1.7550     0.8150 N.pl3 1 <1>  -0.8520 
 15 O       -5.9180    -1.0460    -0.1210 O.2   1 <1>  -0.5700 
 16 N       -7.9980    -0.9310     0.6280 N.am  1 <1>  -0.7300 
 17 C       -9.7620     1.5290    -0.4760 C.3   1 <1>   0.2090 
 18 C       -8.3840    -2.3330     0.4160 C.3   1 <1>   0.2200 
 19 C      -11.0860     0.8040    -0.2260 C.3   1 <1>   0.1200 
 20 C       -9.1040    -2.4270    -0.9380 C.3   1 <1>  -0.1600 
 21 C       -9.2190    -2.7640     1.6270 C.3   1 <1>  -0.1600 
 22 O      -11.6330     0.4450    -1.4550 O.3   1 <1>  -0.5600 
 23 C       -9.2860    -3.8780    -1.4070 C.3   1 <1>  -0.1600 
 24 C       -9.8140    -4.1790     1.5440 C.3   1 <1>  -0.1600 
 25 C      -12.8090    -0.2910    -1.3570 C.3   1 <1>   0.0400 
 26 C      -10.5660    -4.5630    -0.9030 C.3   1 <1>  -0.1600 
 27 C      -10.9790    -4.2690     0.5470 C.3   1 <1>  -0.1600 
 28 H       -2.0080     0.0010    -1.9060 H     1 <1>   0.1500 
 29 H       -1.1140     2.4200     1.4770 H     1 <1>   0.1500 
 30 H       -4.4130     0.3860    -1.5540 H     1 <1>   0.1500 
 31 H       -3.5240     2.8040     1.8410 H     1 <1>   0.1500 
 32 H       -9.4590     2.5880     1.2620 H     1 <1>   0.4000 
 33 H       -8.7350    -0.2910     0.9430 H     1 <1>   0.3700 
 34 H       -9.1510     0.9280    -1.1280 H     1 <1>   0.0800 
 35 H       -9.9520     2.4750    -0.9550 H     1 <1>   0.0800 
 36 H       -7.4910    -2.9350     0.3770 H     1 <1>   0.0800 
 37 H      -11.7780     1.4500     0.2840 H     1 <1>   0.0800 
 38 H      -10.9160    -0.0900     0.3470 H     1 <1>   0.0800 
 39 H       -8.4890    -1.9320    -1.6680 H     1 <1>   0.0800 
 40 H      -10.0520    -1.9220    -0.9090 H     1 <1>   0.0800 
 41 H      -10.0170    -2.0600     1.7840 H     1 <1>   0.0800 
 42 H       -8.5790    -2.7260     2.4920 H     1 <1>   0.0800 
 43 H       -8.4280    -4.4580    -1.1140 H     1 <1>   0.0800 
 44 H       -9.3110    -3.8900    -2.4840 H     1 <1>   0.0800 
 45 H      -10.1960    -4.4280     2.5200 H     1 <1>   0.0800 
 46 H       -9.0520    -4.9030     1.3080 H     1 <1>   0.0800 
 47 H      -13.1520    -0.5090    -2.3530 H     1 <1>   0.0800 
 48 H      -13.5520     0.2900    -0.8370 H     1 <1>   0.0800 
 49 H      -12.6120    -1.2110    -0.8340 H     1 <1>   0.0800 
 50 H      -10.4360    -5.6260    -1.0170 H     1 <1>   0.0800 
 51 H      -11.3840    -4.2800    -1.5440 H     1 <1>   0.0800 
 52 H      -11.5500    -3.3570     0.5790 H     1 <1>   0.0800 
 53 H      -11.6410    -5.0570     0.8630 H     1 <1>   0.0800 
@<TRIPOS>BOND
  1   1   2  1   
  2   2   3  ar  
  3   2   4  ar  
  4   3   5  ar  
  5   3  28  1   
  6   4   6  ar  
  7   4  29  1   
  8   5   7  ar  
  9   5  30  1   
 10   6   7  ar  
 11   6  31  1   
 12   7   8  1   
 13   8   9  1   
 14   8  10  2   
 15   9  11  1   
 16  10  12  1   
 17  10  13  1   
 18  11  12  2   
 19  12  14  1   
 20  13  15  2   
 21  13  16  am  
 22  14  17  1   
 23  14  32  1   
 24  16  18  1   
 25  16  33  1   
 26  17  19  1   
 27  17  34  1   
 28  17  35  1   
 29  18  20  1   
 30  18  21  1   
 31  18  36  1   
 32  19  22  1   
 33  19  37  1   
 34  19  38  1   
 35  20  23  1   
 36  20  39  1   
 37  20  40  1   
 38  21  24  1   
 39  21  41  1   
 40  21  42  1   
 41  22  25  1   
 42  23  26  1   
 43  23  43  1   
 44  23  44  1   
 45  24  27  1   
 46  24  45  1   
 47  24  46  1   
 48  25  47  1   
 49  25  48  1   
 50  25  49  1   
 51  26  27  1   
 52  26  50  1   
 53  26  51  1   
 54  27  52  1   
 55  27  53  1   
@<TRIPOS>SUBSTRUCTURE
  1 ****  13 GROUP 4 **** **** 0

# MOE 2024.06 (io_trps.svl 2023.06)
