@<TRIPOS>MOLECULE
NONAME
48 50 1 0 0 
SMALL
USER_CHARGES


@<TRIPOS>ATOM
  1 CL       0.4930     0.6230    -1.3280 Cl    1 <1>  -0.1230 
  2 C        1.9920     0.0020    -0.6550 C.2   1 <1>   0.1230 
  3 C        3.0980     0.7480    -0.2350 C.2   1 <1>   0.2030 
  4 C        2.2830    -1.2950    -0.4720 C.2   1 <1>  -0.3020 
  5 N        4.0390    -0.0920     0.1830 N.2   1 <1>  -0.7070 
  6 C        3.1560     2.2050    -0.2630 C.2   1 <1>   0.7160 
  7 N        3.5260    -1.3240     0.0400 N.pl3 1 <1>   0.3140 
  8 O        2.1540     2.8450     0.0180 O.2   1 <1>  -0.5700 
  9 N        4.3020     2.9190    -0.5980 N.am  1 <1>  -0.6600 
 10 C        4.2800    -2.5270     0.4130 C.3   1 <1>   0.0160 
 11 C        5.5210     2.2510    -1.1530 C.3   1 <1>   0.1400 
 12 C        4.3190     4.4130    -0.5350 C.3   1 <1>   0.1400 
 13 C        6.5490     1.9480    -0.0520 C.3   1 <1>   0.1400 
 14 C        5.6380     5.0120    -0.0210 C.3   1 <1>  -0.1600 
 15 N        7.2340     3.1900     0.4260 N.am  1 <1>  -0.6600 
 16 C        6.3300     4.1840     1.0670 C.3   1 <1>   0.1400 
 17 C        8.5830     3.3600     0.2370 C.2   1 <1>   0.5690 
 18 O        9.2680     2.4970    -0.2590 O.2   1 <1>  -0.5700 
 19 C        9.2700     4.6600     0.6540 C.3   1 <1>  -0.0990 
 20 C       10.6230     4.9030    -0.0430 C.3   1 <1>  -0.1600 
 21 C       11.2690     6.2150     0.4220 C.3   1 <1>   0.0960 
 22 N       12.4870     6.5120    -0.3550 N.pl3 1 <1>   0.3140 
 23 N       12.5260     7.4500    -1.2890 N.2   1 <1>  -0.7070 
 24 C       13.6940     5.9460    -0.2670 C.2   1 <1>   0.0370 
 25 C       13.7510     7.3830    -1.6980 C.2   1 <1>   0.3660 
 26 N       14.5230     6.4680    -1.0970 N.2   1 <1>  -0.5650 
 27 H        1.6930    -2.1690    -0.6730 H     1 <1>   0.1500 
 28 H        3.7280    -3.0730     1.1560 H     1 <1>   0.0800 
 29 H        5.2330    -2.2370     0.8150 H     1 <1>   0.0800 
 30 H        4.4260    -3.1380    -0.4580 H     1 <1>   0.0800 
 31 H        5.9730     2.8690    -1.9080 H     1 <1>   0.0800 
 32 H        5.2420     1.3280    -1.6290 H     1 <1>   0.0800 
 33 H        3.5350     4.7470     0.1230 H     1 <1>   0.0800 
 34 H        4.1020     4.8060    -1.5130 H     1 <1>   0.0800 
 35 H        7.2700     1.2560    -0.4480 H     1 <1>   0.0800 
 36 H        6.0650     1.4620     0.7770 H     1 <1>   0.0800 
 37 H        5.4090     5.9820     0.3810 H     1 <1>   0.0800 
 38 H        6.3100     5.1700    -0.8460 H     1 <1>   0.0800 
 39 H        5.6000     3.6780     1.6780 H     1 <1>   0.0800 
 40 H        6.8940     4.8300     1.7150 H     1 <1>   0.0800 
 41 H        9.4130     4.6280     1.7180 H     1 <1>   0.0800 
 42 H        8.6230     5.4840     0.4200 H     1 <1>   0.0800 
 43 H       10.4620     4.9410    -1.1080 H     1 <1>   0.0800 
 44 H       11.2870     4.0820     0.1690 H     1 <1>   0.0800 
 45 H       11.5310     6.1580     1.4630 H     1 <1>   0.0800 
 46 H       10.5840     7.0330     0.2850 H     1 <1>   0.0800 
 47 H       13.9220     5.1520     0.4210 H     1 <1>   0.1500 
 48 H       14.1500     8.0150    -2.4750 H     1 <1>   0.1500 
@<TRIPOS>BOND
  1   1   2  1   
  2   2   3  1   
  3   2   4  2   
  4   3   5  2   
  5   3   6  1   
  6   4   7  1   
  7   4  27  1   
  8   5   7  1   
  9   6   8  2   
 10   6   9  am  
 11   7  10  1   
 12   9  11  1   
 13   9  12  1   
 14  10  28  1   
 15  10  29  1   
 16  10  30  1   
 17  11  13  1   
 18  11  31  1   
 19  11  32  1   
 20  12  14  1   
 21  12  33  1   
 22  12  34  1   
 23  13  15  1   
 24  13  35  1   
 25  13  36  1   
 26  14  16  1   
 27  14  37  1   
 28  14  38  1   
 29  15  16  1   
 30  15  17  am  
 31  16  39  1   
 32  16  40  1   
 33  17  18  2   
 34  17  19  1   
 35  19  20  1   
 36  19  41  1   
 37  19  42  1   
 38  20  21  1   
 39  20  43  1   
 40  20  44  1   
 41  21  22  1   
 42  21  45  1   
 43  21  46  1   
 44  22  23  1   
 45  22  24  1   
 46  23  25  2   
 47  24  26  2   
 48  24  47  1   
 49  25  26  1   
 50  25  48  1   
@<TRIPOS>SUBSTRUCTURE
  1 ****  15 GROUP 4 **** **** 0

# MOE 2024.06 (io_trps.svl 2023.06)
