@<TRIPOS>MOLECULE
NONAME
44 45 1 0 0 
SMALL
USER_CHARGES


@<TRIPOS>ATOM
  1 O        0.5630     1.5400    -1.3500 O.3   1 <1>  -0.6800 
  2 C        1.3150     1.8000    -0.2100 C.3   1 <1>   0.1200 
  3 C        2.5070     0.8280    -0.0450 C.3   1 <1>   0.0000 
  4 C        3.4430     0.6870    -1.2840 C.3   1 <1>   0.0000 
  5 C        2.1500    -0.6810    -0.2050 C.3   1 <1>   0.0000 
  6 C        3.2620     1.0880     1.2710 C.3   1 <1>   0.2090 
  7 C        2.7130    -0.6310    -1.6500 C.3   1 <1>   0.0000 
  8 N        3.7110     2.5110     1.3910 N.pl3 1 <1>  -0.8380 
  9 C        4.8720     2.8860     0.7440 C.ar  1 <1>   0.4100 
 10 C        3.5210     3.0860     2.7460 C.3   1 <1>   0.1290 
 11 N        5.9280     2.1220     0.9440 N.ar  1 <1>  -0.6200 
 12 C        4.9480     4.0230    -0.0540 C.ar  1 <1>  -0.1430 
 13 C        7.0360     2.4920     0.3390 C.ar  1 <1>   0.4770 
 14 C        6.1650     4.2970    -0.6210 C.ar  1 <1>   0.1600 
 15 C        3.7650     4.9520    -0.3130 C.3   1 <1>  -0.0160 
 16 N        7.2270     3.5410    -0.4380 N.ar  1 <1>  -0.6200 
 17 C        8.2400     1.6080     0.5560 C.3   1 <1>  -0.0970 
 18 C        3.2510     4.8090    -1.7520 C.3   1 <1>  -0.1600 
 19 C        2.0280     5.6960    -2.0030 C.3   1 <1>  -0.2400 
 20 H       -0.1440     2.2040    -1.4570 H     1 <1>   0.4000 
 21 H        0.6600     1.7220     0.6400 H     1 <1>   0.0800 
 22 H        1.6750     2.8100    -0.2760 H     1 <1>   0.0800 
 23 H        4.4720     0.5080    -1.0240 H     1 <1>   0.0000 
 24 H        3.3250     1.4570    -2.0240 H     1 <1>   0.0000 
 25 H        1.0980    -0.8980    -0.1610 H     1 <1>   0.0000 
 26 H        2.7370    -1.3250     0.4270 H     1 <1>   0.0000 
 27 H        4.1110     0.4290     1.3400 H     1 <1>   0.0800 
 28 H        2.6070     0.8500     2.0910 H     1 <1>   0.0800 
 29 H        3.3820    -1.4420    -1.8770 H     1 <1>   0.0000 
 30 H        1.9480    -0.4930    -2.3930 H     1 <1>   0.0000 
 31 H        2.4720     3.1660     2.9670 H     1 <1>   0.0800 
 32 H        3.9640     4.0660     2.7970 H     1 <1>   0.0800 
 33 H        3.9960     2.4550     3.4790 H     1 <1>   0.0800 
 34 H        6.2820     5.1630    -1.2490 H     1 <1>   0.1500 
 35 H        4.0750     5.9680    -0.1430 H     1 <1>   0.0800 
 36 H        2.9650     4.7450     0.3740 H     1 <1>   0.0800 
 37 H        8.1000     0.9920     1.4250 H     1 <1>   0.0800 
 38 H        9.1160     2.2130     0.6930 H     1 <1>   0.0800 
 39 H        8.3750     0.9800    -0.3040 H     1 <1>   0.0800 
 40 H        2.9880     3.7820    -1.9360 H     1 <1>   0.0800 
 41 H        4.0310     5.0750    -2.4450 H     1 <1>   0.0800 
 42 H        1.2250     5.4260    -1.3400 H     1 <1>   0.0800 
 43 H        1.6880     5.5720    -3.0170 H     1 <1>   0.0800 
 44 H        2.2740     6.7320    -1.8490 H     1 <1>   0.0800 
@<TRIPOS>BOND
  1   1   2  1   
  2   1  20  1   
  3   2   3  1   
  4   2  21  1   
  5   2  22  1   
  6   3   4  1   
  7   3   5  1   
  8   3   6  1   
  9   4   7  1   
 10   4  23  1   
 11   4  24  1   
 12   5   7  1   
 13   5  25  1   
 14   5  26  1   
 15   6   8  1   
 16   6  27  1   
 17   6  28  1   
 18   7  29  1   
 19   7  30  1   
 20   8   9  1   
 21   8  10  1   
 22   9  11  ar  
 23   9  12  ar  
 24  10  31  1   
 25  10  32  1   
 26  10  33  1   
 27  11  13  ar  
 28  12  14  ar  
 29  12  15  1   
 30  13  16  ar  
 31  13  17  1   
 32  14  16  ar  
 33  14  34  1   
 34  15  18  1   
 35  15  35  1   
 36  15  36  1   
 37  17  37  1   
 38  17  38  1   
 39  17  39  1   
 40  18  19  1   
 41  18  40  1   
 42  18  41  1   
 43  19  42  1   
 44  19  43  1   
 45  19  44  1   
@<TRIPOS>SUBSTRUCTURE
  1 ****   9 GROUP 4 **** **** 0

# MOE 2024.06 (io_trps.svl 2023.06)
