@<TRIPOS>MOLECULE
NONAME
43 45 1 0 0 
SMALL
USER_CHARGES


@<TRIPOS>ATOM
  1 O        1.4740     0.3200    -1.8430 O.3   1 <1>  -0.6800 
  2 C        1.3860    -0.0670    -0.5190 C.3   1 <1>   0.2800 
  3 C        2.7320     0.2060     0.2220 C.3   1 <1>  -0.0800 
  4 C        1.0770    -1.5760    -0.5270 C.3   1 <1>  -0.1600 
  5 C        0.2030     0.7120     0.0960 C.3   1 <1>  -0.1600 
  6 C        3.6590    -1.0110     0.3610 C.3   1 <1>  -0.0800 
  7 C        3.6400     1.2780    -0.3880 C.3   1 <1>   0.2090 
  8 C        2.1940    -2.4300    -1.1650 C.3   1 <1>  -0.1600 
  9 C        0.3410     2.2450     0.0830 C.3   1 <1>  -0.2400 
 10 C        3.6090    -1.8800    -0.9060 C.3   1 <1>  -0.1600 
 11 C        5.0460    -0.4110     0.6110 C.3   1 <1>   0.2090 
 12 N        4.9980     0.9980     0.1410 N.pl3 1 <1>  -0.8380 
 13 C        6.0480     1.4490    -0.6390 C.ar  1 <1>   0.4100 
 14 N        6.3490     0.7200    -1.7100 N.ar  1 <1>  -0.6200 
 15 C        6.7250     2.6260    -0.2910 C.ar  1 <1>  -0.1440 
 16 C        7.3420     1.1680    -2.4560 C.ar  1 <1>   0.1600 
 17 C        7.7580     3.0700    -1.0860 C.ar  1 <1>  -0.1500 
 18 C        6.3320     3.4140     0.9520 C.3   1 <1>  -0.0970 
 19 C        8.0680     2.3150    -2.1970 C.ar  1 <1>  -0.1500 
 20 H        0.6720     0.0400    -2.3150 H     1 <1>   0.4000 
 21 H        2.5050     0.5220     1.2240 H     1 <1>   0.0800 
 22 H        0.9540    -1.8920     0.4940 H     1 <1>   0.0800 
 23 H        0.1440    -1.7680    -1.0260 H     1 <1>   0.0800 
 24 H       -0.7000     0.4450    -0.4250 H     1 <1>   0.0800 
 25 H        0.0760     0.3940     1.1170 H     1 <1>   0.0800 
 26 H        3.3760    -1.6140     1.2050 H     1 <1>   0.0800 
 27 H        3.3250     2.2680    -0.1120 H     1 <1>   0.0800 
 28 H        3.6700     1.2040    -1.4620 H     1 <1>   0.0800 
 29 H        2.1220    -3.4330    -0.7810 H     1 <1>   0.0800 
 30 H        2.0420    -2.4810    -2.2300 H     1 <1>   0.0800 
 31 H        0.5060     2.6040    -0.9180 H     1 <1>   0.0800 
 32 H        1.1580     2.5620     0.7040 H     1 <1>   0.0800 
 33 H       -0.5600     2.6960     0.4600 H     1 <1>   0.0800 
 34 H        3.9100    -1.2760    -1.7470 H     1 <1>   0.0800 
 35 H        4.3080    -2.6940    -0.8300 H     1 <1>   0.0800 
 36 H        5.8150    -0.9730     0.1080 H     1 <1>   0.0800 
 37 H        5.2580    -0.4070     1.6650 H     1 <1>   0.0800 
 38 H        7.5900     0.5850    -3.3250 H     1 <1>   0.1500 
 39 H        8.3050     3.9670    -0.8580 H     1 <1>   0.1500 
 40 H        6.9860     4.2520     1.1050 H     1 <1>   0.0800 
 41 H        6.3810     2.7740     1.8150 H     1 <1>   0.0800 
 42 H        5.3240     3.7730     0.8480 H     1 <1>   0.0800 
 43 H        8.8640     2.6120    -2.8550 H     1 <1>   0.1500 
@<TRIPOS>BOND
  1   1   2  1   
  2   1  20  1   
  3   2   3  1   
  4   2   4  1   
  5   2   5  1   
  6   3   6  1   
  7   3   7  1   
  8   3  21  1   
  9   4   8  1   
 10   4  22  1   
 11   4  23  1   
 12   5   9  1   
 13   5  24  1   
 14   5  25  1   
 15   6  10  1   
 16   6  11  1   
 17   6  26  1   
 18   7  12  1   
 19   7  27  1   
 20   7  28  1   
 21   8  10  1   
 22   8  29  1   
 23   8  30  1   
 24   9  31  1   
 25   9  32  1   
 26   9  33  1   
 27  10  34  1   
 28  10  35  1   
 29  11  12  1   
 30  11  36  1   
 31  11  37  1   
 32  12  13  1   
 33  13  14  ar  
 34  13  15  ar  
 35  14  16  ar  
 36  15  17  ar  
 37  15  18  1   
 38  16  19  ar  
 39  16  38  1   
 40  17  19  ar  
 41  17  39  1   
 42  18  40  1   
 43  18  41  1   
 44  18  42  1   
 45  19  43  1   
@<TRIPOS>SUBSTRUCTURE
  1 ****   7 GROUP 4 **** **** 0

# MOE 2024.06 (io_trps.svl 2023.06)
