@<TRIPOS>MOLECULE
NONAME
47 49 1 0 0 
SMALL
USER_CHARGES


@<TRIPOS>ATOM
  1 S        1.2960    -1.2770     2.7550 S.3   1 <1>  -0.0800 
  2 C        1.2320    -0.5380     1.1780 C.2   1 <1>   0.1980 
  3 C        0.9290    -2.8070     2.0200 C.2   1 <1>  -0.1100 
  4 N        0.9680    -1.3480     0.2340 N.2   1 <1>  -0.5650 
  5 C        1.4960     0.9590     1.0670 C.3   1 <1>   0.5230 
  6 C        0.7840    -2.6690     0.6810 C.2   1 <1>   0.1410 
  7 N        1.2470     1.4090    -0.3450 N.4   1 <1>  -0.9590 
  8 C        0.4660    -3.7360    -0.2660 C.2   1 <1>   0.7160 
  9 C        1.9870     2.6550    -0.7020 C.3   1 <1>   0.2630 
 10 C       -0.2170     1.5160    -0.6390 C.3   1 <1>   0.2630 
 11 O        0.2360    -3.5010    -1.4380 O.2   1 <1>  -0.5700 
 12 N        0.4030    -5.0350     0.1470 N.am  1 <1>  -0.7300 
 13 C        0.1540    -6.2080    -0.7240 C.3   1 <1>   0.2200 
 14 C       -1.2510    -6.7610    -0.5160 C.3   1 <1>  -0.0800 
 15 C        0.9860    -7.3720    -0.2060 C.3   1 <1>   0.1200 
 16 C       -1.0870    -7.6780     0.7040 C.3   1 <1>   0.1200 
 17 C       -2.3740    -5.7150    -0.3790 C.3   1 <1>  -0.0170 
 18 O        0.2880    -7.8250     0.9120 O.3   1 <1>  -0.5600 
 19 C       -3.7330    -6.3890    -0.2780 C.ar  1 <1>  -0.1430 
 20 C       -4.4050    -6.8330    -1.3980 C.ar  1 <1>  -0.1500 
 21 C       -4.3640    -6.5930     0.9330 C.ar  1 <1>  -0.1500 
 22 C       -5.6390    -7.4470    -1.2580 C.ar  1 <1>   0.1600 
 23 C       -5.5990    -7.2180     0.9630 C.ar  1 <1>   0.1600 
 24 N       -6.2510    -7.6530    -0.1030 N.ar  1 <1>  -0.6200 
 25 H        0.8550    -3.6630     2.6660 H     1 <1>   0.1500 
 26 H        2.5220     1.1420     1.3360 H     1 <1>   0.0800 
 27 H        0.8590     1.4960     1.7500 H     1 <1>   0.0800 
 28 H        1.5920     0.6160    -0.9190 H     1 <1>   0.4500 
 29 H        1.6430     3.4820    -0.1020 H     1 <1>   0.0800 
 30 H        1.8290     2.8950    -1.7410 H     1 <1>   0.0800 
 31 H        3.0450     2.5230    -0.5400 H     1 <1>   0.0800 
 32 H       -0.6710     2.2830    -0.0330 H     1 <1>   0.0800 
 33 H       -0.7060     0.5760    -0.4360 H     1 <1>   0.0800 
 34 H       -0.3710     1.7580    -1.6780 H     1 <1>   0.0800 
 35 H        0.5760    -5.2880     1.1210 H     1 <1>   0.3700 
 36 H        0.3660    -5.9780    -1.7560 H     1 <1>   0.0800 
 37 H       -1.4830    -7.3890    -1.3580 H     1 <1>   0.0800 
 38 H        1.9830    -7.0840     0.0750 H     1 <1>   0.0800 
 39 H        1.0210    -8.1720    -0.9250 H     1 <1>   0.0800 
 40 H       -1.5210    -8.6480     0.5310 H     1 <1>   0.0800 
 41 H       -1.5080    -7.2460     1.5940 H     1 <1>   0.0800 
 42 H       -2.3620    -5.0660    -1.2380 H     1 <1>   0.0800 
 43 H       -2.2160    -5.1030     0.4910 H     1 <1>   0.0800 
 44 H       -3.9830    -6.7070    -2.3780 H     1 <1>   0.1500 
 45 H       -3.9110    -6.2720     1.8520 H     1 <1>   0.1500 
 46 H       -6.1490    -7.7870    -2.1430 H     1 <1>   0.1500 
 47 H       -6.0780    -7.3690     1.9160 H     1 <1>   0.1500 
@<TRIPOS>BOND
  1   1   2  1   
  2   1   3  1   
  3   2   4  2   
  4   2   5  1   
  5   3   6  2   
  6   3  25  1   
  7   4   6  1   
  8   5   7  1   
  9   5  26  1   
 10   5  27  1   
 11   6   8  1   
 12   7   9  1   
 13   7  10  1   
 14   7  28  1   
 15   8  11  2   
 16   8  12  am  
 17   9  29  1   
 18   9  30  1   
 19   9  31  1   
 20  10  32  1   
 21  10  33  1   
 22  10  34  1   
 23  12  13  1   
 24  12  35  1   
 25  13  14  1   
 26  13  15  1   
 27  13  36  1   
 28  14  16  1   
 29  14  17  1   
 30  14  37  1   
 31  15  18  1   
 32  15  38  1   
 33  15  39  1   
 34  16  18  1   
 35  16  40  1   
 36  16  41  1   
 37  17  19  1   
 38  17  42  1   
 39  17  43  1   
 40  19  20  ar  
 41  19  21  ar  
 42  20  22  ar  
 43  20  44  1   
 44  21  23  ar  
 45  21  45  1   
 46  22  24  ar  
 47  22  46  1   
 48  23  24  ar  
 49  23  47  1   
@<TRIPOS>SUBSTRUCTURE
  1 ****   8 GROUP 4 **** **** 0

# MOE 2024.06 (io_trps.svl 2023.06)
