@<TRIPOS>MOLECULE
NONAME
55 57 1 0 0 
SMALL
USER_CHARGES


@<TRIPOS>ATOM
  1 O        1.3720     1.1620    -1.1020 O.co2 1 <1>  -0.9020 
  2 C        1.8640     0.1280    -1.5830 C.2   1 <1>   0.9770 
  3 O        1.1830    -0.5910    -2.3300 O.co2 1 <1>  -0.9020 
  4 C        3.2380    -0.2280    -1.2640 C.ar  1 <1>  -0.1860 
  5 C        3.9970     0.5830    -0.4270 C.ar  1 <1>  -0.1160 
  6 C        3.8390    -1.3900    -1.7850 C.ar  1 <1>  -0.1570 
  7 C        5.3030     0.2330    -0.1360 C.ar  1 <1>   0.3030 
  8 C        5.1420    -1.7370    -1.4910 C.ar  1 <1>  -0.1160 
  9 N        6.2600     0.8390     0.6470 N.pl3 1 <1>  -0.7030 
 10 C        5.8800    -0.9070    -0.6560 C.ar  1 <1>   0.3030 
 11 C        7.3690     0.1060     0.6280 C.cat 1 <1>   1.0690 
 12 N        7.1890    -0.9600    -0.1790 N.pl3 1 <1>  -0.7670 
 13 N        8.4820     0.4420     1.3280 N.pl3 1 <1>  -0.5960 
 14 C        8.1530    -1.9760    -0.6780 C.3   1 <1>   0.2680 
 15 C        8.6740     1.8010     1.9280 C.3   1 <1>   0.1610 
 16 C        9.5340    -0.5410     1.7370 C.3   1 <1>   0.0810 
 17 C        9.1450     2.8380     0.8840 C.3   1 <1>  -0.0870 
 18 C       10.4990     2.4700     0.2450 C.3   1 <1>  -0.1670 
 19 C        9.2560     4.2290     1.5370 C.3   1 <1>  -0.1670 
 20 C       11.0190     3.5650    -0.6910 C.3   1 <1>   0.3370 
 21 C        9.7960     5.2880     0.5720 C.3   1 <1>   0.3370 
 22 N       11.1190     4.8560     0.0430 N.4   1 <1>  -0.9610 
 23 C       11.7270     5.8960    -0.8530 C.3   1 <1>   0.3370 
 24 C       12.1370     7.1680    -0.1010 C.3   1 <1>   0.1130 
 25 O       12.7220     8.0190    -1.0270 O.3   1 <1>  -0.5640 
 26 C       13.1680     9.2270    -0.4950 C.3   1 <1>   0.0330 
 27 H        3.5620     1.4770    -0.0120 H     1 <1>   0.1430 
 28 H        3.2430    -2.0160    -2.4320 H     1 <1>   0.1430 
 29 H        5.5690    -2.6330    -1.9020 H     1 <1>   0.1430 
 30 H        6.0800     1.6590     1.2150 H     1 <1>   0.4450 
 31 H        7.8950    -2.2710    -1.6810 H     1 <1>   0.0730 
 32 H        8.1300    -2.8460    -0.0450 H     1 <1>   0.0730 
 33 H        9.1510    -1.5740    -0.7010 H     1 <1>   0.0730 
 34 H        9.3970     1.7510     2.7260 H     1 <1>   0.0730 
 35 H        7.7500     2.1320     2.3730 H     1 <1>   0.0730 
 36 H        9.1480    -1.5450     1.7160 H     1 <1>   0.0730 
 37 H        9.8580    -0.3490     2.7460 H     1 <1>   0.0730 
 38 H       10.3850    -0.4700     1.0810 H     1 <1>   0.0730 
 39 H        8.4030     2.9010     0.1050 H     1 <1>   0.0730 
 40 H       10.3970     1.5650    -0.3280 H     1 <1>   0.0730 
 41 H       11.2350     2.2860     1.0100 H     1 <1>   0.0730 
 42 H        9.8990     4.1870     2.3990 H     1 <1>   0.0730 
 43 H        8.2850     4.5460     1.8780 H     1 <1>   0.0730 
 44 H       10.3470     3.6770    -1.5270 H     1 <1>   0.0730 
 45 H       11.9880     3.2840    -1.0710 H     1 <1>   0.0730 
 46 H        9.8930     6.2280     1.0910 H     1 <1>   0.0730 
 47 H        9.1050     5.4220    -0.2450 H     1 <1>   0.0730 
 48 H       11.7570     4.7140     0.8370 H     1 <1>   0.4450 
 49 H       11.0260     6.1610    -1.6270 H     1 <1>   0.0730 
 50 H       12.6090     5.4910    -1.3200 H     1 <1>   0.0730 
 51 H       12.8650     6.9460     0.6600 H     1 <1>   0.0730 
 52 H       11.2830     7.6680     0.3200 H     1 <1>   0.0730 
 53 H       13.6000     9.8050    -1.2930 H     1 <1>   0.0730 
 54 H       13.9160     9.0340     0.2550 H     1 <1>   0.0730 
 55 H       12.3350     9.7620    -0.0720 H     1 <1>   0.0730 
@<TRIPOS>BOND
  1   1   2  ar  
  2   2   3  ar  
  3   2   4  1   
  4   4   5  ar  
  5   4   6  ar  
  6   5   7  ar  
  7   5  27  1   
  8   6   8  ar  
  9   6  28  1   
 10   7   9  1   
 11   7  10  ar  
 12   8  10  ar  
 13   8  29  1   
 14   9  11  ar  
 15   9  30  1   
 16  10  12  1   
 17  11  12  ar  
 18  11  13  ar  
 19  12  14  1   
 20  13  15  1   
 21  13  16  1   
 22  14  31  1   
 23  14  32  1   
 24  14  33  1   
 25  15  17  1   
 26  15  34  1   
 27  15  35  1   
 28  16  36  1   
 29  16  37  1   
 30  16  38  1   
 31  17  18  1   
 32  17  19  1   
 33  17  39  1   
 34  18  20  1   
 35  18  40  1   
 36  18  41  1   
 37  19  21  1   
 38  19  42  1   
 39  19  43  1   
 40  20  22  1   
 41  20  44  1   
 42  20  45  1   
 43  21  22  1   
 44  21  46  1   
 45  21  47  1   
 46  22  23  1   
 47  22  48  1   
 48  23  24  1   
 49  23  49  1   
 50  23  50  1   
 51  24  25  1   
 52  24  51  1   
 53  24  52  1   
 54  25  26  1   
 55  26  53  1   
 56  26  54  1   
 57  26  55  1   
@<TRIPOS>SUBSTRUCTURE
  1 ****   9 GROUP 4 **** **** 0

# MOE 2024.06 (io_trps.svl 2023.06)
