@<TRIPOS>MOLECULE
NONAME
40 41 1 0 0 
SMALL
USER_CHARGES


@<TRIPOS>ATOM
  1 O       -0.3310     0.8880     0.3200 O.co2 1 <1>  -0.9000 
  2 C       -0.5580     1.7150    -0.5840 C.2   1 <1>   1.0330 
  3 O       -1.5210     1.5040    -1.3490 O.co2 1 <1>  -0.9000 
  4 C        0.2530     2.9180    -0.7770 C.2   1 <1>  -0.0060 
  5 N        1.3390     3.3410    -0.0420 N.2   1 <1>  -0.5650 
  6 C        0.0490     3.8370    -1.7400 C.2   1 <1>  -0.0100 
  7 C        1.6820     4.4440    -0.6010 C.2   1 <1>   0.5620 
  8 O        0.9390     4.7890    -1.6310 O.3   1 <1>  -0.2800 
  9 N        2.7240     5.2600    -0.1980 N.pl3 1 <1>  -0.8220 
 10 C        2.7090     6.6950    -0.6180 C.3   1 <1>   0.2090 
 11 C        3.3620     4.9530     1.1190 C.3   1 <1>   0.2090 
 12 C        3.9730     7.4750    -0.1560 C.3   1 <1>   0.4230 
 13 C        4.7710     5.5750     1.2430 C.3   1 <1>   0.3430 
 14 N        5.1120     6.5180     0.1070 N.4   1 <1>  -0.9590 
 15 C        3.7020     8.3690     1.0730 C.3   1 <1>  -0.1600 
 16 C        6.4690     7.1240     0.2000 C.3   1 <1>   0.4230 
 17 C        2.8460     9.5960     0.7280 C.3   1 <1>  -0.2400 
 18 C        6.7470     7.9840    -1.0330 C.3   1 <1>  -0.2400 
 19 C        7.5220     6.0180     0.2870 C.3   1 <1>  -0.2400 
 20 H       -0.7000     3.8670    -2.5130 H     1 <1>   0.1500 
 21 H        1.8130     7.1630    -0.2490 H     1 <1>   0.0800 
 22 H        2.6620     6.7340    -1.6930 H     1 <1>   0.0800 
 23 H        3.4430     3.8860     1.2500 H     1 <1>   0.0800 
 24 H        2.7300     5.3200     1.9090 H     1 <1>   0.0800 
 25 H        4.2430     8.1280    -0.9680 H     1 <1>   0.0800 
 26 H        5.4820     4.7670     1.2650 H     1 <1>   0.0800 
 27 H        4.8400     6.0910     2.1850 H     1 <1>   0.0800 
 28 H        5.1010     5.9040    -0.7190 H     1 <1>   0.4500 
 29 H        4.6320     8.7310     1.4740 H     1 <1>   0.0800 
 30 H        3.2000     7.8070     1.8410 H     1 <1>   0.0800 
 31 H        6.5360     7.7420     1.0830 H     1 <1>   0.0800 
 32 H        3.3150    10.1890    -0.0380 H     1 <1>   0.0800 
 33 H        2.7290    10.2160     1.6020 H     1 <1>   0.0800 
 34 H        1.8620     9.3140     0.3950 H     1 <1>   0.0800 
 35 H        6.5940     7.4260    -1.9390 H     1 <1>   0.0800 
 36 H        7.7700     8.3170    -1.0180 H     1 <1>   0.0800 
 37 H        6.1370     8.8690    -1.0400 H     1 <1>   0.0800 
 38 H        7.4320     5.3320    -0.5360 H     1 <1>   0.0800 
 39 H        7.4570     5.4830     1.2160 H     1 <1>   0.0800 
 40 H        8.5060     6.4520     0.2500 H     1 <1>   0.0800 
@<TRIPOS>BOND
  1   1   2  ar  
  2   2   3  ar  
  3   2   4  1   
  4   4   5  1   
  5   4   6  2   
  6   5   7  2   
  7   6   8  1   
  8   6  20  1   
  9   7   8  1   
 10   7   9  1   
 11   9  10  1   
 12   9  11  1   
 13  10  12  1   
 14  10  21  1   
 15  10  22  1   
 16  11  13  1   
 17  11  23  1   
 18  11  24  1   
 19  12  14  1   
 20  12  15  1   
 21  12  25  1   
 22  13  14  1   
 23  13  26  1   
 24  13  27  1   
 25  14  16  1   
 26  14  28  1   
 27  15  17  1   
 28  15  29  1   
 29  15  30  1   
 30  16  18  1   
 31  16  19  1   
 32  16  31  1   
 33  17  32  1   
 34  17  33  1   
 35  17  34  1   
 36  18  35  1   
 37  18  36  1   
 38  18  37  1   
 39  19  38  1   
 40  19  39  1   
 41  19  40  1   
@<TRIPOS>SUBSTRUCTURE
  1 ****   9 GROUP 4 **** **** 0

# MOE 2024.06 (io_trps.svl 2023.06)
