@<TRIPOS>MOLECULE
NONAME
29 30 1 0 0 
SMALL
USER_CHARGES


@<TRIPOS>ATOM
  1 O       -1.3810    -3.3490    -2.3650 O.co2 1 <1>  -0.9000 
  2 C       -1.7530    -2.4230    -1.6290 C.2   1 <1>   1.0500 
  3 O       -0.9630    -1.5030    -1.3700 O.co2 1 <1>  -0.9000 
  4 C       -3.0990    -2.4750    -1.0990 C.2   1 <1>  -0.4000 
  5 C       -3.7990    -1.7230    -0.2100 C.2   1 <1>  -0.2760 
  6 C       -5.2430    -1.9980     0.2090 C.3   1 <1>   0.4820 
  7 C       -3.2420    -0.4900     0.4950 C.3   1 <1>  -0.0220 
  8 O       -5.4190    -3.3600     0.1350 O.3   1 <1>  -0.6800 
  9 C       -6.2430    -1.2330    -0.6650 C.ar  1 <1>  -0.1440 
 10 C       -3.8890     0.8080    -0.0090 C.3   1 <1>  -0.1600 
 11 C       -6.2930     0.1590    -0.5920 C.ar  1 <1>  -0.1430 
 12 C       -7.1030    -1.8900    -1.5410 C.ar  1 <1>  -0.1500 
 13 C       -5.3790     0.9500     0.3430 C.3   1 <1>  -0.0170 
 14 C       -7.1930     0.8570    -1.3850 C.ar  1 <1>  -0.1500 
 15 C       -7.9980    -1.1870    -2.3250 C.ar  1 <1>  -0.1500 
 16 C       -8.0430     0.1910    -2.2470 C.ar  1 <1>  -0.1500 
 17 H       -3.5800    -3.3050    -1.5740 H     1 <1>   0.1500 
 18 H       -5.3920    -1.7370     1.2410 H     1 <1>   0.0800 
 19 H       -2.1830    -0.4140     0.3370 H     1 <1>   0.0800 
 20 H       -3.3790    -0.5840     1.5570 H     1 <1>   0.0800 
 21 H       -4.6020    -3.6830    -0.2940 H     1 <1>   0.4000 
 22 H       -3.7600     0.8720    -1.0770 H     1 <1>   0.0800 
 23 H       -3.3540     1.6310     0.4290 H     1 <1>   0.0800 
 24 H       -7.0800    -2.9630    -1.6210 H     1 <1>   0.1500 
 25 H       -5.6340     1.9930     0.2790 H     1 <1>   0.0800 
 26 H       -5.5510     0.6520     1.3620 H     1 <1>   0.0800 
 27 H       -7.2370     1.9300    -1.3390 H     1 <1>   0.1500 
 28 H       -8.6530    -1.7130    -2.9960 H     1 <1>   0.1500 
 29 H       -8.7350     0.7430    -2.8580 H     1 <1>   0.1500 
@<TRIPOS>BOND
  1   1   2  ar  
  2   2   3  ar  
  3   2   4  1   
  4   4   5  2   
  5   4  17  1   
  6   5   6  1   
  7   5   7  1   
  8   6   8  1   
  9   6   9  1   
 10   6  18  1   
 11   7  10  1   
 12   7  19  1   
 13   7  20  1   
 14   8  21  1   
 15   9  11  ar  
 16   9  12  ar  
 17  10  13  1   
 18  10  22  1   
 19  10  23  1   
 20  11  13  1   
 21  11  14  ar  
 22  12  15  ar  
 23  12  24  1   
 24  13  25  1   
 25  13  26  1   
 26  14  16  ar  
 27  14  27  1   
 28  15  16  ar  
 29  15  28  1   
 30  16  29  1   
@<TRIPOS>SUBSTRUCTURE
  1 ****   5 GROUP 4 **** **** 0

# MOE 2024.06 (io_trps.svl 2023.06)
