@<TRIPOS>MOLECULE
NONAME
46 49 1 0 0 
SMALL
USER_CHARGES


@<TRIPOS>ATOM
  1 S        0.0150     1.4620     2.0110 S.3   1 <1>  -0.0800 
  2 C        0.3300     2.4650     0.6020 C.2   1 <1>  -0.0450 
  3 C       -1.5540     2.2090     2.2520 C.2   1 <1>  -0.1100 
  4 C       -0.7130     3.2860     0.3730 C.2   1 <1>  -0.1500 
  5 C        1.6640     2.2650    -0.1090 C.3   1 <1>   0.0850 
  6 C       -1.7840     3.1430     1.3120 C.2   1 <1>  -0.1500 
  7 C        2.8490     2.5720     0.8340 C.2   1 <1>   0.6300 
  8 C        1.7500     1.2160    -1.1940 C.3   1 <1>  -0.1900 
  9 C        1.7690     2.6590    -1.5690 C.3   1 <1>  -0.2000 
 10 O        3.4530     1.6230     1.2850 O.2   1 <1>  -0.5700 
 11 N        3.1840     3.8700     1.1710 N.am  1 <1>  -0.5090 
 12 C        3.0340     0.4060    -1.4250 C.3   1 <1>  -0.1450 
 13 C        0.5090     0.3870    -1.5590 C.3   1 <1>  -0.1450 
 14 C        4.1520     4.1480     2.2730 C.3   1 <1>   0.0490 
 15 C        2.2730     5.0210     0.8720 C.3   1 <1>   0.3200 
 16 C        5.3960     4.9410     2.0070 C.3   1 <1>  -0.2000 
 17 C        5.4950     3.4820     2.3040 C.3   1 <1>  -0.2000 
 18 C        2.9880     6.3150     0.5050 C.2   1 <1>   0.0070 
 19 N        2.8520     7.4040     1.1950 N.2   1 <1>  -0.5650 
 20 N        3.8000     6.4570    -0.5740 N.pl3 1 <1>   0.0480 
 21 C        3.6150     8.3000     0.5440 C.2   1 <1>   0.0770 
 22 C        4.1980     7.7410    -0.5370 C.2   1 <1>  -0.3020 
 23 C        4.2050     5.4650    -1.5850 C.3   1 <1>   0.0160 
 24 H       -2.1430     1.8640     3.0840 H     1 <1>   0.1500 
 25 H       -0.7860     4.0000    -0.4290 H     1 <1>   0.1500 
 26 H       -2.6730     3.7450     1.2350 H     1 <1>   0.1500 
 27 H        2.6910     3.0560    -1.9480 H     1 <1>   0.1000 
 28 H        0.9100     3.0690    -2.0690 H     1 <1>   0.1000 
 29 H        3.9120     1.0070    -1.2690 H     1 <1>   0.0800 
 30 H        3.0630     0.0250    -2.4300 H     1 <1>   0.0800 
 31 H        3.0700    -0.4230    -0.7400 H     1 <1>   0.0800 
 32 H       -0.3900     0.9750    -1.5090 H     1 <1>   0.0800 
 33 H        0.4100    -0.4400    -0.8780 H     1 <1>   0.0800 
 34 H        0.5980     0.0010    -2.5590 H     1 <1>   0.0800 
 35 H        3.6520     4.3000     3.2150 H     1 <1>   0.1000 
 36 H        1.6660     5.2040     1.7420 H     1 <1>   0.0800 
 37 H        1.6120     4.7880     0.0630 H     1 <1>   0.0800 
 38 H        5.7150     5.6450     2.7550 H     1 <1>   0.1000 
 39 H        5.6470     5.2570     1.0130 H     1 <1>   0.1000 
 40 H        5.7640     2.8100     1.5090 H     1 <1>   0.1000 
 41 H        5.8890     3.1740     3.2560 H     1 <1>   0.1000 
 42 H        3.7040     9.3150     0.8930 H     1 <1>   0.1500 
 43 H        4.8600     8.1810    -1.2590 H     1 <1>   0.1500 
 44 H        4.4710     4.5430    -1.1010 H     1 <1>   0.0800 
 45 H        5.0560     5.8340    -2.1270 H     1 <1>   0.0800 
 46 H        3.3920     5.3020    -2.2670 H     1 <1>   0.0800 
@<TRIPOS>BOND
  1   1   2  1   
  2   1   3  1   
  3   2   4  2   
  4   2   5  1   
  5   3   6  2   
  6   3  24  1   
  7   4   6  1   
  8   4  25  1   
  9   5   7  1   
 10   5   8  1   
 11   5   9  1   
 12   6  26  1   
 13   7  10  2   
 14   7  11  am  
 15   8   9  1   
 16   8  12  1   
 17   8  13  1   
 18   9  27  1   
 19   9  28  1   
 20  11  14  1   
 21  11  15  1   
 22  12  29  1   
 23  12  30  1   
 24  12  31  1   
 25  13  32  1   
 26  13  33  1   
 27  13  34  1   
 28  14  16  1   
 29  14  17  1   
 30  14  35  1   
 31  15  18  1   
 32  15  36  1   
 33  15  37  1   
 34  16  17  1   
 35  16  38  1   
 36  16  39  1   
 37  17  40  1   
 38  17  41  1   
 39  18  19  2   
 40  18  20  1   
 41  19  21  1   
 42  20  22  1   
 43  20  23  1   
 44  21  22  2   
 45  21  42  1   
 46  22  43  1   
 47  23  44  1   
 48  23  45  1   
 49  23  46  1   
@<TRIPOS>SUBSTRUCTURE
  1 ****  11 GROUP 4 **** **** 0

# MOE 2024.06 (io_trps.svl 2023.06)
