@<TRIPOS>MOLECULE
NONAME
49 49 1 0 0 
SMALL
USER_CHARGES


@<TRIPOS>ATOM
  1 O        0.6230     2.4340     1.4390 O.3   1 <1>  -0.6800 
  2 C        1.0320     1.4640     0.5640 C.3   1 <1>   0.2800 
  3 C        2.4390     1.8540     0.0950 C.3   1 <1>  -0.1600 
  4 C        0.0120     1.4280    -0.5740 C.3   1 <1>  -0.2400 
  5 C        1.0430     0.1430     1.3300 C.3   1 <1>  -0.2400 
  6 C        2.4790     3.3030    -0.3940 C.3   1 <1>   0.3430 
  7 N        3.8920     3.7820    -0.5210 N.4   1 <1>  -0.9590 
  8 C        3.9000     5.2910    -0.5220 C.3   1 <1>   0.3430 
  9 C        4.5420     3.1730    -1.7320 C.3   1 <1>   0.2630 
 10 C        5.3100     5.9300    -0.3700 C.3   1 <1>   0.3430 
 11 N        5.3140     7.4390    -0.2960 N.4   1 <1>  -0.9590 
 12 C        6.7220     7.9590    -0.4020 C.3   1 <1>   0.4230 
 13 C        4.5820     7.9770     0.9090 C.3   1 <1>   0.2630 
 14 C        7.5860     7.6160     0.8250 C.3   1 <1>  -0.1600 
 15 C        6.7440     9.4850    -0.5180 C.3   1 <1>  -0.1600 
 16 C        8.0620     8.9420     1.4300 C.3   1 <1>  -0.1600 
 17 C        7.1520    10.0220     0.8540 C.3   1 <1>  -0.1600 
 18 H       -0.2120     2.1510     1.8650 H     1 <1>   0.4000 
 19 H        2.7420     1.1820    -0.6880 H     1 <1>   0.0800 
 20 H        3.1100     1.7330     0.9260 H     1 <1>   0.0800 
 21 H       -0.0790     2.3850    -1.0540 H     1 <1>   0.0800 
 22 H       -0.9560     1.1390    -0.2030 H     1 <1>   0.0800 
 23 H        0.3080     0.7040    -1.3110 H     1 <1>   0.0800 
 24 H        1.7040     0.1980     2.1770 H     1 <1>   0.0800 
 25 H        1.3830    -0.6510     0.6890 H     1 <1>   0.0800 
 26 H        0.0560    -0.1100     1.6740 H     1 <1>   0.0800 
 27 H        1.9610     3.9150     0.3290 H     1 <1>   0.0800 
 28 H        1.9570     3.3910    -1.3340 H     1 <1>   0.0800 
 29 H        4.3670     3.4270     0.3250 H     1 <1>   0.4500 
 30 H        3.2880     5.6320     0.2960 H     1 <1>   0.0800 
 31 H        3.4530     5.6410    -1.4390 H     1 <1>   0.0800 
 32 H        4.0290     3.4770    -2.6300 H     1 <1>   0.0800 
 33 H        4.5090     2.0960    -1.6730 H     1 <1>   0.0800 
 34 H        5.5750     3.4710    -1.8040 H     1 <1>   0.0800 
 35 H        5.9130     5.6250    -1.2100 H     1 <1>   0.0800 
 36 H        5.7680     5.5410     0.5250 H     1 <1>   0.0800 
 37 H        4.8440     7.8250    -1.1300 H     1 <1>   0.4500 
 38 H        7.1860     7.5480    -1.2860 H     1 <1>   0.0800 
 39 H        5.0650     7.6640     1.8200 H     1 <1>   0.0800 
 40 H        3.5610     7.6330     0.9240 H     1 <1>   0.0800 
 41 H        4.5680     9.0540     0.8880 H     1 <1>   0.0800 
 42 H        8.4450     7.0450     0.5190 H     1 <1>   0.0800 
 43 H        7.0540     7.0510     1.5670 H     1 <1>   0.0800 
 44 H        5.8200     9.9110    -0.8680 H     1 <1>   0.0800 
 45 H        7.5190     9.7520    -1.2170 H     1 <1>   0.0800 
 46 H        9.0760     9.1350     1.1170 H     1 <1>   0.0800 
 47 H        8.0370     8.9330     2.5070 H     1 <1>   0.0800 
 48 H        6.2920    10.1510     1.4870 H     1 <1>   0.0800 
 49 H        7.6610    10.9690     0.7780 H     1 <1>   0.0800 
@<TRIPOS>BOND
  1   1   2  1   
  2   1  18  1   
  3   2   3  1   
  4   2   4  1   
  5   2   5  1   
  6   3   6  1   
  7   3  19  1   
  8   3  20  1   
  9   4  21  1   
 10   4  22  1   
 11   4  23  1   
 12   5  24  1   
 13   5  25  1   
 14   5  26  1   
 15   6   7  1   
 16   6  27  1   
 17   6  28  1   
 18   7   8  1   
 19   7   9  1   
 20   7  29  1   
 21   8  10  1   
 22   8  30  1   
 23   8  31  1   
 24   9  32  1   
 25   9  33  1   
 26   9  34  1   
 27  10  11  1   
 28  10  35  1   
 29  10  36  1   
 30  11  12  1   
 31  11  13  1   
 32  11  37  1   
 33  12  14  1   
 34  12  15  1   
 35  12  38  1   
 36  13  39  1   
 37  13  40  1   
 38  13  41  1   
 39  14  16  1   
 40  14  42  1   
 41  14  43  1   
 42  15  17  1   
 43  15  44  1   
 44  15  45  1   
 45  16  17  1   
 46  16  46  1   
 47  16  47  1   
 48  17  48  1   
 49  17  49  1   
@<TRIPOS>SUBSTRUCTURE
  1 ****   8 GROUP 4 **** **** 0

# MOE 2024.06 (io_trps.svl 2023.06)
