@<TRIPOS>MOLECULE
NONAME
51 54 1 0 0 
SMALL
USER_CHARGES


@<TRIPOS>ATOM
  1 O       -0.2260    -1.4700    -2.5590 O.2   1 <1>  -0.5700 
  2 C       -0.8950    -1.7570    -1.5790 C.2   1 <1>   0.5440 
  3 N       -0.7590    -0.9550    -0.4510 N.am  1 <1>  -0.6600 
  4 C       -1.7620    -2.9390    -1.6360 C.ar  1 <1>   0.3960 
  5 C       -0.0310     0.3440    -0.4970 C.3   1 <1>   0.0600 
  6 C       -1.2370    -1.3450     0.9020 C.3   1 <1>   0.0600 
  7 N       -3.0030    -2.8940    -1.1230 N.ar  1 <1>  -0.6200 
  8 C       -1.2640    -4.0940    -2.2370 C.ar  1 <1>  -0.1500 
  9 C       -3.7410    -3.9900    -1.2030 C.ar  1 <1>   0.4100 
 10 C       -2.0280    -5.2370    -2.3210 C.ar  1 <1>  -0.1500 
 11 N       -5.0170    -3.9150    -0.6740 N.pl3 1 <1>  -0.8380 
 12 C       -3.2910    -5.1700    -1.7900 C.ar  1 <1>  -0.1500 
 13 C       -5.8550    -2.6840    -0.8400 C.3   1 <1>   0.2090 
 14 C       -5.6330    -5.0080     0.1230 C.3   1 <1>   0.2090 
 15 C       -6.3060    -2.1210     0.5210 C.3   1 <1>   0.1440 
 16 C       -6.1010    -4.4690     1.4810 C.3   1 <1>  -0.1600 
 17 C       -7.1940    -0.9180     0.2600 C.ar  1 <1>   0.1670 
 18 C       -7.0050    -3.2290     1.3380 C.3   1 <1>  -0.1600 
 19 C       -5.1250    -1.4840     1.2980 C.3   1 <1>  -0.1600 
 20 N       -8.4480    -0.9580    -0.1350 N.ar  1 <1>  -0.6200 
 21 C       -6.5200     0.2480     0.4680 C.ar  1 <1>  -0.1430 
 22 C       -5.0970     0.0020     0.9060 C.3   1 <1>  -0.0170 
 23 C       -9.0040     0.2330    -0.3050 C.ar  1 <1>   0.4770 
 24 C       -7.1940     1.4240     0.2560 C.ar  1 <1>   0.1600 
 25 N       -8.4520     1.4270    -0.1350 N.ar  1 <1>  -0.6200 
 26 C      -10.4440     0.2310    -0.7580 C.3   1 <1>  -0.0970 
 27 H        0.0650     0.6900    -1.5120 H     1 <1>   0.0800 
 28 H        0.9520     0.2220    -0.0780 H     1 <1>   0.0800 
 29 H       -0.5700     1.0860     0.0650 H     1 <1>   0.0800 
 30 H       -1.4840    -2.3920     0.9390 H     1 <1>   0.0800 
 31 H       -2.1110    -0.7710     1.1530 H     1 <1>   0.0800 
 32 H       -0.4680    -1.1540     1.6300 H     1 <1>   0.0800 
 33 H       -0.2680    -4.0810    -2.6430 H     1 <1>   0.1500 
 34 H       -1.6530    -6.1330    -2.7850 H     1 <1>   0.1500 
 35 H       -3.9450    -6.0180    -1.8350 H     1 <1>   0.1500 
 36 H       -6.7260    -2.9380    -1.4190 H     1 <1>   0.0800 
 37 H       -5.3160    -1.9300    -1.3870 H     1 <1>   0.0800 
 38 H       -4.9220    -5.8000     0.2800 H     1 <1>   0.0800 
 39 H       -6.4730    -5.4050    -0.4220 H     1 <1>   0.0800 
 40 H       -5.2350    -4.2260     2.0700 H     1 <1>   0.0800 
 41 H       -6.6370    -5.2450     1.9990 H     1 <1>   0.0800 
 42 H       -7.9100    -3.5150     0.8320 H     1 <1>   0.0800 
 43 H       -7.2810    -2.8550     2.3080 H     1 <1>   0.0800 
 44 H       -4.1920    -1.9750     1.0960 H     1 <1>   0.0800 
 45 H       -5.3180    -1.5470     2.3540 H     1 <1>   0.0800 
 46 H       -4.4280     0.1590     0.0760 H     1 <1>   0.0800 
 47 H       -4.8130     0.6270     1.7340 H     1 <1>   0.0800 
 48 H       -6.7030     2.3700     0.4060 H     1 <1>   0.1500 
 49 H      -10.9280    -0.6770    -0.4520 H     1 <1>   0.0800 
 50 H      -10.4780     0.3070    -1.8280 H     1 <1>   0.0800 
 51 H      -10.9650     1.0660    -0.3270 H     1 <1>   0.0800 
@<TRIPOS>BOND
  1   1   2  2   
  2   2   3  am  
  3   2   4  1   
  4   3   5  1   
  5   3   6  1   
  6   4   7  ar  
  7   4   8  ar  
  8   5  27  1   
  9   5  28  1   
 10   5  29  1   
 11   6  30  1   
 12   6  31  1   
 13   6  32  1   
 14   7   9  ar  
 15   8  10  ar  
 16   8  33  1   
 17   9  11  1   
 18   9  12  ar  
 19  10  12  ar  
 20  10  34  1   
 21  11  13  1   
 22  11  14  1   
 23  12  35  1   
 24  13  15  1   
 25  13  36  1   
 26  13  37  1   
 27  14  16  1   
 28  14  38  1   
 29  14  39  1   
 30  15  17  1   
 31  15  18  1   
 32  15  19  1   
 33  16  18  1   
 34  16  40  1   
 35  16  41  1   
 36  17  20  ar  
 37  17  21  ar  
 38  18  42  1   
 39  18  43  1   
 40  19  22  1   
 41  19  44  1   
 42  19  45  1   
 43  20  23  ar  
 44  21  22  1   
 45  21  24  ar  
 46  22  46  1   
 47  22  47  1   
 48  23  25  ar  
 49  23  26  1   
 50  24  25  ar  
 51  24  48  1   
 52  26  49  1   
 53  26  50  1   
 54  26  51  1   
@<TRIPOS>SUBSTRUCTURE
  1 ****  13 GROUP 4 **** **** 0

# MOE 2024.06 (io_trps.svl 2023.06)
