@<TRIPOS>MOLECULE
NONAME
51 54 1 0 0 
SMALL
USER_CHARGES


@<TRIPOS>ATOM
  1 O        0.3050    -0.6230    -0.1550 O.3   1 <1>  -0.5600 
  2 C        1.1880    -1.5120    -0.7810 C.3   1 <1>   0.1200 
  3 C       -0.3980    -1.1940     0.9140 C.3   1 <1>   0.1200 
  4 C        0.4380    -2.7270    -1.3570 C.3   1 <1>   0.2090 
  5 C       -1.2490    -2.3870     0.4450 C.3   1 <1>   0.2090 
  6 N       -0.4080    -3.3760    -0.3050 N.pl3 1 <1>  -0.8380 
  7 C       -0.3760    -4.7220    -0.0220 C.ar  1 <1>   0.7200 
  8 N       -1.1480    -5.1610     0.9720 N.ar  1 <1>  -0.6200 
  9 N        0.4190    -5.4890    -0.7680 N.ar  1 <1>  -0.6200 
 10 C       -1.1190    -6.4420     1.2240 C.ar  1 <1>   0.1600 
 11 C        0.4320    -6.7670    -0.4990 C.ar  1 <1>   0.1600 
 12 C       -0.3460    -7.3140     0.4940 C.ar  1 <1>  -0.1430 
 13 C       -0.3600    -8.7990     0.7690 C.3   1 <1>   0.4860 
 14 N       -1.1720    -9.4870    -0.2780 N.4   1 <1>  -0.9590 
 15 C       -2.5870    -8.9940    -0.3710 C.3   1 <1>   0.3430 
 16 C       -1.2200   -10.9750    -0.0980 C.3   1 <1>   0.3430 
 17 C       -3.4230   -10.2220    -0.7240 C.3   1 <1>   0.2000 
 18 C       -2.6960   -11.3870    -0.0650 C.3   1 <1>  -0.0800 
 19 O       -4.7200   -10.1250    -0.2480 O.3   1 <1>  -0.6800 
 20 C       -2.9810   -12.7350    -0.7590 C.3   1 <1>  -0.0170 
 21 C       -2.3030   -13.9060    -0.0600 C.ar  1 <1>   0.1670 
 22 N       -0.9800   -13.8740     0.0010 N.ar  1 <1>  -0.6200 
 23 C       -3.0730   -14.9430     0.4670 C.ar  1 <1>   0.1600 
 24 C       -0.4850   -14.9470     0.6040 C.ar  1 <1>   0.1600 
 25 N       -2.5790   -16.0020     1.0830 N.ar  1 <1>  -0.6200 
 26 C       -1.2590   -15.9740     1.1290 C.ar  1 <1>   0.1600 
 27 H        1.6870    -0.9780    -1.5700 H     1 <1>   0.0800 
 28 H        1.9210    -1.8340    -0.0630 H     1 <1>   0.0800 
 29 H        0.3080    -1.5100     1.6620 H     1 <1>   0.0800 
 30 H       -1.0300    -0.4330     1.3350 H     1 <1>   0.0800 
 31 H        1.1580    -3.4120    -1.7650 H     1 <1>   0.0800 
 32 H       -0.1940    -2.3990    -2.1630 H     1 <1>   0.0800 
 33 H       -2.0300    -2.0290    -0.2020 H     1 <1>   0.0800 
 34 H       -1.7160    -2.8340     1.3040 H     1 <1>   0.0800 
 35 H       -1.7370    -6.7920     2.0340 H     1 <1>   0.1500 
 36 H        1.0830    -7.3830    -1.0970 H     1 <1>   0.1500 
 37 H       -0.7810    -8.9850     1.7440 H     1 <1>   0.0800 
 38 H        0.6500    -9.1760     0.7600 H     1 <1>   0.0800 
 39 H       -0.7280    -9.3000    -1.1880 H     1 <1>   0.4500 
 40 H       -2.9080    -8.6140     0.5850 H     1 <1>   0.0800 
 41 H       -2.6880    -8.2230    -1.1180 H     1 <1>   0.0800 
 42 H       -0.7300   -11.4600    -0.9290 H     1 <1>   0.0800 
 43 H       -0.7290   -11.2870     0.8100 H     1 <1>   0.0800 
 44 H       -3.4680   -10.3340    -1.7950 H     1 <1>   0.0800 
 45 H       -2.9850   -11.4570     0.9690 H     1 <1>   0.0800 
 46 H       -4.7850   -10.2160     0.7250 H     1 <1>   0.4000 
 47 H       -2.6410   -12.7060    -1.7800 H     1 <1>   0.0800 
 48 H       -4.0450   -12.8980    -0.7830 H     1 <1>   0.0800 
 49 H       -4.1450   -14.9010     0.3770 H     1 <1>   0.1500 
 50 H        0.5850   -15.0210     0.6890 H     1 <1>   0.1500 
 51 H       -0.7670   -16.8050     1.6040 H     1 <1>   0.1500 
@<TRIPOS>BOND
  1   1   2  1   
  2   1   3  1   
  3   2   4  1   
  4   2  27  1   
  5   2  28  1   
  6   3   5  1   
  7   3  29  1   
  8   3  30  1   
  9   4   6  1   
 10   4  31  1   
 11   4  32  1   
 12   5   6  1   
 13   5  33  1   
 14   5  34  1   
 15   6   7  1   
 16   7   8  ar  
 17   7   9  ar  
 18   8  10  ar  
 19   9  11  ar  
 20  10  12  ar  
 21  10  35  1   
 22  11  12  ar  
 23  11  36  1   
 24  12  13  1   
 25  13  14  1   
 26  13  37  1   
 27  13  38  1   
 28  14  15  1   
 29  14  16  1   
 30  14  39  1   
 31  15  17  1   
 32  15  40  1   
 33  15  41  1   
 34  16  18  1   
 35  16  42  1   
 36  16  43  1   
 37  17  18  1   
 38  17  19  1   
 39  17  44  1   
 40  18  20  1   
 41  18  45  1   
 42  19  46  1   
 43  20  21  1   
 44  20  47  1   
 45  20  48  1   
 46  21  22  ar  
 47  21  23  ar  
 48  22  24  ar  
 49  23  25  ar  
 50  23  49  1   
 51  24  26  ar  
 52  24  50  1   
 53  25  26  ar  
 54  26  51  1   
@<TRIPOS>SUBSTRUCTURE
  1 ****  14 GROUP 4 **** **** 0

# MOE 2024.06 (io_trps.svl 2023.06)
