@<TRIPOS>MOLECULE
NONAME
50 51 1 0 0 
SMALL
USER_CHARGES


@<TRIPOS>ATOM
  1 F        1.6340    -0.4330     2.2840 F     1 <1>  -0.1900 
  2 C        2.0610    -1.2070     1.3230 C.ar  1 <1>   0.1900 
  3 C        1.8040    -2.5630     1.3980 C.ar  1 <1>  -0.1500 
  4 C        2.7510    -0.6410     0.2690 C.ar  1 <1>  -0.1500 
  5 C        2.2520    -3.3870     0.3760 C.ar  1 <1>  -0.1440 
  6 C        3.1990    -1.4690    -0.7460 C.ar  1 <1>  -0.1500 
  7 C        2.9500    -2.8320    -0.6890 C.ar  1 <1>  -0.1500 
  8 C        1.9800    -4.8820     0.4200 C.3   1 <1>  -0.0160 
  9 C        0.6820    -5.2030    -0.3380 C.3   1 <1>  -0.0990 
 10 C        0.3370    -6.6880    -0.3740 C.2   1 <1>   0.5690 
 11 O        0.9550    -7.4310     0.3460 O.2   1 <1>  -0.5700 
 12 N       -0.6460    -7.1630    -1.2050 N.am  1 <1>  -0.6600 
 13 C       -0.5960    -8.6150    -1.5960 C.3   1 <1>   0.3210 
 14 C       -1.6020    -6.2970    -1.9790 C.3   1 <1>   0.1400 
 15 C       -1.4740    -9.5090    -0.7190 C.2   1 <1>   0.0460 
 16 C       -3.0940    -6.5700    -1.6810 C.3   1 <1>   0.3430 
 17 N       -2.8050    -9.6170    -0.9290 N.2   1 <1>  -0.5650 
 18 C       -1.0880   -10.3140     0.3010 C.2   1 <1>  -0.3320 
 19 N       -3.3860    -6.8920    -0.2470 N.4   1 <1>  -0.9590 
 20 C       -3.1890   -10.4930    -0.0560 C.2   1 <1>   0.0360 
 21 N       -2.1930   -10.9490     0.7280 N.pl3 1 <1>   0.0330 
 22 C        0.2780   -10.5650     0.9200 C.3   1 <1>  -0.0600 
 23 C       -4.8210    -7.2510    -0.0660 C.3   1 <1>   0.2630 
 24 C       -2.9410    -5.8720     0.7440 C.3   1 <1>   0.2630 
 25 H        1.2670    -2.9540     2.2420 H     1 <1>   0.1500 
 26 H        2.9320     0.4190     0.2480 H     1 <1>   0.1500 
 27 H        3.7430    -1.0540    -1.5780 H     1 <1>   0.1500 
 28 H        3.3070    -3.4630    -1.4850 H     1 <1>   0.1500 
 29 H        1.8990    -5.2080     1.4430 H     1 <1>   0.0800 
 30 H        2.8030    -5.4140    -0.0250 H     1 <1>   0.0800 
 31 H        0.7930    -4.8530    -1.3480 H     1 <1>   0.0800 
 32 H       -0.1240    -4.6650     0.1230 H     1 <1>   0.0800 
 33 H        0.4200    -8.9640    -1.5330 H     1 <1>   0.0800 
 34 H       -0.9000    -8.7300    -2.6210 H     1 <1>   0.0800 
 35 H       -1.4290    -6.4360    -3.0320 H     1 <1>   0.0800 
 36 H       -1.4190    -5.2590    -1.7720 H     1 <1>   0.0800 
 37 H       -3.4000    -7.4100    -2.2850 H     1 <1>   0.0800 
 38 H       -3.6770    -5.7200    -1.9930 H     1 <1>   0.0800 
 39 H       -2.8400    -7.7720    -0.0890 H     1 <1>   0.4500 
 40 H       -4.1990   -10.8500     0.0510 H     1 <1>   0.1500 
 41 H       -2.2570   -11.6510     1.4730 H     1 <1>   0.2700 
 42 H        1.0500   -10.0480     0.3800 H     1 <1>   0.0800 
 43 H        0.5070   -11.6160     0.9070 H     1 <1>   0.0800 
 44 H        0.2930   -10.2180     1.9380 H     1 <1>   0.0800 
 45 H       -5.4520    -6.4030    -0.2740 H     1 <1>   0.0800 
 46 H       -4.9960    -7.5780     0.9460 H     1 <1>   0.0800 
 47 H       -5.0840    -8.0570    -0.7330 H     1 <1>   0.0800 
 48 H       -3.4300    -4.9290     0.5610 H     1 <1>   0.0800 
 49 H       -1.8760    -5.7330     0.6810 H     1 <1>   0.0800 
 50 H       -3.1780    -6.1990     1.7430 H     1 <1>   0.0800 
@<TRIPOS>BOND
  1   1   2  1   
  2   2   3  ar  
  3   2   4  ar  
  4   3   5  ar  
  5   3  25  1   
  6   4   6  ar  
  7   4  26  1   
  8   5   7  ar  
  9   5   8  1   
 10   6   7  ar  
 11   6  27  1   
 12   7  28  1   
 13   8   9  1   
 14   8  29  1   
 15   8  30  1   
 16   9  10  1   
 17   9  31  1   
 18   9  32  1   
 19  10  11  2   
 20  10  12  am  
 21  12  13  1   
 22  12  14  1   
 23  13  15  1   
 24  13  33  1   
 25  13  34  1   
 26  14  16  1   
 27  14  35  1   
 28  14  36  1   
 29  15  17  1   
 30  15  18  2   
 31  16  19  1   
 32  16  37  1   
 33  16  38  1   
 34  17  20  2   
 35  18  21  1   
 36  18  22  1   
 37  19  23  1   
 38  19  24  1   
 39  19  39  1   
 40  20  21  1   
 41  20  40  1   
 42  21  41  1   
 43  22  42  1   
 44  22  43  1   
 45  22  44  1   
 46  23  45  1   
 47  23  46  1   
 48  23  47  1   
 49  24  48  1   
 50  24  49  1   
 51  24  50  1   
@<TRIPOS>SUBSTRUCTURE
  1 ****  10 GROUP 4 **** **** 0

# MOE 2024.06 (io_trps.svl 2023.06)
