@<TRIPOS>MOLECULE
NONAME
52 54 1 0 0 
SMALL
USER_CHARGES


@<TRIPOS>ATOM
  1 O        0.4040     0.9270     1.9760 O.2   1 <1>  -0.5700 
  2 C        0.4860     0.1430     1.0560 C.2   1 <1>   0.5690 
  3 N        1.2020     0.4660    -0.0590 N.am  1 <1>  -0.7300 
  4 C       -0.2210    -1.2380     1.1430 C.3   1 <1>   0.3410 
  5 C        1.8570     1.7710    -0.3130 C.3   1 <1>   0.1400 
  6 O        0.0890    -1.9650    -0.0550 O.3   1 <1>  -0.3630 
  7 C       -1.7440    -1.0460     1.2390 C.3   1 <1>  -0.2400 
  8 C        0.2970    -2.0250     2.3600 C.3   1 <1>  -0.2400 
  9 C        3.0930     1.9250     0.5750 C.3   1 <1>   0.0960 
 10 C       -0.3890    -3.2100    -0.2830 C.ar  1 <1>   0.0830 
 11 N        3.8100     3.1630     0.2140 N.pl3 1 <1>   0.0480 
 12 C        0.3450    -4.3170     0.1220 C.ar  1 <1>  -0.1500 
 13 C       -1.5880    -3.3750    -0.9670 C.ar  1 <1>  -0.1500 
 14 C        4.8310     3.3380    -0.6630 C.2   1 <1>   0.0070 
 15 C        3.5450     4.3920     0.6890 C.2   1 <1>  -0.3020 
 16 C       -0.1530    -5.5800    -0.1360 C.ar  1 <1>  -0.1430 
 17 C       -2.0780    -4.6470    -1.2200 C.ar  1 <1>  -0.1500 
 18 N        5.2120     4.5730    -0.7640 N.2   1 <1>  -0.5650 
 19 C        5.4530     2.1800    -1.4400 C.3   1 <1>   0.0200 
 20 C        4.4070     5.2360     0.0840 C.2   1 <1>   0.0770 
 21 C       -1.3480    -5.7420    -0.7940 C.ar  1 <1>  -0.1430 
 22 C        0.4620    -6.9100     0.2190 C.3   1 <1>  -0.0170 
 23 C        6.4830     2.6280    -2.4850 C.3   1 <1>  -0.2400 
 24 C       -1.6870    -7.2020    -0.9610 C.3   1 <1>  -0.0170 
 25 C       -0.3790    -7.9190    -0.5830 C.3   1 <1>  -0.1600 
 26 H        1.2230    -0.2300    -0.8140 H     1 <1>   0.3700 
 27 H        1.1590     2.5630    -0.0950 H     1 <1>   0.0800 
 28 H        2.1360     1.8300    -1.3510 H     1 <1>   0.0800 
 29 H       -2.1110    -0.5460     0.3620 H     1 <1>   0.0800 
 30 H       -1.9780    -0.4360     2.0940 H     1 <1>   0.0800 
 31 H       -2.2470    -1.9880     1.3590 H     1 <1>   0.0800 
 32 H        1.3520    -2.2070     2.2620 H     1 <1>   0.0800 
 33 H       -0.2260    -2.9580     2.4690 H     1 <1>   0.0800 
 34 H        0.1380    -1.4510     3.2560 H     1 <1>   0.0800 
 35 H        3.7500     1.0860     0.4480 H     1 <1>   0.0800 
 36 H        2.7970     1.9860     1.6070 H     1 <1>   0.0800 
 37 H        1.2850    -4.1910     0.6250 H     1 <1>   0.1500 
 38 H       -2.1340    -2.5120    -1.3000 H     1 <1>   0.1500 
 39 H        2.7780     4.5980     1.4130 H     1 <1>   0.1500 
 40 H       -3.0080    -4.7820    -1.7430 H     1 <1>   0.1500 
 41 H        4.6730     1.6360    -1.9400 H     1 <1>   0.0800 
 42 H        5.9330     1.5170    -0.7420 H     1 <1>   0.0800 
 43 H        4.4930     6.3010     0.2160 H     1 <1>   0.1500 
 44 H        0.3570    -7.0830     1.2760 H     1 <1>   0.0800 
 45 H        1.5010    -6.9520    -0.0590 H     1 <1>   0.0800 
 46 H        6.0220     3.2910    -3.1950 H     1 <1>   0.0800 
 47 H        6.8820     1.7780    -3.0070 H     1 <1>   0.0800 
 48 H        7.2900     3.1520    -2.0040 H     1 <1>   0.0800 
 49 H       -1.9830    -7.4270    -1.9710 H     1 <1>   0.0800 
 50 H       -2.4760    -7.4660    -0.2800 H     1 <1>   0.0800 
 51 H       -0.5630    -8.8200    -0.0250 H     1 <1>   0.0800 
 52 H        0.1510    -8.1680    -1.4860 H     1 <1>   0.0800 
@<TRIPOS>BOND
  1   1   2  2   
  2   2   3  am  
  3   2   4  1   
  4   3   5  1   
  5   3  26  1   
  6   4   6  1   
  7   4   7  1   
  8   4   8  1   
  9   5   9  1   
 10   5  27  1   
 11   5  28  1   
 12   6  10  1   
 13   7  29  1   
 14   7  30  1   
 15   7  31  1   
 16   8  32  1   
 17   8  33  1   
 18   8  34  1   
 19   9  11  1   
 20   9  35  1   
 21   9  36  1   
 22  10  12  ar  
 23  10  13  ar  
 24  11  14  1   
 25  11  15  1   
 26  12  16  ar  
 27  12  37  1   
 28  13  17  ar  
 29  13  38  1   
 30  14  18  2   
 31  14  19  1   
 32  15  20  2   
 33  15  39  1   
 34  16  21  ar  
 35  16  22  1   
 36  17  21  ar  
 37  17  40  1   
 38  18  20  1   
 39  19  23  1   
 40  19  41  1   
 41  19  42  1   
 42  20  43  1   
 43  21  24  1   
 44  22  25  1   
 45  22  44  1   
 46  22  45  1   
 47  23  46  1   
 48  23  47  1   
 49  23  48  1   
 50  24  25  1   
 51  24  49  1   
 52  24  50  1   
 53  25  51  1   
 54  25  52  1   
@<TRIPOS>SUBSTRUCTURE
  1 ****   3 GROUP 4 **** **** 0

# MOE 2024.06 (io_trps.svl 2023.06)
