@<TRIPOS>MOLECULE
NONAME
44 46 1 0 0 
SMALL
USER_CHARGES


@<TRIPOS>ATOM
  1 O        4.8960    -1.0920    -1.2090 O.2   1 <1>  -0.5700 
  2 C        3.8420    -1.6920    -1.3050 C.2   1 <1>   0.7800 
  3 O        3.3100    -2.0660    -2.4680 O.3   1 <1>  -0.2320 
  4 N        3.0240    -2.0110    -0.2650 N.am  1 <1>  -0.4770 
  5 C        2.1090    -2.6110    -2.1830 C.ar  1 <1>   0.0830 
  6 C        1.8990    -2.5820    -0.8210 C.ar  1 <1>   0.1170 
  7 C        3.2860    -1.7030     1.1660 C.3   1 <1>   0.2010 
  8 C        1.1740    -3.1300    -3.0590 C.ar  1 <1>  -0.1500 
  9 C        0.7180    -3.0730    -0.2850 C.ar  1 <1>  -0.1500 
 10 C        3.0540    -0.2350     1.5110 C.2   1 <1>   0.5690 
 11 C       -0.0060    -3.6260    -2.5260 C.ar  1 <1>  -0.1500 
 12 C       -0.2320    -3.5960    -1.1500 C.ar  1 <1>  -0.1500 
 13 O        2.2580     0.0130     2.3860 O.2   1 <1>  -0.5700 
 14 N        3.7590     0.7240     0.8280 N.am  1 <1>  -0.4940 
 15 C        3.7340     2.1350     0.9860 C.2   1 <1>  -0.0880 
 16 N        4.3420     3.0460     0.1690 N.pl3 1 <1>   0.3140 
 17 C        3.1200     2.8540     1.9540 C.2   1 <1>  -0.1500 
 18 N        4.1270     4.3130     0.6040 N.2   1 <1>  -0.7070 
 19 C        5.1390     2.8220    -1.0710 C.3   1 <1>   0.1760 
 20 C        3.3990     4.1820     1.6640 C.2   1 <1>   0.1080 
 21 C        4.2570     2.1970    -2.1740 C.3   1 <1>  -0.1600 
 22 C        6.4230     2.0330    -0.7620 C.3   1 <1>  -0.2400 
 23 C        2.9240     5.3670     2.4700 C.3   1 <1>  -0.0590 
 24 C        4.9820     2.0100    -3.5140 C.3   1 <1>  -0.2400 
 25 H        4.3060    -1.9510     1.3980 H     1 <1>   0.0800 
 26 H        2.6480    -2.3100     1.7820 H     1 <1>   0.0800 
 27 H        1.3640    -3.1420    -4.1180 H     1 <1>   0.1500 
 28 H        0.5430    -3.0430     0.7750 H     1 <1>   0.1500 
 29 H       -0.7570    -4.0370    -3.1790 H     1 <1>   0.1500 
 30 H       -1.1570    -3.9830    -0.7570 H     1 <1>   0.1500 
 31 H        4.3740     0.3640     0.0860 H     1 <1>   0.3700 
 32 H        2.5350     2.4950     2.7800 H     1 <1>   0.1500 
 33 H        5.4400     3.7960    -1.4150 H     1 <1>   0.0800 
 34 H        3.4140     2.8490    -2.3350 H     1 <1>   0.0800 
 35 H        3.8760     1.2460    -1.8540 H     1 <1>   0.0800 
 36 H        6.2070     1.0180    -0.4920 H     1 <1>   0.0800 
 37 H        6.9530     2.5060     0.0460 H     1 <1>   0.0800 
 38 H        7.0700     2.0230    -1.6190 H     1 <1>   0.0800 
 39 H        2.3330     5.0410     3.3060 H     1 <1>   0.0800 
 40 H        2.3310     6.0090     1.8460 H     1 <1>   0.0800 
 41 H        3.7730     5.9170     2.8310 H     1 <1>   0.0800 
 42 H        5.4150     2.9370    -3.8440 H     1 <1>   0.0800 
 43 H        4.2840     1.6750    -4.2610 H     1 <1>   0.0800 
 44 H        5.7570     1.2690    -3.4290 H     1 <1>   0.0800 
@<TRIPOS>BOND
  1   1   2  2   
  2   2   3  1   
  3   2   4  am  
  4   3   5  1   
  5   4   6  1   
  6   4   7  1   
  7   5   6  ar  
  8   5   8  ar  
  9   6   9  ar  
 10   7  10  1   
 11   7  25  1   
 12   7  26  1   
 13   8  11  ar  
 14   8  27  1   
 15   9  12  ar  
 16   9  28  1   
 17  10  13  2   
 18  10  14  am  
 19  11  12  ar  
 20  11  29  1   
 21  12  30  1   
 22  14  15  1   
 23  14  31  1   
 24  15  16  1   
 25  15  17  2   
 26  16  18  1   
 27  16  19  1   
 28  17  20  1   
 29  17  32  1   
 30  18  20  2   
 31  19  21  1   
 32  19  22  1   
 33  19  33  1   
 34  20  23  1   
 35  21  24  1   
 36  21  34  1   
 37  21  35  1   
 38  22  36  1   
 39  22  37  1   
 40  22  38  1   
 41  23  39  1   
 42  23  40  1   
 43  23  41  1   
 44  24  42  1   
 45  24  43  1   
 46  24  44  1   
@<TRIPOS>SUBSTRUCTURE
  1 ****  14 GROUP 4 **** **** 0

# MOE 2024.06 (io_trps.svl 2023.06)
