@<TRIPOS>MOLECULE
NONAME
40 41 1 0 0 
SMALL
USER_CHARGES


@<TRIPOS>ATOM
  1 O        0.0100     0.0420    -1.6360 O.2   1 <1>  -0.5700 
  2 C        0.9230    -0.6080    -1.1810 C.2   1 <1>   0.5690 
  3 N        1.9680    -0.0420    -0.5030 N.am  1 <1>  -0.4940 
  4 C        0.9410    -2.1440    -1.3760 C.3   1 <1>   0.2050 
  5 C        2.2190     1.2840    -0.1470 C.2   1 <1>   0.2040 
  6 C        1.8760    -2.7930    -0.3220 C.ar  1 <1>  -0.1440 
  7 C       -0.4710    -2.7490    -1.2160 C.3   1 <1>  -0.2400 
  8 C        1.3910    -2.4340    -2.8240 C.3   1 <1>  -0.2400 
  9 O        1.4540     2.2810    -0.5230 O.3   1 <1>  -0.0190 
 10 C        3.2120     1.7910     0.6090 C.2   1 <1>  -0.1810 
 11 C        3.0400    -3.4840    -0.6530 C.ar  1 <1>  -0.1500 
 12 C        1.5630    -2.6600     1.0280 C.ar  1 <1>  -0.1500 
 13 N        1.8840     3.4260    -0.0530 N.2   1 <1>  -0.4100 
 14 C        2.9370     3.1570     0.6310 C.2   1 <1>   0.1080 
 15 C        4.3590     1.0590     1.2860 C.3   1 <1>   0.0210 
 16 C        3.8580    -4.0140     0.3300 C.ar  1 <1>  -0.1500 
 17 C        2.3790    -3.1890     2.0120 C.ar  1 <1>  -0.1500 
 18 C        3.7490     4.2110     1.3530 C.3   1 <1>  -0.0590 
 19 C        3.9560     0.6210     2.6950 C.3   1 <1>  -0.2400 
 20 C        3.5310    -3.8670     1.6640 C.ar  1 <1>  -0.1500 
 21 H        2.6270    -0.7230    -0.1230 H     1 <1>   0.3700 
 22 H       -0.9000    -2.4800    -0.2700 H     1 <1>   0.0800 
 23 H       -0.4280    -3.8220    -1.2830 H     1 <1>   0.0800 
 24 H       -1.1260    -2.3820    -1.9860 H     1 <1>   0.0800 
 25 H        2.3660    -2.0190    -3.0080 H     1 <1>   0.0800 
 26 H        0.7070    -1.9810    -3.5200 H     1 <1>   0.0800 
 27 H        1.4130    -3.4930    -3.0140 H     1 <1>   0.0800 
 28 H        3.3410    -3.6290    -1.6740 H     1 <1>   0.1500 
 29 H        0.6750    -2.1330     1.3340 H     1 <1>   0.1500 
 30 H        5.2230     1.6980     1.3330 H     1 <1>   0.0800 
 31 H        4.6240     0.1930     0.7060 H     1 <1>   0.0800 
 32 H        4.7530    -4.5460     0.0540 H     1 <1>   0.1500 
 33 H        2.1160    -3.0740     3.0500 H     1 <1>   0.1500 
 34 H        3.8400     3.9550     2.3920 H     1 <1>   0.0800 
 35 H        3.2630     5.1660     1.2720 H     1 <1>   0.0800 
 36 H        4.7270     4.2810     0.9150 H     1 <1>   0.0800 
 37 H        3.6960     1.4760     3.2930 H     1 <1>   0.0800 
 38 H        4.7690     0.1010     3.1680 H     1 <1>   0.0800 
 39 H        3.1050    -0.0370     2.6490 H     1 <1>   0.0800 
 40 H        4.1670    -4.2810     2.4270 H     1 <1>   0.1500 
@<TRIPOS>BOND
  1   1   2  2   
  2   2   3  am  
  3   2   4  1   
  4   3   5  1   
  5   3  21  1   
  6   4   6  1   
  7   4   7  1   
  8   4   8  1   
  9   5   9  1   
 10   5  10  2   
 11   6  11  ar  
 12   6  12  ar  
 13   7  22  1   
 14   7  23  1   
 15   7  24  1   
 16   8  25  1   
 17   8  26  1   
 18   8  27  1   
 19   9  13  1   
 20  10  14  1   
 21  10  15  1   
 22  11  16  ar  
 23  11  28  1   
 24  12  17  ar  
 25  12  29  1   
 26  13  14  2   
 27  14  18  1   
 28  15  19  1   
 29  15  30  1   
 30  15  31  1   
 31  16  20  ar  
 32  16  32  1   
 33  17  20  ar  
 34  17  33  1   
 35  18  34  1   
 36  18  35  1   
 37  18  36  1   
 38  19  37  1   
 39  19  38  1   
 40  19  39  1   
 41  20  40  1   
@<TRIPOS>SUBSTRUCTURE
  1 ****   3 GROUP 4 **** **** 0

# MOE 2024.06 (io_trps.svl 2023.06)
