@<TRIPOS>MOLECULE
NONAME
39 41 1 0 0 
SMALL
USER_CHARGES


@<TRIPOS>ATOM
  1 S        0.4150    -0.2320    -0.1300 S.3   1 <1>  -0.0800 
  2 C       -1.3010     0.0040    -0.0230 C.2   1 <1>  -0.1400 
  3 C        0.5990     1.4980    -0.3710 C.2   1 <1>   0.1980 
  4 C       -1.5750     1.3040    -0.1610 C.2   1 <1>   0.0460 
  5 C       -2.2690    -1.1360     0.1960 C.3   1 <1>   0.0200 
  6 N       -0.5010     2.1520    -0.3640 N.2   1 <1>  -0.5650 
  7 C        2.0240     2.0050    -0.5550 C.3   1 <1>   0.3890 
  8 C       -2.9900     1.8430    -0.1040 C.3   1 <1>   0.0210 
  9 C       -3.6980    -0.6320    -0.0920 C.3   1 <1>  -0.1600 
 10 N        2.0450     3.4730    -0.7240 N.pl3 1 <1>  -0.8690 
 11 C       -3.9520     0.7820     0.4780 C.3   1 <1>  -0.1600 
 12 C        3.0540     4.2760    -0.3660 C.ar  1 <1>   0.7200 
 13 N        2.7410     5.5550    -0.2290 N.ar  1 <1>  -0.6200 
 14 N        4.2490     3.7300    -0.1750 N.ar  1 <1>  -0.6200 
 15 C        3.7090     6.3680     0.1100 C.ar  1 <1>   0.1670 
 16 C        5.2030     4.5640     0.1520 C.ar  1 <1>   0.1600 
 17 C        5.0210     5.9320     0.2910 C.ar  1 <1>   0.0860 
 18 C        3.2840     7.8120     0.3170 C.3   1 <1>  -0.0970 
 19 C        6.1580     6.7540     0.5970 C.2   1 <1>   0.4230 
 20 O        6.9900     6.4280     1.4020 O.2   1 <1>  -0.5700 
 21 C        6.4030     8.0550    -0.1410 C.3   1 <1>  -0.1790 
 22 H       -2.1900    -1.4680     1.2170 H     1 <1>   0.0800 
 23 H       -2.0300    -1.9580    -0.4540 H     1 <1>   0.0800 
 24 H        2.4560     1.5460    -1.4270 H     1 <1>   0.0800 
 25 H        2.6090     1.7290     0.3050 H     1 <1>   0.0800 
 26 H       -3.2900     2.1120    -1.1000 H     1 <1>   0.0800 
 27 H       -3.0110     2.7280     0.5070 H     1 <1>   0.0800 
 28 H       -4.4110    -1.3270     0.3170 H     1 <1>   0.0800 
 29 H       -3.8440    -0.6030    -1.1580 H     1 <1>   0.0800 
 30 H        1.1100     3.8880    -0.7060 H     1 <1>   0.4000 
 31 H       -4.9680     1.0790     0.2810 H     1 <1>   0.0800 
 32 H       -3.8220     0.7500     1.5460 H     1 <1>   0.0800 
 33 H        6.1870     4.1590     0.3180 H     1 <1>   0.1500 
 34 H        2.2410     7.8530     0.5790 H     1 <1>   0.0800 
 35 H        3.4250     8.3720    -0.5890 H     1 <1>   0.0800 
 36 H        3.8390     8.2670     1.1170 H     1 <1>   0.0800 
 37 H        5.8510     8.0850    -1.0620 H     1 <1>   0.0800 
 38 H        7.4500     8.1410    -0.3700 H     1 <1>   0.0800 
 39 H        6.1220     8.8860     0.4790 H     1 <1>   0.0800 
@<TRIPOS>BOND
  1   1   2  1   
  2   1   3  1   
  3   2   4  2   
  4   2   5  1   
  5   3   6  2   
  6   3   7  1   
  7   4   6  1   
  8   4   8  1   
  9   5   9  1   
 10   5  22  1   
 11   5  23  1   
 12   7  10  1   
 13   7  24  1   
 14   7  25  1   
 15   8  11  1   
 16   8  26  1   
 17   8  27  1   
 18   9  11  1   
 19   9  28  1   
 20   9  29  1   
 21  10  12  1   
 22  10  30  1   
 23  11  31  1   
 24  11  32  1   
 25  12  13  ar  
 26  12  14  ar  
 27  13  15  ar  
 28  14  16  ar  
 29  15  17  ar  
 30  15  18  1   
 31  16  17  ar  
 32  16  33  1   
 33  17  19  1   
 34  18  34  1   
 35  18  35  1   
 36  18  36  1   
 37  19  20  2   
 38  19  21  1   
 39  21  37  1   
 40  21  38  1   
 41  21  39  1   
@<TRIPOS>SUBSTRUCTURE
  1 ****  10 GROUP 4 **** **** 0

# MOE 2024.06 (io_trps.svl 2023.06)
