@<TRIPOS>MOLECULE
NONAME
18 17 1 0 0 
SMALL
USER_CHARGES


@<TRIPOS>ATOM
  1 O       -0.8020     0.3010    -0.5740 O.co2 1 <1>  -0.7840 
  2 C       -1.4950    -0.2940     0.2640 C.2   1 <1>   0.9230 
  3 O       -1.0200    -1.0770     1.0910 O.co2 1 <1>  -0.7840 
  4 C       -3.0070     0.0210     0.2680 C.3   1 <1>  -0.0370 
  5 N       -3.4110     0.8920    -0.8990 N.4   1 <1>  -0.8480 
  6 C       -3.8820    -1.2510     0.2930 C.3   1 <1>  -0.0530 
  7 C       -5.3900    -0.9870     0.4970 C.3   1 <1>  -0.1950 
  8 C       -6.0110    -0.2010    -0.6380 C.2   1 <1>   0.9040 
  9 O       -6.2620    -0.7700    -1.7000 O.co2 1 <1>  -0.8470 
 10 O       -6.0830     1.0320    -0.5290 O.co2 1 <1>  -0.8470 
 11 H       -3.1880     0.5640     1.1780 H     1 <1>   0.0860 
 12 H       -3.4750     0.3240    -1.7480 H     1 <1>   0.4350 
 13 H       -2.6960     1.6100    -1.0550 H     1 <1>   0.4350 
 14 H       -4.3660     1.2950    -0.7600 H     1 <1>   0.4350 
 15 H       -3.7310    -1.8100    -0.6150 H     1 <1>   0.0480 
 16 H       -3.5480    -1.8740     1.1050 H     1 <1>   0.0480 
 17 H       -5.5410    -0.4520     1.4170 H     1 <1>   0.0410 
 18 H       -5.9050    -1.9270     0.5750 H     1 <1>   0.0410 
@<TRIPOS>BOND
  1   1   2  ar  
  2   2   3  ar  
  3   2   4  1   
  4   4   5  1   
  5   4   6  1   
  6   4  11  1   
  7   5  12  1   
  8   5  13  1   
  9   5  14  1   
 10   6   7  1   
 11   6  15  1   
 12   6  16  1   
 13   7   8  1   
 14   7  17  1   
 15   7  18  1   
 16   8   9  ar  
 17   8  10  ar  
@<TRIPOS>SUBSTRUCTURE
  1 ****   4 GROUP 4 **** **** 0

# MOE 2024.06 (io_trps.svl 2023.06)
