@<TRIPOS>MOLECULE
NONAME
48 50 1 0 0 
SMALL
USER_CHARGES


@<TRIPOS>ATOM
  1 O       -1.7970    -0.9770     0.3380 O.3   1 <1>  -0.8290 
  2 C       -1.4790    -1.6060    -0.7030 C.ar  1 <1>   0.1390 
  3 N       -1.7190    -1.0220    -1.9010 N.ar  1 <1>  -0.3100 
  4 C       -0.9170    -2.8830    -0.5960 C.ar  1 <1>  -0.1440 
  5 N       -1.4150    -1.6490    -3.0160 N.ar  1 <1>  -0.3100 
  6 C       -0.5970    -3.5200    -1.7620 C.ar  1 <1>  -0.1500 
  7 C       -0.6920    -3.5450     0.7570 C.3   1 <1>   0.0450 
  8 C       -0.8700    -2.8520    -2.9410 C.ar  1 <1>   0.3920 
  9 C       -1.5320    -4.8070     0.8970 C.2   1 <1>   0.5690 
 10 O       -0.5680    -3.4610    -4.1050 O.3   1 <1>  -0.5320 
 11 O       -0.9590    -5.8670     0.7570 O.2   1 <1>  -0.5700 
 12 N       -2.8840    -4.7690     1.1490 N.am  1 <1>  -0.6600 
 13 C       -3.6760    -6.0280     1.1950 C.3   1 <1>   0.1400 
 14 C       -3.6930    -3.5140     1.2500 C.3   1 <1>   0.1400 
 15 C       -4.1310    -6.4460    -0.2090 C.3   1 <1>   0.1400 
 16 C       -4.4640    -3.1570    -0.0350 C.3   1 <1>  -0.1600 
 17 N       -5.0430    -5.4380    -0.8290 N.am  1 <1>  -0.6600 
 18 C       -4.3850    -4.1490    -1.1980 C.3   1 <1>   0.1400 
 19 C       -6.3490    -5.7130    -1.1770 C.2   1 <1>   0.7160 
 20 O       -6.9170    -5.0050    -1.9880 O.2   1 <1>  -0.5700 
 21 C       -7.0590    -6.8330    -0.6020 C.2   1 <1>  -0.0860 
 22 C       -7.7680    -7.8170    -1.2200 C.2   1 <1>  -0.0400 
 23 C       -7.1740    -7.1380     0.7700 C.2   1 <1>  -0.1500 
 24 O       -8.2610    -8.6630    -0.3480 O.3   1 <1>  -0.2800 
 25 C       -8.0480    -8.0530    -2.6890 C.3   1 <1>  -0.0600 
 26 C       -7.9120    -8.2620     0.8530 C.2   1 <1>  -0.0400 
 27 C       -8.3730    -9.0680     2.0470 C.3   1 <1>  -0.0600 
 28 H       -0.1620    -4.5000    -1.7570 H     1 <1>   0.1500 
 29 H       -0.9050    -2.8740     1.5660 H     1 <1>   0.0800 
 30 H        0.3450    -3.8070     0.8390 H     1 <1>   0.0800 
 31 H       -0.1530    -4.3180    -3.9330 H     1 <1>   0.4500 
 32 H       -4.5280    -5.9030     1.8360 H     1 <1>   0.0800 
 33 H       -3.0680    -6.8130     1.6120 H     1 <1>   0.0800 
 34 H       -3.0660    -2.6830     1.5160 H     1 <1>   0.0800 
 35 H       -4.3970    -3.6270     2.0540 H     1 <1>   0.0800 
 36 H       -4.6140    -7.4040    -0.1500 H     1 <1>   0.0800 
 37 H       -3.2620    -6.5680    -0.8320 H     1 <1>   0.0800 
 38 H       -4.0800    -2.2170    -0.3870 H     1 <1>   0.0800 
 39 H       -5.4950    -2.9790     0.2070 H     1 <1>   0.0800 
 40 H       -3.3560    -4.3160    -1.4660 H     1 <1>   0.0800 
 41 H       -4.8700    -3.7170    -2.0570 H     1 <1>   0.0800 
 42 H       -6.7490    -6.5540     1.5650 H     1 <1>   0.1500 
 43 H       -7.5810    -7.2950    -3.2900 H     1 <1>   0.0800 
 44 H       -9.1090    -8.0280    -2.8610 H     1 <1>   0.0800 
 45 H       -7.6690    -9.0150    -2.9810 H     1 <1>   0.0800 
 46 H       -8.0190    -8.6220     2.9580 H     1 <1>   0.0800 
 47 H       -7.9940   -10.0710     1.9750 H     1 <1>   0.0800 
 48 H       -9.4470    -9.1020     2.0660 H     1 <1>   0.0800 
@<TRIPOS>BOND
  1   1   2  1   
  2   2   3  ar  
  3   2   4  ar  
  4   3   5  ar  
  5   4   6  ar  
  6   4   7  1   
  7   5   8  ar  
  8   6   8  ar  
  9   6  28  1   
 10   7   9  1   
 11   7  29  1   
 12   7  30  1   
 13   8  10  1   
 14   9  11  2   
 15   9  12  am  
 16  10  31  1   
 17  12  13  1   
 18  12  14  1   
 19  13  15  1   
 20  13  32  1   
 21  13  33  1   
 22  14  16  1   
 23  14  34  1   
 24  14  35  1   
 25  15  17  1   
 26  15  36  1   
 27  15  37  1   
 28  16  18  1   
 29  16  38  1   
 30  16  39  1   
 31  17  18  1   
 32  17  19  am  
 33  18  40  1   
 34  18  41  1   
 35  19  20  2   
 36  19  21  1   
 37  21  22  2   
 38  21  23  1   
 39  22  24  1   
 40  22  25  1   
 41  23  26  2   
 42  23  42  1   
 43  24  26  1   
 44  25  43  1   
 45  25  44  1   
 46  25  45  1   
 47  26  27  1   
 48  27  46  1   
 49  27  47  1   
 50  27  48  1   
@<TRIPOS>SUBSTRUCTURE
  1 ****  18 GROUP 4 **** **** 0

# MOE 2024.06 (io_trps.svl 2023.06)
