@<TRIPOS>MOLECULE
NONAME
54 57 1 0 0 
SMALL
USER_CHARGES


@<TRIPOS>ATOM
  1 O       -0.5560     0.2800    -0.5530 O.2   1 <1>  -0.5700 
  2 C       -1.6290     0.8370    -0.5420 C.2   1 <1>   0.5690 
  3 N       -2.7930     0.1590    -0.7950 N.am  1 <1>  -0.6600 
  4 C       -1.6670     2.3280    -0.2340 C.3   1 <1>  -0.0990 
  5 C       -4.1750     0.7330    -0.7560 C.3   1 <1>   0.1400 
  6 C       -2.7920    -1.3070    -1.0950 C.3   1 <1>   0.1400 
  7 C       -0.2780     2.9520    -0.0500 C.3   1 <1>   0.0210 
  8 C       -5.0740    -0.0670     0.2080 C.3   1 <1>   0.1900 
  9 C       -3.7330    -2.0660    -0.1440 C.3   1 <1>   0.1100 
 10 C       -0.2710     4.4480     0.2550 C.2   1 <1>  -0.1810 
 11 N       -5.1020    -1.5010    -0.1690 N.3   1 <1>  -0.8100 
 12 C       -6.5010     0.5140     0.2210 C.3   1 <1>   0.1200 
 13 C       -1.2140     5.4000     0.4170 C.2   1 <1>  -0.0400 
 14 C        0.9180     5.1590     0.4410 C.2   1 <1>   0.1080 
 15 C       -6.0200    -2.2420     0.7310 C.3   1 <1>   0.3340 
 16 O       -7.3120    -0.2080     1.1010 O.3   1 <1>  -0.5600 
 17 O       -0.6030     6.5270     0.6680 O.3   1 <1>  -0.0190 
 18 C       -2.7300     5.4560     0.3760 C.3   1 <1>  -0.0600 
 19 N        0.6870     6.3960     0.6860 N.2   1 <1>  -0.4100 
 20 C        2.3170     4.5810     0.3720 C.3   1 <1>  -0.0590 
 21 C       -6.1760    -3.6950     0.2840 C.ar  1 <1>  -0.1440 
 22 C       -7.4090    -1.5690     0.7710 C.3   1 <1>   0.1200 
 23 C       -6.4250    -4.0090    -1.0450 C.ar  1 <1>  -0.1500 
 24 C       -6.0750    -4.7220     1.2120 C.ar  1 <1>  -0.1500 
 25 C       -6.5720    -5.3270    -1.4420 C.ar  1 <1>  -0.1500 
 26 C       -6.2210    -6.0410     0.8170 C.ar  1 <1>  -0.1500 
 27 C       -6.4700    -6.3440    -0.5100 C.ar  1 <1>  -0.1500 
 28 H       -2.1600     2.8240    -1.0480 H     1 <1>   0.0800 
 29 H       -2.2290     2.4650     0.6700 H     1 <1>   0.0800 
 30 H       -4.1590     1.7600    -0.4470 H     1 <1>   0.0800 
 31 H       -4.5970     0.6900    -1.7450 H     1 <1>   0.0800 
 32 H       -3.1180    -1.4610    -2.1080 H     1 <1>   0.0800 
 33 H       -1.8000    -1.7140    -1.0040 H     1 <1>   0.0800 
 34 H        0.2940     2.7850    -0.9460 H     1 <1>   0.0800 
 35 H        0.2240     2.4410     0.7540 H     1 <1>   0.0800 
 36 H       -4.6680     0.0350     1.2000 H     1 <1>   0.0800 
 37 H       -3.3330    -2.0240     0.8540 H     1 <1>   0.0800 
 38 H       -3.7590    -3.0980    -0.4490 H     1 <1>   0.0800 
 39 H       -6.9380     0.4730    -0.7620 H     1 <1>   0.0800 
 40 H       -6.4890     1.5350     0.5570 H     1 <1>   0.0800 
 41 H       -5.6180    -2.2250     1.7290 H     1 <1>   0.0800 
 42 H       -3.1700     4.5030     0.1700 H     1 <1>   0.0800 
 43 H       -3.0400     6.1480    -0.3860 H     1 <1>   0.0800 
 44 H       -3.0980     5.8050     1.3240 H     1 <1>   0.0800 
 45 H        2.4320     3.8100     1.1100 H     1 <1>   0.0800 
 46 H        3.0410     5.3520     0.5610 H     1 <1>   0.0800 
 47 H        2.4950     4.1700    -0.6040 H     1 <1>   0.0800 
 48 H       -8.0250    -2.0450     1.5120 H     1 <1>   0.0800 
 49 H       -7.8940    -1.6560    -0.1850 H     1 <1>   0.0800 
 50 H       -6.4980    -3.2210    -1.7740 H     1 <1>   0.1500 
 51 H       -5.8820    -4.5030     2.2470 H     1 <1>   0.1500 
 52 H       -6.7640    -5.5590    -2.4740 H     1 <1>   0.1500 
 53 H       -6.1420    -6.8320     1.5420 H     1 <1>   0.1500 
 54 H       -6.5840    -7.3690    -0.8170 H     1 <1>   0.1500 
@<TRIPOS>BOND
  1   1   2  2   
  2   2   3  am  
  3   2   4  1   
  4   3   5  1   
  5   3   6  1   
  6   4   7  1   
  7   4  28  1   
  8   4  29  1   
  9   5   8  1   
 10   5  30  1   
 11   5  31  1   
 12   6   9  1   
 13   6  32  1   
 14   6  33  1   
 15   7  10  1   
 16   7  34  1   
 17   7  35  1   
 18   8  11  1   
 19   8  12  1   
 20   8  36  1   
 21   9  11  1   
 22   9  37  1   
 23   9  38  1   
 24  10  13  2   
 25  10  14  1   
 26  11  15  1   
 27  12  16  1   
 28  12  39  1   
 29  12  40  1   
 30  13  17  1   
 31  13  18  1   
 32  14  19  2   
 33  14  20  1   
 34  15  21  1   
 35  15  22  1   
 36  15  41  1   
 37  16  22  1   
 38  17  19  1   
 39  18  42  1   
 40  18  43  1   
 41  18  44  1   
 42  20  45  1   
 43  20  46  1   
 44  20  47  1   
 45  21  23  ar  
 46  21  24  ar  
 47  22  48  1   
 48  22  49  1   
 49  23  25  ar  
 50  23  50  1   
 51  24  26  ar  
 52  24  51  1   
 53  25  27  ar  
 54  25  52  1   
 55  26  27  ar  
 56  26  53  1   
 57  27  54  1   
@<TRIPOS>SUBSTRUCTURE
  1 ****   3 GROUP 4 **** **** 0

# MOE 2024.06 (io_trps.svl 2023.06)
