@<TRIPOS>MOLECULE
NONAME
56 58 1 0 0 
SMALL
USER_CHARGES


@<TRIPOS>ATOM
  1 O        0.8400     0.2300    -0.1370 O.3   1 <1>  -0.0190 
  2 N        0.3160     1.4080     0.0130 N.2   1 <1>  -0.4100 
  3 C        1.9820     0.4640    -0.7350 C.2   1 <1>   0.2980 
  4 C        1.1400     2.2490    -0.4770 C.2   1 <1>   0.3350 
  5 N        2.2320     1.6860    -0.9810 N.2   1 <1>  -0.5650 
  6 C        2.8880    -0.7060    -1.0740 C.3   1 <1>   0.0200 
  7 C        0.9220     3.7630    -0.5120 C.3   1 <1>   0.2910 
  8 C        2.2780    -1.6100    -2.1530 C.3   1 <1>  -0.2400 
  9 N        1.6910     4.5040     0.5300 N.3   1 <1>  -0.8100 
 10 C        1.7690     5.9610     0.2910 C.3   1 <1>   0.1100 
 11 C        1.2150     4.1630     1.8830 C.3   1 <1>   0.0300 
 12 C        3.2050     6.5870     0.1140 C.3   1 <1>   0.5030 
 13 N        3.0620     8.1010     0.2260 N.4   1 <1>  -0.9590 
 14 C        3.7920     6.2400    -1.2830 C.3   1 <1>  -0.1600 
 15 C        4.1540     6.1130     1.2580 C.3   1 <1>  -0.1600 
 16 C        2.0200     8.6820    -0.6860 C.3   1 <1>   0.3430 
 17 C        4.3320     8.8950     0.0780 C.3   1 <1>   0.3430 
 18 C        4.3830     4.8270    -1.4050 C.3   1 <1>  -0.1600 
 19 C        4.7900     4.7210     1.0740 C.3   1 <1>  -0.1600 
 20 C        1.7220    10.1310    -0.2940 C.3   1 <1>  -0.1600 
 21 C        4.0960    10.3460     0.5010 C.3   1 <1>  -0.1600 
 22 C        5.4200     4.5670    -0.3110 C.3   1 <1>  -0.1600 
 23 C        2.9830    11.0000    -0.3240 C.3   1 <1>  -0.1600 
 24 H        3.0680    -1.2750    -0.1800 H     1 <1>   0.0800 
 25 H        3.8310    -0.3230    -1.4200 H     1 <1>   0.0800 
 26 H       -0.1290     3.9630    -0.3960 H     1 <1>   0.0800 
 27 H        1.2190     4.1030    -1.4870 H     1 <1>   0.0800 
 28 H        1.3440    -2.0220    -1.8130 H     1 <1>   0.0800 
 29 H        2.9500    -2.4180    -2.3820 H     1 <1>   0.0800 
 30 H        2.1000    -1.0440    -3.0510 H     1 <1>   0.0800 
 31 H        1.2880     6.4610     1.1150 H     1 <1>   0.0800 
 32 H        1.1910     6.1810    -0.5880 H     1 <1>   0.0800 
 33 H        1.3120     3.1030     2.0530 H     1 <1>   0.0800 
 34 H        0.1810     4.4390     2.0040 H     1 <1>   0.0800 
 35 H        1.8050     4.6680     2.6270 H     1 <1>   0.0800 
 36 H        2.7410     8.2690     1.1850 H     1 <1>   0.4500 
 37 H        4.5940     6.9080    -1.5290 H     1 <1>   0.0800 
 38 H        3.0350     6.3520    -2.0370 H     1 <1>   0.0800 
 39 H        3.6200     6.1190     2.1910 H     1 <1>   0.0800 
 40 H        4.9870     6.7720     1.3710 H     1 <1>   0.0800 
 41 H        1.1010     8.1250    -0.6250 H     1 <1>   0.0800 
 42 H        2.3690     8.6480    -1.7050 H     1 <1>   0.0800 
 43 H        4.6570     8.8770    -0.9500 H     1 <1>   0.0800 
 44 H        5.1230     8.4930     0.6840 H     1 <1>   0.0800 
 45 H        4.8480     4.7110    -2.3690 H     1 <1>   0.0800 
 46 H        3.6080     4.0860    -1.3360 H     1 <1>   0.0800 
 47 H        4.0600     3.9440     1.2120 H     1 <1>   0.0800 
 48 H        5.5460     4.5700     1.8260 H     1 <1>   0.0800 
 49 H        1.2820    10.1540     0.6880 H     1 <1>   0.0800 
 50 H        0.9970    10.5380    -0.9780 H     1 <1>   0.0800 
 51 H        5.0080    10.9020     0.3670 H     1 <1>   0.0800 
 52 H        3.8510    10.3800     1.5490 H     1 <1>   0.0800 
 53 H        6.2480     5.2470    -0.4180 H     1 <1>   0.0800 
 54 H        5.8020     3.5650    -0.4160 H     1 <1>   0.0800 
 55 H        2.7640    11.9810     0.0660 H     1 <1>   0.0800 
 56 H        3.3140    11.1190    -1.3430 H     1 <1>   0.0800 
@<TRIPOS>BOND
  1   1   2  1   
  2   1   3  1   
  3   2   4  2   
  4   3   5  2   
  5   3   6  1   
  6   4   5  1   
  7   4   7  1   
  8   6   8  1   
  9   6  24  1   
 10   6  25  1   
 11   7   9  1   
 12   7  26  1   
 13   7  27  1   
 14   8  28  1   
 15   8  29  1   
 16   8  30  1   
 17   9  10  1   
 18   9  11  1   
 19  10  12  1   
 20  10  31  1   
 21  10  32  1   
 22  11  33  1   
 23  11  34  1   
 24  11  35  1   
 25  12  13  1   
 26  12  14  1   
 27  12  15  1   
 28  13  16  1   
 29  13  17  1   
 30  13  36  1   
 31  14  18  1   
 32  14  37  1   
 33  14  38  1   
 34  15  19  1   
 35  15  39  1   
 36  15  40  1   
 37  16  20  1   
 38  16  41  1   
 39  16  42  1   
 40  17  21  1   
 41  17  43  1   
 42  17  44  1   
 43  18  22  1   
 44  18  45  1   
 45  18  46  1   
 46  19  22  1   
 47  19  47  1   
 48  19  48  1   
 49  20  23  1   
 50  20  49  1   
 51  20  50  1   
 52  21  23  1   
 53  21  51  1   
 54  21  52  1   
 55  22  53  1   
 56  22  54  1   
 57  23  55  1   
 58  23  56  1   
@<TRIPOS>SUBSTRUCTURE
  1 ****   9 GROUP 4 **** **** 0

# MOE 2024.06 (io_trps.svl 2023.06)
