@<TRIPOS>MOLECULE
NONAME
52 54 1 0 0 
SMALL
USER_CHARGES


@<TRIPOS>ATOM
  1 O        1.4670     1.6260    -1.3680 O.3   1 <1>  -0.0190 
  2 N        2.2910     0.6360    -1.2010 N.2   1 <1>  -0.4100 
  3 C        0.7880     1.8810    -0.2820 C.2   1 <1>  -0.0400 
  4 C        2.1240     0.2290     0.0060 C.2   1 <1>   0.1080 
  5 C        1.1650     1.0000     0.6570 C.2   1 <1>  -0.1500 
  6 C       -0.1980     3.0330    -0.2610 C.3   1 <1>   0.0200 
  7 C        2.8740    -0.9310     0.6250 C.3   1 <1>  -0.0590 
  8 C        0.4460     4.2970    -0.8620 C.3   1 <1>  -0.0800 
  9 C       -0.3500     5.5910    -0.7100 C.3   1 <1>   0.2000 
 10 C        1.8160     4.6210    -0.2550 C.3   1 <1>   0.3430 
 11 O       -0.7880     5.7040     0.6160 O.3   1 <1>  -0.5600 
 12 C        0.7290     6.6490    -0.9400 C.3   1 <1>   0.3430 
 13 N        1.9670     6.1090    -0.2890 N.4   1 <1>  -0.9590 
 14 C       -2.1710     5.8060     0.7750 C.3   1 <1>   0.0400 
 15 C        2.1150     6.6470     1.0930 C.3   1 <1>   0.4860 
 16 C        2.3360     8.1450     1.0150 C.ar  1 <1>  -0.1440 
 17 C        3.5380     8.6560     0.5490 C.ar  1 <1>  -0.1500 
 18 C        1.3320     9.0180     1.4090 C.ar  1 <1>  -0.1500 
 19 C        3.7390    10.0240     0.4630 C.ar  1 <1>   0.0820 
 20 C        1.5270    10.3860     1.3270 C.ar  1 <1>  -0.1500 
 21 O        4.9430    10.4300    -0.0070 O.3   1 <1>  -0.3630 
 22 C        2.7240    10.8920     0.8540 C.ar  1 <1>  -0.1500 
 23 C        5.2960    11.7990    -0.0270 C.3   1 <1>   0.1200 
 24 C        6.7400    11.9230    -0.5100 C.3   1 <1>   0.1200 
 25 O        7.0810    13.2660    -0.5990 O.3   1 <1>  -0.6800 
 26 H        0.8350     0.8820     1.6730 H     1 <1>   0.1500 
 27 H       -1.0680     2.7630    -0.8340 H     1 <1>   0.0800 
 28 H       -0.5050     3.2000     0.7560 H     1 <1>   0.0800 
 29 H        3.3780    -0.6100     1.5170 H     1 <1>   0.0800 
 30 H        3.6020    -1.3100    -0.0700 H     1 <1>   0.0800 
 31 H        2.1860    -1.7190     0.8690 H     1 <1>   0.0800 
 32 H        0.6000     4.1230    -1.9140 H     1 <1>   0.0800 
 33 H       -1.1730     5.6770    -1.4000 H     1 <1>   0.0800 
 34 H        2.5990     4.1310    -0.8120 H     1 <1>   0.0800 
 35 H        1.8440     4.2690     0.7640 H     1 <1>   0.0800 
 36 H        0.4320     7.6040    -0.5410 H     1 <1>   0.0800 
 37 H        0.8980     6.7500    -1.9990 H     1 <1>   0.0800 
 38 H        2.7940     6.3950    -0.8260 H     1 <1>   0.4500 
 39 H       -2.3860     5.8700     1.8280 H     1 <1>   0.0800 
 40 H       -2.6460     4.9310     0.3640 H     1 <1>   0.0800 
 41 H       -2.5250     6.6950     0.2810 H     1 <1>   0.0800 
 42 H        1.2290     6.4360     1.6700 H     1 <1>   0.0800 
 43 H        2.9590     6.1890     1.5820 H     1 <1>   0.0800 
 44 H        4.3440     8.0100     0.2500 H     1 <1>   0.1500 
 45 H        0.3930     8.6450     1.7840 H     1 <1>   0.1500 
 46 H        0.7460    11.0610     1.6340 H     1 <1>   0.1500 
 47 H        2.8470    11.9580     0.8010 H     1 <1>   0.1500 
 48 H        4.6260    12.3070    -0.6980 H     1 <1>   0.0800 
 49 H        5.2070    12.1870     0.9720 H     1 <1>   0.0800 
 50 H        6.8650    11.4770    -1.4820 H     1 <1>   0.0800 
 51 H        7.4090    11.4600     0.1940 H     1 <1>   0.0800 
 52 H        6.6390    13.6920    -1.3590 H     1 <1>   0.4000 
@<TRIPOS>BOND
  1   1   2  1   
  2   1   3  1   
  3   2   4  2   
  4   3   5  2   
  5   3   6  1   
  6   4   5  1   
  7   4   7  1   
  8   5  26  1   
  9   6   8  1   
 10   6  27  1   
 11   6  28  1   
 12   7  29  1   
 13   7  30  1   
 14   7  31  1   
 15   8   9  1   
 16   8  10  1   
 17   8  32  1   
 18   9  11  1   
 19   9  12  1   
 20   9  33  1   
 21  10  13  1   
 22  10  34  1   
 23  10  35  1   
 24  11  14  1   
 25  12  13  1   
 26  12  36  1   
 27  12  37  1   
 28  13  15  1   
 29  13  38  1   
 30  14  39  1   
 31  14  40  1   
 32  14  41  1   
 33  15  16  1   
 34  15  42  1   
 35  15  43  1   
 36  16  17  ar  
 37  16  18  ar  
 38  17  19  ar  
 39  17  44  1   
 40  18  20  ar  
 41  18  45  1   
 42  19  21  1   
 43  19  22  ar  
 44  20  22  ar  
 45  20  46  1   
 46  21  23  1   
 47  22  47  1   
 48  23  24  1   
 49  23  48  1   
 50  23  49  1   
 51  24  25  1   
 52  24  50  1   
 53  24  51  1   
 54  25  52  1   
@<TRIPOS>SUBSTRUCTURE
  1 ****  13 GROUP 4 **** **** 0

# MOE 2024.06 (io_trps.svl 2023.06)
