@<TRIPOS>MOLECULE
NONAME
33 34 1 0 0 
SMALL
USER_CHARGES


@<TRIPOS>ATOM
  1 O        0.3120    -0.2580     1.1810 O.2   1 <1>  -0.5700 
  2 C        1.2650    -0.7340     0.5880 C.2   1 <1>   0.5440 
  3 N        2.3040     0.0780     0.2080 N.am  1 <1>  -0.4930 
  4 C        1.3220    -2.1570     0.2740 C.ar  1 <1>   0.3960 
  5 C        2.4930     1.4710     0.3880 C.2   1 <1>   0.0630 
  6 N        2.3910    -2.6430    -0.3810 N.ar  1 <1>  -0.6200 
  7 C        0.2660    -2.9920     0.6580 C.ar  1 <1>   0.1600 
  8 C        1.6660     2.4090     1.0080 C.2   1 <1>   0.1390 
  9 C        3.5600     2.1850    -0.0250 C.2   1 <1>  -0.3020 
 10 C        2.3160    -3.9440    -0.6020 C.ar  1 <1>   0.1600 
 11 N        0.1950    -4.2940     0.4340 N.ar  1 <1>  -0.6200 
 12 N        2.1720     3.6070     0.9830 N.2   1 <1>  -0.7070 
 13 N        3.3510     3.4700     0.3410 N.pl3 1 <1>   0.3140 
 14 C        1.2530    -4.7510    -0.2090 C.ar  1 <1>   0.1670 
 15 C        4.2790     4.6110     0.0840 C.3   1 <1>   0.1760 
 16 C        1.2550    -6.2370    -0.5070 C.3   1 <1>  -0.0970 
 17 C        4.7570     5.2280     1.4060 C.3   1 <1>  -0.2400 
 18 C        3.6060     5.6690    -0.8010 C.3   1 <1>  -0.2400 
 19 H        3.0560    -0.4130    -0.2820 H     1 <1>   0.3700 
 20 H       -0.5650    -2.5480     1.1800 H     1 <1>   0.1500 
 21 H        0.7160     2.1740     1.4560 H     1 <1>   0.1500 
 22 H        4.4380     1.8590    -0.5490 H     1 <1>   0.1500 
 23 H        3.1410    -4.3980    -1.1230 H     1 <1>   0.1500 
 24 H        5.1330     4.2210    -0.4390 H     1 <1>   0.0800 
 25 H        2.1460    -6.5300    -1.0300 H     1 <1>   0.0800 
 26 H        0.4000    -6.4830    -1.1100 H     1 <1>   0.0800 
 27 H        1.1950    -6.7880     0.4140 H     1 <1>   0.0800 
 28 H        3.9220     5.6320     1.9520 H     1 <1>   0.0800 
 29 H        5.4580     6.0200     1.2150 H     1 <1>   0.0800 
 30 H        5.2400     4.4810     2.0100 H     1 <1>   0.0800 
 31 H        2.7470     6.0820    -0.3000 H     1 <1>   0.0800 
 32 H        3.2900     5.2280    -1.7290 H     1 <1>   0.0800 
 33 H        4.2930     6.4660    -1.0170 H     1 <1>   0.0800 
@<TRIPOS>BOND
  1   1   2  2   
  2   2   3  am  
  3   2   4  1   
  4   3   5  1   
  5   3  19  1   
  6   4   6  ar  
  7   4   7  ar  
  8   5   8  1   
  9   5   9  2   
 10   6  10  ar  
 11   7  11  ar  
 12   7  20  1   
 13   8  12  2   
 14   8  21  1   
 15   9  13  1   
 16   9  22  1   
 17  10  14  ar  
 18  10  23  1   
 19  11  14  ar  
 20  12  13  1   
 21  13  15  1   
 22  14  16  1   
 23  15  17  1   
 24  15  18  1   
 25  15  24  1   
 26  16  25  1   
 27  16  26  1   
 28  16  27  1   
 29  17  28  1   
 30  17  29  1   
 31  17  30  1   
 32  18  31  1   
 33  18  32  1   
 34  18  33  1   
@<TRIPOS>SUBSTRUCTURE
  1 ****   3 GROUP 4 **** **** 0

# MOE 2024.06 (io_trps.svl 2023.06)
