@<TRIPOS>MOLECULE
NONAME
48 50 1 0 0 
SMALL
USER_CHARGES


@<TRIPOS>ATOM
  1 O        0.2750     0.2300    -0.1810 O.3   1 <1>  -0.5600 
  2 C        0.1550     1.5510     0.2620 C.3   1 <1>   0.2950 
  3 C        1.4660    -0.3880     0.2080 C.3   1 <1>   0.2000 
  4 C       -1.2020     2.0760    -0.2180 C.3   1 <1>  -0.1950 
  5 C        1.3210     2.4030    -0.2810 C.3   1 <1>   0.1100 
  6 C        2.6720     0.4030    -0.3500 C.3   1 <1>   0.1100 
  7 C        1.4000    -1.8320    -0.3030 C.3   1 <1>  -0.1600 
  8 C       -1.9210     3.1570     0.5290 C.3   1 <1>  -0.2000 
  9 C       -2.4630     1.7550     0.5210 C.3   1 <1>  -0.2000 
 10 N        2.6380     1.8200     0.0640 N.3   1 <1>  -0.8100 
 11 C        2.5790    -2.6980     0.1730 C.3   1 <1>  -0.1600 
 12 C        3.7510     2.5710    -0.5470 C.3   1 <1>   0.2900 
 13 C        2.4120    -4.1510    -0.2840 C.3   1 <1>  -0.1600 
 14 C        3.8130     4.0120    -0.0590 C.2   1 <1>  -0.0400 
 15 C        3.5860    -5.0150     0.1850 C.3   1 <1>  -0.2400 
 16 O        3.1440     4.9490    -0.7070 O.3   1 <1>  -0.2800 
 17 C        4.4870     4.5500     0.9790 C.2   1 <1>  -0.1500 
 18 C        3.3690     6.1000    -0.1020 C.2   1 <1>  -0.0400 
 19 C        4.1970     5.9200     0.9520 C.2   1 <1>  -0.1500 
 20 C        2.7040     7.3470    -0.6580 C.3   1 <1>   0.3000 
 21 O        2.8520     8.3940     0.2370 O.3   1 <1>  -0.6800 
 22 H        0.1830     1.5480     1.3380 H     1 <1>   0.0800 
 23 H        1.5040    -0.3910     1.2850 H     1 <1>   0.0800 
 24 H       -1.2600     2.1050    -1.2920 H     1 <1>   0.1000 
 25 H        1.2410     3.3890     0.1410 H     1 <1>   0.0800 
 26 H        1.2250     2.4880    -1.3500 H     1 <1>   0.0800 
 27 H        2.6640     0.3330    -1.4250 H     1 <1>   0.0800 
 28 H        3.5830    -0.0420     0.0100 H     1 <1>   0.0800 
 29 H        0.4840    -2.2690     0.0550 H     1 <1>   0.0800 
 30 H        1.3690    -1.8240    -1.3780 H     1 <1>   0.0800 
 31 H       -1.5000     3.5360     1.4440 H     1 <1>   0.1000 
 32 H       -2.4410     3.9140    -0.0310 H     1 <1>   0.1000 
 33 H       -3.3460     1.5350    -0.0530 H     1 <1>   0.1000 
 34 H       -2.3940     1.1580     1.4150 H     1 <1>   0.1000 
 35 H        3.5020    -2.3120    -0.2230 H     1 <1>   0.0800 
 36 H        2.6340    -2.6670     1.2480 H     1 <1>   0.0800 
 37 H        4.6760     2.0900    -0.2810 H     1 <1>   0.0800 
 38 H        3.6640     2.5620    -1.6190 H     1 <1>   0.0800 
 39 H        1.4960    -4.5540     0.1150 H     1 <1>   0.0800 
 40 H        2.3510    -4.1890    -1.3580 H     1 <1>   0.0800 
 41 H        3.6510    -5.0100     1.2590 H     1 <1>   0.0800 
 42 H        4.5110    -4.6470    -0.2210 H     1 <1>   0.0800 
 43 H        3.4490    -6.0310    -0.1430 H     1 <1>   0.0800 
 44 H        5.1200     4.0580     1.6960 H     1 <1>   0.1500 
 45 H        4.5790     6.6510     1.6420 H     1 <1>   0.1500 
 46 H        1.6520     7.1740    -0.8010 H     1 <1>   0.0800 
 47 H        3.1520     7.6310    -1.5940 H     1 <1>   0.0800 
 48 H        2.5730     8.0930     1.1220 H     1 <1>   0.4000 
@<TRIPOS>BOND
  1   1   2  1   
  2   1   3  1   
  3   2   4  1   
  4   2   5  1   
  5   2  22  1   
  6   3   6  1   
  7   3   7  1   
  8   3  23  1   
  9   4   8  1   
 10   4   9  1   
 11   4  24  1   
 12   5  10  1   
 13   5  25  1   
 14   5  26  1   
 15   6  10  1   
 16   6  27  1   
 17   6  28  1   
 18   7  11  1   
 19   7  29  1   
 20   7  30  1   
 21   8   9  1   
 22   8  31  1   
 23   8  32  1   
 24   9  33  1   
 25   9  34  1   
 26  10  12  1   
 27  11  13  1   
 28  11  35  1   
 29  11  36  1   
 30  12  14  1   
 31  12  37  1   
 32  12  38  1   
 33  13  15  1   
 34  13  39  1   
 35  13  40  1   
 36  14  16  1   
 37  14  17  2   
 38  15  41  1   
 39  15  42  1   
 40  15  43  1   
 41  16  18  1   
 42  17  19  1   
 43  17  44  1   
 44  18  19  2   
 45  18  20  1   
 46  19  45  1   
 47  20  21  1   
 48  20  46  1   
 49  20  47  1   
 50  21  48  1   
@<TRIPOS>SUBSTRUCTURE
  1 ****  10 GROUP 4 **** **** 0

# MOE 2024.06 (io_trps.svl 2023.06)
