@<TRIPOS>MOLECULE
NONAME
45 47 1 0 0 
SMALL
USER_CHARGES


@<TRIPOS>ATOM
  1 F       -3.4320    -1.8310     3.0650 F     1 <1>  -0.3400 
  2 C       -3.2600    -1.2660     1.8770 C.3   1 <1>   1.1640 
  3 F       -1.9740    -1.4100     1.5780 F     1 <1>  -0.3400 
  4 F       -3.4550     0.0360     2.0530 F     1 <1>  -0.3400 
  5 C       -4.1910    -1.8750     0.8170 C.ar  1 <1>  -0.1440 
  6 C       -3.8170    -3.0210     0.1220 C.ar  1 <1>  -0.1500 
  7 C       -5.4280    -1.3050     0.5330 C.ar  1 <1>  -0.1500 
  8 C       -4.6540    -3.5780    -0.8280 C.ar  1 <1>  -0.1500 
  9 C       -6.2640    -1.8620    -0.4180 C.ar  1 <1>  -0.1500 
 10 C       -5.8850    -3.0050    -1.1020 C.ar  1 <1>  -0.1430 
 11 C       -6.8090    -3.6350    -2.1410 C.3   1 <1>   0.0450 
 12 C       -7.0200    -5.1300    -1.9330 C.2   1 <1>   0.5690 
 13 O       -6.6530    -5.8790    -2.8080 O.2   1 <1>  -0.5700 
 14 N       -7.6160    -5.6070    -0.7960 N.am  1 <1>  -0.6600 
 15 C       -8.0630    -4.8060     0.3710 C.3   1 <1>   0.1400 
 16 C       -7.7840    -7.0560    -0.5350 C.3   1 <1>   0.1400 
 17 C       -8.7150    -5.8190     1.3100 C.3   1 <1>   0.2000 
 18 C       -8.0770    -7.1610     0.9630 C.3   1 <1>  -0.0800 
 19 O       -8.4850    -5.5070     2.6400 O.3   1 <1>  -0.6800 
 20 C       -8.9590    -8.3610     1.3360 C.3   1 <1>   0.0200 
 21 C       -8.3190    -9.6650     0.9010 C.2   1 <1>  -0.0400 
 22 O       -7.1730   -10.0310     1.4100 O.3   1 <1>  -0.0190 
 23 C       -8.7010   -10.6060     0.0250 C.2   1 <1>  -0.1500 
 24 N       -6.7660   -11.1660     0.9180 N.2   1 <1>  -0.4100 
 25 C       -7.6670   -11.5360     0.0810 C.2   1 <1>   0.1080 
 26 C       -7.6030   -12.8110    -0.7290 C.3   1 <1>  -0.0590 
 27 H       -2.8670    -3.4910     0.3160 H     1 <1>   0.1500 
 28 H       -5.7510    -0.4170     1.0520 H     1 <1>   0.1500 
 29 H       -4.3410    -4.4650    -1.3550 H     1 <1>   0.1500 
 30 H       -7.2140    -1.3960    -0.6200 H     1 <1>   0.1500 
 31 H       -6.3840    -3.4820    -3.1160 H     1 <1>   0.0800 
 32 H       -7.7700    -3.1560    -2.1310 H     1 <1>   0.0800 
 33 H       -7.2060    -4.3540     0.8400 H     1 <1>   0.0800 
 34 H       -8.7680    -4.0520     0.0690 H     1 <1>   0.0800 
 35 H       -8.6100    -7.4210    -1.1200 H     1 <1>   0.0800 
 36 H       -6.8930    -7.6020    -0.8010 H     1 <1>   0.0800 
 37 H       -9.7790    -5.8340     1.1450 H     1 <1>   0.0800 
 38 H       -7.1280    -7.2470     1.4640 H     1 <1>   0.0800 
 39 H       -7.5280    -5.5360     2.8370 H     1 <1>   0.4000 
 40 H       -9.9230    -8.2680     0.8690 H     1 <1>   0.0800 
 41 H       -9.1060    -8.3820     2.4020 H     1 <1>   0.0800 
 42 H       -9.5800   -10.6630    -0.5900 H     1 <1>   0.1500 
 43 H       -8.4560   -13.4260    -0.5110 H     1 <1>   0.0800 
 44 H       -6.7090   -13.3560    -0.4850 H     1 <1>   0.0800 
 45 H       -7.5910   -12.5760    -1.7780 H     1 <1>   0.0800 
@<TRIPOS>BOND
  1   1   2  1   
  2   2   3  1   
  3   2   4  1   
  4   2   5  1   
  5   5   6  ar  
  6   5   7  ar  
  7   6   8  ar  
  8   6  27  1   
  9   7   9  ar  
 10   7  28  1   
 11   8  10  ar  
 12   8  29  1   
 13   9  10  ar  
 14   9  30  1   
 15  10  11  1   
 16  11  12  1   
 17  11  31  1   
 18  11  32  1   
 19  12  13  2   
 20  12  14  am  
 21  14  15  1   
 22  14  16  1   
 23  15  17  1   
 24  15  33  1   
 25  15  34  1   
 26  16  18  1   
 27  16  35  1   
 28  16  36  1   
 29  17  18  1   
 30  17  19  1   
 31  17  37  1   
 32  18  20  1   
 33  18  38  1   
 34  19  39  1   
 35  20  21  1   
 36  20  40  1   
 37  20  41  1   
 38  21  22  1   
 39  21  23  2   
 40  22  24  1   
 41  23  25  1   
 42  23  42  1   
 43  24  25  2   
 44  25  26  1   
 45  26  43  1   
 46  26  44  1   
 47  26  45  1   
@<TRIPOS>SUBSTRUCTURE
  1 ****  14 GROUP 4 **** **** 0

# MOE 2024.06 (io_trps.svl 2023.06)
