@<TRIPOS>MOLECULE
NONAME
57 60 1 0 0 
SMALL
USER_CHARGES


@<TRIPOS>ATOM
  1 O       -0.1630    -0.4140     0.8580 O.3   1 <1>  -0.3630 
  2 C       -0.0330    -1.7270     0.5930 C.ar  1 <1>   0.0820 
  3 C       -1.0250    -0.2950     1.9850 C.3   1 <1>   0.4000 
  4 C        0.7450    -2.3890    -0.3570 C.ar  1 <1>   0.0820 
  5 C       -0.8320    -2.4340     1.4450 C.ar  1 <1>   0.0820 
  6 O       -1.4980    -1.6120     2.2610 O.3   1 <1>  -0.3630 
  7 O        1.5750    -1.8050    -1.2610 O.3   1 <1>  -0.3630 
  8 C        0.6710    -3.7760    -0.4020 C.ar  1 <1>  -0.1500 
  9 C       -0.9070    -3.8120     1.4150 C.ar  1 <1>  -0.1500 
 10 C        1.8150    -0.4150    -1.2360 C.3   1 <1>   0.0400 
 11 C       -0.1570    -4.4920     0.4620 C.ar  1 <1>  -0.1430 
 12 C       -0.2470    -6.0010     0.3460 C.3   1 <1>   0.4870 
 13 N       -0.9030    -6.3910    -0.9480 N.4   1 <1>  -0.9590 
 14 C       -2.3560    -6.0740    -1.1460 C.3   1 <1>   0.4230 
 15 C       -0.6640    -7.8440    -1.2040 C.3   1 <1>   0.2630 
 16 C       -2.5950    -4.6670    -1.6920 C.3   1 <1>  -0.1600 
 17 C       -3.2510    -6.2040     0.0910 C.3   1 <1>  -0.1600 
 18 C       -4.0280    -4.3030    -1.2820 C.3   1 <1>  -0.0800 
 19 C       -4.4480    -5.2780    -0.1770 C.3   1 <1>  -0.0800 
 20 C       -4.1970    -2.8960    -0.6870 C.3   1 <1>  -0.1600 
 21 C       -4.8810    -4.4010     1.0120 C.3   1 <1>  -0.1600 
 22 C       -5.2500    -3.0350     0.4180 C.3   1 <1>   0.4230 
 23 N       -6.6360    -3.0530    -0.1540 N.4   1 <1>  -0.9590 
 24 C       -6.9810    -1.7780    -0.8650 C.3   1 <1>   0.2630 
 25 C       -7.6860    -3.3020     0.8870 C.3   1 <1>   0.2630 
 26 H       -0.4650     0.0710     2.8280 H     1 <1>   0.0800 
 27 H       -1.8510     0.3510     1.7470 H     1 <1>   0.0800 
 28 H        1.2820    -4.2780    -1.1320 H     1 <1>   0.1500 
 29 H       -1.5370    -4.3130     2.1280 H     1 <1>   0.1500 
 30 H        2.5390    -0.1850    -1.9970 H     1 <1>   0.0800 
 31 H        2.2020    -0.1430    -0.2690 H     1 <1>   0.0800 
 32 H        0.8950     0.1030    -1.4390 H     1 <1>   0.0800 
 33 H       -0.7900    -6.4070     1.1830 H     1 <1>   0.0800 
 34 H        0.7530    -6.4000     0.3800 H     1 <1>   0.0800 
 35 H       -0.4040    -5.8560    -1.6720 H     1 <1>   0.4500 
 36 H       -2.7530    -6.7480    -1.8890 H     1 <1>   0.0800 
 37 H       -1.1700    -8.4440    -0.4650 H     1 <1>   0.0800 
 38 H        0.3910    -8.0650    -1.1640 H     1 <1>   0.0800 
 39 H       -1.0310    -8.1180    -2.1800 H     1 <1>   0.0800 
 40 H       -1.9070    -3.9560    -1.2850 H     1 <1>   0.0800 
 41 H       -2.4970    -4.6550    -2.7640 H     1 <1>   0.0800 
 42 H       -3.5800    -7.2200     0.2180 H     1 <1>   0.0800 
 43 H       -2.7520    -5.8910     0.9830 H     1 <1>   0.0800 
 44 H       -4.6890    -4.4250    -2.1250 H     1 <1>   0.0800 
 45 H       -5.2860    -5.8600    -0.5280 H     1 <1>   0.0800 
 46 H       -4.4200    -2.1580    -1.4340 H     1 <1>   0.0800 
 47 H       -3.2820    -2.5910    -0.2080 H     1 <1>   0.0800 
 48 H       -4.0450    -4.2350     1.6680 H     1 <1>   0.0800 
 49 H       -5.6550    -4.8600     1.5970 H     1 <1>   0.0800 
 50 H       -5.1570    -2.2490     1.1510 H     1 <1>   0.0800 
 51 H       -6.6670    -3.8220    -0.8380 H     1 <1>   0.4500 
 52 H       -6.8750    -0.9370    -0.1990 H     1 <1>   0.0800 
 53 H       -8.0000    -1.8110    -1.2160 H     1 <1>   0.0800 
 54 H       -6.3400    -1.6270    -1.7170 H     1 <1>   0.0800 
 55 H       -7.6300    -2.5560     1.6630 H     1 <1>   0.0800 
 56 H       -7.5620    -4.2740     1.3330 H     1 <1>   0.0800 
 57 H       -8.6680    -3.2620     0.4430 H     1 <1>   0.0800 
@<TRIPOS>BOND
  1   1   2  1   
  2   1   3  1   
  3   2   4  ar  
  4   2   5  ar  
  5   3   6  1   
  6   3  26  1   
  7   3  27  1   
  8   4   7  1   
  9   4   8  ar  
 10   5   6  1   
 11   5   9  ar  
 12   7  10  1   
 13   8  11  ar  
 14   8  28  1   
 15   9  11  ar  
 16   9  29  1   
 17  10  30  1   
 18  10  31  1   
 19  10  32  1   
 20  11  12  1   
 21  12  13  1   
 22  12  33  1   
 23  12  34  1   
 24  13  14  1   
 25  13  15  1   
 26  13  35  1   
 27  14  16  1   
 28  14  17  1   
 29  14  36  1   
 30  15  37  1   
 31  15  38  1   
 32  15  39  1   
 33  16  18  1   
 34  16  40  1   
 35  16  41  1   
 36  17  19  1   
 37  17  42  1   
 38  17  43  1   
 39  18  19  1   
 40  18  20  1   
 41  18  44  1   
 42  19  21  1   
 43  19  45  1   
 44  20  22  1   
 45  20  46  1   
 46  20  47  1   
 47  21  22  1   
 48  21  48  1   
 49  21  49  1   
 50  22  23  1   
 51  22  50  1   
 52  23  24  1   
 53  23  25  1   
 54  23  51  1   
 55  24  52  1   
 56  24  53  1   
 57  24  54  1   
 58  25  55  1   
 59  25  56  1   
 60  25  57  1   
@<TRIPOS>SUBSTRUCTURE
  1 ****   9 GROUP 4 **** **** 0

# MOE 2024.06 (io_trps.svl 2023.06)
