@<TRIPOS>MOLECULE
NONAME
41 43 1 0 0 
SMALL
USER_CHARGES


@<TRIPOS>ATOM
  1 S       -0.2190    -0.0180    -0.9500 S.3   1 <1>  -0.0800 
  2 C        0.9080    -1.2230    -0.3360 C.2   1 <1>   0.4620 
  3 C        1.1190     1.0570    -1.2390 C.2   1 <1>  -0.1100 
  4 N        2.1340    -0.8380    -0.3580 N.2   1 <1>  -0.5650 
  5 N        0.4260    -2.4320     0.1030 N.pl3 1 <1>  -0.8220 
  6 C        2.2550     0.4470    -0.8630 C.2   1 <1>   0.0460 
  7 C       -1.0030    -2.7680     0.2540 C.3   1 <1>   0.2090 
  8 C        1.2970    -3.4350     0.7440 C.3   1 <1>   0.2090 
  9 C        3.6590     1.0360    -0.9400 C.3   1 <1>   0.3900 
 10 C       -1.0010    -4.1780     0.8330 C.3   1 <1>  -0.1600 
 11 C        0.3410    -4.3040     1.5520 C.3   1 <1>  -0.1600 
 12 N        3.6120     2.5100    -1.0970 N.pl3 1 <1>  -0.8690 
 13 C        4.7630     3.2290    -0.8280 C.ar  1 <1>   0.4100 
 14 N        5.8960     2.7230    -1.2780 N.ar  1 <1>  -0.6200 
 15 C        4.6760     4.4500    -0.0830 C.ar  1 <1>   0.4100 
 16 C        6.9380     3.4850    -0.9660 C.ar  1 <1>   0.1600 
 17 N        5.7310     5.1870     0.2190 N.ar  1 <1>  -0.6200 
 18 N        3.4330     4.9260     0.3610 N.pl3 1 <1>  -0.8380 
 19 C        6.8590     4.6650    -0.2490 C.ar  1 <1>   0.1600 
 20 C        3.3800     5.5130     1.7280 C.3   1 <1>   0.1290 
 21 C        2.6750     5.7130    -0.6450 C.3   1 <1>   0.1290 
 22 H        0.9130     2.0240    -1.6600 H     1 <1>   0.1500 
 23 H       -1.5100    -2.7300    -0.6950 H     1 <1>   0.0800 
 24 H       -1.4590    -2.0770     0.9430 H     1 <1>   0.0800 
 25 H        2.0370    -2.9640     1.3700 H     1 <1>   0.0800 
 26 H        1.7850    -4.0130    -0.0220 H     1 <1>   0.0800 
 27 H        4.1860     0.6010    -1.7710 H     1 <1>   0.0800 
 28 H        4.1910     0.7930    -0.0370 H     1 <1>   0.0800 
 29 H       -1.0470    -4.8840     0.0220 H     1 <1>   0.0800 
 30 H       -1.8370    -4.3420     1.4890 H     1 <1>   0.0800 
 31 H        0.2620    -3.8980     2.5460 H     1 <1>   0.0800 
 32 H        0.6820    -5.3220     1.6140 H     1 <1>   0.0800 
 33 H        2.8560     2.9130    -0.5310 H     1 <1>   0.4000 
 34 H        7.9010     3.1460    -1.3030 H     1 <1>   0.1500 
 35 H        7.7630     5.2110    -0.0470 H     1 <1>   0.1500 
 36 H        3.9870     4.9290     2.3980 H     1 <1>   0.0800 
 37 H        2.3670     5.5160     2.0880 H     1 <1>   0.0800 
 38 H        3.7580     6.5220     1.7100 H     1 <1>   0.0800 
 39 H        2.7720     5.2610    -1.6180 H     1 <1>   0.0800 
 40 H        3.0620     6.7170    -0.6900 H     1 <1>   0.0800 
 41 H        1.6330     5.7440    -0.3780 H     1 <1>   0.0800 
@<TRIPOS>BOND
  1   1   2  1   
  2   1   3  1   
  3   2   4  2   
  4   2   5  1   
  5   3   6  2   
  6   3  22  1   
  7   4   6  1   
  8   5   7  1   
  9   5   8  1   
 10   6   9  1   
 11   7  10  1   
 12   7  23  1   
 13   7  24  1   
 14   8  11  1   
 15   8  25  1   
 16   8  26  1   
 17   9  12  1   
 18   9  27  1   
 19   9  28  1   
 20  10  11  1   
 21  10  29  1   
 22  10  30  1   
 23  11  31  1   
 24  11  32  1   
 25  12  13  1   
 26  12  33  1   
 27  13  14  ar  
 28  13  15  ar  
 29  14  16  ar  
 30  15  17  ar  
 31  15  18  1   
 32  16  19  ar  
 33  16  34  1   
 34  17  19  ar  
 35  18  20  1   
 36  18  21  1   
 37  19  35  1   
 38  20  36  1   
 39  20  37  1   
 40  20  38  1   
 41  21  39  1   
 42  21  40  1   
 43  21  41  1   
@<TRIPOS>SUBSTRUCTURE
  1 ****   6 GROUP 4 **** **** 0

# MOE 2024.06 (io_trps.svl 2023.06)
