@<TRIPOS>MOLECULE
NONAME
54 57 1 0 0 
SMALL
USER_CHARGES


@<TRIPOS>ATOM
  1 O       -0.7500    -1.2570     1.3270 O.2   1 <1>  -0.5700 
  2 C       -0.4770    -2.2670     0.7010 C.2   1 <1>   0.5440 
  3 N        0.7820    -2.8190     0.8620 N.am  1 <1>  -0.6600 
  4 C       -1.4780    -2.7910    -0.2060 C.ar  1 <1>   0.0860 
  5 C        1.2110    -4.0880     0.1980 C.3   1 <1>   0.1400 
  6 C        1.7350    -2.2990     1.8850 C.3   1 <1>   0.1400 
  7 C       -2.0620    -4.0620    -0.0750 C.ar  1 <1>   0.0830 
  8 C       -1.9230    -1.9760    -1.2480 C.ar  1 <1>  -0.1500 
  9 C        2.6470    -4.0240    -0.3420 C.3   1 <1>   0.2200 
 10 C        3.1370    -2.1610     1.2840 C.3   1 <1>  -0.1600 
 11 O       -1.6040    -4.8680     0.9180 O.3   1 <1>  -0.3630 
 12 C       -3.0660    -4.4620    -0.9520 C.ar  1 <1>  -0.1500 
 13 C       -2.9060    -2.3830    -2.1270 C.ar  1 <1>  -0.1500 
 14 N        3.0630    -5.3870    -0.7150 N.am  1 <1>  -0.7300 
 15 C        3.6310    -3.4930     0.7040 C.3   1 <1>  -0.1600 
 16 C       -2.1900    -6.0990     1.2870 C.3   1 <1>   0.1200 
 17 C       -3.4880    -3.6370    -1.9780 C.ar  1 <1>   0.0830 
 18 C        2.9330    -5.9280    -1.9480 C.2   1 <1>   0.5690 
 19 C       -1.1440    -6.9480     2.0130 C.3   1 <1>   0.0960 
 20 O       -4.4600    -4.1160    -2.7870 O.3   1 <1>  -0.3630 
 21 O        2.6140    -5.2820    -2.9140 O.2   1 <1>  -0.5700 
 22 C        3.1610    -7.4160    -2.0940 C.3   1 <1>  -0.0990 
 23 N       -0.0030    -7.3140     1.1440 N.pl3 1 <1>   0.3140 
 24 C       -4.9570    -3.3650    -3.8730 C.3   1 <1>   0.0400 
 25 C        1.8830    -8.2190    -1.8080 C.3   1 <1>   0.0210 
 26 N        1.2060    -7.5930     1.6470 N.2   1 <1>  -0.4180 
 27 C        0.0270    -7.4960    -0.1810 C.2   1 <1>  -0.3020 
 28 C        1.2780    -7.8900    -0.4520 C.2   1 <1>   0.0460 
 29 N        1.9830    -7.9480     0.6830 N.2   1 <1>  -0.2270 
 30 H        0.5580    -4.3280    -0.6210 H     1 <1>   0.0800 
 31 H        1.1500    -4.8740     0.9270 H     1 <1>   0.0800 
 32 H        1.7580    -2.9830     2.7160 H     1 <1>   0.0800 
 33 H        1.4140    -1.3400     2.2550 H     1 <1>   0.0800 
 34 H       -1.4840    -0.9980    -1.3540 H     1 <1>   0.1500 
 35 H        2.6630    -3.3890    -1.2130 H     1 <1>   0.0800 
 36 H        3.8160    -1.8250     2.0470 H     1 <1>   0.0800 
 37 H        3.1110    -1.4100     0.5130 H     1 <1>   0.0800 
 38 H       -3.5500    -5.4140    -0.8760 H     1 <1>   0.1500 
 39 H       -3.2090    -1.7160    -2.9120 H     1 <1>   0.1500 
 40 H        3.1340    -6.0370     0.0760 H     1 <1>   0.3700 
 41 H        4.5960    -3.3530     0.2480 H     1 <1>   0.0800 
 42 H        3.7280    -4.2070     1.5040 H     1 <1>   0.0800 
 43 H       -2.5330    -6.6280     0.4190 H     1 <1>   0.0800 
 44 H       -3.0250    -5.8850     1.9310 H     1 <1>   0.0800 
 45 H       -1.5960    -7.8570     2.3620 H     1 <1>   0.0800 
 46 H       -0.7700    -6.4090     2.8650 H     1 <1>   0.0800 
 47 H        3.9390    -7.7190    -1.4180 H     1 <1>   0.0800 
 48 H        3.4960    -7.6170    -3.0950 H     1 <1>   0.0800 
 49 H       -5.7120    -3.9510    -4.3670 H     1 <1>   0.0800 
 50 H       -4.1510    -3.1600    -4.5540 H     1 <1>   0.0800 
 51 H       -5.3890    -2.4540    -3.4990 H     1 <1>   0.0800 
 52 H        2.1070    -9.2700    -1.8430 H     1 <1>   0.0800 
 53 H        1.1570    -8.0080    -2.5730 H     1 <1>   0.0800 
 54 H       -0.8050    -7.3380    -0.8400 H     1 <1>   0.1500 
@<TRIPOS>BOND
  1   1   2  2   
  2   2   3  am  
  3   2   4  1   
  4   3   5  1   
  5   3   6  1   
  6   4   7  ar  
  7   4   8  ar  
  8   5   9  1   
  9   5  30  1   
 10   5  31  1   
 11   6  10  1   
 12   6  32  1   
 13   6  33  1   
 14   7  11  1   
 15   7  12  ar  
 16   8  13  ar  
 17   8  34  1   
 18   9  14  1   
 19   9  15  1   
 20   9  35  1   
 21  10  15  1   
 22  10  36  1   
 23  10  37  1   
 24  11  16  1   
 25  12  17  ar  
 26  12  38  1   
 27  13  17  ar  
 28  13  39  1   
 29  14  18  am  
 30  14  40  1   
 31  15  41  1   
 32  15  42  1   
 33  16  19  1   
 34  16  43  1   
 35  16  44  1   
 36  17  20  1   
 37  18  21  2   
 38  18  22  1   
 39  19  23  1   
 40  19  45  1   
 41  19  46  1   
 42  20  24  1   
 43  22  25  1   
 44  22  47  1   
 45  22  48  1   
 46  23  26  1   
 47  23  27  1   
 48  24  49  1   
 49  24  50  1   
 50  24  51  1   
 51  25  28  1   
 52  25  52  1   
 53  25  53  1   
 54  26  29  2   
 55  27  28  2   
 56  27  54  1   
 57  28  29  1   
@<TRIPOS>SUBSTRUCTURE
  1 ****   5 GROUP 4 **** **** 0

# MOE 2024.06 (io_trps.svl 2023.06)
