@<TRIPOS>MOLECULE
NONAME
43 45 1 0 0 
SMALL
USER_CHARGES


@<TRIPOS>ATOM
  1 S        0.7590    -0.1810    -1.1250 S.o2  1 <1>   1.5010 
  2 O        1.8750    -1.0790    -0.9080 O.2   1 <1>  -0.6500 
  3 O        0.2730     0.0240    -2.4680 O.2   1 <1>  -0.6500 
  4 N        1.3600     1.3080    -0.5820 N.am  1 <1>  -0.8490 
  5 C       -0.5990    -0.5050    -0.0010 C.2   1 <1>  -0.0630 
  6 C        1.9330     1.3580     0.7900 C.3   1 <1>   0.2760 
  7 C        1.8680     2.2420    -1.6080 C.3   1 <1>   0.1960 
  8 C       -1.6140     0.2770     0.4000 C.2   1 <1>  -0.0400 
  9 C       -0.8520    -1.6750     0.6870 C.2   1 <1>   0.1080 
 10 C        1.7830     2.7580     1.4300 C.3   1 <1>   0.1200 
 11 C        3.4020     0.8530     0.9020 C.3   1 <1>   0.3430 
 12 C        3.2560     2.8410    -1.3000 C.3   1 <1>  -0.0800 
 13 O       -2.3890    -0.3320     1.2700 O.3   1 <1>  -0.0190 
 14 C       -1.9790     1.6980     0.0080 C.3   1 <1>  -0.0600 
 15 N       -1.8880    -1.5350     1.4250 N.2   1 <1>  -0.4100 
 16 C       -0.0640    -2.9680     0.6130 C.3   1 <1>  -0.0590 
 17 O        2.0760     3.8240     0.5720 O.3   1 <1>  -0.5600 
 18 N        4.0700     0.5810    -0.4160 N.4   1 <1>  -0.9590 
 19 C        3.2930     3.8100    -0.0980 C.3   1 <1>   0.1200 
 20 C        4.3780     1.7920    -1.2400 C.3   1 <1>   0.3430 
 21 C        5.2710    -0.2920    -0.2580 C.3   1 <1>   0.2630 
 22 H        1.3530     0.7040     1.4180 H     1 <1>   0.0800 
 23 H        1.9200     1.7520    -2.5660 H     1 <1>   0.0800 
 24 H        1.1560     3.0460    -1.7100 H     1 <1>   0.0800 
 25 H        2.3980     2.8530     2.3080 H     1 <1>   0.0800 
 26 H        0.7600     2.8890     1.7370 H     1 <1>   0.0800 
 27 H        3.3810    -0.0610     1.4720 H     1 <1>   0.0800 
 28 H        3.9830     1.5610     1.4670 H     1 <1>   0.0800 
 29 H        3.5020     3.4540    -2.1490 H     1 <1>   0.0800 
 30 H       -1.3120     2.0790    -0.7430 H     1 <1>   0.0800 
 31 H       -1.9370     2.3390     0.8700 H     1 <1>   0.0800 
 32 H       -2.9800     1.7170    -0.3850 H     1 <1>   0.0800 
 33 H        0.0480    -3.2770    -0.4100 H     1 <1>   0.0800 
 34 H       -0.5830    -3.7430     1.1480 H     1 <1>   0.0800 
 35 H        0.9070    -2.8380     1.0540 H     1 <1>   0.0800 
 36 H        3.3620     0.0210    -0.9370 H     1 <1>   0.4500 
 37 H        3.4520     4.8150    -0.4540 H     1 <1>   0.0800 
 38 H        4.0770     3.5840     0.6030 H     1 <1>   0.0800 
 39 H        5.2690     2.2650    -0.8620 H     1 <1>   0.0800 
 40 H        4.5910     1.4690    -2.2460 H     1 <1>   0.0800 
 41 H        6.0340     0.2140     0.3110 H     1 <1>   0.0800 
 42 H        5.6730    -0.5500    -1.2250 H     1 <1>   0.0800 
 43 H        5.0040    -1.2040     0.2510 H     1 <1>   0.0800 
@<TRIPOS>BOND
  1   1   2  2   
  2   1   3  2   
  3   1   4  am  
  4   1   5  1   
  5   4   6  1   
  6   4   7  1   
  7   5   8  2   
  8   5   9  1   
  9   6  10  1   
 10   6  11  1   
 11   6  22  1   
 12   7  12  1   
 13   7  23  1   
 14   7  24  1   
 15   8  13  1   
 16   8  14  1   
 17   9  15  2   
 18   9  16  1   
 19  10  17  1   
 20  10  25  1   
 21  10  26  1   
 22  11  18  1   
 23  11  27  1   
 24  11  28  1   
 25  12  19  1   
 26  12  20  1   
 27  12  29  1   
 28  13  15  1   
 29  14  30  1   
 30  14  31  1   
 31  14  32  1   
 32  16  33  1   
 33  16  34  1   
 34  16  35  1   
 35  17  19  1   
 36  18  20  1   
 37  18  21  1   
 38  18  36  1   
 39  19  37  1   
 40  19  38  1   
 41  20  39  1   
 42  20  40  1   
 43  21  41  1   
 44  21  42  1   
 45  21  43  1   
@<TRIPOS>SUBSTRUCTURE
  1 ****   4 GROUP 4 **** **** 0

# MOE 2024.06 (io_trps.svl 2023.06)
