@<TRIPOS>MOLECULE
NONAME
48 49 1 0 0 
SMALL
USER_CHARGES


@<TRIPOS>ATOM
  1 S       -1.3330    -0.5990    -1.2750 S.3   1 <1>  -0.0800 
  2 C       -1.6010    -1.3150     0.2820 C.2   1 <1>   0.4420 
  3 C       -0.8250     0.8320    -0.4470 C.2   1 <1>   0.1980 
  4 N       -1.3150    -0.5050     1.2380 N.2   1 <1>  -0.3380 
  5 N       -2.0610    -2.6130     0.2910 N.am  1 <1>  -0.4940 
  6 N       -0.8740     0.7160     0.8160 N.2   1 <1>  -0.3380 
  7 C       -0.3900     2.0300    -1.2600 C.3   1 <1>   0.0200 
  8 C       -2.4510    -3.4220     1.3290 C.2   1 <1>   0.5440 
  9 C       -0.0230     3.1680    -0.3000 C.3   1 <1>   0.3430 
 10 O       -2.5200    -2.9620     2.4500 O.2   1 <1>  -0.5700 
 11 C       -2.7640    -4.8180     1.0900 C.ar  1 <1>   0.0860 
 12 N        0.3640     4.4350    -1.0070 N.4   1 <1>  -0.9590 
 13 C       -3.2480    -5.3100    -0.1350 C.ar  1 <1>   0.0830 
 14 C       -2.5780    -5.7440     2.1220 C.ar  1 <1>  -0.1500 
 15 C        1.6680     4.3120    -1.7350 C.3   1 <1>   0.2630 
 16 C        0.4370     5.5550    -0.0170 C.3   1 <1>   0.2630 
 17 O       -3.4710    -4.4410    -1.1540 O.3   1 <1>  -0.3620 
 18 C       -3.4930    -6.6730    -0.3230 C.ar  1 <1>   0.0830 
 19 C       -2.8110    -7.0920     1.9450 C.ar  1 <1>  -0.1500 
 20 C       -4.8150    -4.1020    -1.4280 C.3   1 <1>   0.0400 
 21 O       -3.9650    -7.0960    -1.5320 O.3   1 <1>  -0.3630 
 22 C       -3.2420    -7.5690     0.7200 C.ar  1 <1>   0.0830 
 23 C       -5.1960    -7.7920    -1.5430 C.3   1 <1>   0.0400 
 24 O       -3.3870    -8.9070     0.5990 O.3   1 <1>  -0.3630 
 25 C       -2.4490    -9.5700    -0.2200 C.3   1 <1>   0.0400 
 26 H       -2.1840    -3.0500    -0.6240 H     1 <1>   0.3700 
 27 H       -1.2030     2.3280    -1.8960 H     1 <1>   0.0800 
 28 H        0.4550     1.7470    -1.8580 H     1 <1>   0.0800 
 29 H        0.7840     2.8430     0.3380 H     1 <1>   0.0800 
 30 H       -0.8750     3.3580     0.3340 H     1 <1>   0.0800 
 31 H       -0.3760     4.6700    -1.6880 H     1 <1>   0.4500 
 32 H       -2.2350    -5.3920     3.0820 H     1 <1>   0.1500 
 33 H        2.4580     4.0530    -1.0490 H     1 <1>   0.0800 
 34 H        1.9200     5.2470    -2.2110 H     1 <1>   0.0800 
 35 H        1.6080     3.5500    -2.4950 H     1 <1>   0.0800 
 36 H        1.1960     5.3540     0.7220 H     1 <1>   0.0800 
 37 H       -0.5090     5.6740     0.4860 H     1 <1>   0.0800 
 38 H        0.6780     6.4810    -0.5150 H     1 <1>   0.0800 
 39 H       -2.6500    -7.7850     2.7520 H     1 <1>   0.1500 
 40 H       -4.8230    -3.3190    -2.1640 H     1 <1>   0.0800 
 41 H       -5.2830    -3.7620    -0.5210 H     1 <1>   0.0800 
 42 H       -5.3260    -4.9650    -1.8130 H     1 <1>   0.0800 
 43 H       -5.5760    -7.7830    -2.5480 H     1 <1>   0.0800 
 44 H       -5.8860    -7.2980    -0.8820 H     1 <1>   0.0800 
 45 H       -5.0370    -8.8060    -1.2280 H     1 <1>   0.0800 
 46 H       -2.6650   -10.6230    -0.1960 H     1 <1>   0.0800 
 47 H       -1.4620    -9.3870     0.1650 H     1 <1>   0.0800 
 48 H       -2.5310    -9.2010    -1.2270 H     1 <1>   0.0800 
@<TRIPOS>BOND
  1   1   2  1   
  2   1   3  1   
  3   2   4  2   
  4   2   5  1   
  5   3   6  2   
  6   3   7  1   
  7   4   6  1   
  8   5   8  am  
  9   5  26  1   
 10   7   9  1   
 11   7  27  1   
 12   7  28  1   
 13   8  10  2   
 14   8  11  1   
 15   9  12  1   
 16   9  29  1   
 17   9  30  1   
 18  11  13  ar  
 19  11  14  ar  
 20  12  15  1   
 21  12  16  1   
 22  12  31  1   
 23  13  17  1   
 24  13  18  ar  
 25  14  19  ar  
 26  14  32  1   
 27  15  33  1   
 28  15  34  1   
 29  15  35  1   
 30  16  36  1   
 31  16  37  1   
 32  16  38  1   
 33  17  20  1   
 34  18  21  1   
 35  18  22  ar  
 36  19  22  ar  
 37  19  39  1   
 38  20  40  1   
 39  20  41  1   
 40  20  42  1   
 41  21  23  1   
 42  22  24  1   
 43  23  43  1   
 44  23  44  1   
 45  23  45  1   
 46  24  25  1   
 47  25  46  1   
 48  25  47  1   
 49  25  48  1   
@<TRIPOS>SUBSTRUCTURE
  1 ****   5 GROUP 4 **** **** 0

# MOE 2024.06 (io_trps.svl 2023.06)
