@<TRIPOS>MOLECULE
NONAME
49 53 1 0 0 
SMALL
USER_CHARGES


@<TRIPOS>ATOM
  1 O        1.5950    -1.1700     1.4600 O.2   1 <1>  -0.5700 
  2 C        1.3110    -1.9320     0.5550 C.2   1 <1>   0.4690 
  3 C        2.2880    -2.7440    -0.1160 C.ar  1 <1>   0.0860 
  4 C       -0.0310    -2.0610     0.1240 C.2   1 <1>  -0.1360 
  5 C        1.8510    -3.6090    -1.1260 C.ar  1 <1>   0.0830 
  6 C        3.6530    -2.7190     0.1830 C.ar  1 <1>  -0.1500 
  7 C       -0.4010    -2.9270    -0.8540 C.2   1 <1>   0.0910 
  8 O        0.5430    -3.6770    -1.4560 O.3   1 <1>  -0.1590 
  9 C        2.7500    -4.4160    -1.8090 C.ar  1 <1>  -0.1500 
 10 C        4.5450    -3.5240    -0.4970 C.ar  1 <1>  -0.1500 
 11 C       -1.7550    -3.1210    -1.3290 C.2   1 <1>   0.6160 
 12 C        4.0940    -4.3750    -1.4960 C.ar  1 <1>  -0.1500 
 13 O       -1.9800    -3.1020    -2.5240 O.2   1 <1>  -0.5700 
 14 N       -2.8070    -3.3080    -0.4560 N.am  1 <1>  -0.6600 
 15 C       -4.2220    -3.2750    -0.9620 C.3   1 <1>   0.1400 
 16 C       -2.6120    -3.7170     0.9700 C.3   1 <1>   0.1400 
 17 C       -5.1970    -2.8060     0.1340 C.3   1 <1>   0.1440 
 18 C       -3.8120    -4.5200     1.4870 C.3   1 <1>  -0.1600 
 19 C       -6.6140    -2.7140    -0.4020 C.ar  1 <1>   0.1670 
 20 C       -5.1500    -3.7650     1.3520 C.3   1 <1>  -0.1600 
 21 C       -4.9140    -1.3360     0.5540 C.3   1 <1>  -0.1600 
 22 N       -7.2270    -3.6500    -1.0920 N.ar  1 <1>  -0.6200 
 23 C       -7.2010    -1.5270    -0.0810 C.ar  1 <1>  -0.1430 
 24 C       -6.2770    -0.6420     0.7160 C.3   1 <1>  -0.0170 
 25 C       -8.4640    -3.3430    -1.4530 C.ar  1 <1>   0.4770 
 26 C       -8.4880    -1.3140    -0.5070 C.ar  1 <1>   0.1600 
 27 N       -9.1360    -2.2260    -1.2020 N.ar  1 <1>  -0.6200 
 28 C       -9.1920    -4.3960    -2.2520 C.3   1 <1>  -0.0970 
 29 H       -0.7450    -1.4280     0.6160 H     1 <1>   0.1500 
 30 H        4.0040    -2.0590     0.9580 H     1 <1>   0.1500 
 31 H        2.3900    -5.0710    -2.5830 H     1 <1>   0.1500 
 32 H        5.5940    -3.4930    -0.2540 H     1 <1>   0.1500 
 33 H        4.7940    -5.0000    -2.0240 H     1 <1>   0.1500 
 34 H       -4.4990    -4.2630    -1.2890 H     1 <1>   0.0800 
 35 H       -4.2960    -2.6190    -1.8120 H     1 <1>   0.0800 
 36 H       -2.4850    -2.8370     1.5760 H     1 <1>   0.0800 
 37 H       -1.7230    -4.3200     1.0560 H     1 <1>   0.0800 
 38 H       -3.6520    -4.7870     2.5170 H     1 <1>   0.0800 
 39 H       -3.8640    -5.4370     0.9250 H     1 <1>   0.0800 
 40 H       -5.9300    -4.5020     1.2550 H     1 <1>   0.0800 
 41 H       -5.3550    -3.2170     2.2540 H     1 <1>   0.0800 
 42 H       -4.3810    -0.8390    -0.2390 H     1 <1>   0.0800 
 43 H       -4.3230    -1.2650     1.4490 H     1 <1>   0.0800 
 44 H       -6.2580     0.3640     0.3320 H     1 <1>   0.0800 
 45 H       -6.5830    -0.6370     1.7470 H     1 <1>   0.0800 
 46 H       -8.9950    -0.3910    -0.2780 H     1 <1>   0.1500 
 47 H       -9.1110    -5.3440    -1.7550 H     1 <1>   0.0800 
 48 H       -8.7500    -4.4690    -3.2270 H     1 <1>   0.0800 
 49 H      -10.2310    -4.1410    -2.3530 H     1 <1>   0.0800 
@<TRIPOS>BOND
  1   1   2  2   
  2   2   3  1   
  3   2   4  1   
  4   3   5  ar  
  5   3   6  ar  
  6   4   7  2   
  7   4  29  1   
  8   5   8  1   
  9   5   9  ar  
 10   6  10  ar  
 11   6  30  1   
 12   7   8  1   
 13   7  11  1   
 14   9  12  ar  
 15   9  31  1   
 16  10  12  ar  
 17  10  32  1   
 18  11  13  2   
 19  11  14  am  
 20  12  33  1   
 21  14  15  1   
 22  14  16  1   
 23  15  17  1   
 24  15  34  1   
 25  15  35  1   
 26  16  18  1   
 27  16  36  1   
 28  16  37  1   
 29  17  19  1   
 30  17  20  1   
 31  17  21  1   
 32  18  20  1   
 33  18  38  1   
 34  18  39  1   
 35  19  22  ar  
 36  19  23  ar  
 37  20  40  1   
 38  20  41  1   
 39  21  24  1   
 40  21  42  1   
 41  21  43  1   
 42  22  25  ar  
 43  23  24  1   
 44  23  26  ar  
 45  24  44  1   
 46  24  45  1   
 47  25  27  ar  
 48  25  28  1   
 49  26  27  ar  
 50  26  46  1   
 51  28  47  1   
 52  28  48  1   
 53  28  49  1   
@<TRIPOS>SUBSTRUCTURE
  1 ****  14 GROUP 4 **** **** 0

# MOE 2024.06 (io_trps.svl 2023.06)
