@<TRIPOS>MOLECULE
NONAME
54 56 1 0 0 
SMALL
USER_CHARGES


@<TRIPOS>ATOM
  1 O       -0.5670     0.6700    -1.3300 O.2   1 <1>  -0.5700 
  2 C       -1.6280     1.2040    -1.0730 C.2   1 <1>   0.5440 
  3 N       -2.7520     0.4190    -0.8910 N.am  1 <1>  -0.6600 
  4 C       -1.6640     2.6400    -0.9470 C.ar  1 <1>   0.0860 
  5 C       -2.7730    -1.0350    -1.2780 C.3   1 <1>   0.1400 
  6 C       -4.0320     0.9460    -0.3400 C.3   1 <1>   0.1400 
  7 C       -0.8380     3.2840    -0.0310 C.ar  1 <1>   0.1600 
  8 C       -2.5020     3.4430    -1.7120 C.ar  1 <1>  -0.1500 
  9 C       -3.2170    -1.9510    -0.1090 C.3   1 <1>   0.0000 
 10 C       -4.4740     0.0930     0.8460 C.3   1 <1>  -0.1600 
 11 N       -0.8090     4.5820     0.2080 N.ar  1 <1>  -0.6200 
 12 C       -2.4770     4.7980    -1.4840 C.ar  1 <1>  -0.1500 
 13 C       -4.5540    -1.3740     0.4280 C.3   1 <1>   0.2000 
 14 C       -3.5340    -3.3650    -0.6600 C.3   1 <1>   0.1200 
 15 C       -2.1190    -1.9900     1.0030 C.3   1 <1>  -0.0160 
 16 C       -1.6340     5.3360    -0.5130 C.ar  1 <1>   0.4100 
 17 O       -5.0260    -2.1020     1.5080 O.3   1 <1>  -0.6800 
 18 O       -2.5230    -3.8380    -1.4850 O.3   1 <1>  -0.6800 
 19 C       -0.9310    -2.9070     0.7230 C.ar  1 <1>  -0.1440 
 20 N       -1.6280     6.6940    -0.2670 N.pl3 1 <1>  -0.8380 
 21 C        0.1620    -2.4540     0.0020 C.ar  1 <1>  -0.1500 
 22 C       -0.9360    -4.2130     1.1900 C.ar  1 <1>  -0.1500 
 23 C       -2.8950     7.4500    -0.0880 C.3   1 <1>   0.1290 
 24 C       -0.4180     7.3490     0.3020 C.3   1 <1>   0.1290 
 25 C        1.2260    -3.2970    -0.2660 C.ar  1 <1>  -0.1500 
 26 C        0.1270    -5.0580     0.9250 C.ar  1 <1>  -0.1500 
 27 C        1.2090    -4.6010     0.1940 C.ar  1 <1>  -0.1500 
 28 H       -3.4570    -1.1530    -2.1000 H     1 <1>   0.0800 
 29 H       -1.8060    -1.3440    -1.6340 H     1 <1>   0.0800 
 30 H       -3.9250     1.9640    -0.0090 H     1 <1>   0.0800 
 31 H       -4.7820     0.9200    -1.1120 H     1 <1>   0.0800 
 32 H       -0.1630     2.6710     0.5420 H     1 <1>   0.1500 
 33 H       -3.1420     3.0080    -2.4600 H     1 <1>   0.1500 
 34 H       -5.4440     0.4280     1.1680 H     1 <1>   0.0800 
 35 H       -3.7790     0.2290     1.6550 H     1 <1>   0.0800 
 36 H       -3.0970     5.4610    -2.0550 H     1 <1>   0.1500 
 37 H       -5.3020    -1.4610    -0.3440 H     1 <1>   0.0800 
 38 H       -4.4340    -3.3490    -1.2510 H     1 <1>   0.0800 
 39 H       -3.6730    -4.0670     0.1440 H     1 <1>   0.0800 
 40 H       -1.7450    -0.9970     1.1800 H     1 <1>   0.0800 
 41 H       -2.5500    -2.3190     1.9290 H     1 <1>   0.0800 
 42 H       -4.4870    -1.9250     2.3020 H     1 <1>   0.4000 
 43 H       -1.6710    -3.8500    -0.9870 H     1 <1>   0.4000 
 44 H        0.1950    -1.4410    -0.3590 H     1 <1>   0.1500 
 45 H       -1.7700    -4.5850     1.7600 H     1 <1>   0.1500 
 46 H       -2.9210     7.8930     0.8930 H     1 <1>   0.0800 
 47 H       -3.7450     6.7980    -0.1880 H     1 <1>   0.0800 
 48 H       -2.9590     8.2280    -0.8280 H     1 <1>   0.0800 
 49 H       -0.3740     8.3780    -0.0070 H     1 <1>   0.0800 
 50 H        0.4700     6.8480    -0.0450 H     1 <1>   0.0800 
 51 H       -0.4480     7.2950     1.3760 H     1 <1>   0.0800 
 52 H        2.0660    -2.9330    -0.8320 H     1 <1>   0.1500 
 53 H        0.1140    -6.0720     1.2860 H     1 <1>   0.1500 
 54 H        2.0360    -5.2570    -0.0160 H     1 <1>   0.1500 
@<TRIPOS>BOND
  1   1   2  2   
  2   2   3  am  
  3   2   4  1   
  4   3   5  1   
  5   3   6  1   
  6   4   7  ar  
  7   4   8  ar  
  8   5   9  1   
  9   5  28  1   
 10   5  29  1   
 11   6  10  1   
 12   6  30  1   
 13   6  31  1   
 14   7  11  ar  
 15   7  32  1   
 16   8  12  ar  
 17   8  33  1   
 18   9  13  1   
 19   9  14  1   
 20   9  15  1   
 21  10  13  1   
 22  10  34  1   
 23  10  35  1   
 24  11  16  ar  
 25  12  16  ar  
 26  12  36  1   
 27  13  17  1   
 28  13  37  1   
 29  14  18  1   
 30  14  38  1   
 31  14  39  1   
 32  15  19  1   
 33  15  40  1   
 34  15  41  1   
 35  16  20  1   
 36  17  42  1   
 37  18  43  1   
 38  19  21  ar  
 39  19  22  ar  
 40  20  23  1   
 41  20  24  1   
 42  21  25  ar  
 43  21  44  1   
 44  22  26  ar  
 45  22  45  1   
 46  23  46  1   
 47  23  47  1   
 48  23  48  1   
 49  24  49  1   
 50  24  50  1   
 51  24  51  1   
 52  25  27  ar  
 53  25  52  1   
 54  26  27  ar  
 55  26  53  1   
 56  27  54  1   
@<TRIPOS>SUBSTRUCTURE
  1 ****   3 GROUP 4 **** **** 0

# MOE 2024.06 (io_trps.svl 2023.06)
