@<TRIPOS>MOLECULE
NONAME
48 50 1 0 0 
SMALL
USER_CHARGES


@<TRIPOS>ATOM
  1 O        2.1680    -0.9140    -0.2150 O.co2 1 <1>  -0.9000 
  2 C        2.1660     0.2180     0.2730 C.2   1 <1>   0.9060 
  3 O        2.4560     0.4030     1.4630 O.co2 1 <1>  -0.9000 
  4 C        2.1050     1.4220    -0.6830 C.3   1 <1>  -0.1060 
  5 C        3.3800     1.3430    -1.5520 C.3   1 <1>   0.2000 
  6 C        2.1660     2.7860     0.0760 C.3   1 <1>  -0.1600 
  7 C        0.8260     1.3490    -1.5600 C.3   1 <1>  -0.0170 
  8 O        3.3850     0.1660    -2.2800 O.3   1 <1>  -0.6800 
  9 C        4.6700     1.3970    -0.6970 C.3   1 <1>   0.3430 
 10 C        3.5490     3.1720     0.6330 C.3   1 <1>   0.3430 
 11 C       -0.4440     1.7260    -0.8050 C.ar  1 <1>  -0.1440 
 12 N        4.4450     1.9880     0.6700 N.4   1 <1>  -0.9590 
 13 C       -1.0590     2.9490    -1.0260 C.ar  1 <1>  -0.1500 
 14 C       -0.9980     0.8470     0.1130 C.ar  1 <1>  -0.1500 
 15 C        5.6630     2.1280     1.5000 C.3   1 <1>   0.4860 
 16 C       -2.2060     3.2940    -0.3320 C.ar  1 <1>  -0.1500 
 17 C       -2.1430     1.1900     0.8100 C.ar  1 <1>  -0.1500 
 18 C        6.5870     3.1710     0.9130 C.ar  1 <1>  -0.1440 
 19 C       -2.7480     2.4150     0.5890 C.ar  1 <1>  -0.1500 
 20 C        7.5710     2.8360     0.0110 C.ar  1 <1>   0.1600 
 21 C        6.4840     4.4990     1.2570 C.ar  1 <1>   0.1600 
 22 N        8.3620     3.7360    -0.5230 N.ar  1 <1>  -0.6200 
 23 N        7.2620     5.4170     0.7350 N.ar  1 <1>  -0.6200 
 24 C        8.1630     4.9840    -0.1310 C.ar  1 <1>   0.4770 
 25 C        9.0670     6.0340    -0.7310 C.3   1 <1>  -0.0970 
 26 H        3.3970     2.1490    -2.2640 H     1 <1>   0.0800 
 27 H        1.4660     2.7600     0.8950 H     1 <1>   0.0800 
 28 H        1.8440     3.5800    -0.5730 H     1 <1>   0.0800 
 29 H        0.9350     2.0030    -2.4060 H     1 <1>   0.0800 
 30 H        0.7080     0.3540    -1.9550 H     1 <1>   0.0800 
 31 H        2.9570    -0.5410    -1.7060 H     1 <1>   0.4000 
 32 H        5.4060     1.9730    -1.2310 H     1 <1>   0.0800 
 33 H        5.0370     0.3890    -0.5840 H     1 <1>   0.0800 
 34 H        3.4230     3.5730     1.6260 H     1 <1>   0.0800 
 35 H        3.9890     3.9340     0.0100 H     1 <1>   0.0800 
 36 H        3.8470     1.2740     1.1680 H     1 <1>   0.4500 
 37 H       -0.6510     3.6400    -1.7410 H     1 <1>   0.1500 
 38 H       -0.5380    -0.1120     0.2930 H     1 <1>   0.1500 
 39 H        5.3850     2.4100     2.5020 H     1 <1>   0.0800 
 40 H        6.1710     1.1780     1.5540 H     1 <1>   0.0800 
 41 H       -2.6780     4.2440    -0.5080 H     1 <1>   0.1500 
 42 H       -2.5580     0.5000     1.5230 H     1 <1>   0.1500 
 43 H       -3.6370     2.6800     1.1320 H     1 <1>   0.1500 
 44 H        7.7210     1.8110    -0.2870 H     1 <1>   0.1500 
 45 H        5.7500     4.8270     1.9730 H     1 <1>   0.1500 
 46 H        9.5870     5.6400    -1.5860 H     1 <1>   0.0800 
 47 H        9.7850     6.3470     0.0030 H     1 <1>   0.0800 
 48 H        8.4850     6.8820    -1.0380 H     1 <1>   0.0800 
@<TRIPOS>BOND
  1   1   2  ar  
  2   2   3  ar  
  3   2   4  1   
  4   4   5  1   
  5   4   6  1   
  6   4   7  1   
  7   5   8  1   
  8   5   9  1   
  9   5  26  1   
 10   6  10  1   
 11   6  27  1   
 12   6  28  1   
 13   7  11  1   
 14   7  29  1   
 15   7  30  1   
 16   8  31  1   
 17   9  12  1   
 18   9  32  1   
 19   9  33  1   
 20  10  12  1   
 21  10  34  1   
 22  10  35  1   
 23  11  13  ar  
 24  11  14  ar  
 25  12  15  1   
 26  12  36  1   
 27  13  16  ar  
 28  13  37  1   
 29  14  17  ar  
 30  14  38  1   
 31  15  18  1   
 32  15  39  1   
 33  15  40  1   
 34  16  19  ar  
 35  16  41  1   
 36  17  19  ar  
 37  17  42  1   
 38  18  20  ar  
 39  18  21  ar  
 40  19  43  1   
 41  20  22  ar  
 42  20  44  1   
 43  21  23  ar  
 44  21  45  1   
 45  22  24  ar  
 46  23  24  ar  
 47  24  25  1   
 48  25  46  1   
 49  25  47  1   
 50  25  48  1   
@<TRIPOS>SUBSTRUCTURE
  1 ****  10 GROUP 4 **** **** 0

# MOE 2024.06 (io_trps.svl 2023.06)
