@<TRIPOS>MOLECULE
NONAME
52 54 1 0 0 
SMALL
USER_CHARGES


@<TRIPOS>ATOM
  1 CL      -0.1870     0.4570    -0.3220 Cl    1 <1>  -0.1770 
  2 C        0.0050     2.1900    -0.2980 C.ar  1 <1>   0.1770 
  3 C       -0.8010     2.9730    -1.1000 C.ar  1 <1>  -0.1500 
  4 C        0.9600     2.7560     0.5240 C.ar  1 <1>  -0.1500 
  5 C       -0.6510     4.3490    -1.0790 C.ar  1 <1>  -0.1500 
  6 C        1.1090     4.1320     0.5430 C.ar  1 <1>  -0.1500 
  7 C        0.3050     4.9380    -0.2550 C.ar  1 <1>  -0.1430 
  8 C        0.4910     6.4530    -0.2000 C.3   1 <1>   0.5670 
  9 N       -0.8040     7.0910     0.2500 N.4   1 <1>  -0.9590 
 10 C        1.0600     6.9220    -1.5750 C.3   1 <1>   0.2090 
 11 C       -0.6840     8.5740     0.4210 C.3   1 <1>   0.3430 
 12 C       -1.2930     6.4540     1.5150 C.3   1 <1>   0.3430 
 13 N        1.4140     8.3710    -1.6920 N.pl3 1 <1>  -0.8690 
 14 C       -2.0340     9.1820     0.8060 C.3   1 <1>  -0.1600 
 15 C       -2.6630     7.0120     1.8990 C.3   1 <1>  -0.1600 
 16 C        2.2850     9.0390    -0.9140 C.ar  1 <1>   0.7200 
 17 C       -2.6210     8.5340     2.0630 C.3   1 <1>  -0.1600 
 18 N        2.7320    10.1650    -1.4320 N.ar  1 <1>  -0.6200 
 19 N        2.5810     8.5350     0.2770 N.ar  1 <1>  -0.6200 
 20 C        3.5830    10.8530    -0.7110 C.ar  1 <1>   0.1670 
 21 C        3.4450     9.2330     0.9750 C.ar  1 <1>   0.1600 
 22 C        4.0250    10.4150     0.5380 C.ar  1 <1>   0.0860 
 23 C        4.0240    12.1720    -1.3250 C.3   1 <1>  -0.0970 
 24 C        4.9840    11.0630     1.3890 C.2   1 <1>   0.4230 
 25 O        4.8360    11.1170     2.5820 O.2   1 <1>  -0.5700 
 26 C        6.2670    11.6510     0.8350 C.3   1 <1>  -0.1790 
 27 H       -1.5340     2.5020    -1.7320 H     1 <1>   0.1500 
 28 H        1.5780     2.1210     1.1350 H     1 <1>   0.1500 
 29 H       -1.2860     4.9420    -1.7150 H     1 <1>   0.1500 
 30 H        1.8620     4.5620     1.1860 H     1 <1>   0.1500 
 31 H        1.2420     6.6540     0.5450 H     1 <1>   0.0800 
 32 H       -1.5050     6.9210    -0.4750 H     1 <1>   0.4500 
 33 H        0.3540     6.6770    -2.3470 H     1 <1>   0.0800 
 34 H        1.9520     6.3510    -1.7720 H     1 <1>   0.0800 
 35 H       -0.3650     9.0360    -0.4960 H     1 <1>   0.0800 
 36 H        0.0480     8.7960     1.1820 H     1 <1>   0.0800 
 37 H       -0.5920     6.6460     2.3110 H     1 <1>   0.0800 
 38 H       -1.3760     5.3860     1.3910 H     1 <1>   0.0800 
 39 H        1.3820     8.7640    -2.6380 H     1 <1>   0.4000 
 40 H       -2.7190     9.0750    -0.0180 H     1 <1>   0.0800 
 41 H       -1.9040    10.2370     0.9770 H     1 <1>   0.0800 
 42 H       -2.9760     6.5640     2.8260 H     1 <1>   0.0800 
 43 H       -3.3860     6.7390     1.1500 H     1 <1>   0.0800 
 44 H       -3.6140     8.9130     2.2420 H     1 <1>   0.0800 
 45 H       -2.0140     8.7890     2.9160 H     1 <1>   0.0800 
 46 H        3.7250     8.8620     1.9490 H     1 <1>   0.1500 
 47 H        3.2860    12.5170    -2.0280 H     1 <1>   0.0800 
 48 H        4.9520    12.0440    -1.8500 H     1 <1>   0.0800 
 49 H        4.1340    12.9300    -0.5720 H     1 <1>   0.0800 
 50 H        6.5060    11.2200    -0.1190 H     1 <1>   0.0800 
 51 H        7.0740    11.4420     1.5130 H     1 <1>   0.0800 
 52 H        6.1710    12.7160     0.7420 H     1 <1>   0.0800 
@<TRIPOS>BOND
  1   1   2  1   
  2   2   3  ar  
  3   2   4  ar  
  4   3   5  ar  
  5   3  27  1   
  6   4   6  ar  
  7   4  28  1   
  8   5   7  ar  
  9   5  29  1   
 10   6   7  ar  
 11   6  30  1   
 12   7   8  1   
 13   8   9  1   
 14   8  10  1   
 15   8  31  1   
 16   9  11  1   
 17   9  12  1   
 18   9  32  1   
 19  10  13  1   
 20  10  33  1   
 21  10  34  1   
 22  11  14  1   
 23  11  35  1   
 24  11  36  1   
 25  12  15  1   
 26  12  37  1   
 27  12  38  1   
 28  13  16  1   
 29  13  39  1   
 30  14  17  1   
 31  14  40  1   
 32  14  41  1   
 33  15  17  1   
 34  15  42  1   
 35  15  43  1   
 36  16  18  ar  
 37  16  19  ar  
 38  17  44  1   
 39  17  45  1   
 40  18  20  ar  
 41  19  21  ar  
 42  20  22  ar  
 43  20  23  1   
 44  21  22  ar  
 45  21  46  1   
 46  22  24  1   
 47  23  47  1   
 48  23  48  1   
 49  23  49  1   
 50  24  25  2   
 51  24  26  1   
 52  26  50  1   
 53  26  51  1   
 54  26  52  1   
@<TRIPOS>SUBSTRUCTURE
  1 ****   8 GROUP 4 **** **** 0

# MOE 2024.06 (io_trps.svl 2023.06)
