@<TRIPOS>MOLECULE
NONAME
52 53 1 0 0 
SMALL
USER_CHARGES


@<TRIPOS>ATOM
  1 O       -0.9660     0.4830     1.9570 O.2   1 <1>  -0.5700 
  2 C       -1.5370     0.8790     0.9670 C.2   1 <1>   0.5690 
  3 N       -2.2950     0.0230     0.1980 N.am  1 <1>  -0.6600 
  4 C       -1.3440     2.3720     0.6540 C.3   1 <1>  -0.0190 
  5 C       -3.1350     0.4100    -0.9750 C.3   1 <1>   0.2840 
  6 C       -2.3680    -1.4340     0.5430 C.3   1 <1>   0.1400 
  7 C       -2.6210     3.2210     0.8450 C.3   1 <1>  -0.1600 
  8 C       -0.6150     2.6350    -0.6890 C.3   1 <1>  -0.1600 
  9 C       -4.6240     0.2280    -0.6920 C.ar  1 <1>  -0.1440 
 10 C       -1.5230    -2.3030    -0.4100 C.3   1 <1>  -0.0800 
 11 C       -2.3500     4.7340     0.7110 C.3   1 <1>   0.2000 
 12 C       -0.9410     4.0110    -1.2970 C.3   1 <1>  -0.1600 
 13 C       -5.1750     0.5660     0.5370 C.ar  1 <1>  -0.1500 
 14 C       -5.4510    -0.2810    -1.6830 C.ar  1 <1>  -0.1500 
 15 C       -1.6370    -3.7780    -0.0040 C.3   1 <1>  -0.2400 
 16 C       -0.0440    -1.8890    -0.4190 C.3   1 <1>  -0.2400 
 17 O       -3.5030     5.3360     0.1720 O.3   1 <1>  -0.5600 
 18 C       -1.1350     5.0600    -0.1990 C.3   1 <1>   0.2000 
 19 C       -6.5280     0.3990     0.7710 C.ar  1 <1>  -0.1500 
 20 C       -6.8060    -0.4490    -1.4500 C.ar  1 <1>  -0.1500 
 21 C       -4.5440     5.5460     1.0760 C.3   1 <1>   0.0400 
 22 O       -1.3370     6.2810    -0.8090 O.3   1 <1>  -0.6800 
 23 C       -7.3450    -0.1090    -0.2230 C.ar  1 <1>  -0.1500 
 24 H       -0.6680     2.7280     1.4140 H     1 <1>   0.0800 
 25 H       -2.9640     1.4260    -1.2650 H     1 <1>   0.0800 
 26 H       -2.8540    -0.2000    -1.8150 H     1 <1>   0.0800 
 27 H       -2.0260    -1.5910     1.5520 H     1 <1>   0.0800 
 28 H       -3.3940    -1.7580     0.5100 H     1 <1>   0.0800 
 29 H       -3.0250     3.0240     1.8220 H     1 <1>   0.0800 
 30 H       -3.3600     2.9420     0.1200 H     1 <1>   0.0800 
 31 H        0.4440     2.5770    -0.5050 H     1 <1>   0.0800 
 32 H       -0.8360     1.8740    -1.4140 H     1 <1>   0.0800 
 33 H       -1.9160    -2.2110    -1.4070 H     1 <1>   0.0800 
 34 H       -2.1570     5.1630     1.6800 H     1 <1>   0.0800 
 35 H       -1.8480     3.9410    -1.8720 H     1 <1>   0.0800 
 36 H       -0.1430     4.3120    -1.9540 H     1 <1>   0.0800 
 37 H       -4.5500     0.9550     1.3220 H     1 <1>   0.1500 
 38 H       -5.0490    -0.5500    -2.6440 H     1 <1>   0.1500 
 39 H       -1.2470    -3.9290     0.9870 H     1 <1>   0.0800 
 40 H       -1.0850    -4.3990    -0.6880 H     1 <1>   0.0800 
 41 H       -2.6660    -4.0930    -0.0200 H     1 <1>   0.0800 
 42 H        0.3600    -1.9220     0.5780 H     1 <1>   0.0800 
 43 H        0.0660    -0.8880    -0.7950 H     1 <1>   0.0800 
 44 H        0.5300    -2.5480    -1.0470 H     1 <1>   0.0800 
 45 H       -0.2360     5.1290     0.3890 H     1 <1>   0.0800 
 46 H       -6.9450     0.6620     1.7280 H     1 <1>   0.1500 
 47 H       -7.4400    -0.8440    -2.2240 H     1 <1>   0.1500 
 48 H       -5.3470     6.0330     0.5520 H     1 <1>   0.0800 
 49 H       -4.1990     6.1780     1.8760 H     1 <1>   0.0800 
 50 H       -4.8870     4.6010     1.4580 H     1 <1>   0.0800 
 51 H       -2.3140     6.3840    -0.8750 H     1 <1>   0.4000 
 52 H       -8.3980    -0.2390    -0.0410 H     1 <1>   0.1500 
@<TRIPOS>BOND
  1   1   2  2   
  2   2   3  am  
  3   2   4  1   
  4   3   5  1   
  5   3   6  1   
  6   4   7  1   
  7   4   8  1   
  8   4  24  1   
  9   5   9  1   
 10   5  25  1   
 11   5  26  1   
 12   6  10  1   
 13   6  27  1   
 14   6  28  1   
 15   7  11  1   
 16   7  29  1   
 17   7  30  1   
 18   8  12  1   
 19   8  31  1   
 20   8  32  1   
 21   9  13  ar  
 22   9  14  ar  
 23  10  15  1   
 24  10  16  1   
 25  10  33  1   
 26  11  17  1   
 27  11  18  1   
 28  11  34  1   
 29  12  18  1   
 30  12  35  1   
 31  12  36  1   
 32  13  19  ar  
 33  13  37  1   
 34  14  20  ar  
 35  14  38  1   
 36  15  39  1   
 37  15  40  1   
 38  15  41  1   
 39  16  42  1   
 40  16  43  1   
 41  16  44  1   
 42  17  21  1   
 43  18  22  1   
 44  18  45  1   
 45  19  23  ar  
 46  19  46  1   
 47  20  23  ar  
 48  20  47  1   
 49  21  48  1   
 50  21  49  1   
 51  21  50  1   
 52  22  51  1   
 53  23  52  1   
@<TRIPOS>SUBSTRUCTURE
  1 ****   5 GROUP 4 **** **** 0

# MOE 2024.06 (io_trps.svl 2023.06)
