@<TRIPOS>MOLECULE
NONAME
55 56 1 0 0 
SMALL
USER_CHARGES


@<TRIPOS>ATOM
  1 O       -0.0180    -0.8130    -0.8500 O.3   1 <1>  -0.3630 
  2 C        0.0310    -2.1300    -0.5370 C.ar  1 <1>   0.0820 
  3 C       -0.0560     0.1840     0.1460 C.3   1 <1>   0.1200 
  4 C        0.1260    -3.0170    -1.5950 C.ar  1 <1>  -0.1500 
  5 C       -0.0050    -2.6220     0.7630 C.ar  1 <1>  -0.1500 
  6 C       -0.0840     1.5480    -0.5440 C.3   1 <1>  -0.1600 
  7 C        0.1720    -4.3800    -1.3690 C.ar  1 <1>  -0.1500 
  8 C        0.0400    -3.9870     0.9890 C.ar  1 <1>  -0.1500 
  9 C       -0.1300     2.6890     0.4770 C.3   1 <1>  -0.2400 
 10 C        0.1120    -4.8780    -0.0740 C.ar  1 <1>  -0.1430 
 11 C        0.1260    -6.3810     0.1710 C.3   1 <1>   0.4860 
 12 N       -1.2680    -6.9150     0.2130 N.4   1 <1>  -0.9590 
 13 C       -2.0010    -6.6800    -1.0680 C.3   1 <1>   0.3430 
 14 C       -2.0490    -6.3780     1.3610 C.3   1 <1>   0.3430 
 15 C       -3.3320    -7.4560    -1.0670 C.3   1 <1>   0.2000 
 16 C       -3.4130    -7.0620     1.4420 C.3   1 <1>  -0.1600 
 17 O       -2.9710    -8.8050    -0.9760 O.3   1 <1>  -0.6800 
 18 C       -4.2500    -7.0610     0.1300 C.3   1 <1>   0.0000 
 19 C       -5.3800    -8.1200     0.2890 C.3   1 <1>   0.1200 
 20 C       -4.9620    -5.6860    -0.0990 C.3   1 <1>  -0.1600 
 21 O       -6.1890    -7.8150     1.3760 O.3   1 <1>  -0.6800 
 22 C       -4.1620    -4.4590    -0.5740 C.3   1 <1>  -0.1600 
 23 C       -5.0450    -3.2090    -0.5790 C.3   1 <1>  -0.2400 
 24 H       -0.9430     0.0400     0.7380 H     1 <1>   0.0800 
 25 H        0.8240     0.0860     0.7580 H     1 <1>   0.0800 
 26 H        0.1680    -2.6240    -2.5970 H     1 <1>   0.1500 
 27 H       -0.0660    -1.9580     1.6050 H     1 <1>   0.1500 
 28 H        0.7960     1.6530    -1.1540 H     1 <1>   0.0800 
 29 H       -0.9520     1.6040    -1.1790 H     1 <1>   0.0800 
 30 H        0.2570    -5.0400    -2.2160 H     1 <1>   0.1500 
 31 H        0.0200    -4.3410     2.0060 H     1 <1>   0.1500 
 32 H        0.7370     2.6620     1.1130 H     1 <1>   0.0800 
 33 H       -1.0130     2.6140     1.0880 H     1 <1>   0.0800 
 34 H       -0.1490     3.6360    -0.0330 H     1 <1>   0.0800 
 35 H        0.6270    -6.5880     1.1020 H     1 <1>   0.0800 
 36 H        0.6780    -6.8640    -0.6180 H     1 <1>   0.0800 
 37 H       -1.2470    -7.9440     0.3060 H     1 <1>   0.4500 
 38 H       -2.1680    -5.6280    -1.2010 H     1 <1>   0.0800 
 39 H       -1.4090    -7.0240    -1.9000 H     1 <1>   0.0800 
 40 H       -1.5150    -6.5510     2.2810 H     1 <1>   0.0800 
 41 H       -2.1800    -5.3150     1.2500 H     1 <1>   0.0800 
 42 H       -3.8440    -7.3120    -2.0040 H     1 <1>   0.0800 
 43 H       -3.2430    -8.0790     1.7510 H     1 <1>   0.0800 
 44 H       -3.9800    -6.5990     2.2320 H     1 <1>   0.0800 
 45 H       -3.7130    -9.3890    -1.2400 H     1 <1>   0.4000 
 46 H       -4.9770    -9.1030     0.4660 H     1 <1>   0.0800 
 47 H       -6.0030    -8.1500    -0.5890 H     1 <1>   0.0800 
 48 H       -5.7480    -5.8350    -0.8210 H     1 <1>   0.0800 
 49 H       -5.4590    -5.4120     0.8170 H     1 <1>   0.0800 
 50 H       -6.9260    -8.4530     1.4620 H     1 <1>   0.4000 
 51 H       -3.3240    -4.2630     0.0670 H     1 <1>   0.0800 
 52 H       -3.8120    -4.6090    -1.5800 H     1 <1>   0.0800 
 53 H       -5.4060    -2.9940     0.4120 H     1 <1>   0.0800 
 54 H       -5.8910    -3.3430    -1.2320 H     1 <1>   0.0800 
 55 H       -4.4810    -2.3600    -0.9250 H     1 <1>   0.0800 
@<TRIPOS>BOND
  1   1   2  1   
  2   1   3  1   
  3   2   4  ar  
  4   2   5  ar  
  5   3   6  1   
  6   3  24  1   
  7   3  25  1   
  8   4   7  ar  
  9   4  26  1   
 10   5   8  ar  
 11   5  27  1   
 12   6   9  1   
 13   6  28  1   
 14   6  29  1   
 15   7  10  ar  
 16   7  30  1   
 17   8  10  ar  
 18   8  31  1   
 19   9  32  1   
 20   9  33  1   
 21   9  34  1   
 22  10  11  1   
 23  11  12  1   
 24  11  35  1   
 25  11  36  1   
 26  12  13  1   
 27  12  14  1   
 28  12  37  1   
 29  13  15  1   
 30  13  38  1   
 31  13  39  1   
 32  14  16  1   
 33  14  40  1   
 34  14  41  1   
 35  15  17  1   
 36  15  18  1   
 37  15  42  1   
 38  16  18  1   
 39  16  43  1   
 40  16  44  1   
 41  17  45  1   
 42  18  19  1   
 43  18  20  1   
 44  19  21  1   
 45  19  46  1   
 46  19  47  1   
 47  20  22  1   
 48  20  48  1   
 49  20  49  1   
 50  21  50  1   
 51  22  23  1   
 52  22  51  1   
 53  22  52  1   
 54  23  53  1   
 55  23  54  1   
 56  23  55  1   
@<TRIPOS>SUBSTRUCTURE
  1 ****  10 GROUP 4 **** **** 0

# MOE 2024.06 (io_trps.svl 2023.06)
