@<TRIPOS>MOLECULE
NONAME
56 59 1 0 0 
SMALL
USER_CHARGES


@<TRIPOS>ATOM
  1 O       -0.9200     0.7450    -0.3210 O.2   1 <1>  -0.5700 
  2 C       -2.0350     1.0750     0.0120 C.2   1 <1>   0.5690 
  3 N       -3.0450     0.1520     0.0780 N.am  1 <1>  -0.6600 
  4 C       -2.3010     2.5470     0.3470 C.3   1 <1>  -0.0190 
  5 C       -4.4810     0.4060     0.3500 C.3   1 <1>   0.1400 
  6 C       -2.8180    -1.2770    -0.2440 C.3   1 <1>   0.1400 
  7 C       -2.6700     3.3430    -0.9190 C.3   1 <1>  -0.1600 
  8 C       -1.1020     3.2140     1.0530 C.3   1 <1>  -0.1600 
  9 C       -5.1850    -0.9050     0.0020 C.3   1 <1>   0.2000 
 10 C       -4.1180    -1.9900     0.1310 C.3   1 <1>  -0.0800 
 11 C       -2.9190     4.8220    -0.6080 C.3   1 <1>   0.1400 
 12 C       -1.3750     4.6910     1.3490 C.3   1 <1>   0.1400 
 13 O       -6.2370    -1.1610     0.8660 O.3   1 <1>  -0.6800 
 14 C       -4.4150    -3.2280    -0.7290 C.3   1 <1>  -0.0170 
 15 N       -1.7280     5.3890     0.0820 N.am  1 <1>  -0.6600 
 16 C       -3.3320    -4.2820    -0.5640 C.ar  1 <1>  -0.1440 
 17 C       -1.0260     6.4390    -0.4660 C.2   1 <1>   0.5770 
 18 C       -2.2820    -4.4050    -1.4510 C.ar  1 <1>  -0.1500 
 19 C       -3.3450    -5.1730     0.4910 C.ar  1 <1>  -0.1500 
 20 O       -1.4350     7.0230    -1.4430 O.2   1 <1>  -0.5700 
 21 C        0.2940     6.9030     0.1540 C.3   1 <1>   0.0530 
 22 C       -1.3210    -5.3820    -1.2450 C.ar  1 <1>   0.1600 
 23 C       -2.3350    -6.1140     0.6050 C.ar  1 <1>   0.1600 
 24 C        1.1400     7.9170    -0.6710 C.3   1 <1>   0.0000 
 25 C        1.4730     5.9080    -0.0270 C.3   1 <1>   0.0000 
 26 N       -1.3230    -6.2390    -0.2370 N.ar  1 <1>  -0.6200 
 27 C        2.3930     7.1470    -0.1800 C.3   1 <1>   0.0000 
 28 H       -3.1300     2.5940     1.0280 H     1 <1>   0.0800 
 29 H       -4.6080     0.6420     1.3920 H     1 <1>   0.0800 
 30 H       -4.8500     1.2080    -0.2650 H     1 <1>   0.0800 
 31 H       -2.6180    -1.3640    -1.2980 H     1 <1>   0.0800 
 32 H       -1.9790    -1.6660     0.3080 H     1 <1>   0.0800 
 33 H       -3.5500     2.9260    -1.3730 H     1 <1>   0.0800 
 34 H       -1.8700     3.2710    -1.6360 H     1 <1>   0.0800 
 35 H       -0.2240     3.1430     0.4330 H     1 <1>   0.0800 
 36 H       -0.8930     2.6980     1.9730 H     1 <1>   0.0800 
 37 H       -5.5740    -0.8540    -1.0010 H     1 <1>   0.0800 
 38 H       -4.0300    -2.2850     1.1630 H     1 <1>   0.0800 
 39 H       -3.7790     4.9300     0.0310 H     1 <1>   0.0800 
 40 H       -3.1200     5.3510    -1.5250 H     1 <1>   0.0800 
 41 H       -0.5140     5.1310     1.8160 H     1 <1>   0.0800 
 42 H       -2.2000     4.7790     2.0350 H     1 <1>   0.0800 
 43 H       -5.9100    -1.2910     1.7770 H     1 <1>   0.4000 
 44 H       -4.4920    -2.9470    -1.7650 H     1 <1>   0.0800 
 45 H       -5.3630    -3.6450    -0.4370 H     1 <1>   0.0800 
 46 H       -2.1970    -3.7530    -2.3010 H     1 <1>   0.1500 
 47 H       -4.1300    -5.1440     1.2240 H     1 <1>   0.1500 
 48 H        0.1880     7.2260     1.1770 H     1 <1>   0.0000 
 49 H       -0.5090    -5.4610    -1.9460 H     1 <1>   0.1500 
 50 H       -2.3620    -6.8000     1.4340 H     1 <1>   0.1500 
 51 H        1.0100     7.8320    -1.7370 H     1 <1>   0.0000 
 52 H        1.0830     8.9280    -0.3100 H     1 <1>   0.0000 
 53 H        1.6880     5.3160     0.8450 H     1 <1>   0.0000 
 54 H        1.4030     5.3310    -0.9330 H     1 <1>   0.0000 
 55 H        2.7610     7.5110     0.7640 H     1 <1>   0.0000 
 56 H        3.1570     7.0340    -0.9280 H     1 <1>   0.0000 
@<TRIPOS>BOND
  1   1   2  2   
  2   2   3  am  
  3   2   4  1   
  4   3   5  1   
  5   3   6  1   
  6   4   7  1   
  7   4   8  1   
  8   4  28  1   
  9   5   9  1   
 10   5  29  1   
 11   5  30  1   
 12   6  10  1   
 13   6  31  1   
 14   6  32  1   
 15   7  11  1   
 16   7  33  1   
 17   7  34  1   
 18   8  12  1   
 19   8  35  1   
 20   8  36  1   
 21   9  10  1   
 22   9  13  1   
 23   9  37  1   
 24  10  14  1   
 25  10  38  1   
 26  11  15  1   
 27  11  39  1   
 28  11  40  1   
 29  12  15  1   
 30  12  41  1   
 31  12  42  1   
 32  13  43  1   
 33  14  16  1   
 34  14  44  1   
 35  14  45  1   
 36  15  17  am  
 37  16  18  ar  
 38  16  19  ar  
 39  17  20  2   
 40  17  21  1   
 41  18  22  ar  
 42  18  46  1   
 43  19  23  ar  
 44  19  47  1   
 45  21  24  1   
 46  21  25  1   
 47  21  48  1   
 48  22  26  ar  
 49  22  49  1   
 50  23  26  ar  
 51  23  50  1   
 52  24  27  1   
 53  24  51  1   
 54  24  52  1   
 55  25  27  1   
 56  25  53  1   
 57  25  54  1   
 58  27  55  1   
 59  27  56  1   
@<TRIPOS>SUBSTRUCTURE
  1 ****   2 GROUP 4 **** **** 0

# MOE 2024.06 (io_trps.svl 2023.06)
