@<TRIPOS>MOLECULE
NONAME
49 51 1 0 0 
SMALL
USER_CHARGES


@<TRIPOS>ATOM
  1 O        2.4740    -1.2920     2.5690 O.2   1 <1>  -0.5700 
  2 C        1.8280    -1.5830     1.5890 C.2   1 <1>   0.5690 
  3 N        1.5580    -0.7250     0.5740 N.am  1 <1>  -0.4930 
  4 C        1.2640    -3.0010     1.4610 C.3   1 <1>   0.1710 
  5 C        1.8570     0.6180     0.3970 C.2   1 <1>   0.3520 
  6 N        0.1550    -3.1230     0.4670 N.3   1 <1>  -0.8100 
  7 N        1.3670     1.2530    -0.6190 N.2   1 <1>  -0.7070 
  8 C        2.6520     1.4330     1.1990 C.2   1 <1>  -0.1500 
  9 C       -0.0220    -4.5390     0.0690 C.3   1 <1>   0.1100 
 10 C       -1.0900    -2.5320     0.9960 C.3   1 <1>   0.1100 
 11 N        1.8410     2.5090    -0.4950 N.pl3 1 <1>   0.3140 
 12 C        2.6200     2.6400     0.5970 C.2   1 <1>  -0.3020 
 13 C       -1.0150    -4.7530    -1.0870 C.3   1 <1>   0.2090 
 14 C       -2.0430    -2.1740    -0.1460 C.3   1 <1>  -0.1600 
 15 C        1.5100     3.5520    -1.4720 C.3   1 <1>   0.0160 
 16 N       -2.4300    -4.6200    -0.6430 N.pl3 1 <1>  -0.8380 
 17 C       -3.0470    -3.2790    -0.4910 C.3   1 <1>   0.2090 
 18 C       -3.0840    -5.7380    -0.1280 C.ar  1 <1>   0.1000 
 19 C       -3.7090    -6.6690    -0.9610 C.ar  1 <1>  -0.1430 
 20 C       -3.1170    -5.9390     1.2470 C.ar  1 <1>  -0.1500 
 21 C       -4.3350    -7.7750    -0.4100 C.ar  1 <1>  -0.1500 
 22 C       -3.7170    -6.4810    -2.4720 C.3   1 <1>  -0.0970 
 23 C       -3.7450    -7.0420     1.7920 C.ar  1 <1>  -0.1500 
 24 C       -4.3550    -7.9650     0.9620 C.ar  1 <1>  -0.1500 
 25 H        0.9570    -1.1130    -0.1550 H     1 <1>   0.3700 
 26 H        0.9290    -3.3320     2.4280 H     1 <1>   0.0800 
 27 H        2.0830    -3.6310     1.1630 H     1 <1>   0.0800 
 28 H        3.1620     1.1260     2.0940 H     1 <1>   0.1500 
 29 H       -0.3320    -5.1300     0.9130 H     1 <1>   0.0800 
 30 H        0.9290    -4.9170    -0.2620 H     1 <1>   0.0800 
 31 H       -0.8570    -1.6200     1.5210 H     1 <1>   0.0800 
 32 H       -1.5620    -3.1990     1.6970 H     1 <1>   0.0800 
 33 H        3.0970     3.5590     0.8790 H     1 <1>   0.1500 
 34 H       -0.8770    -5.7500    -1.4660 H     1 <1>   0.0800 
 35 H       -0.8070    -4.0660    -1.8870 H     1 <1>   0.0800 
 36 H       -1.4860    -1.8880    -1.0200 H     1 <1>   0.0800 
 37 H       -2.6150    -1.3140     0.1520 H     1 <1>   0.0800 
 38 H        0.4640     3.4900    -1.7060 H     1 <1>   0.0800 
 39 H        2.0880     3.3900    -2.3620 H     1 <1>   0.0800 
 40 H        1.7350     4.5170    -1.0600 H     1 <1>   0.0800 
 41 H       -3.5500    -3.0270    -1.4090 H     1 <1>   0.0800 
 42 H       -3.7930    -3.3320     0.2830 H     1 <1>   0.0800 
 43 H       -2.6420    -5.2220     1.8870 H     1 <1>   0.1500 
 44 H       -4.8160    -8.4970    -1.0450 H     1 <1>   0.1500 
 45 H       -4.0370    -5.4830    -2.7120 H     1 <1>   0.0800 
 46 H       -4.3850    -7.1760    -2.9450 H     1 <1>   0.0800 
 47 H       -2.7270    -6.6300    -2.8620 H     1 <1>   0.0800 
 48 H       -3.7590    -7.1840     2.8580 H     1 <1>   0.1500 
 49 H       -4.8450    -8.8260     1.3790 H     1 <1>   0.1500 
@<TRIPOS>BOND
  1   1   2  2   
  2   2   3  am  
  3   2   4  1   
  4   3   5  1   
  5   3  25  1   
  6   4   6  1   
  7   4  26  1   
  8   4  27  1   
  9   5   7  2   
 10   5   8  1   
 11   6   9  1   
 12   6  10  1   
 13   7  11  1   
 14   8  12  2   
 15   8  28  1   
 16   9  13  1   
 17   9  29  1   
 18   9  30  1   
 19  10  14  1   
 20  10  31  1   
 21  10  32  1   
 22  11  12  1   
 23  11  15  1   
 24  12  33  1   
 25  13  16  1   
 26  13  34  1   
 27  13  35  1   
 28  14  17  1   
 29  14  36  1   
 30  14  37  1   
 31  15  38  1   
 32  15  39  1   
 33  15  40  1   
 34  16  17  1   
 35  16  18  1   
 36  17  41  1   
 37  17  42  1   
 38  18  19  ar  
 39  18  20  ar  
 40  19  21  ar  
 41  19  22  1   
 42  20  23  ar  
 43  20  43  1   
 44  21  24  ar  
 45  21  44  1   
 46  22  45  1   
 47  22  46  1   
 48  22  47  1   
 49  23  24  ar  
 50  23  48  1   
 51  24  49  1   
@<TRIPOS>SUBSTRUCTURE
  1 ****  10 GROUP 4 **** **** 0

# MOE 2024.06 (io_trps.svl 2023.06)
