@<TRIPOS>MOLECULE
NONAME
48 50 1 0 0 
SMALL
USER_CHARGES


@<TRIPOS>ATOM
  1 F       -2.4600    -0.2900     3.1850 F     1 <1>  -0.1900 
  2 C       -3.0900    -0.9980     2.2740 C.ar  1 <1>   0.1900 
  3 C       -3.1700    -0.6290     0.9350 C.ar  1 <1>   0.3920 
  4 C       -3.7100    -2.1550     2.6700 C.ar  1 <1>   0.1600 
  5 O       -2.6310     0.4820     0.3840 O.3   1 <1>  -0.3630 
  6 N       -3.8200    -1.3850     0.0740 N.ar  1 <1>  -0.6200 
  7 N       -4.3700    -2.9140     1.8150 N.ar  1 <1>  -0.6200 
  8 C       -1.7600     1.3670     1.0550 C.3   1 <1>   0.0400 
  9 C       -4.3530    -2.4870     0.5580 C.ar  1 <1>   0.7200 
 10 N       -4.9850    -3.2300    -0.3800 N.pl3 1 <1>  -0.8690 
 11 C       -4.9880    -4.7270    -0.3300 C.3   1 <1>   0.2090 
 12 C       -6.3950    -5.3880    -0.1990 C.3   1 <1>   0.1440 
 13 C       -6.1690    -6.8830    -0.5310 C.ar  1 <1>  -0.1430 
 14 C       -7.4200    -4.8050    -1.2170 C.3   1 <1>  -0.1600 
 15 C       -6.9700    -5.2070     1.2320 C.3   1 <1>  -0.1600 
 16 C       -6.1660    -7.8880     0.4360 C.ar  1 <1>  -0.1500 
 17 C       -5.9320    -7.2600    -1.8510 C.ar  1 <1>  -0.1500 
 18 C       -8.3720    -3.7360    -0.6720 C.3   1 <1>   0.3430 
 19 C       -7.4390    -3.7940     1.6010 C.3   1 <1>   0.3430 
 20 C       -5.9510    -9.2110     0.0920 C.ar  1 <1>  -0.1500 
 21 C       -5.7170    -8.5820    -2.1970 C.ar  1 <1>  -0.1500 
 22 N       -7.6920    -2.9700     0.3920 N.4   1 <1>  -0.9590 
 23 C       -5.7290    -9.5620    -1.2250 C.ar  1 <1>  -0.1500 
 24 C       -8.3610    -1.6790     0.7140 C.3   1 <1>   0.2630 
 25 H       -3.6630    -2.4570     3.7030 H     1 <1>   0.1500 
 26 H       -1.4270     2.1060     0.3480 H     1 <1>   0.0800 
 27 H       -0.9150     0.8160     1.4290 H     1 <1>   0.0800 
 28 H       -2.2940     1.8490     1.8550 H     1 <1>   0.0800 
 29 H       -4.6900    -2.8760    -1.2970 H     1 <1>   0.4000 
 30 H       -4.3630    -5.0750     0.4770 H     1 <1>   0.0800 
 31 H       -4.5240    -5.0770    -1.2360 H     1 <1>   0.0800 
 32 H       -8.0460    -5.5970    -1.5890 H     1 <1>   0.0800 
 33 H       -6.9000    -4.4030    -2.0690 H     1 <1>   0.0800 
 34 H       -6.2410    -5.5060     1.9640 H     1 <1>   0.0800 
 35 H       -7.8190    -5.8580     1.3450 H     1 <1>   0.0800 
 36 H       -6.3230    -7.6820     1.4770 H     1 <1>   0.1500 
 37 H       -5.9060    -6.5300    -2.6400 H     1 <1>   0.1500 
 38 H       -9.2520    -4.2070    -0.2640 H     1 <1>   0.0800 
 39 H       -8.6760    -3.0820    -1.4740 H     1 <1>   0.0800 
 40 H       -6.6830    -3.3140     2.2000 H     1 <1>   0.0800 
 41 H       -8.3350    -3.8640     2.1960 H     1 <1>   0.0800 
 42 H       -5.9560    -9.9730     0.8530 H     1 <1>   0.1500 
 43 H       -5.5390    -8.8500    -3.2240 H     1 <1>   0.1500 
 44 H       -6.7370    -2.7680     0.0240 H     1 <1>   0.4500 
 45 H       -5.5630   -10.5920    -1.4900 H     1 <1>   0.1500 
 46 H       -9.3460    -1.8560     1.1130 H     1 <1>   0.0800 
 47 H       -8.4470    -1.0730    -0.1730 H     1 <1>   0.0800 
 48 H       -7.7830    -1.1350     1.4440 H     1 <1>   0.0800 
@<TRIPOS>BOND
  1   1   2  1   
  2   2   3  ar  
  3   2   4  ar  
  4   3   5  1   
  5   3   6  ar  
  6   4   7  ar  
  7   4  25  1   
  8   5   8  1   
  9   6   9  ar  
 10   7   9  ar  
 11   8  26  1   
 12   8  27  1   
 13   8  28  1   
 14   9  10  1   
 15  10  11  1   
 16  10  29  1   
 17  11  12  1   
 18  11  30  1   
 19  11  31  1   
 20  12  13  1   
 21  12  14  1   
 22  12  15  1   
 23  13  16  ar  
 24  13  17  ar  
 25  14  18  1   
 26  14  32  1   
 27  14  33  1   
 28  15  19  1   
 29  15  34  1   
 30  15  35  1   
 31  16  20  ar  
 32  16  36  1   
 33  17  21  ar  
 34  17  37  1   
 35  18  22  1   
 36  18  38  1   
 37  18  39  1   
 38  19  22  1   
 39  19  40  1   
 40  19  41  1   
 41  20  23  ar  
 42  20  42  1   
 43  21  23  ar  
 44  21  43  1   
 45  22  24  1   
 46  22  44  1   
 47  23  45  1   
 48  24  46  1   
 49  24  47  1   
 50  24  48  1   
@<TRIPOS>SUBSTRUCTURE
  1 ****  10 GROUP 4 **** **** 0

# MOE 2024.06 (io_trps.svl 2023.06)
