@<TRIPOS>MOLECULE
NONAME
44 46 1 0 0 
SMALL
USER_CHARGES


@<TRIPOS>ATOM
  1 O       -0.4020     0.8140     0.8700 O.2   1 <1>  -0.5700 
  2 C       -0.3380     1.8750     0.3050 C.2   1 <1>   0.5690 
  3 N       -0.7960     3.0000     0.9000 N.am  1 <1>  -0.7300 
  4 C        0.2450     1.9610    -1.1100 C.3   1 <1>   0.1810 
  5 C       -0.7110     4.3450     0.2810 C.3   1 <1>   0.3640 
  6 O        0.6490     3.2690    -1.4560 O.3   1 <1>  -0.5600 
  7 C       -2.0220     5.0890     0.4940 C.ar  1 <1>  -0.1440 
  8 C       -0.3380     4.2630    -1.2190 C.3   1 <1>   0.2610 
  9 C       -3.2490     4.4550     0.3440 C.ar  1 <1>   0.1600 
 10 C       -2.0090     6.4290     0.8320 C.ar  1 <1>  -0.1500 
 11 C        0.0810     5.6480    -1.7320 C.2   1 <1>   0.5690 
 12 N       -4.4280     5.0330     0.5070 N.ar  1 <1>  -0.6200 
 13 C       -3.2280     7.0470     1.0010 C.ar  1 <1>  -0.1500 
 14 O       -0.6870     6.1830    -2.4990 O.2   1 <1>  -0.5700 
 15 N        1.2360     6.2900    -1.3280 N.am  1 <1>  -0.6600 
 16 C       -4.3900     6.3150     0.8290 C.ar  1 <1>   0.1600 
 17 C        1.5240     7.6860    -1.7660 C.3   1 <1>   0.1400 
 18 C        2.3390     5.6830    -0.5270 C.3   1 <1>   0.1400 
 19 C        1.7730     8.5680    -0.5410 C.3   1 <1>  -0.1600 
 20 C        2.5980     6.5370     0.7150 C.3   1 <1>  -0.1600 
 21 C        2.8890     7.9890     0.3360 C.3   1 <1>   0.2000 
 22 O        2.9610     8.7090     1.5240 O.3   1 <1>  -0.5600 
 23 C        3.7190     9.8770     1.4740 C.3   1 <1>   0.0400 
 24 H       -1.1680     2.9350     1.8500 H     1 <1>   0.3700 
 25 H       -0.4900     1.6330    -1.8230 H     1 <1>   0.0800 
 26 H        1.1060     1.3220    -1.1810 H     1 <1>   0.0800 
 27 H        0.0620     4.8860     0.7960 H     1 <1>   0.0800 
 28 H       -1.2130     3.9730    -1.7740 H     1 <1>   0.0800 
 29 H       -3.2690     3.4120     0.0770 H     1 <1>   0.1500 
 30 H       -1.0910     6.9810     0.9550 H     1 <1>   0.1500 
 31 H       -3.2820     8.0890     1.2610 H     1 <1>   0.1500 
 32 H       -5.3370     6.8100     0.9630 H     1 <1>   0.1500 
 33 H        2.3930     7.6810    -2.4020 H     1 <1>   0.0800 
 34 H        0.7030     8.0900    -2.3330 H     1 <1>   0.0800 
 35 H        2.1090     4.6790    -0.2230 H     1 <1>   0.0800 
 36 H        3.2270     5.6430    -1.1340 H     1 <1>   0.0800 
 37 H        0.8620     8.6360     0.0270 H     1 <1>   0.0800 
 38 H        2.0400     9.5520    -0.8760 H     1 <1>   0.0800 
 39 H        3.4380     6.1360     1.2520 H     1 <1>   0.0800 
 40 H        1.7370     6.4990     1.3570 H     1 <1>   0.0800 
 41 H        3.8390     8.0420    -0.1710 H     1 <1>   0.0800 
 42 H        3.7110    10.3200     2.4550 H     1 <1>   0.0800 
 43 H        3.2840    10.5610     0.7680 H     1 <1>   0.0800 
 44 H        4.7300     9.6340     1.1970 H     1 <1>   0.0800 
@<TRIPOS>BOND
  1   1   2  2   
  2   2   3  am  
  3   2   4  1   
  4   3   5  1   
  5   3  24  1   
  6   4   6  1   
  7   4  25  1   
  8   4  26  1   
  9   5   7  1   
 10   5   8  1   
 11   5  27  1   
 12   6   8  1   
 13   7   9  ar  
 14   7  10  ar  
 15   8  11  1   
 16   8  28  1   
 17   9  12  ar  
 18   9  29  1   
 19  10  13  ar  
 20  10  30  1   
 21  11  14  2   
 22  11  15  am  
 23  12  16  ar  
 24  13  16  ar  
 25  13  31  1   
 26  15  17  1   
 27  15  18  1   
 28  16  32  1   
 29  17  19  1   
 30  17  33  1   
 31  17  34  1   
 32  18  20  1   
 33  18  35  1   
 34  18  36  1   
 35  19  21  1   
 36  19  37  1   
 37  19  38  1   
 38  20  21  1   
 39  20  39  1   
 40  20  40  1   
 41  21  22  1   
 42  21  41  1   
 43  22  23  1   
 44  23  42  1   
 45  23  43  1   
 46  23  44  1   
@<TRIPOS>SUBSTRUCTURE
  1 ****   5 GROUP 4 **** **** 0

# MOE 2024.06 (io_trps.svl 2023.06)
