@<TRIPOS>MOLECULE
NONAME
50 52 1 0 0 
SMALL
USER_CHARGES


@<TRIPOS>ATOM
  1 O       -1.8670     0.6150    -0.9880 O.2   1 <1>  -0.5700 
  2 C       -1.9710     0.9290     0.1710 C.2   1 <1>   0.5690 
  3 N       -2.0020     0.0260     1.1840 N.am  1 <1>  -0.7300 
  4 C       -2.0690     2.4100     0.5410 C.3   1 <1>  -0.0190 
  5 C       -2.0680    -1.4510     1.0810 C.3   1 <1>   0.5070 
  6 C       -2.6430     3.2820    -0.5960 C.3   1 <1>  -0.1600 
  7 C       -0.6970     2.9540     1.0040 C.3   1 <1>  -0.1600 
  8 C       -1.0160    -2.0800     0.1520 C.ar  1 <1>  -0.1440 
  9 C       -3.5200    -1.8500     0.8030 C.ar  1 <1>  -0.1440 
 10 C       -2.8760     4.7430    -0.1530 C.3   1 <1>   0.2000 
 11 C       -0.5830     4.4910     0.9410 C.3   1 <1>  -0.1600 
 12 C        0.2370    -1.4970    -0.0080 C.ar  1 <1>  -0.1500 
 13 C       -1.2750    -3.2720    -0.5170 C.ar  1 <1>  -0.1500 
 14 C       -4.2960    -2.4000     1.8160 C.ar  1 <1>  -0.1500 
 15 C       -4.0880    -1.6710    -0.4520 C.ar  1 <1>  -0.1500 
 16 O       -2.6370     5.5890    -1.2510 O.3   1 <1>  -0.5600 
 17 C       -1.9550     5.1660     1.0220 C.3   1 <1>   0.2000 
 18 C        1.1960    -2.0780    -0.8200 C.ar  1 <1>  -0.1500 
 19 C       -0.3190    -3.8560    -1.3300 C.ar  1 <1>  -0.1500 
 20 C       -5.6110    -2.7610     1.5790 C.ar  1 <1>  -0.1500 
 21 C       -5.4030    -2.0310    -0.6900 C.ar  1 <1>  -0.1500 
 22 C       -3.6510     5.6220    -2.2080 C.3   1 <1>   0.0400 
 23 O       -1.7630     6.5310     0.9810 O.3   1 <1>  -0.6800 
 24 C        0.9180    -3.2590    -1.4830 C.ar  1 <1>  -0.1500 
 25 C       -6.1660    -2.5770     0.3260 C.ar  1 <1>  -0.1500 
 26 H       -2.1820     0.3640     2.1250 H     1 <1>   0.3700 
 27 H       -2.7550     2.4790     1.3660 H     1 <1>   0.0800 
 28 H       -1.8250    -1.8290     2.0580 H     1 <1>   0.0800 
 29 H       -3.5720     2.8600    -0.9360 H     1 <1>   0.0800 
 30 H       -1.9460     3.2630    -1.4170 H     1 <1>   0.0800 
 31 H       -0.5160     2.6230     2.0120 H     1 <1>   0.0800 
 32 H        0.0800     2.5350     0.3860 H     1 <1>   0.0800 
 33 H       -3.8950     4.8740     0.1670 H     1 <1>   0.0800 
 34 H       -0.1260     4.7660     0.0060 H     1 <1>   0.0800 
 35 H        0.0470     4.8420     1.7400 H     1 <1>   0.0800 
 36 H        0.4770    -0.5790     0.4960 H     1 <1>   0.1500 
 37 H       -2.2270    -3.7630    -0.4130 H     1 <1>   0.1500 
 38 H       -3.8840    -2.5540     2.7980 H     1 <1>   0.1500 
 39 H       -3.5020    -1.2520    -1.2530 H     1 <1>   0.1500 
 40 H       -2.4160     4.9260     1.9650 H     1 <1>   0.0800 
 41 H        2.1560    -1.6080    -0.9380 H     1 <1>   0.1500 
 42 H       -0.5400    -4.7740    -1.8440 H     1 <1>   0.1500 
 43 H       -6.2040    -3.1870     2.3700 H     1 <1>   0.1500 
 44 H       -5.8280    -1.8870    -1.6680 H     1 <1>   0.1500 
 45 H       -3.3660     6.3230    -2.9720 H     1 <1>   0.0800 
 46 H       -4.5680     5.9450    -1.7450 H     1 <1>   0.0800 
 47 H       -3.7690     4.6450    -2.6440 H     1 <1>   0.0800 
 48 H       -1.8040     6.7770     0.0290 H     1 <1>   0.4000 
 49 H        1.6610    -3.7100    -2.1170 H     1 <1>   0.1500 
 50 H       -7.1880    -2.8580     0.1400 H     1 <1>   0.1500 
@<TRIPOS>BOND
  1   1   2  2   
  2   2   3  am  
  3   2   4  1   
  4   3   5  1   
  5   3  26  1   
  6   4   6  1   
  7   4   7  1   
  8   4  27  1   
  9   5   8  1   
 10   5   9  1   
 11   5  28  1   
 12   6  10  1   
 13   6  29  1   
 14   6  30  1   
 15   7  11  1   
 16   7  31  1   
 17   7  32  1   
 18   8  12  ar  
 19   8  13  ar  
 20   9  14  ar  
 21   9  15  ar  
 22  10  16  1   
 23  10  17  1   
 24  10  33  1   
 25  11  17  1   
 26  11  34  1   
 27  11  35  1   
 28  12  18  ar  
 29  12  36  1   
 30  13  19  ar  
 31  13  37  1   
 32  14  20  ar  
 33  14  38  1   
 34  15  21  ar  
 35  15  39  1   
 36  16  22  1   
 37  17  23  1   
 38  17  40  1   
 39  18  24  ar  
 40  18  41  1   
 41  19  24  ar  
 42  19  42  1   
 43  20  25  ar  
 44  20  43  1   
 45  21  25  ar  
 46  21  44  1   
 47  22  45  1   
 48  22  46  1   
 49  22  47  1   
 50  23  48  1   
 51  24  49  1   
 52  25  50  1   
@<TRIPOS>SUBSTRUCTURE
  1 ****   2 GROUP 4 **** **** 0

# MOE 2024.06 (io_trps.svl 2023.06)
