@<TRIPOS>MOLECULE
NONAME
42 43 1 0 0 
SMALL
USER_CHARGES


@<TRIPOS>ATOM
  1 O        2.2040    -1.3880     1.7310 O.co2 1 <1>  -0.9000 
  2 C        2.8630    -1.1240     0.7280 C.2   1 <1>   0.9060 
  3 O        3.1950    -1.9610    -0.1200 O.co2 1 <1>  -0.9000 
  4 C        3.3260     0.3000     0.5300 C.3   1 <1>  -0.1860 
  5 C        4.8540     0.3240     0.4200 C.3   1 <1>   0.2000 
  6 C        2.6420     0.9860    -0.6830 C.3   1 <1>  -0.1600 
  7 O        5.2210    -0.3980    -0.7050 O.3   1 <1>  -0.6800 
  8 C        5.3630     1.7690     0.2590 C.3   1 <1>   0.3430 
  9 C        3.5850     1.8910    -1.4830 C.3   1 <1>   0.3430 
 10 N        4.4430     2.6680    -0.5450 N.4   1 <1>  -0.9590 
 11 C        5.2270     3.7090    -1.2500 C.3   1 <1>   0.4860 
 12 C        5.7590     4.6970    -0.2310 C.ar  1 <1>  -0.1440 
 13 C        7.0650     4.5860     0.2310 C.ar  1 <1>   0.0820 
 14 C        4.9440     5.7170     0.2380 C.ar  1 <1>  -0.1500 
 15 O        7.8140     3.5630    -0.2590 O.3   1 <1>  -0.3620 
 16 C        7.5460     5.5000     1.1650 C.ar  1 <1>  -0.1500 
 17 C        5.4260     6.6210     1.1680 C.ar  1 <1>  -0.1500 
 18 C        9.1060     3.2890     0.2450 C.3   1 <1>   0.1200 
 19 C        6.7250     6.5110     1.6310 C.ar  1 <1>  -0.1500 
 20 C        9.6170     2.0010    -0.4010 C.3   1 <1>   0.1200 
 21 O       10.8570     1.6880     0.1340 O.3   1 <1>  -0.6800 
 22 H        3.0550     0.8360     1.4200 H     1 <1>   0.0800 
 23 H        5.3100    -0.1530     1.2730 H     1 <1>   0.0800 
 24 H        1.7860     1.5420    -0.3450 H     1 <1>   0.0800 
 25 H        2.2750     0.2290    -1.3570 H     1 <1>   0.0800 
 26 H        4.6360    -1.2190    -0.7040 H     1 <1>   0.4000 
 27 H        6.3330     1.7180    -0.2070 H     1 <1>   0.0800 
 28 H        5.4960     2.2000     1.2370 H     1 <1>   0.0800 
 29 H        3.0080     2.5490    -2.1120 H     1 <1>   0.0800 
 30 H        4.2100     1.2760    -2.1120 H     1 <1>   0.0800 
 31 H        3.8240     3.1340     0.1250 H     1 <1>   0.4500 
 32 H        6.0420     3.2570    -1.7920 H     1 <1>   0.0800 
 33 H        4.6000     4.2320    -1.9520 H     1 <1>   0.0800 
 34 H        3.9310     5.8250    -0.1130 H     1 <1>   0.1500 
 35 H        8.5510     5.4500     1.5410 H     1 <1>   0.1500 
 36 H        4.7950     7.4150     1.5330 H     1 <1>   0.1500 
 37 H        9.7470     4.1180     0.0010 H     1 <1>   0.0800 
 38 H        9.0360     3.1600     1.3110 H     1 <1>   0.0800 
 39 H        7.0980     7.2180     2.3530 H     1 <1>   0.1500 
 40 H        9.7240     2.1120    -1.4660 H     1 <1>   0.0800 
 41 H        8.9540     1.1830    -0.1810 H     1 <1>   0.0800 
 42 H       11.5570     2.2710    -0.2210 H     1 <1>   0.4000 
@<TRIPOS>BOND
  1   1   2  ar  
  2   2   3  ar  
  3   2   4  1   
  4   4   5  1   
  5   4   6  1   
  6   4  22  1   
  7   5   7  1   
  8   5   8  1   
  9   5  23  1   
 10   6   9  1   
 11   6  24  1   
 12   6  25  1   
 13   7  26  1   
 14   8  10  1   
 15   8  27  1   
 16   8  28  1   
 17   9  10  1   
 18   9  29  1   
 19   9  30  1   
 20  10  11  1   
 21  10  31  1   
 22  11  12  1   
 23  11  32  1   
 24  11  33  1   
 25  12  13  ar  
 26  12  14  ar  
 27  13  15  1   
 28  13  16  ar  
 29  14  17  ar  
 30  14  34  1   
 31  15  18  1   
 32  16  19  ar  
 33  16  35  1   
 34  17  19  ar  
 35  17  36  1   
 36  18  20  1   
 37  18  37  1   
 38  18  38  1   
 39  19  39  1   
 40  20  21  1   
 41  20  40  1   
 42  20  41  1   
 43  21  42  1   
@<TRIPOS>SUBSTRUCTURE
  1 ****   8 GROUP 4 **** **** 0

# MOE 2024.06 (io_trps.svl 2023.06)
