@<TRIPOS>MOLECULE
NONAME
48 50 1 0 0 
SMALL
USER_CHARGES


@<TRIPOS>ATOM
  1 O       -2.8400     0.8000    -1.4090 O.2   1 <1>  -0.5700 
  2 C       -2.1500     0.6720    -0.4210 C.2   1 <1>   0.5690 
  3 N       -1.8650    -0.5650     0.0690 N.am  1 <1>  -0.7300 
  4 C       -1.5870     1.9230     0.3170 C.3   1 <1>   0.3410 
  5 C       -2.3680    -1.8420    -0.4750 C.3   1 <1>   0.2200 
  6 O       -0.8850     1.4800     1.4710 O.3   1 <1>  -0.5600 
  7 C       -2.7440     2.8360     0.7570 C.3   1 <1>  -0.2400 
  8 C       -0.6150     2.6750    -0.6090 C.3   1 <1>  -0.2400 
  9 C       -3.5360    -2.3470     0.3580 C.3   1 <1>  -0.0800 
 10 C       -1.3370    -2.9700    -0.3930 C.3   1 <1>   0.1200 
 11 C       -0.2540     2.4060     2.3110 C.3   1 <1>   0.0400 
 12 C       -3.3150    -3.8550     0.3250 C.3   1 <1>   0.1200 
 13 C       -4.8950    -1.8870    -0.2020 C.3   1 <1>  -0.0170 
 14 O       -1.9340    -4.0110     0.3220 O.3   1 <1>  -0.5600 
 15 C       -6.1400    -2.3530     0.5620 C.ar  1 <1>  -0.1440 
 16 C       -7.4220    -2.2320    -0.0320 C.ar  1 <1>   0.0000 
 17 C       -6.0920    -2.8800     1.8220 C.ar  1 <1>  -0.1500 
 18 C       -8.5400    -2.7050     0.6970 C.ar  1 <1>   0.3100 
 19 C       -7.6620    -1.6590    -1.3050 C.ar  1 <1>  -0.1500 
 20 C       -7.2620    -3.3070     2.4610 C.ar  1 <1>   0.1600 
 21 N       -8.4440    -3.2400     1.9390 N.ar  1 <1>  -0.6200 
 22 C       -9.8180    -2.6140     0.1220 C.ar  1 <1>  -0.1500 
 23 C       -8.9210    -1.5820    -1.8350 C.ar  1 <1>  -0.1500 
 24 C      -10.0150    -2.0690    -1.1160 C.ar  1 <1>  -0.1500 
 25 H       -1.3250    -0.5950     0.9400 H     1 <1>   0.3700 
 26 H       -2.6540    -1.7120    -1.5050 H     1 <1>   0.0800 
 27 H       -3.3580     3.0730    -0.0940 H     1 <1>   0.0800 
 28 H       -2.3870     3.7630     1.1650 H     1 <1>   0.0800 
 29 H       -3.3570     2.3300     1.4800 H     1 <1>   0.0800 
 30 H       -1.1070     2.8970    -1.5400 H     1 <1>   0.0800 
 31 H        0.2400     2.0600    -0.8210 H     1 <1>   0.0800 
 32 H       -0.2990     3.6070    -0.1800 H     1 <1>   0.0800 
 33 H       -3.4180    -2.0100     1.3720 H     1 <1>   0.0800 
 34 H       -0.4440    -2.6720     0.1260 H     1 <1>   0.0800 
 35 H       -1.0920    -3.3370    -1.3740 H     1 <1>   0.0800 
 36 H        0.2030     1.8590     3.1170 H     1 <1>   0.0800 
 37 H       -0.9780     3.0880     2.7190 H     1 <1>   0.0800 
 38 H        0.5100     2.9340     1.7700 H     1 <1>   0.0800 
 39 H       -3.7030    -4.2930    -0.5790 H     1 <1>   0.0800 
 40 H       -3.7230    -4.3610     1.1820 H     1 <1>   0.0800 
 41 H       -4.9610    -2.2410    -1.2150 H     1 <1>   0.0800 
 42 H       -4.9050    -0.8110    -0.2350 H     1 <1>   0.0800 
 43 H       -5.1770    -2.9890     2.3710 H     1 <1>   0.1500 
 44 H       -6.8410    -1.2660    -1.8740 H     1 <1>   0.1500 
 45 H       -7.1700    -3.7190     3.4510 H     1 <1>   0.1500 
 46 H      -10.6450    -2.9910     0.6970 H     1 <1>   0.1500 
 47 H       -9.0860    -1.1460    -2.8050 H     1 <1>   0.1500 
 48 H      -11.0010    -2.0050    -1.5440 H     1 <1>   0.1500 
@<TRIPOS>BOND
  1   1   2  2   
  2   2   3  am  
  3   2   4  1   
  4   3   5  1   
  5   3  25  1   
  6   4   6  1   
  7   4   7  1   
  8   4   8  1   
  9   5   9  1   
 10   5  10  1   
 11   5  26  1   
 12   6  11  1   
 13   7  27  1   
 14   7  28  1   
 15   7  29  1   
 16   8  30  1   
 17   8  31  1   
 18   8  32  1   
 19   9  12  1   
 20   9  13  1   
 21   9  33  1   
 22  10  14  1   
 23  10  34  1   
 24  10  35  1   
 25  11  36  1   
 26  11  37  1   
 27  11  38  1   
 28  12  14  1   
 29  12  39  1   
 30  12  40  1   
 31  13  15  1   
 32  13  41  1   
 33  13  42  1   
 34  15  16  ar  
 35  15  17  ar  
 36  16  18  ar  
 37  16  19  ar  
 38  17  20  ar  
 39  17  43  1   
 40  18  21  ar  
 41  18  22  ar  
 42  19  23  ar  
 43  19  44  1   
 44  20  21  ar  
 45  20  45  1   
 46  22  24  ar  
 47  22  46  1   
 48  23  24  ar  
 49  23  47  1   
 50  24  48  1   
@<TRIPOS>SUBSTRUCTURE
  1 ****  13 GROUP 4 **** **** 0

# MOE 2024.06 (io_trps.svl 2023.06)
