@<TRIPOS>MOLECULE
NONAME
47 48 1 0 0 
SMALL
USER_CHARGES


@<TRIPOS>ATOM
  1 S        0.3070     0.1770     0.6600 S.o2  1 <1>   1.3330 
  2 O       -0.9050     0.3200     1.4350 O.2   1 <1>  -0.6500 
  3 O        1.5890     0.1630     1.3260 O.2   1 <1>  -0.6500 
  4 N        0.1860    -1.2400    -0.2660 N.am  1 <1>  -0.8490 
  5 C        0.3100     1.4640    -0.5860 C.3   1 <1>  -0.0550 
  6 C       -0.5060    -2.3150     0.4520 C.3   1 <1>   0.1160 
  7 C        1.4780    -1.7250    -0.7640 C.3   1 <1>   0.1160 
  8 C        0.2950     2.8830     0.0050 C.3   1 <1>  -0.0800 
  9 C        0.2020     3.9570    -1.0760 C.3   1 <1>   0.2000 
 10 C        1.5540     3.2560     0.7920 C.3   1 <1>   0.1400 
 11 O       -1.1170     4.1320    -1.4600 O.3   1 <1>  -0.6800 
 12 C        0.7870     5.2210    -0.4490 C.3   1 <1>   0.1400 
 13 N        1.6870     4.7200     0.6160 N.am  1 <1>  -0.6600 
 14 C        2.4690     5.5160     1.4190 C.2   1 <1>   0.5440 
 15 O        3.1270     4.9960     2.2990 O.2   1 <1>  -0.5700 
 16 C        2.5030     6.9520     1.2240 C.ar  1 <1>   0.0860 
 17 C        3.3010     7.5770     0.2530 C.ar  1 <1>  -0.1430 
 18 C        1.6850     7.7470     2.0230 C.ar  1 <1>  -0.1500 
 19 C        3.2350     8.9570     0.0770 C.ar  1 <1>  -0.1430 
 20 C        4.2440     6.7350    -0.6100 C.3   1 <1>  -0.0970 
 21 C        1.6290     9.1150     1.8570 C.ar  1 <1>  -0.1500 
 22 C        2.4000     9.7160     0.8820 C.ar  1 <1>  -0.1500 
 23 C        4.0600     9.6790    -0.9820 C.3   1 <1>  -0.0970 
 24 H        1.1700     1.3490    -1.2170 H     1 <1>   0.0800 
 25 H       -0.5630     1.3440    -1.1990 H     1 <1>   0.0800 
 26 H       -0.5790    -3.1920    -0.1680 H     1 <1>   0.0800 
 27 H       -1.5050    -2.0040     0.7100 H     1 <1>   0.0800 
 28 H        0.0230    -2.5630     1.3570 H     1 <1>   0.0800 
 29 H        1.3300    -2.5680    -1.4160 H     1 <1>   0.0800 
 30 H        2.1100    -2.0230     0.0570 H     1 <1>   0.0800 
 31 H        1.9760    -0.9500    -1.3200 H     1 <1>   0.0800 
 32 H       -0.5400     2.9810     0.6780 H     1 <1>   0.0800 
 33 H        0.7750     3.6890    -1.9470 H     1 <1>   0.0800 
 34 H        2.4290     2.7760     0.3860 H     1 <1>   0.0800 
 35 H        1.4640     3.0010     1.8360 H     1 <1>   0.0800 
 36 H       -1.6770     4.3310    -0.6830 H     1 <1>   0.4000 
 37 H        0.0170     5.8280    -0.0060 H     1 <1>   0.0800 
 38 H        1.3400     5.7910    -1.1750 H     1 <1>   0.0800 
 39 H        1.0870     7.2750     2.7830 H     1 <1>   0.1500 
 40 H        5.1740     7.2490    -0.7720 H     1 <1>   0.0800 
 41 H        3.7870     6.5330    -1.5610 H     1 <1>   0.0800 
 42 H        4.4870     5.7990    -0.1400 H     1 <1>   0.0800 
 43 H        0.9900     9.7120     2.4840 H     1 <1>   0.1500 
 44 H        2.3470    10.7830     0.7580 H     1 <1>   0.1500 
 45 H        3.7420    10.7000    -1.0890 H     1 <1>   0.0800 
 46 H        3.9500     9.1960    -1.9350 H     1 <1>   0.0800 
 47 H        5.0980     9.6760    -0.7020 H     1 <1>   0.0800 
@<TRIPOS>BOND
  1   1   2  2   
  2   1   3  2   
  3   1   4  am  
  4   1   5  1   
  5   4   6  1   
  6   4   7  1   
  7   5   8  1   
  8   5  24  1   
  9   5  25  1   
 10   6  26  1   
 11   6  27  1   
 12   6  28  1   
 13   7  29  1   
 14   7  30  1   
 15   7  31  1   
 16   8   9  1   
 17   8  10  1   
 18   8  32  1   
 19   9  11  1   
 20   9  12  1   
 21   9  33  1   
 22  10  13  1   
 23  10  34  1   
 24  10  35  1   
 25  11  36  1   
 26  12  13  1   
 27  12  37  1   
 28  12  38  1   
 29  13  14  am  
 30  14  15  2   
 31  14  16  1   
 32  16  17  ar  
 33  16  18  ar  
 34  17  19  ar  
 35  17  20  1   
 36  18  21  ar  
 37  18  39  1   
 38  19  22  ar  
 39  19  23  1   
 40  20  40  1   
 41  20  41  1   
 42  20  42  1   
 43  21  22  ar  
 44  21  43  1   
 45  22  44  1   
 46  23  45  1   
 47  23  46  1   
 48  23  47  1   
@<TRIPOS>SUBSTRUCTURE
  1 ****  13 GROUP 4 **** **** 0

# MOE 2024.06 (io_trps.svl 2023.06)
