@<TRIPOS>MOLECULE
NONAME
40 42 1 0 0 
SMALL
USER_CHARGES


@<TRIPOS>ATOM
  1 F       -0.4040    -0.6650     0.9640 F     1 <1>  -0.1900 
  2 C       -0.9210    -1.8030     0.5750 C.ar  1 <1>   0.1900 
  3 C       -0.1840    -2.7410    -0.1560 C.ar  1 <1>   0.0820 
  4 C       -2.2360    -2.0350     0.9290 C.ar  1 <1>  -0.1500 
  5 O        1.1140    -2.6280    -0.5650 O.3   1 <1>  -0.3630 
  6 C       -0.8190    -3.9190    -0.5150 C.ar  1 <1>  -0.1500 
  7 C       -2.8370    -3.2230     0.5570 C.ar  1 <1>  -0.1500 
  8 C        1.8770    -1.4560    -0.3800 C.3   1 <1>   0.0400 
  9 C       -2.1470    -4.1910    -0.1750 C.ar  1 <1>   0.0530 
 10 C       -2.7590    -5.4420    -0.5560 C.2   1 <1>   0.0870 
 11 O       -2.0150    -6.5250    -0.5900 O.3   1 <1>  -0.0190 
 12 C       -4.0200    -5.8220    -0.9010 C.2   1 <1>  -0.2330 
 13 N       -2.6860    -7.5960    -0.9220 N.2   1 <1>  -0.4100 
 14 C       -3.8900    -7.1930    -1.1170 C.2   1 <1>   0.3720 
 15 C       -5.2500    -5.0990    -1.0410 C.2   1 <1>   1.0330 
 16 N       -4.9360    -8.0220    -1.4890 N.pl3 1 <1>  -0.8520 
 17 O       -5.2670    -3.8610    -1.1050 O.co2 1 <1>  -0.9000 
 18 O       -6.3400    -5.7040    -1.0840 O.co2 1 <1>  -0.9000 
 19 C       -5.1500    -9.2040    -0.6150 C.3   1 <1>   0.2090 
 20 C       -6.6460    -9.5240    -0.4800 C.3   1 <1>   0.2000 
 21 O       -6.8210   -10.6480     0.3260 O.3   1 <1>  -0.5600 
 22 C       -7.4740    -8.4310     0.1930 C.3   1 <1>  -0.1600 
 23 C       -8.1140   -10.6560     0.8290 C.3   1 <1>   0.1200 
 24 C       -8.4710    -9.1920     1.0550 C.3   1 <1>  -0.1600 
 25 H       -2.7850    -1.2980     1.4860 H     1 <1>   0.1500 
 26 H       -0.2670    -4.6480    -1.0790 H     1 <1>   0.1500 
 27 H       -3.8620    -3.4030     0.8310 H     1 <1>   0.1500 
 28 H        2.8360    -1.6060    -0.8410 H     1 <1>   0.0800 
 29 H        2.0030    -1.2820     0.6740 H     1 <1>   0.0800 
 30 H        1.3710    -0.6310    -0.8500 H     1 <1>   0.0800 
 31 H       -5.7820    -7.4100    -1.4700 H     1 <1>   0.4000 
 32 H       -4.6410   -10.0470    -1.0480 H     1 <1>   0.0800 
 33 H       -4.7390    -9.0140     0.3620 H     1 <1>   0.0800 
 34 H       -7.0550    -9.7610    -1.4480 H     1 <1>   0.0800 
 35 H       -6.8480    -7.8010     0.8030 H     1 <1>   0.0800 
 36 H       -7.9550    -7.8120    -0.5440 H     1 <1>   0.0800 
 37 H       -8.7550   -11.1020     0.0870 H     1 <1>   0.0800 
 38 H       -8.1360   -11.2320     1.7370 H     1 <1>   0.0800 
 39 H       -9.4880    -8.9940     0.7640 H     1 <1>   0.0800 
 40 H       -8.3440    -8.9360     2.0920 H     1 <1>   0.0800 
@<TRIPOS>BOND
  1   1   2  1   
  2   2   3  ar  
  3   2   4  ar  
  4   3   5  1   
  5   3   6  ar  
  6   4   7  ar  
  7   4  25  1   
  8   5   8  1   
  9   6   9  ar  
 10   6  26  1   
 11   7   9  ar  
 12   7  27  1   
 13   8  28  1   
 14   8  29  1   
 15   8  30  1   
 16   9  10  1   
 17  10  11  1   
 18  10  12  2   
 19  11  13  1   
 20  12  14  1   
 21  12  15  1   
 22  13  14  2   
 23  14  16  1   
 24  15  17  ar  
 25  15  18  ar  
 26  16  19  1   
 27  16  31  1   
 28  19  20  1   
 29  19  32  1   
 30  19  33  1   
 31  20  21  1   
 32  20  22  1   
 33  20  34  1   
 34  21  23  1   
 35  22  24  1   
 36  22  35  1   
 37  22  36  1   
 38  23  24  1   
 39  23  37  1   
 40  23  38  1   
 41  24  39  1   
 42  24  40  1   
@<TRIPOS>SUBSTRUCTURE
  1 ****  12 GROUP 4 **** **** 0

# MOE 2024.06 (io_trps.svl 2023.06)
