@<TRIPOS>MOLECULE
NONAME
39 40 1 0 0 
SMALL
USER_CHARGES


@<TRIPOS>ATOM
  1 S       -0.7470     0.1770     1.0130 S.3   1 <1>  -0.0800 
  2 C       -1.0270    -1.1340    -0.0840 C.2   1 <1>   0.4420 
  3 C       -0.4080     1.1700    -0.3660 C.2   1 <1>   0.1980 
  4 N       -0.8590    -0.7880    -1.3060 N.2   1 <1>  -0.3380 
  5 N       -1.3630    -2.3480     0.4740 N.am  1 <1>  -0.4940 
  6 N       -0.5050     0.5240    -1.4590 N.2   1 <1>  -0.3380 
  7 C       -0.0500     2.6340    -0.0890 C.3   1 <1>   0.3800 
  8 C       -1.8360    -3.4770    -0.1460 C.2   1 <1>   0.7160 
  9 O       -0.2750     3.4620    -1.1940 O.3   1 <1>  -0.5600 
 10 C        1.4280     2.7850     0.2660 C.3   1 <1>  -0.2400 
 11 O       -2.2840    -3.4070    -1.2720 O.2   1 <1>  -0.5700 
 12 C       -1.8240    -4.7440     0.5770 C.2   1 <1>   0.1410 
 13 C       -1.6100     3.6300    -1.5620 C.3   1 <1>   0.0400 
 14 N       -2.6930    -5.7830     0.2020 N.2   1 <1>  -0.5650 
 15 C       -1.0220    -5.0650     1.6200 C.2   1 <1>  -0.1100 
 16 C       -2.5470    -6.8320     0.9060 C.2   1 <1>   0.1980 
 17 S       -1.3370    -6.6880     2.1520 S.3   1 <1>  -0.0800 
 18 C       -3.2970    -8.1530     0.7690 C.3   1 <1>   0.5230 
 19 N       -4.1110    -8.1420    -0.4960 N.4   1 <1>  -0.9590 
 20 C       -5.2400    -9.1170    -0.4720 C.3   1 <1>   0.2630 
 21 C       -3.2480    -8.3090    -1.7080 C.3   1 <1>   0.2630 
 22 H       -1.2830    -2.3970     1.4830 H     1 <1>   0.3700 
 23 H       -0.6500     3.0050     0.7230 H     1 <1>   0.0800 
 24 H        2.0350     2.4320    -0.5480 H     1 <1>   0.0800 
 25 H        1.6600     2.2110     1.1440 H     1 <1>   0.0800 
 26 H        1.6550     3.8180     0.4590 H     1 <1>   0.0800 
 27 H       -1.6430     4.3310    -2.3780 H     1 <1>   0.0800 
 28 H       -2.1670     4.0200    -0.7290 H     1 <1>   0.0800 
 29 H       -2.0190     2.6890    -1.8880 H     1 <1>   0.0800 
 30 H       -0.2550    -4.5160     2.1380 H     1 <1>   0.1500 
 31 H       -3.9450    -8.2650     1.6220 H     1 <1>   0.0800 
 32 H       -2.5980    -8.9710     0.7560 H     1 <1>   0.0800 
 33 H       -4.4800    -7.1730    -0.5470 H     1 <1>   0.4500 
 34 H       -4.8660   -10.1260    -0.4100 H     1 <1>   0.0800 
 35 H       -5.8300    -9.0250    -1.3700 H     1 <1>   0.0800 
 36 H       -5.8800    -8.9320     0.3760 H     1 <1>   0.0800 
 37 H       -2.7680    -9.2740    -1.7040 H     1 <1>   0.0800 
 38 H       -2.4870    -7.5420    -1.7330 H     1 <1>   0.0800 
 39 H       -3.8410    -8.2210    -2.6040 H     1 <1>   0.0800 
@<TRIPOS>BOND
  1   1   2  1   
  2   1   3  1   
  3   2   4  2   
  4   2   5  1   
  5   3   6  2   
  6   3   7  1   
  7   4   6  1   
  8   5   8  am  
  9   5  22  1   
 10   7   9  1   
 11   7  10  1   
 12   7  23  1   
 13   8  11  2   
 14   8  12  1   
 15   9  13  1   
 16  10  24  1   
 17  10  25  1   
 18  10  26  1   
 19  12  14  1   
 20  12  15  2   
 21  13  27  1   
 22  13  28  1   
 23  13  29  1   
 24  14  16  2   
 25  15  17  1   
 26  15  30  1   
 27  16  17  1   
 28  16  18  1   
 29  18  19  1   
 30  18  31  1   
 31  18  32  1   
 32  19  20  1   
 33  19  21  1   
 34  19  33  1   
 35  20  34  1   
 36  20  35  1   
 37  20  36  1   
 38  21  37  1   
 39  21  38  1   
 40  21  39  1   
@<TRIPOS>SUBSTRUCTURE
  1 ****   8 GROUP 4 **** **** 0

# MOE 2024.06 (io_trps.svl 2023.06)
