@<TRIPOS>MOLECULE
NONAME
49 52 1 0 0 
SMALL
USER_CHARGES


@<TRIPOS>ATOM
  1 O       -0.3750    -2.2390    -1.2760 O.2   1 <1>  -0.5700 
  2 C        0.6780    -2.8170    -1.2090 C.2   1 <1>   0.5690 
  3 N        1.2050    -3.4550    -2.2750 N.am  1 <1>  -0.7300 
  4 C        1.4560    -2.8630     0.0880 C.3   1 <1>  -0.0990 
  5 C        2.4880    -4.1860    -2.2270 C.3   1 <1>   0.1400 
  6 C        2.9540    -2.6230    -0.1750 C.3   1 <1>  -0.0800 
  7 C        3.5180    -3.3850    -1.4020 C.3   1 <1>  -0.0800 
  8 C        3.8390    -3.0000     1.0200 C.3   1 <1>  -0.1600 
  9 C        4.6610    -4.2560    -0.8650 C.3   1 <1>  -0.1600 
 10 C        5.1250    -3.5240     0.3930 C.3   1 <1>   0.2200 
 11 N        5.9200    -4.3500     1.3520 N.am  1 <1>  -0.6600 
 12 C        7.0020    -3.8230     2.0300 C.2   1 <1>   0.6160 
 13 C        5.4820    -5.7580     1.6080 C.3   1 <1>   0.0600 
 14 O        7.6740    -4.5430     2.7430 O.2   1 <1>  -0.5700 
 15 C        7.3480    -2.4270     1.9250 C.2   1 <1>  -0.0140 
 16 C        8.2160    -1.9770     0.8600 C.ar  1 <1>   0.0280 
 17 C        6.8510    -1.5100     2.8020 C.2   1 <1>  -0.1360 
 18 C        8.4890    -0.6020     0.7480 C.ar  1 <1>   0.1170 
 19 C        8.7970    -2.8400    -0.0750 C.ar  1 <1>  -0.1500 
 20 C        7.1330    -0.1260     2.6890 C.2   1 <1>   0.6160 
 21 N        7.9350     0.2770     1.6700 N.am  1 <1>  -0.5470 
 22 C        9.3040    -0.1330    -0.2770 C.ar  1 <1>  -0.1500 
 23 C        9.6040    -2.3680    -1.0900 C.ar  1 <1>  -0.1440 
 24 O        6.6800     0.7120     3.4450 O.2   1 <1>  -0.5700 
 25 C        9.8560    -1.0060    -1.1890 C.ar  1 <1>  -0.1500 
 26 C       10.2270    -3.3160    -2.0990 C.3   1 <1>  -0.0970 
 27 H        0.6620    -3.4560    -3.1410 H     1 <1>   0.3700 
 28 H        1.0730    -2.1200     0.7630 H     1 <1>   0.0800 
 29 H        1.2980    -3.8310     0.5250 H     1 <1>   0.0800 
 30 H        2.3110    -5.1460    -1.7740 H     1 <1>   0.0800 
 31 H        2.8580    -4.3420    -3.2260 H     1 <1>   0.0800 
 32 H        3.0820    -1.5710    -0.3720 H     1 <1>   0.0800 
 33 H        3.9510    -2.6500    -2.0610 H     1 <1>   0.0800 
 34 H        3.3730    -3.7770     1.5980 H     1 <1>   0.0800 
 35 H        4.0270    -2.1500     1.6520 H     1 <1>   0.0800 
 36 H        5.4590    -4.3510    -1.5790 H     1 <1>   0.0800 
 37 H        4.2750    -5.2280    -0.6210 H     1 <1>   0.0800 
 38 H        5.7030    -2.6770     0.0640 H     1 <1>   0.0800 
 39 H        4.4100    -5.8130     1.6710 H     1 <1>   0.0800 
 40 H        5.8880    -6.1230     2.5360 H     1 <1>   0.0800 
 41 H        5.8270    -6.3940     0.8120 H     1 <1>   0.0800 
 42 H        6.2150    -1.7960     3.6180 H     1 <1>   0.1500 
 43 H        8.6160    -3.8980     0.0000 H     1 <1>   0.1500 
 44 H        8.1310     1.2770     1.6360 H     1 <1>   0.3700 
 45 H        9.5050     0.9200    -0.3550 H     1 <1>   0.1500 
 46 H       10.4860    -0.6330    -1.9790 H     1 <1>   0.1500 
 47 H        9.8970    -3.0650    -3.0910 H     1 <1>   0.0800 
 48 H        9.9490    -4.3350    -1.8940 H     1 <1>   0.0800 
 49 H       11.2990    -3.2410    -2.0590 H     1 <1>   0.0800 
@<TRIPOS>BOND
  1   1   2  2   
  2   2   3  am  
  3   2   4  1   
  4   3   5  1   
  5   3  27  1   
  6   4   6  1   
  7   4  28  1   
  8   4  29  1   
  9   5   7  1   
 10   5  30  1   
 11   5  31  1   
 12   6   7  1   
 13   6   8  1   
 14   6  32  1   
 15   7   9  1   
 16   7  33  1   
 17   8  10  1   
 18   8  34  1   
 19   8  35  1   
 20   9  10  1   
 21   9  36  1   
 22   9  37  1   
 23  10  11  1   
 24  10  38  1   
 25  11  12  am  
 26  11  13  1   
 27  12  14  2   
 28  12  15  1   
 29  13  39  1   
 30  13  40  1   
 31  13  41  1   
 32  15  16  1   
 33  15  17  2   
 34  16  18  ar  
 35  16  19  ar  
 36  17  20  1   
 37  17  42  1   
 38  18  21  1   
 39  18  22  ar  
 40  19  23  ar  
 41  19  43  1   
 42  20  21  am  
 43  20  24  2   
 44  21  44  1   
 45  22  25  ar  
 46  22  45  1   
 47  23  25  ar  
 48  23  26  1   
 49  25  46  1   
 50  26  47  1   
 51  26  48  1   
 52  26  49  1   
@<TRIPOS>SUBSTRUCTURE
  1 ****  10 GROUP 4 **** **** 0

# MOE 2024.06 (io_trps.svl 2023.06)
