@<TRIPOS>MOLECULE
NONAME
43 45 1 0 0 
SMALL
USER_CHARGES


@<TRIPOS>ATOM
  1 O       -0.1500     2.3210     0.5730 O.3   1 <1>  -0.0190 
  2 N        0.7000     1.9210    -0.3300 N.2   1 <1>  -0.4100 
  3 C        0.2110     3.4560     1.1080 C.2   1 <1>  -0.0100 
  4 C        1.6240     2.8160    -0.3770 C.2   1 <1>   0.1080 
  5 C        1.3620     3.8390     0.5350 C.2   1 <1>  -0.1500 
  6 C        2.8310     2.7370    -1.3040 C.3   1 <1>   0.3900 
  7 N        3.2900     4.0960    -1.7490 N.pl3 1 <1>  -0.8380 
  8 C        4.3940     4.7190    -1.2630 C.ar  1 <1>   0.4100 
  9 C        2.2970     4.8100    -2.6120 C.3   1 <1>   0.1290 
 10 N        4.3200     6.0220    -1.0740 N.ar  1 <1>  -0.6200 
 11 C        5.5730     4.0060    -0.9730 C.ar  1 <1>  -0.1500 
 12 C        5.3740     6.6560    -0.5790 C.ar  1 <1>   0.7710 
 13 C        6.6450     4.6690    -0.4770 C.ar  1 <1>   0.2180 
 14 N        6.5130     6.0030    -0.2880 N.ar  1 <1>  -0.1790 
 15 N        5.3060     7.9970    -0.3610 N.pl3 1 <1>  -0.8380 
 16 C        7.9680     4.0030    -0.1380 C.3   1 <1>  -0.0970 
 17 C        6.3050     8.8090     0.4180 C.3   1 <1>   0.2090 
 18 C        4.1010     8.7600    -0.8520 C.3   1 <1>   0.2090 
 19 C        5.5990     9.9080     1.2150 C.3   1 <1>  -0.1600 
 20 C        4.4090    10.2510    -1.0150 C.3   1 <1>  -0.1600 
 21 C        4.8570    10.9000     0.3050 C.3   1 <1>  -0.1600 
 22 H       -0.4010     3.9040     1.8690 H     1 <1>   0.1500 
 23 H        1.9640     4.7130     0.7030 H     1 <1>   0.1500 
 24 H        2.5720     2.1490    -2.1680 H     1 <1>   0.0800 
 25 H        3.6120     2.2210    -0.7790 H     1 <1>   0.0800 
 26 H        1.9250     4.1480    -3.3760 H     1 <1>   0.0800 
 27 H        2.7540     5.6580    -3.0930 H     1 <1>   0.0800 
 28 H        1.4700     5.1550    -2.0160 H     1 <1>   0.0800 
 29 H        5.6070     2.9520    -1.1690 H     1 <1>   0.1500 
 30 H        7.2720     6.5800     0.0480 H     1 <1>   0.4570 
 31 H        7.9210     2.9480    -0.3410 H     1 <1>   0.0800 
 32 H        8.1990     4.1330     0.9050 H     1 <1>   0.0800 
 33 H        8.7630     4.4220    -0.7290 H     1 <1>   0.0800 
 34 H        7.0070     9.2630    -0.2640 H     1 <1>   0.0800 
 35 H        6.8470     8.1900     1.1110 H     1 <1>   0.0800 
 36 H        3.2940     8.6350    -0.1490 H     1 <1>   0.0800 
 37 H        3.7770     8.3720    -1.8030 H     1 <1>   0.0800 
 38 H        6.3160    10.4440     1.8130 H     1 <1>   0.0800 
 39 H        4.9000     9.4450     1.8900 H     1 <1>   0.0800 
 40 H        3.5370    10.7610    -1.3850 H     1 <1>   0.0800 
 41 H        5.1810    10.3600    -1.7570 H     1 <1>   0.0800 
 42 H        5.4940    11.7380     0.0790 H     1 <1>   0.0800 
 43 H        3.9990    11.2790     0.8340 H     1 <1>   0.0800 
@<TRIPOS>BOND
  1   1   2  1   
  2   1   3  1   
  3   2   4  2   
  4   3   5  2   
  5   3  22  1   
  6   4   5  1   
  7   4   6  1   
  8   5  23  1   
  9   6   7  1   
 10   6  24  1   
 11   6  25  1   
 12   7   8  1   
 13   7   9  1   
 14   8  10  ar  
 15   8  11  ar  
 16   9  26  1   
 17   9  27  1   
 18   9  28  1   
 19  10  12  ar  
 20  11  13  ar  
 21  11  29  1   
 22  12  14  ar  
 23  12  15  1   
 24  13  14  ar  
 25  13  16  1   
 26  14  30  1   
 27  15  17  1   
 28  15  18  1   
 29  16  31  1   
 30  16  32  1   
 31  16  33  1   
 32  17  19  1   
 33  17  34  1   
 34  17  35  1   
 35  18  20  1   
 36  18  36  1   
 37  18  37  1   
 38  19  21  1   
 39  19  38  1   
 40  19  39  1   
 41  20  21  1   
 42  20  40  1   
 43  20  41  1   
 44  21  42  1   
 45  21  43  1   
@<TRIPOS>SUBSTRUCTURE
  1 ****  10 GROUP 4 **** **** 0

# MOE 2024.06 (io_trps.svl 2023.06)
