@<TRIPOS>MOLECULE
NONAME
54 56 1 0 0 
SMALL
USER_CHARGES


@<TRIPOS>ATOM
  1 O       -3.6380    -1.7350     0.6100 O.co2 1 <1>  -0.9000 
  2 C       -3.8870    -0.5930     1.0190 C.2   1 <1>   0.9790 
  3 O       -4.6460    -0.4820     1.9960 O.co2 1 <1>  -0.9000 
  4 C       -3.7340     0.5530     0.1480 C.ar  1 <1>  -0.1790 
  5 C       -4.6050     0.6980    -0.9390 C.ar  1 <1>  -0.1440 
  6 C       -2.7820     1.5430     0.3740 C.ar  1 <1>  -0.1500 
  7 C       -4.5180     1.8070    -1.7650 C.ar  1 <1>  -0.1500 
  8 C       -5.6330    -0.3960    -1.1980 C.3   1 <1>   0.4870 
  9 C       -2.6970     2.6470    -0.4540 C.ar  1 <1>  -0.1500 
 10 C       -3.5650     2.7810    -1.5230 C.ar  1 <1>  -0.1500 
 11 N       -6.5300    -0.5110    -0.0210 N.4   1 <1>  -0.9590 
 12 C       -6.8360    -1.9440     0.2720 C.3   1 <1>   0.3430 
 13 C       -7.6330     0.4790     0.0110 C.3   1 <1>   0.3430 
 14 C       -7.5430    -2.1370     1.6240 C.3   1 <1>   0.1400 
 15 C       -7.9370     0.8580     1.4630 C.3   1 <1>  -0.1600 
 16 N       -8.8800    -1.4660     1.6170 N.am  1 <1>  -0.6600 
 17 C       -8.8980    -0.0930     2.1890 C.3   1 <1>   0.1400 
 18 C       -9.8800    -1.8900     0.7670 C.2   1 <1>   0.5440 
 19 O      -10.5290    -1.0460     0.1780 O.2   1 <1>  -0.5700 
 20 C      -10.1080    -3.2990     0.5060 C.ar  1 <1>   0.0860 
 21 C      -10.3540    -3.7560    -0.7880 C.ar  1 <1>  -0.1500 
 22 C      -10.0830    -4.2480     1.5280 C.ar  1 <1>  -0.1500 
 23 C      -10.5370    -5.0990    -1.0680 C.ar  1 <1>  -0.1430 
 24 C      -10.2650    -5.5920     1.2670 C.ar  1 <1>  -0.1500 
 25 C      -10.4870    -6.0310    -0.0350 C.ar  1 <1>   0.0830 
 26 C      -10.7990    -5.5470    -2.4990 C.3   1 <1>  -0.0970 
 27 O      -10.6610    -7.3360    -0.3520 O.3   1 <1>  -0.3630 
 28 C      -10.6800    -8.3530     0.6240 C.3   1 <1>   0.0400 
 29 H       -2.1100     1.4420     1.2100 H     1 <1>   0.1500 
 30 H       -5.1810     1.9230    -2.6040 H     1 <1>   0.1500 
 31 H       -5.0980    -1.3230    -1.3360 H     1 <1>   0.0800 
 32 H       -6.2010    -0.1890    -2.0880 H     1 <1>   0.0800 
 33 H       -1.9540     3.4020    -0.2650 H     1 <1>   0.1500 
 34 H       -3.4950     3.6420    -2.1650 H     1 <1>   0.1500 
 35 H       -5.9100    -0.2670     0.7900 H     1 <1>   0.4500 
 36 H       -5.9070    -2.4910     0.3070 H     1 <1>   0.0800 
 37 H       -7.4440    -2.3620    -0.5110 H     1 <1>   0.0800 
 38 H       -8.5140     0.0920    -0.4750 H     1 <1>   0.0800 
 39 H       -7.3170     1.3680    -0.5080 H     1 <1>   0.0800 
 40 H       -6.9240    -1.7400     2.4110 H     1 <1>   0.0800 
 41 H       -7.6600    -3.1890     1.8090 H     1 <1>   0.0800 
 42 H       -8.3870     1.8340     1.4690 H     1 <1>   0.0800 
 43 H       -7.0180     0.9430     2.0180 H     1 <1>   0.0800 
 44 H       -9.8990     0.3000     2.1240 H     1 <1>   0.0800 
 45 H       -8.6430    -0.1390     3.2340 H     1 <1>   0.0800 
 46 H      -10.4030    -3.0320    -1.5830 H     1 <1>   0.1500 
 47 H       -9.9210    -3.9200     2.5400 H     1 <1>   0.1500 
 48 H      -10.2330    -6.2850     2.0880 H     1 <1>   0.1500 
 49 H      -10.8240    -4.7110    -3.1740 H     1 <1>   0.0800 
 50 H      -11.7450    -6.0570    -2.5520 H     1 <1>   0.0800 
 51 H      -10.0270    -6.2240    -2.8160 H     1 <1>   0.0800 
 52 H      -10.8510    -9.2910     0.1260 H     1 <1>   0.0800 
 53 H      -11.4800    -8.1570     1.3170 H     1 <1>   0.0800 
 54 H       -9.7290    -8.3740     1.1260 H     1 <1>   0.0800 
@<TRIPOS>BOND
  1   1   2  ar  
  2   2   3  ar  
  3   2   4  1   
  4   4   5  ar  
  5   4   6  ar  
  6   5   7  ar  
  7   5   8  1   
  8   6   9  ar  
  9   6  29  1   
 10   7  10  ar  
 11   7  30  1   
 12   8  11  1   
 13   8  31  1   
 14   8  32  1   
 15   9  10  ar  
 16   9  33  1   
 17  10  34  1   
 18  11  12  1   
 19  11  13  1   
 20  11  35  1   
 21  12  14  1   
 22  12  36  1   
 23  12  37  1   
 24  13  15  1   
 25  13  38  1   
 26  13  39  1   
 27  14  16  1   
 28  14  40  1   
 29  14  41  1   
 30  15  17  1   
 31  15  42  1   
 32  15  43  1   
 33  16  17  1   
 34  16  18  am  
 35  17  44  1   
 36  17  45  1   
 37  18  19  2   
 38  18  20  1   
 39  20  21  ar  
 40  20  22  ar  
 41  21  23  ar  
 42  21  46  1   
 43  22  24  ar  
 44  22  47  1   
 45  23  25  ar  
 46  23  26  1   
 47  24  25  ar  
 48  24  48  1   
 49  25  27  1   
 50  26  49  1   
 51  26  50  1   
 52  26  51  1   
 53  27  28  1   
 54  28  52  1   
 55  28  53  1   
 56  28  54  1   
@<TRIPOS>SUBSTRUCTURE
  1 ****  12 GROUP 4 **** **** 0

# MOE 2024.06 (io_trps.svl 2023.06)
