@<TRIPOS>MOLECULE
NONAME
56 58 1 0 0 
SMALL
USER_CHARGES


@<TRIPOS>ATOM
  1 O        0.4930     1.1170     0.2740 O.2   1 <1>  -0.5700 
  2 C        0.4150     2.3190     0.2790 C.2   1 <1>   0.5690 
  3 N       -0.6320     2.9390     0.8650 N.am  1 <1>  -0.7300 
  4 C        1.4890     3.1610    -0.4180 C.3   1 <1>   0.1810 
  5 C       -0.7930     4.4120     0.9120 C.3   1 <1>   0.3640 
  6 O        1.4690     4.5190    -0.0340 O.3   1 <1>  -0.5600 
  7 C       -2.2390     4.7610     0.5670 C.ar  1 <1>  -0.1440 
  8 C        0.1860     5.1270    -0.0560 C.3   1 <1>   0.2610 
  9 C       -2.9080     5.7240     1.3080 C.ar  1 <1>  -0.1500 
 10 C       -2.9030     4.1420    -0.4860 C.ar  1 <1>  -0.1500 
 11 C        0.2870     6.6320     0.2530 C.2   1 <1>   0.5690 
 12 C       -4.2160     6.0630     1.0070 C.ar  1 <1>  -0.1500 
 13 C       -4.2110     4.4790    -0.7880 C.ar  1 <1>  -0.1500 
 14 O        0.0560     7.0110     1.3810 O.2   1 <1>  -0.5700 
 15 N        0.6250     7.5320    -0.7330 N.am  1 <1>  -0.6600 
 16 C       -4.8680     5.4410    -0.0420 C.ar  1 <1>  -0.1500 
 17 C        0.6100     8.9970    -0.4580 C.3   1 <1>   0.2840 
 18 C        1.1210     7.1530    -2.0880 C.3   1 <1>   0.0600 
 19 C        2.0330     9.5160    -0.2910 C.ar  1 <1>  -0.1430 
 20 C        2.5630    10.4420    -1.1750 C.ar  1 <1>  -0.1500 
 21 C        2.8160     9.0560     0.7550 C.ar  1 <1>  -0.1500 
 22 C        3.8570    10.9050    -1.0130 C.ar  1 <1>  -0.1500 
 23 C        4.1110     9.5130     0.9200 C.ar  1 <1>  -0.1500 
 24 C        4.6370    10.4470     0.0390 C.ar  1 <1>  -0.1430 
 25 C        6.0480    10.9640     0.2320 C.3   1 <1>   0.4860 
 26 N        6.0590    11.8910     1.4010 N.4   1 <1>  -0.9590 
 27 C        5.2280    13.1090     1.1450 C.3   1 <1>   0.2630 
 28 C        7.4500    12.2520     1.8060 C.3   1 <1>   0.2630 
 29 H       -1.3480     2.3770     1.3290 H     1 <1>   0.3700 
 30 H        1.3490     3.1070    -1.4810 H     1 <1>   0.0800 
 31 H        2.4590     2.7670    -0.1760 H     1 <1>   0.0800 
 32 H       -0.5840     4.7280     1.9200 H     1 <1>   0.0800 
 33 H       -0.2020     5.0220    -1.0520 H     1 <1>   0.0800 
 34 H       -2.4120     6.2240     2.1250 H     1 <1>   0.1500 
 35 H       -2.4100     3.3890    -1.0770 H     1 <1>   0.1500 
 36 H       -4.7240     6.8120     1.5890 H     1 <1>   0.1500 
 37 H       -4.7190     3.9930    -1.6030 H     1 <1>   0.1500 
 38 H       -5.8860     5.7030    -0.2750 H     1 <1>   0.1500 
 39 H        0.1200     9.5020    -1.2720 H     1 <1>   0.0800 
 40 H        0.0490     9.2080     0.4360 H     1 <1>   0.0800 
 41 H        1.9230     7.8060    -2.3840 H     1 <1>   0.0800 
 42 H        0.3210     7.2340    -2.8030 H     1 <1>   0.0800 
 43 H        1.5020     6.1470    -2.0930 H     1 <1>   0.0800 
 44 H        1.9670    10.8050    -1.9960 H     1 <1>   0.1500 
 45 H        2.4120     8.3290     1.4420 H     1 <1>   0.1500 
 46 H        4.2430    11.6210    -1.7190 H     1 <1>   0.1500 
 47 H        4.6920     9.1240     1.7380 H     1 <1>   0.1500 
 48 H        6.3790    11.4760    -0.6570 H     1 <1>   0.0800 
 49 H        6.7070    10.1300     0.4120 H     1 <1>   0.0800 
 50 H        5.6040    11.3700     2.1660 H     1 <1>   0.4500 
 51 H        5.6290    13.6730     0.3180 H     1 <1>   0.0800 
 52 H        5.2100    13.7410     2.0180 H     1 <1>   0.0800 
 53 H        4.2130    12.8270     0.9100 H     1 <1>   0.0800 
 54 H        7.9460    12.7880     1.0120 H     1 <1>   0.0800 
 55 H        8.0180    11.3630     2.0300 H     1 <1>   0.0800 
 56 H        7.4330    12.8770     2.6840 H     1 <1>   0.0800 
@<TRIPOS>BOND
  1   1   2  2   
  2   2   3  am  
  3   2   4  1   
  4   3   5  1   
  5   3  29  1   
  6   4   6  1   
  7   4  30  1   
  8   4  31  1   
  9   5   7  1   
 10   5   8  1   
 11   5  32  1   
 12   6   8  1   
 13   7   9  ar  
 14   7  10  ar  
 15   8  11  1   
 16   8  33  1   
 17   9  12  ar  
 18   9  34  1   
 19  10  13  ar  
 20  10  35  1   
 21  11  14  2   
 22  11  15  am  
 23  12  16  ar  
 24  12  36  1   
 25  13  16  ar  
 26  13  37  1   
 27  15  17  1   
 28  15  18  1   
 29  16  38  1   
 30  17  19  1   
 31  17  39  1   
 32  17  40  1   
 33  18  41  1   
 34  18  42  1   
 35  18  43  1   
 36  19  20  ar  
 37  19  21  ar  
 38  20  22  ar  
 39  20  44  1   
 40  21  23  ar  
 41  21  45  1   
 42  22  24  ar  
 43  22  46  1   
 44  23  24  ar  
 45  23  47  1   
 46  24  25  1   
 47  25  26  1   
 48  25  48  1   
 49  25  49  1   
 50  26  27  1   
 51  26  28  1   
 52  26  50  1   
 53  27  51  1   
 54  27  52  1   
 55  27  53  1   
 56  28  54  1   
 57  28  55  1   
 58  28  56  1   
@<TRIPOS>SUBSTRUCTURE
  1 ****  11 GROUP 4 **** **** 0

# MOE 2024.06 (io_trps.svl 2023.06)
