@<TRIPOS>MOLECULE
NONAME
47 48 1 0 0 
SMALL
USER_CHARGES


@<TRIPOS>ATOM
  1 F       -0.8280    -2.4990     1.7660 F     1 <1>  -0.1900 
  2 C        0.0400    -2.1350     0.8550 C.ar  1 <1>   0.1900 
  3 C        0.0840    -0.8080     0.4590 C.ar  1 <1>   0.1900 
  4 C        0.8680    -3.0870     0.2790 C.ar  1 <1>  -0.1440 
  5 F       -0.7400     0.0590     0.9870 F     1 <1>  -0.1900 
  6 C        0.9690    -0.3840    -0.5130 C.ar  1 <1>  -0.1500 
  7 C        1.7520    -2.6570    -0.7050 C.ar  1 <1>  -0.1500 
  8 C        0.8420    -4.5660     0.6700 C.3   1 <1>   0.0450 
  9 C        1.8070    -1.3240    -1.0940 C.ar  1 <1>  -0.1500 
 10 C        0.1370    -5.4090    -0.3870 C.2   1 <1>   0.5690 
 11 O        0.7930    -5.7120    -1.3530 O.2   1 <1>  -0.5700 
 12 N       -1.1820    -5.7870    -0.3010 N.am  1 <1>  -0.6600 
 13 C       -1.6980    -6.7710    -1.3260 C.3   1 <1>   0.3210 
 14 C       -2.1690    -5.3190     0.7330 C.3   1 <1>   0.1400 
 15 C       -2.8380    -7.6580    -0.8260 C.2   1 <1>   0.0460 
 16 C       -3.2960    -4.4280     0.1590 C.3   1 <1>   0.3430 
 17 N       -4.1190    -7.2260    -0.8430 N.2   1 <1>  -0.5650 
 18 C       -2.7640    -8.9190    -0.3390 C.2   1 <1>  -0.3320 
 19 N       -2.8230    -3.1030    -0.3760 N.4   1 <1>  -0.9590 
 20 C       -4.7910    -8.2320    -0.3830 C.2   1 <1>   0.0360 
 21 N       -4.0250    -9.2920    -0.0570 N.pl3 1 <1>   0.0330 
 22 C       -1.5710    -9.8340    -0.1150 C.3   1 <1>  -0.0600 
 23 C       -3.9520    -2.1280    -0.4200 C.3   1 <1>   0.2630 
 24 C       -2.1990    -3.2270    -1.7320 C.3   1 <1>   0.2630 
 25 H        1.0030     0.6510    -0.8070 H     1 <1>   0.1500 
 26 H        2.4120    -3.3670    -1.1800 H     1 <1>   0.1500 
 27 H        0.4150    -4.7160     1.6410 H     1 <1>   0.0800 
 28 H        1.8570    -4.9150     0.7370 H     1 <1>   0.0800 
 29 H        2.5080    -1.0190    -1.8550 H     1 <1>   0.1500 
 30 H       -0.8950    -7.4130    -1.6430 H     1 <1>   0.0800 
 31 H       -2.0360    -6.2340    -2.1940 H     1 <1>   0.0800 
 32 H       -1.6810    -4.7880     1.5240 H     1 <1>   0.0800 
 33 H       -2.6190    -6.1800     1.1970 H     1 <1>   0.0800 
 34 H       -3.9990    -4.2510     0.9560 H     1 <1>   0.0800 
 35 H       -3.8230    -4.9620    -0.6130 H     1 <1>   0.0800 
 36 H       -2.1140    -2.7400     0.2810 H     1 <1>   0.4500 
 37 H       -5.8620    -8.2470    -0.2660 H     1 <1>   0.1500 
 38 H       -4.3430   -10.1920     0.3170 H     1 <1>   0.2700 
 39 H       -0.6520    -9.3330    -0.3620 H     1 <1>   0.0800 
 40 H       -1.6550   -10.7110    -0.7330 H     1 <1>   0.0800 
 41 H       -1.5230   -10.1380     0.9150 H     1 <1>   0.0800 
 42 H       -4.7220    -2.4770    -1.0890 H     1 <1>   0.0800 
 43 H       -3.6030    -1.1680    -0.7640 H     1 <1>   0.0800 
 44 H       -4.3780    -2.0040     0.5630 H     1 <1>   0.0800 
 45 H       -2.8940    -3.6750    -2.4240 H     1 <1>   0.0800 
 46 H       -1.3140    -3.8390    -1.6910 H     1 <1>   0.0800 
 47 H       -1.9170    -2.2560    -2.1030 H     1 <1>   0.0800 
@<TRIPOS>BOND
  1   1   2  1   
  2   2   3  ar  
  3   2   4  ar  
  4   3   5  1   
  5   3   6  ar  
  6   4   7  ar  
  7   4   8  1   
  8   6   9  ar  
  9   6  25  1   
 10   7   9  ar  
 11   7  26  1   
 12   8  10  1   
 13   8  27  1   
 14   8  28  1   
 15   9  29  1   
 16  10  11  2   
 17  10  12  am  
 18  12  13  1   
 19  12  14  1   
 20  13  15  1   
 21  13  30  1   
 22  13  31  1   
 23  14  16  1   
 24  14  32  1   
 25  14  33  1   
 26  15  17  1   
 27  15  18  2   
 28  16  19  1   
 29  16  34  1   
 30  16  35  1   
 31  17  20  2   
 32  18  21  1   
 33  18  22  1   
 34  19  23  1   
 35  19  24  1   
 36  19  36  1   
 37  20  21  1   
 38  20  37  1   
 39  21  38  1   
 40  22  39  1   
 41  22  40  1   
 42  22  41  1   
 43  23  42  1   
 44  23  43  1   
 45  23  44  1   
 46  24  45  1   
 47  24  46  1   
 48  24  47  1   
@<TRIPOS>SUBSTRUCTURE
  1 ****  12 GROUP 4 **** **** 0

# MOE 2024.06 (io_trps.svl 2023.06)
