@<TRIPOS>MOLECULE
NONAME
49 52 1 0 0 
SMALL
USER_CHARGES


@<TRIPOS>ATOM
  1 O       -0.8630    -0.0010     0.7650 O.2   1 <1>  -0.5700 
  2 C       -1.7950     0.7810     0.6760 C.2   1 <1>   0.7150 
  3 N       -3.0390     0.3420     1.0880 N.am  1 <1>  -0.6600 
  4 C       -1.5630     2.1130     0.1470 C.2   1 <1>   0.0550 
  5 C       -4.3230     1.0300     0.8180 C.3   1 <1>   0.1400 
  6 C       -3.2750    -1.0040     1.6510 C.3   1 <1>   0.1400 
  7 O       -2.3520     3.1310     0.4730 O.3   1 <1>  -0.2800 
  8 C       -0.5980     2.5750    -0.6810 C.2   1 <1>   0.0460 
  9 C       -5.4160    -0.0360     0.9850 C.3   1 <1>  -0.0800 
 10 C       -4.6940    -1.3800     1.2270 C.3   1 <1>  -0.0800 
 11 C       -1.8060     4.1290    -0.1870 C.2   1 <1>   0.2980 
 12 N       -0.7680     3.8750    -0.8900 N.2   1 <1>  -0.5650 
 13 C        0.5580     1.8640    -1.3560 C.3   1 <1>  -0.0590 
 14 C       -6.4930    -0.0510    -0.1330 C.3   1 <1>   0.4240 
 15 C       -4.7040    -2.2940    -0.0110 C.3   1 <1>  -0.1600 
 16 C       -2.4500     5.4890    -0.0620 C.3   1 <1>  -0.0600 
 17 O       -5.8840     0.1210    -1.3640 O.3   1 <1>  -0.6800 
 18 C       -7.5230     1.0770     0.0900 C.ar  1 <1>  -0.1440 
 19 C       -7.1410    -1.4440    -0.2060 C.3   1 <1>  -0.1600 
 20 C       -6.1360    -2.5810    -0.5090 C.3   1 <1>  -0.1600 
 21 C       -7.5620     2.2140    -0.7130 C.ar  1 <1>  -0.1500 
 22 C       -8.4430     0.9860     1.1310 C.ar  1 <1>  -0.1500 
 23 C       -8.4890     3.2170    -0.4910 C.ar  1 <1>  -0.1500 
 24 C       -9.3730     1.9860     1.3560 C.ar  1 <1>  -0.1500 
 25 C       -9.3980     3.1040     0.5440 C.ar  1 <1>  -0.1500 
 26 H       -4.4680     1.8260     1.5290 H     1 <1>   0.0800 
 27 H       -4.3040     1.4550    -0.1700 H     1 <1>   0.0800 
 28 H       -2.5490    -1.7150     1.2950 H     1 <1>   0.0800 
 29 H       -3.2100    -0.9430     2.7240 H     1 <1>   0.0800 
 30 H       -5.9200     0.1960     1.9060 H     1 <1>   0.0800 
 31 H       -5.1700    -1.9140     2.0320 H     1 <1>   0.0800 
 32 H        0.5330     0.8080    -1.1680 H     1 <1>   0.0800 
 33 H        1.4860     2.2610    -0.9880 H     1 <1>   0.0800 
 34 H        0.5090     2.0260    -2.4170 H     1 <1>   0.0800 
 35 H       -4.1320    -1.8260    -0.7950 H     1 <1>   0.0800 
 36 H       -4.2150    -3.2250     0.2180 H     1 <1>   0.0800 
 37 H       -1.9080     6.2050    -0.6510 H     1 <1>   0.0800 
 38 H       -2.4410     5.7980     0.9660 H     1 <1>   0.0800 
 39 H       -3.4640     5.4400    -0.4110 H     1 <1>   0.0800 
 40 H       -5.3110    -0.6510    -1.5170 H     1 <1>   0.4000 
 41 H       -7.6010    -1.6570     0.7410 H     1 <1>   0.0800 
 42 H       -7.9270    -1.4370    -0.9410 H     1 <1>   0.0800 
 43 H       -6.4980    -3.4850    -0.0490 H     1 <1>   0.0800 
 44 H       -6.1030    -2.7590    -1.5710 H     1 <1>   0.0800 
 45 H       -6.8680     2.3330    -1.5280 H     1 <1>   0.1500 
 46 H       -8.4490     0.1330     1.7850 H     1 <1>   0.1500 
 47 H       -8.5030     4.0840    -1.1270 H     1 <1>   0.1500 
 48 H      -10.0790     1.8950     2.1630 H     1 <1>   0.1500 
 49 H      -10.1210     3.8820     0.7160 H     1 <1>   0.1500 
@<TRIPOS>BOND
  1   1   2  2   
  2   2   3  am  
  3   2   4  1   
  4   3   5  1   
  5   3   6  1   
  6   4   7  1   
  7   4   8  2   
  8   5   9  1   
  9   5  26  1   
 10   5  27  1   
 11   6  10  1   
 12   6  28  1   
 13   6  29  1   
 14   7  11  1   
 15   8  12  1   
 16   8  13  1   
 17   9  10  1   
 18   9  14  1   
 19   9  30  1   
 20  10  15  1   
 21  10  31  1   
 22  11  12  2   
 23  11  16  1   
 24  13  32  1   
 25  13  33  1   
 26  13  34  1   
 27  14  17  1   
 28  14  18  1   
 29  14  19  1   
 30  15  20  1   
 31  15  35  1   
 32  15  36  1   
 33  16  37  1   
 34  16  38  1   
 35  16  39  1   
 36  17  40  1   
 37  18  21  ar  
 38  18  22  ar  
 39  19  20  1   
 40  19  41  1   
 41  19  42  1   
 42  20  43  1   
 43  20  44  1   
 44  21  23  ar  
 45  21  45  1   
 46  22  24  ar  
 47  22  46  1   
 48  23  25  ar  
 49  23  47  1   
 50  24  25  ar  
 51  24  48  1   
 52  25  49  1   
@<TRIPOS>SUBSTRUCTURE
  1 ****   5 GROUP 4 **** **** 0

# MOE 2024.06 (io_trps.svl 2023.06)
