@<TRIPOS>MOLECULE
NONAME
58 60 1 0 0 
SMALL
USER_CHARGES


@<TRIPOS>ATOM
  1 F       -1.2400    -0.5300    -1.3500 F     1 <1>  -0.1900 
  2 C       -1.8970     0.3000    -0.5800 C.ar  1 <1>   0.1900 
  3 C       -2.7550    -0.1960     0.3860 C.ar  1 <1>  -0.1440 
  4 C       -1.6880     1.6510    -0.7720 C.ar  1 <1>  -0.1500 
  5 C       -3.4190     0.7230     1.1840 C.ar  1 <1>  -0.1500 
  6 C       -2.9670    -1.6910     0.5800 C.3   1 <1>   0.2540 
  7 C       -2.3580     2.5690     0.0330 C.ar  1 <1>   0.0830 
  8 C       -3.2440     2.0900     1.0170 C.ar  1 <1>   0.0830 
  9 N       -3.8900    -2.2450    -0.4330 N.3   1 <1>  -0.8100 
 10 O       -2.1500     3.9110    -0.1100 O.3   1 <1>  -0.3630 
 11 O       -3.9850     2.8550     1.8700 O.3   1 <1>  -0.3630 
 12 C       -4.0100    -3.7260    -0.3150 C.3   1 <1>   0.3330 
 13 C       -5.2150    -1.6000    -0.3920 C.3   1 <1>   0.1100 
 14 C       -1.1580     4.4310    -0.9690 C.3   1 <1>   0.0400 
 15 C       -4.3930     4.1630     1.5360 C.3   1 <1>   0.0400 
 16 C       -2.6400    -4.3470    -0.6050 C.ar  1 <1>  -0.1430 
 17 C       -5.0950    -4.3110    -1.2750 C.3   1 <1>   0.2000 
 18 C       -6.1450    -2.2120    -1.4440 C.3   1 <1>   0.1200 
 19 C       -2.0680    -5.2310     0.2990 C.ar  1 <1>  -0.1500 
 20 C       -1.9500    -4.0350    -1.7700 C.ar  1 <1>  -0.1500 
 21 O       -6.2920    -3.5770    -1.2060 O.3   1 <1>  -0.5600 
 22 C       -5.5040    -5.7690    -0.9850 C.3   1 <1>   0.1200 
 23 C       -0.8380    -5.8120     0.0410 C.ar  1 <1>   0.0830 
 24 C       -0.7140    -4.6010    -2.0310 C.ar  1 <1>  -0.1500 
 25 O       -4.4320    -6.6550    -0.9660 O.3   1 <1>  -0.6800 
 26 O       -0.3620    -6.6990     0.9470 O.3   1 <1>  -0.3630 
 27 C       -0.1450    -5.4820    -1.1270 C.ar  1 <1>   0.0830 
 28 C       -0.3730    -8.0490     0.5380 C.3   1 <1>   0.0400 
 29 O        1.0770    -5.9880    -1.4280 O.3   1 <1>  -0.3630 
 30 C        2.1350    -5.6240    -0.5690 C.3   1 <1>   0.0400 
 31 H       -1.0060     1.9490    -1.5430 H     1 <1>   0.1500 
 32 H       -4.0930     0.3850     1.9500 H     1 <1>   0.1500 
 33 H       -3.3550    -1.8810     1.5660 H     1 <1>   0.0800 
 34 H       -2.0080    -2.1760     0.5090 H     1 <1>   0.0800 
 35 H       -4.3020    -3.9710     0.6910 H     1 <1>   0.0800 
 36 H       -5.6570    -1.7100     0.5840 H     1 <1>   0.0800 
 37 H       -5.1150    -0.5500    -0.6040 H     1 <1>   0.0800 
 38 H       -1.1490     5.5010    -0.8580 H     1 <1>   0.0800 
 39 H       -1.4020     4.1730    -1.9840 H     1 <1>   0.0800 
 40 H       -0.2020     4.0270    -0.6840 H     1 <1>   0.0800 
 41 H       -5.2030     4.4380     2.1870 H     1 <1>   0.0800 
 42 H       -4.7200     4.1790     0.5120 H     1 <1>   0.0800 
 43 H       -3.5650     4.8330     1.6850 H     1 <1>   0.0800 
 44 H       -4.7420    -4.2450    -2.2890 H     1 <1>   0.0800 
 45 H       -5.7480    -2.0670    -2.4340 H     1 <1>   0.0800 
 46 H       -7.1200    -1.7610    -1.3870 H     1 <1>   0.0800 
 47 H       -2.5800    -5.4950     1.2070 H     1 <1>   0.1500 
 48 H       -2.3740    -3.3350    -2.4710 H     1 <1>   0.1500 
 49 H       -6.1870    -6.1050    -1.7460 H     1 <1>   0.0800 
 50 H       -5.9890    -5.8320    -0.0270 H     1 <1>   0.0800 
 51 H       -0.1830    -4.3540    -2.9320 H     1 <1>   0.1500 
 52 H       -3.7590    -6.4150    -1.6360 H     1 <1>   0.4000 
 53 H       -0.0310    -8.6520     1.3590 H     1 <1>   0.0800 
 54 H        0.2830    -8.1690    -0.3060 H     1 <1>   0.0800 
 55 H       -1.3790    -8.3220     0.2720 H     1 <1>   0.0800 
 56 H        3.0540    -5.9780    -1.0000 H     1 <1>   0.0800 
 57 H        1.9850    -6.0770     0.3940 H     1 <1>   0.0800 
 58 H        2.1560    -4.5530    -0.4790 H     1 <1>   0.0800 
@<TRIPOS>BOND
  1   1   2  1   
  2   2   3  ar  
  3   2   4  ar  
  4   3   5  ar  
  5   3   6  1   
  6   4   7  ar  
  7   4  31  1   
  8   5   8  ar  
  9   5  32  1   
 10   6   9  1   
 11   6  33  1   
 12   6  34  1   
 13   7   8  ar  
 14   7  10  1   
 15   8  11  1   
 16   9  12  1   
 17   9  13  1   
 18  10  14  1   
 19  11  15  1   
 20  12  16  1   
 21  12  17  1   
 22  12  35  1   
 23  13  18  1   
 24  13  36  1   
 25  13  37  1   
 26  14  38  1   
 27  14  39  1   
 28  14  40  1   
 29  15  41  1   
 30  15  42  1   
 31  15  43  1   
 32  16  19  ar  
 33  16  20  ar  
 34  17  21  1   
 35  17  22  1   
 36  17  44  1   
 37  18  21  1   
 38  18  45  1   
 39  18  46  1   
 40  19  23  ar  
 41  19  47  1   
 42  20  24  ar  
 43  20  48  1   
 44  22  25  1   
 45  22  49  1   
 46  22  50  1   
 47  23  26  1   
 48  23  27  ar  
 49  24  27  ar  
 50  24  51  1   
 51  25  52  1   
 52  26  28  1   
 53  27  29  1   
 54  28  53  1   
 55  28  54  1   
 56  28  55  1   
 57  29  30  1   
 58  30  56  1   
 59  30  57  1   
 60  30  58  1   
@<TRIPOS>SUBSTRUCTURE
  1 ****   6 GROUP 4 **** **** 0

# MOE 2024.06 (io_trps.svl 2023.06)
