@<TRIPOS>MOLECULE
NONAME
47 49 1 0 0 
SMALL
USER_CHARGES


@<TRIPOS>ATOM
  1 CL      -1.6280     0.8060     1.1100 Cl    1 <1>  -0.1770 
  2 C       -0.9820     2.4120     0.8670 C.ar  1 <1>   0.1770 
  3 C       -1.3930     3.1610    -0.2260 C.ar  1 <1>  -0.1440 
  4 C       -0.0760     2.9090     1.7850 C.ar  1 <1>  -0.1500 
  5 C       -0.8740     4.4370    -0.3930 C.ar  1 <1>  -0.1500 
  6 C       -2.3880     2.5910    -1.2180 C.3   1 <1>   0.4870 
  7 C        0.4330     4.1840     1.6100 C.ar  1 <1>  -0.1500 
  8 C        0.0330     4.9440     0.5230 C.ar  1 <1>  -0.1500 
  9 N       -3.7190     2.4640    -0.5680 N.4   1 <1>  -0.9590 
 10 C       -4.6750     1.7430    -1.4490 C.3   1 <1>   0.3430 
 11 C       -4.2630     3.7870    -0.1500 C.3   1 <1>   0.3430 
 12 C       -5.9980     1.5370    -0.7210 C.3   1 <1>  -0.1600 
 13 C       -5.5820     3.5970     0.5890 C.3   1 <1>  -0.1600 
 14 C       -6.6290     2.8780    -0.2920 C.3   1 <1>   0.2800 
 15 O       -6.7980     3.5980    -1.4900 O.3   1 <1>  -0.5600 
 16 C       -8.0140     2.6640     0.4110 C.3   1 <1>   0.2000 
 17 C       -7.4640     4.8340    -1.4290 C.3   1 <1>   0.1200 
 18 O       -8.7440     1.6930    -0.2870 O.3   1 <1>  -0.6800 
 19 C       -8.8650     3.9630     0.4960 C.3   1 <1>   0.2800 
 20 C       -8.8790     4.6620    -0.8680 C.3   1 <1>  -0.1600 
 21 O       -8.2910     4.8310     1.4030 O.3   1 <1>  -0.6800 
 22 C      -10.2880     3.7280     1.0190 C.3   1 <1>  -0.2400 
 23 H        0.2270     2.3080     2.6240 H     1 <1>   0.1500 
 24 H       -1.1600     5.0500    -1.2330 H     1 <1>   0.1500 
 25 H       -2.0440     1.6220    -1.5430 H     1 <1>   0.0800 
 26 H       -2.4570     3.2340    -2.0810 H     1 <1>   0.0800 
 27 H        1.1410     4.5840     2.3180 H     1 <1>   0.1500 
 28 H        0.4360     5.9350     0.3920 H     1 <1>   0.1500 
 29 H       -3.5730     1.8990     0.2800 H     1 <1>   0.4500 
 30 H       -4.8550     2.3190    -2.3440 H     1 <1>   0.0800 
 31 H       -4.2700     0.7850    -1.7340 H     1 <1>   0.0800 
 32 H       -3.5610     4.2900     0.4970 H     1 <1>   0.0800 
 33 H       -4.4300     4.4050    -1.0180 H     1 <1>   0.0800 
 34 H       -5.8520     0.9040     0.1360 H     1 <1>   0.0800 
 35 H       -6.6540     1.0140    -1.3920 H     1 <1>   0.0800 
 36 H       -5.9240     4.5630     0.9010 H     1 <1>   0.0800 
 37 H       -5.4130     3.0310     1.4870 H     1 <1>   0.0800 
 38 H       -7.8670     2.2720     1.4030 H     1 <1>   0.0800 
 39 H       -6.8920     5.5180    -0.8280 H     1 <1>   0.0800 
 40 H       -7.5130     5.2260    -2.4310 H     1 <1>   0.0800 
 41 H       -8.8710     1.9900    -1.2110 H     1 <1>   0.4000 
 42 H       -9.4530     4.0810    -1.5670 H     1 <1>   0.0800 
 43 H       -9.3570     5.6220    -0.7870 H     1 <1>   0.0800 
 44 H       -8.9400     5.5210     1.6430 H     1 <1>   0.4000 
 45 H      -10.8360     3.0950     0.3440 H     1 <1>   0.0800 
 46 H      -10.8260     4.6550     1.1090 H     1 <1>   0.0800 
 47 H      -10.2560     3.2380     1.9760 H     1 <1>   0.0800 
@<TRIPOS>BOND
  1   1   2  1   
  2   2   3  ar  
  3   2   4  ar  
  4   3   5  ar  
  5   3   6  1   
  6   4   7  ar  
  7   4  23  1   
  8   5   8  ar  
  9   5  24  1   
 10   6   9  1   
 11   6  25  1   
 12   6  26  1   
 13   7   8  ar  
 14   7  27  1   
 15   8  28  1   
 16   9  10  1   
 17   9  11  1   
 18   9  29  1   
 19  10  12  1   
 20  10  30  1   
 21  10  31  1   
 22  11  13  1   
 23  11  32  1   
 24  11  33  1   
 25  12  14  1   
 26  12  34  1   
 27  12  35  1   
 28  13  14  1   
 29  13  36  1   
 30  13  37  1   
 31  14  15  1   
 32  14  16  1   
 33  15  17  1   
 34  16  18  1   
 35  16  19  1   
 36  16  38  1   
 37  17  20  1   
 38  17  39  1   
 39  17  40  1   
 40  18  41  1   
 41  19  20  1   
 42  19  21  1   
 43  19  22  1   
 44  20  42  1   
 45  20  43  1   
 46  21  44  1   
 47  22  45  1   
 48  22  46  1   
 49  22  47  1   
@<TRIPOS>SUBSTRUCTURE
  1 ****  11 GROUP 4 **** **** 0

# MOE 2024.06 (io_trps.svl 2023.06)
