@<TRIPOS>MOLECULE
NONAME
28 28 1 0 0 
SMALL
USER_CHARGES


@<TRIPOS>ATOM
  1 O       -0.3070    -0.4620    -0.3730 O.2   1 <1>  -0.5700 
  2 C       -1.3180    -1.0380    -0.0170 C.2   1 <1>   0.7800 
  3 O       -2.4820    -0.3850    -0.0230 O.3   1 <1>  -0.4300 
  4 N       -1.3190    -2.3450     0.4000 N.am  1 <1>  -0.6600 
  5 C       -2.5550     0.9570    -0.4440 C.3   1 <1>   0.1200 
  6 C       -2.5460    -3.0570     0.8480 C.3   1 <1>   0.1400 
  7 C       -0.0710    -3.1530     0.4260 C.3   1 <1>   0.1400 
  8 C       -4.0090     1.4080    -0.3380 C.3   1 <1>  -0.2400 
  9 C       -2.7420    -4.3220     0.0090 C.3   1 <1>  -0.1600 
 10 C       -0.2600    -4.4190    -0.4130 C.3   1 <1>  -0.1600 
 11 C       -1.4930    -5.2120     0.0390 C.3   1 <1>   0.1200 
 12 C       -1.6880    -6.4060    -0.8330 C.1   1 <1>  -0.2000 
 13 C       -1.8450    -7.3560    -1.5310 C.1   1 <1>  -0.1770 
 14 H       -2.2050     1.0140    -1.4620 H     1 <1>   0.0800 
 15 H       -1.9190     1.5500     0.1910 H     1 <1>   0.0800 
 16 H       -3.4150    -2.4280     0.7550 H     1 <1>   0.0800 
 17 H       -2.4370    -3.3180     1.8870 H     1 <1>   0.0800 
 18 H        0.1540    -3.4150     1.4460 H     1 <1>   0.0800 
 19 H        0.7580    -2.5850     0.0380 H     1 <1>   0.0800 
 20 H       -4.6310     0.7990    -0.9690 H     1 <1>   0.0800 
 21 H       -4.0950     2.4310    -0.6550 H     1 <1>   0.0800 
 22 H       -4.3460     1.3340     0.6800 H     1 <1>   0.0800 
 23 H       -2.9620    -4.0360    -1.0040 H     1 <1>   0.0800 
 24 H       -3.5860    -4.8710     0.3860 H     1 <1>   0.0800 
 25 H        0.6180    -5.0340    -0.3290 H     1 <1>   0.0800 
 26 H       -0.3650    -4.1370    -1.4460 H     1 <1>   0.0800 
 27 H       -1.3340    -5.5560     1.0470 H     1 <1>   0.0800 
 28 H       -1.9870    -8.2140    -2.1640 H     1 <1>   0.1770 
@<TRIPOS>BOND
  1   1   2  2   
  2   2   3  1   
  3   2   4  am  
  4   3   5  1   
  5   4   6  1   
  6   4   7  1   
  7   5   8  1   
  8   5  14  1   
  9   5  15  1   
 10   6   9  1   
 11   6  16  1   
 12   6  17  1   
 13   7  10  1   
 14   7  18  1   
 15   7  19  1   
 16   8  20  1   
 17   8  21  1   
 18   8  22  1   
 19   9  11  1   
 20   9  23  1   
 21   9  24  1   
 22  10  11  1   
 23  10  25  1   
 24  10  26  1   
 25  11  12  1   
 26  11  27  1   
 27  12  13  3   
 28  13  28  1   
@<TRIPOS>SUBSTRUCTURE
  1 ****   4 GROUP 4 **** **** 0

# MOE 2024.06 (io_trps.svl 2023.06)
