@<TRIPOS>MOLECULE
NONAME
54 57 1 0 0 
SMALL
USER_CHARGES


@<TRIPOS>ATOM
  1 O       -0.2770    -0.8230    -0.1310 O.2   1 <1>  -0.5700 
  2 C       -0.2130    -2.0210    -0.0620 C.2   1 <1>   0.5690 
  3 N       -1.3550    -2.7590    -0.0580 N.am  1 <1>  -0.5470 
  4 C        1.1450    -2.6750     0.0450 C.3   1 <1>  -0.1790 
  5 C       -1.5540    -4.1410    -0.0290 C.ar  1 <1>   0.1170 
  6 C       -2.4230    -4.7010     0.8770 C.ar  1 <1>  -0.1500 
  7 C       -0.8890    -4.9830    -0.9350 C.ar  1 <1>  -0.1500 
  8 C       -2.6440    -6.0890     0.9300 C.ar  1 <1>   0.0000 
  9 C       -1.0880    -6.3370    -0.9010 C.ar  1 <1>  -0.1500 
 10 C       -1.9590    -6.9310     0.0260 C.ar  1 <1>   0.3100 
 11 C       -3.5190    -6.6940     1.8480 C.ar  1 <1>  -0.1500 
 12 N       -2.1100    -8.2770     0.0170 N.ar  1 <1>  -0.6200 
 13 C       -3.6550    -8.0490     1.8140 C.ar  1 <1>  -0.1500 
 14 C       -2.9310    -8.8080     0.8760 C.ar  1 <1>   0.1670 
 15 C       -3.1090   -10.3300     0.8810 C.3   1 <1>   0.2530 
 16 N       -4.0770   -10.8390    -0.1280 N.3   1 <1>  -0.8100 
 17 C       -4.2600   -12.3100    -0.0360 C.3   1 <1>   0.3330 
 18 C       -5.3830   -10.1530    -0.0650 C.3   1 <1>   0.1100 
 19 C       -2.9240   -13.0380    -0.2000 C.ar  1 <1>  -0.1440 
 20 C       -5.2940   -12.8050    -1.0850 C.3   1 <1>   0.2000 
 21 C       -6.3740   -10.7310    -1.0890 C.3   1 <1>   0.1200 
 22 C       -2.0940   -12.7590    -1.2750 C.ar  1 <1>  -0.1500 
 23 C       -2.5380   -14.0040     0.7200 C.ar  1 <1>  -0.1500 
 24 O       -6.5050   -12.1120    -0.9160 O.3   1 <1>  -0.5600 
 25 C       -5.6090   -14.3070    -0.9830 C.3   1 <1>   0.1200 
 26 C       -0.9000   -13.4400    -1.4360 C.ar  1 <1>  -0.1500 
 27 C       -1.3450   -14.6860     0.5600 C.ar  1 <1>  -0.1500 
 28 O       -4.5710   -15.0790    -1.4980 O.3   1 <1>  -0.6800 
 29 C       -0.5260   -14.4060    -0.5190 C.ar  1 <1>  -0.1500 
 30 H       -2.1900    -2.1740    -0.0210 H     1 <1>   0.3700 
 31 H        1.1010    -3.5290     0.6940 H     1 <1>   0.0800 
 32 H        1.8490    -1.9720     0.4480 H     1 <1>   0.0800 
 33 H        1.4780    -2.9770    -0.9290 H     1 <1>   0.0800 
 34 H       -2.9460    -4.0720     1.5730 H     1 <1>   0.1500 
 35 H       -0.2270    -4.5500    -1.6620 H     1 <1>   0.1500 
 36 H       -0.5830    -6.9910    -1.5880 H     1 <1>   0.1500 
 37 H       -4.0570    -6.0860     2.5530 H     1 <1>   0.1500 
 38 H       -4.3120    -8.5520     2.4990 H     1 <1>   0.1500 
 39 H       -3.4160   -10.6460     1.8620 H     1 <1>   0.0800 
 40 H       -2.1410   -10.7620     0.6910 H     1 <1>   0.0800 
 41 H       -4.6550   -12.5420     0.9380 H     1 <1>   0.0800 
 42 H       -5.8040   -10.2460     0.9220 H     1 <1>   0.0800 
 43 H       -5.2520    -9.1070    -0.2810 H     1 <1>   0.0800 
 44 H       -4.9370   -12.5970    -2.0790 H     1 <1>   0.0800 
 45 H       -6.0350   -10.5360    -2.0920 H     1 <1>   0.0800 
 46 H       -7.3460   -10.2890    -0.9600 H     1 <1>   0.0800 
 47 H       -2.3780   -12.0020    -1.9880 H     1 <1>   0.1500 
 48 H       -3.1640   -14.2350     1.5650 H     1 <1>   0.1500 
 49 H       -6.4890   -14.5350    -1.5580 H     1 <1>   0.0800 
 50 H       -5.7680   -14.5940     0.0420 H     1 <1>   0.0800 
 51 H       -0.2640   -13.2150    -2.2740 H     1 <1>   0.1500 
 52 H       -1.0520   -15.4360     1.2740 H     1 <1>   0.1500 
 53 H       -3.7040   -14.7920    -1.1320 H     1 <1>   0.4000 
 54 H        0.4020   -14.9360    -0.6450 H     1 <1>   0.1500 
@<TRIPOS>BOND
  1   1   2  2   
  2   2   3  am  
  3   2   4  1   
  4   3   5  1   
  5   3  30  1   
  6   4  31  1   
  7   4  32  1   
  8   4  33  1   
  9   5   6  ar  
 10   5   7  ar  
 11   6   8  ar  
 12   6  34  1   
 13   7   9  ar  
 14   7  35  1   
 15   8  10  ar  
 16   8  11  ar  
 17   9  10  ar  
 18   9  36  1   
 19  10  12  ar  
 20  11  13  ar  
 21  11  37  1   
 22  12  14  ar  
 23  13  14  ar  
 24  13  38  1   
 25  14  15  1   
 26  15  16  1   
 27  15  39  1   
 28  15  40  1   
 29  16  17  1   
 30  16  18  1   
 31  17  19  1   
 32  17  20  1   
 33  17  41  1   
 34  18  21  1   
 35  18  42  1   
 36  18  43  1   
 37  19  22  ar  
 38  19  23  ar  
 39  20  24  1   
 40  20  25  1   
 41  20  44  1   
 42  21  24  1   
 43  21  45  1   
 44  21  46  1   
 45  22  26  ar  
 46  22  47  1   
 47  23  27  ar  
 48  23  48  1   
 49  25  28  1   
 50  25  49  1   
 51  25  50  1   
 52  26  29  ar  
 53  26  51  1   
 54  27  29  ar  
 55  27  52  1   
 56  28  53  1   
 57  29  54  1   
@<TRIPOS>SUBSTRUCTURE
  1 ****  14 GROUP 4 **** **** 0

# MOE 2024.06 (io_trps.svl 2023.06)
