@<TRIPOS>MOLECULE
NONAME
43 44 1 0 0 
SMALL
USER_CHARGES


@<TRIPOS>ATOM
  1 S        0.1670     0.1650    -0.1710 S.o2  1 <1>   1.3330 
  2 O       -0.0380     1.5670     0.0850 O.2   1 <1>  -0.6500 
  3 O        1.0390    -0.2730    -1.2300 O.2   1 <1>  -0.6500 
  4 N        0.9170    -0.3870     1.1960 N.am  1 <1>  -0.9780 
  5 C       -1.4060    -0.7050    -0.2070 C.3   1 <1>  -0.0550 
  6 C       -1.2810    -2.2390    -0.2550 C.3   1 <1>  -0.1600 
  7 C       -2.6600    -2.9270    -0.3020 C.3   1 <1>  -0.0990 
  8 C       -2.5950    -4.4510    -0.3130 C.2   1 <1>   0.5690 
  9 O       -1.5230    -4.9960    -0.4280 O.2   1 <1>  -0.5700 
 10 N       -3.7480    -5.1750    -0.1990 N.am  1 <1>  -0.6600 
 11 C       -5.1320    -4.6440    -0.1320 C.3   1 <1>   0.1400 
 12 C       -3.7500    -6.6570    -0.1820 C.3   1 <1>   0.1400 
 13 C       -6.0280    -5.8740    -0.2790 C.3   1 <1>   0.2000 
 14 C       -5.1800    -7.0540     0.1900 C.3   1 <1>  -0.0800 
 15 O       -7.1720    -5.7670     0.4950 O.3   1 <1>  -0.6800 
 16 C       -5.6240    -8.3920    -0.4190 C.3   1 <1>   0.0200 
 17 C       -4.7130    -9.5190     0.0250 C.2   1 <1>  -0.0400 
 18 O       -4.6430    -9.8430     1.2890 O.3   1 <1>  -0.0190 
 19 C       -3.8840   -10.3250    -0.6540 C.2   1 <1>  -0.1500 
 20 N       -3.8080   -10.8200     1.4920 N.2   1 <1>  -0.4100 
 21 C       -3.3360   -11.1320     0.3390 C.2   1 <1>   0.1080 
 22 C       -2.3200   -12.2270     0.1040 C.3   1 <1>  -0.0590 
 23 H        1.3670     0.4430     1.5740 H     1 <1>   0.4200 
 24 H        1.6690    -0.9730     0.8370 H     1 <1>   0.4200 
 25 H       -1.9690    -0.4300     0.6640 H     1 <1>   0.0800 
 26 H       -1.9570    -0.3760    -1.0670 H     1 <1>   0.0800 
 27 H       -0.7110    -2.5240    -1.1240 H     1 <1>   0.0800 
 28 H       -0.7460    -2.5830     0.6140 H     1 <1>   0.0800 
 29 H       -3.1830    -2.6110    -1.1860 H     1 <1>   0.0800 
 30 H       -3.2300    -2.6240     0.5570 H     1 <1>   0.0800 
 31 H       -5.2850    -4.1720     0.8220 H     1 <1>   0.0800 
 32 H       -5.3120    -3.9460    -0.9310 H     1 <1>   0.0800 
 33 H       -3.4880    -7.0160    -1.1620 H     1 <1>   0.0800 
 34 H       -3.0370    -7.0330     0.5340 H     1 <1>   0.0800 
 35 H       -6.3240    -5.9850    -1.3080 H     1 <1>   0.0800 
 36 H       -5.2200    -7.1200     1.2640 H     1 <1>   0.0800 
 37 H       -6.9470    -5.7840     1.4450 H     1 <1>   0.4000 
 38 H       -5.6120    -8.3300    -1.4930 H     1 <1>   0.0800 
 39 H       -6.6310    -8.6130    -0.1090 H     1 <1>   0.0800 
 40 H       -3.6660   -10.3680    -1.7050 H     1 <1>   0.1500 
 41 H       -2.7200   -12.9580    -0.5740 H     1 <1>   0.0800 
 42 H       -2.0800   -12.7110     1.0340 H     1 <1>   0.0800 
 43 H       -1.4220   -11.8080    -0.3120 H     1 <1>   0.0800 
@<TRIPOS>BOND
  1   1   2  2   
  2   1   3  2   
  3   1   4  am  
  4   1   5  1   
  5   4  23  1   
  6   4  24  1   
  7   5   6  1   
  8   5  25  1   
  9   5  26  1   
 10   6   7  1   
 11   6  27  1   
 12   6  28  1   
 13   7   8  1   
 14   7  29  1   
 15   7  30  1   
 16   8   9  2   
 17   8  10  am  
 18  10  11  1   
 19  10  12  1   
 20  11  13  1   
 21  11  31  1   
 22  11  32  1   
 23  12  14  1   
 24  12  33  1   
 25  12  34  1   
 26  13  14  1   
 27  13  15  1   
 28  13  35  1   
 29  14  16  1   
 30  14  36  1   
 31  15  37  1   
 32  16  17  1   
 33  16  38  1   
 34  16  39  1   
 35  17  18  1   
 36  17  19  2   
 37  18  20  1   
 38  19  21  1   
 39  19  40  1   
 40  20  21  2   
 41  21  22  1   
 42  22  41  1   
 43  22  42  1   
 44  22  43  1   
@<TRIPOS>SUBSTRUCTURE
  1 ****  10 GROUP 4 **** **** 0

# MOE 2024.06 (io_trps.svl 2023.06)
