@<TRIPOS>MOLECULE
NONAME
51 55 1 0 0 
SMALL
USER_CHARGES


@<TRIPOS>ATOM
  1 O        3.1890    -1.7020     2.2900 O.2   1 <1>  -0.5700 
  2 C        2.3280    -1.8970     1.4460 C.2   1 <1>   0.5440 
  3 N        1.5760    -0.8000     1.0590 N.am  1 <1>  -0.6600 
  4 C        2.1750    -3.2490     0.8970 C.ar  1 <1>   0.3960 
  5 C        0.5330    -0.7760     0.0060 C.3   1 <1>   0.1400 
  6 C        1.8370     0.5660     1.5660 C.3   1 <1>   0.1400 
  7 N        1.0010    -3.6790     0.4030 N.ar  1 <1>  -0.6200 
  8 C        3.2990    -4.0840     0.9140 C.ar  1 <1>   0.1600 
  9 C        0.0550     0.6710    -0.0530 C.3   1 <1>  -0.1600 
 10 C        1.1990     1.4900     0.5370 C.3   1 <1>  -0.1600 
 11 C        1.0260    -4.9230    -0.0450 C.ar  1 <1>   0.4100 
 12 N        3.3500    -5.3290     0.4610 N.ar  1 <1>  -0.6200 
 13 N       -0.1600    -5.4300    -0.5410 N.pl3 1 <1>  -0.8380 
 14 C        2.1850    -5.7130    -0.0180 C.ar  1 <1>   0.1600 
 15 C       -0.8250    -6.5030     0.2680 C.3   1 <1>   0.3900 
 16 C       -1.1100    -4.5220    -1.2620 C.3   1 <1>   0.2090 
 17 C       -1.9970    -7.0850    -0.5050 C.2   1 <1>  -0.1810 
 18 C       -1.9670    -5.2960    -2.2820 C.3   1 <1>   0.0200 
 19 C       -2.7370    -8.2460    -0.1960 C.ar  1 <1>   0.0000 
 20 C       -2.5090    -6.5590    -1.6390 C.2   1 <1>  -0.3320 
 21 C       -3.6920    -8.3760    -1.2010 C.ar  1 <1>  -0.1520 
 22 C       -2.6850    -9.1920     0.8320 C.ar  1 <1>  -0.1500 
 23 N       -3.5400    -7.3340    -2.0860 N.pl3 1 <1>   0.0330 
 24 C       -4.5980    -9.4390    -1.1950 C.ar  1 <1>  -0.1500 
 25 C       -3.5750   -10.2420     0.8440 C.ar  1 <1>   0.0830 
 26 C       -4.5370   -10.3640    -0.1780 C.ar  1 <1>  -0.1500 
 27 O       -3.4670   -11.1260     1.8750 O.3   1 <1>  -0.3630 
 28 C       -4.3250   -12.2400     1.9680 C.3   1 <1>   0.0400 
 29 H       -0.2790    -1.4360     0.2570 H     1 <1>   0.0800 
 30 H        0.9690    -1.0720    -0.9320 H     1 <1>   0.0800 
 31 H        2.8940     0.7510     1.6640 H     1 <1>   0.0800 
 32 H        1.3610     0.6780     2.5250 H     1 <1>   0.0800 
 33 H        4.2120    -3.6910     1.3290 H     1 <1>   0.1500 
 34 H       -0.8210     0.7730     0.5640 H     1 <1>   0.0800 
 35 H       -0.1890     0.9710    -1.0570 H     1 <1>   0.0800 
 36 H        1.9230     1.7120    -0.2270 H     1 <1>   0.0800 
 37 H        0.8620     2.4100     0.9800 H     1 <1>   0.0800 
 38 H        2.1130    -6.7050    -0.4220 H     1 <1>   0.1500 
 39 H       -1.1790    -6.0870     1.1950 H     1 <1>   0.0800 
 40 H       -0.1210    -7.2860     0.4850 H     1 <1>   0.0800 
 41 H       -0.5620    -3.7460    -1.7680 H     1 <1>   0.0800 
 42 H       -1.7570    -4.0580    -0.5360 H     1 <1>   0.0800 
 43 H       -1.3610    -5.5560    -3.1320 H     1 <1>   0.0800 
 44 H       -2.7730    -4.6680    -2.6150 H     1 <1>   0.0800 
 45 H       -1.9520    -9.0980     1.6090 H     1 <1>   0.1500 
 46 H       -4.1030    -7.1860    -2.9280 H     1 <1>   0.2700 
 47 H       -5.3290    -9.5240    -1.9790 H     1 <1>   0.1500 
 48 H       -5.2360   -11.1780    -0.1790 H     1 <1>   0.1500 
 49 H       -4.0570   -12.7950     2.8490 H     1 <1>   0.0800 
 50 H       -4.1950   -12.8550     1.0960 H     1 <1>   0.0800 
 51 H       -5.3400   -11.8930     2.0510 H     1 <1>   0.0800 
@<TRIPOS>BOND
  1   1   2  2   
  2   2   3  am  
  3   2   4  1   
  4   3   5  1   
  5   3   6  1   
  6   4   7  ar  
  7   4   8  ar  
  8   5   9  1   
  9   5  29  1   
 10   5  30  1   
 11   6  10  1   
 12   6  31  1   
 13   6  32  1   
 14   7  11  ar  
 15   8  12  ar  
 16   8  33  1   
 17   9  10  1   
 18   9  34  1   
 19   9  35  1   
 20  10  36  1   
 21  10  37  1   
 22  11  13  1   
 23  11  14  ar  
 24  12  14  ar  
 25  13  15  1   
 26  13  16  1   
 27  14  38  1   
 28  15  17  1   
 29  15  39  1   
 30  15  40  1   
 31  16  18  1   
 32  16  41  1   
 33  16  42  1   
 34  17  19  1   
 35  17  20  2   
 36  18  20  1   
 37  18  43  1   
 38  18  44  1   
 39  19  21  ar  
 40  19  22  ar  
 41  20  23  1   
 42  21  23  1   
 43  21  24  ar  
 44  22  25  ar  
 45  22  45  1   
 46  23  46  1   
 47  24  26  ar  
 48  24  47  1   
 49  25  26  ar  
 50  25  27  1   
 51  26  48  1   
 52  27  28  1   
 53  28  49  1   
 54  28  50  1   
 55  28  51  1   
@<TRIPOS>SUBSTRUCTURE
  1 ****  13 GROUP 4 **** **** 0

# MOE 2024.06 (io_trps.svl 2023.06)
