@<TRIPOS>MOLECULE
NONAME
44 45 1 0 0 
SMALL
USER_CHARGES


@<TRIPOS>ATOM
  1 O        1.1240     0.2720     0.8750 O.2   1 <1>  -0.5700 
  2 C        1.6940    -0.4590     0.0880 C.2   1 <1>   0.5440 
  3 N        2.3720     0.1110    -0.9550 N.am  1 <1>  -0.7300 
  4 C        1.6490    -1.9030     0.2450 C.ar  1 <1>   0.0860 
  5 C        2.3880     1.5610    -1.2700 C.3   1 <1>   0.1400 
  6 C        0.5760    -2.5180     0.8890 C.ar  1 <1>  -0.1500 
  7 C        2.6640    -2.7350    -0.2330 C.ar  1 <1>  -0.1500 
  8 C        3.3650     2.2870    -0.3410 C.3   1 <1>  -0.0990 
  9 C        0.5080    -3.8910     1.0380 C.ar  1 <1>  -0.1500 
 10 C        2.6010    -4.1090    -0.0880 C.ar  1 <1>  -0.1500 
 11 C        3.5480     3.7530    -0.7020 C.2   1 <1>   0.5690 
 12 C        1.5210    -4.6970     0.5460 C.ar  1 <1>  -0.1430 
 13 O        2.9150     4.1910    -1.6340 O.2   1 <1>  -0.5700 
 14 N        4.4240     4.5440     0.0070 N.am  1 <1>  -0.6600 
 15 C        1.4490    -6.2050     0.7080 C.3   1 <1>  -0.0970 
 16 C        4.6620     5.9710    -0.4450 C.3   1 <1>   0.2200 
 17 C        5.1290     4.0890     1.2490 C.3   1 <1>   0.0600 
 18 C        6.1390     6.3280    -0.5970 C.3   1 <1>   0.2000 
 19 C        4.1720     6.9930     0.5890 C.3   1 <1>   0.1200 
 20 O        6.2870     7.2930    -1.5880 O.3   1 <1>  -0.6800 
 21 C        6.4770     6.9770     0.7420 C.3   1 <1>   0.1200 
 22 O        5.2990     7.5770     1.1910 O.3   1 <1>  -0.5600 
 23 H        2.7410    -0.4970    -1.6870 H     1 <1>   0.3700 
 24 H        2.6820     1.6980    -2.2970 H     1 <1>   0.0800 
 25 H        1.3980     1.9690    -1.1440 H     1 <1>   0.0800 
 26 H       -0.2170    -1.9020     1.2790 H     1 <1>   0.1500 
 27 H        3.5200    -2.3040    -0.7180 H     1 <1>   0.1500 
 28 H        4.3220     1.8030    -0.3890 H     1 <1>   0.0800 
 29 H        2.9820     2.2250     0.6600 H     1 <1>   0.0800 
 30 H       -0.3360    -4.3300     1.5400 H     1 <1>   0.1500 
 31 H        3.4000    -4.7230    -0.4680 H     1 <1>   0.1500 
 32 H        0.4260    -6.5350     0.7080 H     1 <1>   0.0800 
 33 H        1.9060    -6.4920     1.6380 H     1 <1>   0.0800 
 34 H        1.9640    -6.6960    -0.0980 H     1 <1>   0.0800 
 35 H        4.1610     6.1410    -1.3820 H     1 <1>   0.0800 
 36 H        5.0210     4.8240     2.0270 H     1 <1>   0.0800 
 37 H        6.1750     3.9450     1.0410 H     1 <1>   0.0800 
 38 H        4.7280     3.1650     1.6210 H     1 <1>   0.0800 
 39 H        6.7600     5.4860    -0.8480 H     1 <1>   0.0800 
 40 H        3.5580     6.5400     1.3470 H     1 <1>   0.0800 
 41 H        3.6210     7.7800     0.1050 H     1 <1>   0.0800 
 42 H        5.8590     8.1230    -1.2950 H     1 <1>   0.4000 
 43 H        7.2520     7.7190     0.6560 H     1 <1>   0.0800 
 44 H        6.7690     6.2400     1.4670 H     1 <1>   0.0800 
@<TRIPOS>BOND
  1   1   2  2   
  2   2   3  am  
  3   2   4  1   
  4   3   5  1   
  5   3  23  1   
  6   4   6  ar  
  7   4   7  ar  
  8   5   8  1   
  9   5  24  1   
 10   5  25  1   
 11   6   9  ar  
 12   6  26  1   
 13   7  10  ar  
 14   7  27  1   
 15   8  11  1   
 16   8  28  1   
 17   8  29  1   
 18   9  12  ar  
 19   9  30  1   
 20  10  12  ar  
 21  10  31  1   
 22  11  13  2   
 23  11  14  am  
 24  12  15  1   
 25  14  16  1   
 26  14  17  1   
 27  15  32  1   
 28  15  33  1   
 29  15  34  1   
 30  16  18  1   
 31  16  19  1   
 32  16  35  1   
 33  17  36  1   
 34  17  37  1   
 35  17  38  1   
 36  18  20  1   
 37  18  21  1   
 38  18  39  1   
 39  19  22  1   
 40  19  40  1   
 41  19  41  1   
 42  20  42  1   
 43  21  22  1   
 44  21  43  1   
 45  21  44  1   
@<TRIPOS>SUBSTRUCTURE
  1 ****   8 GROUP 4 **** **** 0

# MOE 2024.06 (io_trps.svl 2023.06)
