@<TRIPOS>MOLECULE
NONAME
58 60 1 0 0 
SMALL
USER_CHARGES


@<TRIPOS>ATOM
  1 O        1.3120     2.5370    -1.3710 O.co2 1 <1>  -0.9000 
  2 C        1.4340     1.7970    -0.3910 C.2   1 <1>   0.9060 
  3 O        1.3000     2.2360     0.7540 O.co2 1 <1>  -0.9000 
  4 C        2.1020     0.4190    -0.5790 C.3   1 <1>  -0.1060 
  5 C        3.4370     0.5020     0.1860 C.3   1 <1>   0.4230 
  6 C        2.4380     0.1380    -2.0810 C.3   1 <1>  -0.1600 
  7 C        1.2340    -0.7470    -0.0360 C.3   1 <1>  -0.1600 
  8 N        3.1750     0.6110     1.6660 N.4   1 <1>  -0.9590 
  9 C        4.3060     1.6630    -0.3930 C.3   1 <1>   0.3430 
 10 C        3.5530     1.0110    -2.7000 C.3   1 <1>   0.3430 
 11 C        1.1120    -0.7340     1.4970 C.3   1 <1>  -0.1600 
 12 C        2.4630    -0.5790     2.2010 C.3   1 <1>   0.3430 
 13 C        4.3320     1.0120     2.5220 C.3   1 <1>   0.2630 
 14 N        3.9180     2.1150    -1.7830 N.4   1 <1>  -0.9590 
 15 C        4.8310     3.1380    -2.3510 C.3   1 <1>   0.4860 
 16 C        5.0640     4.2000    -1.2930 C.ar  1 <1>  -0.1430 
 17 C        6.2060     4.1500    -0.5040 C.ar  1 <1>   0.0830 
 18 C        4.1130     5.1820    -1.0770 C.ar  1 <1>  -0.1500 
 19 O        7.0790     3.1380    -0.7810 O.3   1 <1>  -0.3620 
 20 C        6.3830     5.0720     0.5370 C.ar  1 <1>   0.0830 
 21 C        4.2880     6.1060    -0.0650 C.ar  1 <1>  -0.1500 
 22 C        8.4650     3.4150    -0.8490 C.3   1 <1>   0.0400 
 23 O        7.4760     4.9410     1.3480 O.3   1 <1>  -0.3630 
 24 C        5.4090     6.0560     0.7590 C.ar  1 <1>   0.0830 
 25 C        8.2850     6.0740     1.5950 C.3   1 <1>   0.0400 
 26 O        5.5610     6.9250     1.8000 O.3   1 <1>  -0.3630 
 27 C        4.5110     7.7640     2.2330 C.3   1 <1>   0.0400 
 28 H        3.9740    -0.4150     0.0120 H     1 <1>   0.0800 
 29 H        1.5430     0.2780    -2.6650 H     1 <1>   0.0800 
 30 H        2.7250    -0.8900    -2.2160 H     1 <1>   0.0800 
 31 H        0.2480    -0.6920    -0.4710 H     1 <1>   0.0800 
 32 H        1.6630    -1.6900    -0.3290 H     1 <1>   0.0800 
 33 H        2.4510     1.3830     1.7040 H     1 <1>   0.4500 
 34 H        5.3400     1.3620    -0.3900 H     1 <1>   0.0800 
 35 H        4.2030     2.5080     0.2680 H     1 <1>   0.0800 
 36 H        3.2000     1.4170    -3.6350 H     1 <1>   0.0800 
 37 H        4.4220     0.4050    -2.9010 H     1 <1>   0.0800 
 38 H        0.6480    -1.6480     1.8250 H     1 <1>   0.0800 
 39 H        0.4640     0.0690     1.8050 H     1 <1>   0.0800 
 40 H        3.0590    -1.4630     2.0460 H     1 <1>   0.0800 
 41 H        2.2940    -0.4610     3.2590 H     1 <1>   0.0800 
 42 H        5.1120     0.2690     2.4760 H     1 <1>   0.0800 
 43 H        4.0130     1.1150     3.5460 H     1 <1>   0.0800 
 44 H        4.7310     1.9610     2.2000 H     1 <1>   0.0800 
 45 H        2.9990     2.6220    -1.6580 H     1 <1>   0.4500 
 46 H        5.7680     2.6880    -2.6330 H     1 <1>   0.0800 
 47 H        4.3860     3.5870    -3.2240 H     1 <1>   0.0800 
 48 H        3.2170     5.2270    -1.6780 H     1 <1>   0.1500 
 49 H        3.5250     6.8510     0.0690 H     1 <1>   0.1500 
 50 H        8.9260     2.6900    -1.4960 H     1 <1>   0.0800 
 51 H        8.8870     3.3350     0.1370 H     1 <1>   0.0800 
 52 H        8.6120     4.4060    -1.2420 H     1 <1>   0.0800 
 53 H        9.2840     5.7360     1.8020 H     1 <1>   0.0800 
 54 H        7.8990     6.5990     2.4500 H     1 <1>   0.0800 
 55 H        8.2810     6.7110     0.7280 H     1 <1>   0.0800 
 56 H        4.8350     8.2710     3.1230 H     1 <1>   0.0800 
 57 H        3.6470     7.1610     2.4500 H     1 <1>   0.0800 
 58 H        4.2960     8.4840     1.4630 H     1 <1>   0.0800 
@<TRIPOS>BOND
  1   1   2  ar  
  2   2   3  ar  
  3   2   4  1   
  4   4   5  1   
  5   4   6  1   
  6   4   7  1   
  7   5   8  1   
  8   5   9  1   
  9   5  28  1   
 10   6  10  1   
 11   6  29  1   
 12   6  30  1   
 13   7  11  1   
 14   7  31  1   
 15   7  32  1   
 16   8  12  1   
 17   8  13  1   
 18   8  33  1   
 19   9  14  1   
 20   9  34  1   
 21   9  35  1   
 22  10  14  1   
 23  10  36  1   
 24  10  37  1   
 25  11  12  1   
 26  11  38  1   
 27  11  39  1   
 28  12  40  1   
 29  12  41  1   
 30  13  42  1   
 31  13  43  1   
 32  13  44  1   
 33  14  15  1   
 34  14  45  1   
 35  15  16  1   
 36  15  46  1   
 37  15  47  1   
 38  16  17  ar  
 39  16  18  ar  
 40  17  19  1   
 41  17  20  ar  
 42  18  21  ar  
 43  18  48  1   
 44  19  22  1   
 45  20  23  1   
 46  20  24  ar  
 47  21  24  ar  
 48  21  49  1   
 49  22  50  1   
 50  22  51  1   
 51  22  52  1   
 52  23  25  1   
 53  24  26  1   
 54  25  53  1   
 55  25  54  1   
 56  25  55  1   
 57  26  27  1   
 58  27  56  1   
 59  27  57  1   
 60  27  58  1   
@<TRIPOS>SUBSTRUCTURE
  1 ****   9 GROUP 4 **** **** 0

# MOE 2024.06 (io_trps.svl 2023.06)
