@<TRIPOS>MOLECULE
NONAME
51 54 1 0 0 
SMALL
USER_CHARGES


@<TRIPOS>ATOM
  1 O       -1.8950     0.2050    -2.0830 O.2   1 <1>  -0.5700 
  2 C       -1.7670     0.2360    -0.8740 C.2   1 <1>   0.7160 
  3 N       -1.7060    -0.9450    -0.1990 N.am  1 <1>  -0.7300 
  4 C       -1.7110     1.4890    -0.1660 C.2   1 <1>  -0.0860 
  5 C       -1.8190    -2.2930    -0.8030 C.3   1 <1>   0.2200 
  6 C       -1.7090     1.6790     1.2190 C.2   1 <1>   0.1390 
  7 C       -1.6570     2.7620    -0.6450 C.2   1 <1>  -0.3020 
  8 C       -3.2000    -2.8940    -0.5610 C.3   1 <1>  -0.0800 
  9 C       -0.9540    -3.2540    -0.0010 C.3   1 <1>   0.1200 
 10 N       -1.6610     2.9260     1.5610 N.2   1 <1>  -0.7070 
 11 N       -1.6260     3.6050     0.3990 N.pl3 1 <1>   0.3140 
 12 C       -3.0680    -3.4800     0.8520 C.3   1 <1>   0.1200 
 13 C       -4.3830    -1.9190    -0.7390 C.3   1 <1>  -0.0160 
 14 O       -1.7010    -3.5350     1.1430 O.3   1 <1>  -0.5600 
 15 C       -1.5610     5.0920     0.3650 C.3   1 <1>   0.1760 
 16 C       -5.7900    -2.5090    -0.5930 C.ar  1 <1>  -0.1440 
 17 C       -2.8000     5.6750    -0.3290 C.3   1 <1>  -0.2400 
 18 C       -0.2720     5.5640    -0.3240 C.3   1 <1>  -0.2400 
 19 C       -6.9080    -1.6400    -0.5230 C.ar  1 <1>   0.0000 
 20 C       -6.0450    -3.8510    -0.5290 C.ar  1 <1>  -0.1500 
 21 C       -8.1910    -2.2170    -0.3570 C.ar  1 <1>   0.3100 
 22 C       -6.8300    -0.2290    -0.6170 C.ar  1 <1>  -0.1500 
 23 C       -7.3560    -4.3180    -0.3740 C.ar  1 <1>   0.1600 
 24 N       -8.3970    -3.5550    -0.2830 N.ar  1 <1>  -0.6200 
 25 C       -9.3120    -1.3770    -0.2690 C.ar  1 <1>  -0.1500 
 26 C       -7.9430     0.5620    -0.5300 C.ar  1 <1>  -0.1500 
 27 C       -9.2010    -0.0160    -0.3510 C.ar  1 <1>  -0.1500 
 28 H       -1.5980    -0.9550     0.8160 H     1 <1>   0.3700 
 29 H       -1.5480    -2.2710    -1.8460 H     1 <1>   0.0800 
 30 H       -1.7480     0.8820     1.9420 H     1 <1>   0.1500 
 31 H       -1.6410     3.0840    -1.6710 H     1 <1>   0.1500 
 32 H       -3.3150    -3.7080    -1.2550 H     1 <1>   0.0800 
 33 H       -0.0040    -2.8310     0.2770 H     1 <1>   0.0800 
 34 H       -0.8050    -4.1750    -0.5360 H     1 <1>   0.0800 
 35 H       -3.4740    -4.4740     0.9170 H     1 <1>   0.0800 
 36 H       -3.5350    -2.8490     1.5900 H     1 <1>   0.0800 
 37 H       -4.3080    -1.4650    -1.7130 H     1 <1>   0.0800 
 38 H       -4.2830    -1.1370    -0.0080 H     1 <1>   0.0800 
 39 H       -1.5470     5.4320     1.3860 H     1 <1>   0.0800 
 40 H       -2.8420     5.3690    -1.3590 H     1 <1>   0.0800 
 41 H       -2.7700     6.7490    -0.2920 H     1 <1>   0.0800 
 42 H       -3.6910     5.3440     0.1760 H     1 <1>   0.0800 
 43 H       -0.2540     5.2560    -1.3550 H     1 <1>   0.0800 
 44 H        0.5840     5.1540     0.1820 H     1 <1>   0.0800 
 45 H       -0.2060     6.6360    -0.2860 H     1 <1>   0.0800 
 46 H       -5.2750    -4.5930    -0.5930 H     1 <1>   0.1500 
 47 H       -5.8770     0.2430    -0.7640 H     1 <1>   0.1500 
 48 H       -7.5070    -5.3830    -0.3250 H     1 <1>   0.1500 
 49 H      -10.2700    -1.8450    -0.1350 H     1 <1>   0.1500 
 50 H       -7.8650     1.6340    -0.6000 H     1 <1>   0.1500 
 51 H      -10.0700     0.6170    -0.2820 H     1 <1>   0.1500 
@<TRIPOS>BOND
  1   1   2  2   
  2   2   3  am  
  3   2   4  1   
  4   3   5  1   
  5   3  28  1   
  6   4   6  1   
  7   4   7  2   
  8   5   8  1   
  9   5   9  1   
 10   5  29  1   
 11   6  10  2   
 12   6  30  1   
 13   7  11  1   
 14   7  31  1   
 15   8  12  1   
 16   8  13  1   
 17   8  32  1   
 18   9  14  1   
 19   9  33  1   
 20   9  34  1   
 21  10  11  1   
 22  11  15  1   
 23  12  14  1   
 24  12  35  1   
 25  12  36  1   
 26  13  16  1   
 27  13  37  1   
 28  13  38  1   
 29  15  17  1   
 30  15  18  1   
 31  15  39  1   
 32  16  19  ar  
 33  16  20  ar  
 34  17  40  1   
 35  17  41  1   
 36  17  42  1   
 37  18  43  1   
 38  18  44  1   
 39  18  45  1   
 40  19  21  ar  
 41  19  22  ar  
 42  20  23  ar  
 43  20  46  1   
 44  21  24  ar  
 45  21  25  ar  
 46  22  26  ar  
 47  22  47  1   
 48  23  24  ar  
 49  23  48  1   
 50  25  27  ar  
 51  25  49  1   
 52  26  27  ar  
 53  26  50  1   
 54  27  51  1   
@<TRIPOS>SUBSTRUCTURE
  1 ****  13 GROUP 4 **** **** 0

# MOE 2024.06 (io_trps.svl 2023.06)
