@<TRIPOS>MOLECULE
NONAME
46 47 1 0 0 
SMALL
USER_CHARGES


@<TRIPOS>ATOM
  1 S        1.1630     0.9000    -1.5640 S.o2  1 <1>   1.3330 
  2 O        1.0820    -0.5240    -1.8000 O.2   1 <1>  -0.6500 
  3 O        0.7500     1.8270    -2.5930 O.2   1 <1>  -0.6500 
  4 N        0.2520     1.2560    -0.1740 N.am  1 <1>  -0.8490 
  5 C        2.8430     1.2880    -1.0690 C.3   1 <1>  -0.0550 
  6 C       -0.0980     2.6760    -0.0550 C.3   1 <1>   0.1160 
  7 C       -0.9640     0.4400    -0.0860 C.3   1 <1>   0.1160 
  8 C        3.4570     0.2950    -0.0580 C.3   1 <1>  -0.0800 
  9 C        4.9210     0.5440     0.2770 C.3   1 <1>   0.2200 
 10 C        2.7950     0.2670     1.3260 C.3   1 <1>   0.1200 
 11 N        5.1660     1.9850     0.5140 N.am  1 <1>  -0.7300 
 12 C        5.0220    -0.1870     1.6080 C.3   1 <1>   0.1200 
 13 O        3.8240     0.1040     2.2610 O.3   1 <1>  -0.5600 
 14 C        5.6800     2.8500    -0.3910 C.2   1 <1>   0.5690 
 15 O        5.9690     2.5040    -1.5090 O.2   1 <1>  -0.5700 
 16 C        5.8380     4.2990     0.0030 C.3   1 <1>  -0.0990 
 17 C        4.5500     5.0770    -0.2870 C.3   1 <1>  -0.0170 
 18 C        4.6820     6.5190     0.1690 C.ar  1 <1>  -0.1440 
 19 C        4.2950     6.9260     1.4300 C.ar  1 <1>  -0.1500 
 20 C        5.1980     7.4980    -0.6560 C.ar  1 <1>  -0.1500 
 21 C        4.4380     8.2540     1.7940 C.ar  1 <1>   0.1600 
 22 C        5.2980     8.7990    -0.1940 C.ar  1 <1>   0.1600 
 23 N        4.9310     9.2010     1.0120 N.ar  1 <1>  -0.6200 
 24 H        3.4610     1.2860    -1.9470 H     1 <1>   0.0800 
 25 H        2.8670     2.2800    -0.6670 H     1 <1>   0.0800 
 26 H       -0.5900     2.8580     0.8850 H     1 <1>   0.0800 
 27 H       -0.7540     2.9710    -0.8570 H     1 <1>   0.0800 
 28 H        0.7900     3.2830    -0.0970 H     1 <1>   0.0800 
 29 H       -1.5130     0.6810     0.8080 H     1 <1>   0.0800 
 30 H       -0.7060    -0.6050    -0.0500 H     1 <1>   0.0800 
 31 H       -1.5920     0.6100    -0.9460 H     1 <1>   0.0800 
 32 H        3.3800    -0.6960    -0.4730 H     1 <1>   0.0800 
 33 H        5.5980     0.1550    -0.4660 H     1 <1>   0.0800 
 34 H        2.1000    -0.5500     1.4200 H     1 <1>   0.0800 
 35 H        2.2980     1.1940     1.5520 H     1 <1>   0.0800 
 36 H        4.8990     2.2950     1.4520 H     1 <1>   0.3700 
 37 H        5.8540     0.1410     2.2060 H     1 <1>   0.0800 
 38 H        5.0710    -1.2520     1.4600 H     1 <1>   0.0800 
 39 H        6.0820     4.3630     1.0470 H     1 <1>   0.0800 
 40 H        6.6510     4.7240    -0.5570 H     1 <1>   0.0800 
 41 H        3.7220     4.6160     0.2220 H     1 <1>   0.0800 
 42 H        4.3420     5.0480    -1.3430 H     1 <1>   0.0800 
 43 H        3.8850     6.2250     2.1340 H     1 <1>   0.1500 
 44 H        5.5220     7.2610    -1.6530 H     1 <1>   0.1500 
 45 H        4.1310     8.5540     2.7820 H     1 <1>   0.1500 
 46 H        5.7030     9.5500    -0.8510 H     1 <1>   0.1500 
@<TRIPOS>BOND
  1   1   2  2   
  2   1   3  2   
  3   1   4  am  
  4   1   5  1   
  5   4   6  1   
  6   4   7  1   
  7   5   8  1   
  8   5  24  1   
  9   5  25  1   
 10   6  26  1   
 11   6  27  1   
 12   6  28  1   
 13   7  29  1   
 14   7  30  1   
 15   7  31  1   
 16   8   9  1   
 17   8  10  1   
 18   8  32  1   
 19   9  11  1   
 20   9  12  1   
 21   9  33  1   
 22  10  13  1   
 23  10  34  1   
 24  10  35  1   
 25  11  14  am  
 26  11  36  1   
 27  12  13  1   
 28  12  37  1   
 29  12  38  1   
 30  14  15  2   
 31  14  16  1   
 32  16  17  1   
 33  16  39  1   
 34  16  40  1   
 35  17  18  1   
 36  17  41  1   
 37  17  42  1   
 38  18  19  ar  
 39  18  20  ar  
 40  19  21  ar  
 41  19  43  1   
 42  20  22  ar  
 43  20  44  1   
 44  21  23  ar  
 45  21  45  1   
 46  22  23  ar  
 47  22  46  1   
@<TRIPOS>SUBSTRUCTURE
  1 ****  11 GROUP 4 **** **** 0

# MOE 2024.06 (io_trps.svl 2023.06)
