@<TRIPOS>MOLECULE
NONAME
41 43 1 0 0 
SMALL
USER_CHARGES


@<TRIPOS>ATOM
  1 F        2.3660     0.9930     1.1280 F     1 <1>  -0.1900 
  2 C        2.5840    -0.0580     0.3820 C.ar  1 <1>   0.1900 
  3 C        3.8740    -0.3240    -0.0880 C.ar  1 <1>   0.0860 
  4 C        1.4930    -0.8630     0.1090 C.ar  1 <1>  -0.1500 
  5 C        5.0160     0.5310     0.1810 C.2   1 <1>   0.5440 
  6 C        4.0240    -1.4860    -0.8480 C.ar  1 <1>  -0.1500 
  7 C        1.6750    -1.9980    -0.6590 C.ar  1 <1>  -0.1500 
  8 O        6.1410     0.0690     0.2330 O.2   1 <1>  -0.5700 
  9 N        4.9250     1.8950     0.2910 N.am  1 <1>  -0.6600 
 10 C        2.9410    -2.3040    -1.1280 C.ar  1 <1>   0.0830 
 11 C        5.7520     2.6030     1.3380 C.3   1 <1>   0.2200 
 12 C        4.3410     2.6800    -0.8310 C.3   1 <1>   0.1400 
 13 O        3.1030    -3.4150    -1.8610 O.3   1 <1>  -0.5320 
 14 C        5.1320     3.9350     1.7890 C.3   1 <1>   0.1200 
 15 C        7.2060     2.8220     0.8550 C.3   1 <1>   0.3430 
 16 C        5.1570     3.9350    -1.1990 C.3   1 <1>  -0.0800 
 17 O        5.5480     4.9760     0.9540 O.3   1 <1>  -0.5600 
 18 N        7.3340     2.6470    -0.6310 N.4   1 <1>  -0.9590 
 19 C        4.8610     5.1050    -0.2450 C.3   1 <1>   0.1200 
 20 C        6.6730     3.7280    -1.4360 C.3   1 <1>   0.3430 
 21 C        8.7530     2.4310    -1.0280 C.3   1 <1>   0.2630 
 22 H        0.5210    -0.6080     0.4930 H     1 <1>   0.1500 
 23 H        4.9990    -1.7480    -1.2180 H     1 <1>   0.1500 
 24 H        0.8500    -2.6480    -0.8920 H     1 <1>   0.1500 
 25 H        5.7850     1.9680     2.2070 H     1 <1>   0.0800 
 26 H        4.2730     2.0460    -1.7000 H     1 <1>   0.0800 
 27 H        3.3360     2.9660    -0.5680 H     1 <1>   0.0800 
 28 H        4.0270    -3.6000    -2.1070 H     1 <1>   0.4500 
 29 H        5.4910     4.1740     2.7750 H     1 <1>   0.0800 
 30 H        4.0560     3.8880     1.8250 H     1 <1>   0.0800 
 31 H        7.8240     2.0900     1.3480 H     1 <1>   0.0800 
 32 H        7.5520     3.7980     1.1520 H     1 <1>   0.0800 
 33 H        4.7600     4.2640    -2.1420 H     1 <1>   0.0800 
 34 H        6.8080     1.7630    -0.7840 H     1 <1>   0.4500 
 35 H        3.8070     5.1940    -0.0360 H     1 <1>   0.0800 
 36 H        5.1880     6.0300    -0.6900 H     1 <1>   0.0800 
 37 H        7.1770     4.6640    -1.2520 H     1 <1>   0.0800 
 38 H        6.8100     3.4940    -2.4790 H     1 <1>   0.0800 
 39 H        9.3380     3.3130    -0.8210 H     1 <1>   0.0800 
 40 H        8.8160     2.2120    -2.0820 H     1 <1>   0.0800 
 41 H        9.1690     1.6010    -0.4810 H     1 <1>   0.0800 
@<TRIPOS>BOND
  1   1   2  1   
  2   2   3  ar  
  3   2   4  ar  
  4   3   5  1   
  5   3   6  ar  
  6   4   7  ar  
  7   4  22  1   
  8   5   8  2   
  9   5   9  am  
 10   6  10  ar  
 11   6  23  1   
 12   7  10  ar  
 13   7  24  1   
 14   9  11  1   
 15   9  12  1   
 16  10  13  1   
 17  11  14  1   
 18  11  15  1   
 19  11  25  1   
 20  12  16  1   
 21  12  26  1   
 22  12  27  1   
 23  13  28  1   
 24  14  17  1   
 25  14  29  1   
 26  14  30  1   
 27  15  18  1   
 28  15  31  1   
 29  15  32  1   
 30  16  19  1   
 31  16  20  1   
 32  16  33  1   
 33  17  19  1   
 34  18  20  1   
 35  18  21  1   
 36  18  34  1   
 37  19  35  1   
 38  19  36  1   
 39  20  37  1   
 40  20  38  1   
 41  21  39  1   
 42  21  40  1   
 43  21  41  1   
@<TRIPOS>SUBSTRUCTURE
  1 ****   9 GROUP 4 **** **** 0

# MOE 2024.06 (io_trps.svl 2023.06)
