@<TRIPOS>MOLECULE
NONAME
51 53 1 0 0 
SMALL
USER_CHARGES


@<TRIPOS>ATOM
  1 O       -1.1950     0.0010    -1.0920 O.2   1 <1>  -0.5700 
  2 C       -2.0760     0.8340    -1.2250 C.2   1 <1>   0.5440 
  3 N       -3.2970     0.4230    -1.7300 N.am  1 <1>  -0.6600 
  4 C       -1.8050     2.2050    -0.8510 C.ar  1 <1>   0.0860 
  5 C       -3.5080    -0.9870    -2.1530 C.3   1 <1>   0.3200 
  6 C       -4.4720     1.3400    -1.9030 C.3   1 <1>   0.1400 
  7 C       -2.4620     2.8280     0.2110 C.ar  1 <1>  -0.1500 
  8 C       -0.8580     2.9580    -1.5460 C.ar  1 <1>  -0.1500 
  9 C       -3.8350    -1.8090    -0.9260 C.2   1 <1>  -0.3320 
 10 C       -5.6570     0.9880    -0.9840 C.3   1 <1>   0.1200 
 11 C       -2.2020     4.1430     0.5440 C.ar  1 <1>  -0.1500 
 12 C       -0.5950     4.2720    -1.2120 C.ar  1 <1>  -0.1500 
 13 N       -2.9640    -1.9340     0.0900 N.pl3 1 <1>   0.0330 
 14 C       -4.9280    -2.5230    -0.5790 C.2   1 <1>   0.0770 
 15 O       -5.2240     0.7130     0.3030 O.3   1 <1>  -0.6800 
 16 C       -1.2670     4.8910    -0.1620 C.ar  1 <1>   0.1000 
 17 C       -3.5890    -2.7060     1.0030 C.2   1 <1>   0.0060 
 18 N       -4.7710    -3.0800     0.6360 N.2   1 <1>  -0.5650 
 19 N       -1.0210     6.2110     0.1880 N.pl3 1 <1>  -0.8380 
 20 C       -2.9540    -3.0840     2.3220 C.3   1 <1>  -0.0600 
 21 C       -0.5060     6.5310     1.5440 C.3   1 <1>   0.2090 
 22 C       -0.7710     7.2520    -0.8410 C.3   1 <1>   0.2090 
 23 C       -1.1230     7.8490     2.0220 C.3   1 <1>  -0.1600 
 24 C       -1.3850     8.5780    -0.3790 C.3   1 <1>  -0.1600 
 25 C       -0.8840     8.9850     1.0160 C.3   1 <1>  -0.1600 
 26 H       -2.6150    -1.3680    -2.6200 H     1 <1>   0.0800 
 27 H       -4.3090    -1.0460    -2.8680 H     1 <1>   0.0800 
 28 H       -4.8010     1.3010    -2.9260 H     1 <1>   0.0800 
 29 H       -4.1890     2.3590    -1.7130 H     1 <1>   0.0800 
 30 H       -3.1880     2.2710     0.7780 H     1 <1>   0.1500 
 31 H       -0.3230     2.4940    -2.3560 H     1 <1>   0.1500 
 32 H       -6.1790     0.1220    -1.3510 H     1 <1>   0.0800 
 33 H       -6.3470     1.8120    -0.9350 H     1 <1>   0.0800 
 34 H       -2.7290     4.6100     1.3550 H     1 <1>   0.1500 
 35 H        0.1430     4.8260    -1.7590 H     1 <1>   0.1500 
 36 H       -2.0320    -1.4960     0.1300 H     1 <1>   0.2700 
 37 H       -5.8370    -2.6680    -1.1390 H     1 <1>   0.1500 
 38 H       -4.7070    -0.1260     0.2940 H     1 <1>   0.4000 
 39 H       -2.0480    -3.6360     2.1500 H     1 <1>   0.0800 
 40 H       -3.6310    -3.6980     2.8890 H     1 <1>   0.0800 
 41 H       -2.7310    -2.1990     2.8900 H     1 <1>   0.0800 
 42 H        0.5660     6.6220     1.5000 H     1 <1>   0.0800 
 43 H       -0.7500     5.7380     2.2300 H     1 <1>   0.0800 
 44 H       -1.2140     6.9540    -1.7760 H     1 <1>   0.0800 
 45 H        0.2900     7.3650    -0.9810 H     1 <1>   0.0800 
 46 H       -0.7030     8.1130     2.9750 H     1 <1>   0.0800 
 47 H       -2.1800     7.7010     2.1560 H     1 <1>   0.0800 
 48 H       -2.4550     8.4680    -0.3600 H     1 <1>   0.0800 
 49 H       -1.1450     9.3480    -1.0900 H     1 <1>   0.0800 
 50 H        0.1690     9.2040     0.9670 H     1 <1>   0.0800 
 51 H       -1.3960     9.8740     1.3410 H     1 <1>   0.0800 
@<TRIPOS>BOND
  1   1   2  2   
  2   2   3  am  
  3   2   4  1   
  4   3   5  1   
  5   3   6  1   
  6   4   7  ar  
  7   4   8  ar  
  8   5   9  1   
  9   5  26  1   
 10   5  27  1   
 11   6  10  1   
 12   6  28  1   
 13   6  29  1   
 14   7  11  ar  
 15   7  30  1   
 16   8  12  ar  
 17   8  31  1   
 18   9  13  1   
 19   9  14  2   
 20  10  15  1   
 21  10  32  1   
 22  10  33  1   
 23  11  16  ar  
 24  11  34  1   
 25  12  16  ar  
 26  12  35  1   
 27  13  17  1   
 28  13  36  1   
 29  14  18  1   
 30  14  37  1   
 31  15  38  1   
 32  16  19  1   
 33  17  18  2   
 34  17  20  1   
 35  19  21  1   
 36  19  22  1   
 37  20  39  1   
 38  20  40  1   
 39  20  41  1   
 40  21  23  1   
 41  21  42  1   
 42  21  43  1   
 43  22  24  1   
 44  22  44  1   
 45  22  45  1   
 46  23  25  1   
 47  23  46  1   
 48  23  47  1   
 49  24  25  1   
 50  24  48  1   
 51  24  49  1   
 52  25  50  1   
 53  25  51  1   
@<TRIPOS>SUBSTRUCTURE
  1 ****   7 GROUP 4 **** **** 0

# MOE 2024.06 (io_trps.svl 2023.06)
