@<TRIPOS>MOLECULE
NONAME
51 52 1 0 0 
SMALL
USER_CHARGES


@<TRIPOS>ATOM
  1 O       -0.4430    -0.2290    -1.1130 O.2   1 <1>  -0.5700 
  2 C       -1.1960     0.6890    -0.8910 C.2   1 <1>   0.5690 
  3 N       -2.3700     0.5100    -0.2120 N.am  1 <1>  -0.6600 
  4 C       -0.7540     2.0860    -1.3650 C.3   1 <1>   0.4040 
  5 C       -2.7880    -0.8320     0.2660 C.3   1 <1>   0.1400 
  6 C       -3.4490     1.5030     0.0170 C.3   1 <1>   0.1400 
  7 N        0.3500     2.7380    -0.5330 N.4   1 <1>  -0.9590 
  8 C       -4.0770    -0.5910     1.0410 C.3   1 <1>  -0.1600 
  9 C       -4.6620     0.6760     0.4270 C.3   1 <1>  -0.1600 
 10 C        0.5830     4.1510    -0.9840 C.3   1 <1>   0.3430 
 11 C        1.5770     1.8660    -0.5790 C.3   1 <1>   0.2630 
 12 C        1.5730     4.9410    -0.0940 C.3   1 <1>  -0.0800 
 13 C        1.1320     6.4250     0.0020 C.3   1 <1>   0.3430 
 14 C        3.0290     4.8540    -0.6010 C.3   1 <1>  -0.1600 
 15 N        2.2760     7.3790     0.2270 N.4   1 <1>  -0.9590 
 16 C        3.9850     5.6070     0.3450 C.3   1 <1>  -0.1600 
 17 C        3.3430     6.7890     1.0830 C.3   1 <1>   0.3430 
 18 C        1.8190     8.6860     0.8150 C.3   1 <1>   0.3430 
 19 C        0.9800     9.5260    -0.1600 C.3   1 <1>   0.1200 
 20 O        0.4420    10.5750     0.5580 O.3   1 <1>  -0.6800 
 21 H       -1.6210     2.7210    -1.3730 H     1 <1>   0.0800 
 22 H       -0.4180     1.9830    -2.3830 H     1 <1>   0.0800 
 23 H       -2.0280    -1.2780     0.8860 H     1 <1>   0.0800 
 24 H       -2.9730    -1.4680    -0.5840 H     1 <1>   0.0800 
 25 H       -3.6610     2.0720    -0.8720 H     1 <1>   0.0800 
 26 H       -3.1680     2.1580     0.8230 H     1 <1>   0.0800 
 27 H        0.0130     2.7220     0.4420 H     1 <1>   0.4500 
 28 H       -3.8390    -0.4240     2.0770 H     1 <1>   0.0800 
 29 H       -4.7480    -1.4300     0.9690 H     1 <1>   0.0800 
 30 H       -5.2310     0.4240    -0.4510 H     1 <1>   0.0800 
 31 H       -5.2990     1.2060     1.1130 H     1 <1>   0.0800 
 32 H       -0.3660     4.6630    -0.9760 H     1 <1>   0.0800 
 33 H        0.9400     4.1530    -2.0020 H     1 <1>   0.0800 
 34 H        1.9660     1.8110    -1.5830 H     1 <1>   0.0800 
 35 H        1.3450     0.8650    -0.2520 H     1 <1>   0.0800 
 36 H        2.3410     2.2520     0.0740 H     1 <1>   0.0800 
 37 H        1.5240     4.5370     0.9030 H     1 <1>   0.0800 
 38 H        0.4220     6.5210     0.8090 H     1 <1>   0.0800 
 39 H        0.6290     6.7090    -0.9080 H     1 <1>   0.0800 
 40 H        3.0900     5.2950    -1.5830 H     1 <1>   0.0800 
 41 H        3.3710     3.8390    -0.6940 H     1 <1>   0.0800 
 42 H        2.7270     7.5820    -0.6760 H     1 <1>   0.4500 
 43 H        4.8360     5.9580    -0.2140 H     1 <1>   0.0800 
 44 H        4.3680     4.9280     1.0880 H     1 <1>   0.0800 
 45 H        2.9110     6.4470     2.0110 H     1 <1>   0.0800 
 46 H        4.0980     7.5240     1.3150 H     1 <1>   0.0800 
 47 H        2.6760     9.2730     1.1040 H     1 <1>   0.0800 
 48 H        1.2320     8.4970     1.6990 H     1 <1>   0.0800 
 49 H        0.1620     8.9640    -0.5730 H     1 <1>   0.0800 
 50 H        1.5930     9.9350    -0.9460 H     1 <1>   0.0800 
 51 H       -0.0650    11.1920    -0.0130 H     1 <1>   0.4000 
@<TRIPOS>BOND
  1   1   2  2   
  2   2   3  am  
  3   2   4  1   
  4   3   5  1   
  5   3   6  1   
  6   4   7  1   
  7   4  21  1   
  8   4  22  1   
  9   5   8  1   
 10   5  23  1   
 11   5  24  1   
 12   6   9  1   
 13   6  25  1   
 14   6  26  1   
 15   7  10  1   
 16   7  11  1   
 17   7  27  1   
 18   8   9  1   
 19   8  28  1   
 20   8  29  1   
 21   9  30  1   
 22   9  31  1   
 23  10  12  1   
 24  10  32  1   
 25  10  33  1   
 26  11  34  1   
 27  11  35  1   
 28  11  36  1   
 29  12  13  1   
 30  12  14  1   
 31  12  37  1   
 32  13  15  1   
 33  13  38  1   
 34  13  39  1   
 35  14  16  1   
 36  14  40  1   
 37  14  41  1   
 38  15  17  1   
 39  15  18  1   
 40  15  42  1   
 41  16  17  1   
 42  16  43  1   
 43  16  44  1   
 44  17  45  1   
 45  17  46  1   
 46  18  19  1   
 47  18  47  1   
 48  18  48  1   
 49  19  20  1   
 50  19  49  1   
 51  19  50  1   
 52  20  51  1   
@<TRIPOS>SUBSTRUCTURE
  1 ****  10 GROUP 4 **** **** 0

# MOE 2024.06 (io_trps.svl 2023.06)
