@<TRIPOS>MOLECULE
F1913-0929
30 31 1 0 0 
SMALL
USER_CHARGES


@<TRIPOS>ATOM
  1 O       -2.1640    -3.1240     0.3390 O.co2 1 <1>  -0.9000 
  2 C       -3.2100    -2.5430     0.6410 C.2   1 <1>   0.9060 
  3 O       -3.9880    -2.9710     1.5000 O.co2 1 <1>  -0.9000 
  4 C       -3.5260    -1.2200    -0.0330 C.3   1 <1>  -0.1860 
  5 C       -3.7310    -0.1840     1.0810 C.3   1 <1>   0.0960 
  6 C       -4.7410    -1.3250    -0.9800 C.3   1 <1>  -0.2400 
  7 N       -3.9400     1.1810     0.5500 N.pl3 1 <1>   0.0480 
  8 C       -5.0800     1.8960     0.4900 C.2   1 <1>  -0.3320 
  9 C       -3.0020     2.0090     0.0280 C.2   1 <1>   0.0360 
 10 C       -4.7660     3.0820    -0.0620 C.2   1 <1>   0.0460 
 11 C       -6.4680     1.4730     0.9310 C.3   1 <1>   0.0200 
 12 N       -3.4560     3.1640    -0.3490 N.2   1 <1>  -0.5650 
 13 C       -5.7660     4.1860    -0.3270 C.3   1 <1>   0.0210 
 14 C       -7.3910     2.7050     0.9870 C.3   1 <1>  -0.1600 
 15 C       -7.2050     3.6360    -0.2310 C.3   1 <1>  -0.1600 
 16 H       -2.6590    -0.9480    -0.6040 H     1 <1>   0.0800 
 17 H       -2.8670    -0.1730     1.7200 H     1 <1>   0.0800 
 18 H       -4.5780    -0.4640     1.6800 H     1 <1>   0.0800 
 19 H       -5.6200    -1.5980    -0.4220 H     1 <1>   0.0800 
 20 H       -4.5570    -2.0880    -1.7160 H     1 <1>   0.0800 
 21 H       -4.9160    -0.3930    -1.4870 H     1 <1>   0.0800 
 22 H       -1.9740     1.7060    -0.0550 H     1 <1>   0.1500 
 23 H       -6.4280     1.0080     1.9000 H     1 <1>   0.0800 
 24 H       -6.8520     0.7570     0.2260 H     1 <1>   0.0800 
 25 H       -5.5930     4.5970    -1.3050 H     1 <1>   0.0800 
 26 H       -5.6140     4.9600     0.4020 H     1 <1>   0.0800 
 27 H       -7.1670     3.2610     1.8810 H     1 <1>   0.0800 
 28 H       -8.4150     2.3800     1.0480 H     1 <1>   0.0800 
 29 H       -7.4190     3.0780    -1.1260 H     1 <1>   0.0800 
 30 H       -7.8980     4.4570    -0.1770 H     1 <1>   0.0800 
@<TRIPOS>BOND
  1   1   2  ar  
  2   2   3  ar  
  3   2   4  1   
  4   4   5  1   
  5   4   6  1   
  6   4  16  1   
  7   5   7  1   
  8   5  17  1   
  9   5  18  1   
 10   6  19  1   
 11   6  20  1   
 12   6  21  1   
 13   7   8  1   
 14   7   9  1   
 15   8  10  2   
 16   8  11  1   
 17   9  12  2   
 18   9  22  1   
 19  10  12  1   
 20  10  13  1   
 21  11  14  1   
 22  11  23  1   
 23  11  24  1   
 24  13  15  1   
 25  13  25  1   
 26  13  26  1   
 27  14  15  1   
 28  14  27  1   
 29  14  28  1   
 30  15  29  1   
 31  15  30  1   
@<TRIPOS>SUBSTRUCTURE
  1 ****   7 GROUP 4 **** **** 0

# MOE 2024.06 (io_trps.svl 2023.06)
