@<TRIPOS>MOLECULE
NONAME
48 51 1 0 0 
SMALL
USER_CHARGES


@<TRIPOS>ATOM
  1 O        0.8490    -0.7500    -2.0190 O.2   1 <1>  -0.5700 
  2 C        1.3640    -1.1550    -1.0010 C.2   1 <1>   0.5690 
  3 N        2.0230    -0.3270    -0.1110 N.am  1 <1>  -0.4770 
  4 C        1.2690    -2.6660    -0.7310 C.3   1 <1>   0.1710 
  5 C        2.3020     1.0420    -0.2170 C.ar  1 <1>   0.1170 
  6 C        2.5130    -0.8100     1.2110 C.3   1 <1>   0.1400 
  7 N        0.4740    -3.0550     0.4690 N.3   1 <1>  -0.8100 
  8 C        2.9590     1.5120     0.9000 C.ar  1 <1>  -0.1440 
  9 C        2.0160     1.9210    -1.2550 C.ar  1 <1>  -0.1500 
 10 C        3.1710     0.4000     1.8930 C.3   1 <1>  -0.0170 
 11 C       -0.9070    -2.5470     0.3870 C.3   1 <1>   0.1100 
 12 C        0.3840    -4.5220     0.6160 C.3   1 <1>   0.1100 
 13 C        3.3380     2.8360     1.0170 C.ar  1 <1>  -0.1500 
 14 C        2.3900     3.2510    -1.1520 C.ar  1 <1>  -0.1500 
 15 C       -1.7330    -3.5280     1.2090 C.3   1 <1>   0.2000 
 16 C       -1.0930    -4.8710     0.8720 C.3   1 <1>  -0.0800 
 17 C        3.0490     3.7090    -0.0200 C.ar  1 <1>  -0.1500 
 18 O       -1.4910    -3.2670     2.5440 O.3   1 <1>  -0.6800 
 19 C       -1.7630    -5.5070    -0.3630 C.3   1 <1>  -0.0160 
 20 C       -1.1850    -6.8760    -0.6860 C.ar  1 <1>   0.1670 
 21 N       -0.2640    -6.9220    -1.6370 N.ar  1 <1>  -0.6200 
 22 C       -1.6370    -7.9870     0.0100 C.ar  1 <1>  -0.1500 
 23 C        0.2240    -8.1220    -1.9050 C.ar  1 <1>   0.1600 
 24 C       -1.1170    -9.2310    -0.2780 C.ar  1 <1>  -0.1500 
 25 C       -0.1600    -9.2890    -1.2660 C.ar  1 <1>  -0.1500 
 26 H        2.2680    -3.0480    -0.6270 H     1 <1>   0.0800 
 27 H        0.8390    -3.1280    -1.6030 H     1 <1>   0.0800 
 28 H        1.6820    -1.1590     1.7990 H     1 <1>   0.0800 
 29 H        3.2240    -1.6060     1.0750 H     1 <1>   0.0800 
 30 H        1.5070     1.5750    -2.1350 H     1 <1>   0.1500 
 31 H        2.6910     0.6200     2.8290 H     1 <1>   0.0800 
 32 H        4.2200     0.2240     2.0530 H     1 <1>   0.0800 
 33 H       -0.9820    -1.5410     0.7650 H     1 <1>   0.0800 
 34 H       -1.2500    -2.5630    -0.6340 H     1 <1>   0.0800 
 35 H        0.7640    -5.0270    -0.2550 H     1 <1>   0.0800 
 36 H        0.9800    -4.8210     1.4610 H     1 <1>   0.0800 
 37 H        3.8490     3.1850     1.8970 H     1 <1>   0.1500 
 38 H        2.1680     3.9310    -1.9560 H     1 <1>   0.1500 
 39 H       -2.7920    -3.4740     1.0270 H     1 <1>   0.0800 
 40 H       -1.1850    -5.5550     1.6980 H     1 <1>   0.0800 
 41 H        3.3370     4.7430     0.0520 H     1 <1>   0.1500 
 42 H       -0.5260    -3.1120     2.6240 H     1 <1>   0.4000 
 43 H       -1.6510    -4.8670    -1.2210 H     1 <1>   0.0800 
 44 H       -2.8170    -5.6170    -0.1790 H     1 <1>   0.0800 
 45 H       -2.3870    -7.8820     0.7720 H     1 <1>   0.1500 
 46 H        0.9720    -8.1800    -2.6780 H     1 <1>   0.1500 
 47 H       -1.4450   -10.1140     0.2440 H     1 <1>   0.1500 
 48 H        0.2860   -10.2270    -1.5420 H     1 <1>   0.1500 
@<TRIPOS>BOND
  1   1   2  2   
  2   2   3  am  
  3   2   4  1   
  4   3   5  1   
  5   3   6  1   
  6   4   7  1   
  7   4  26  1   
  8   4  27  1   
  9   5   8  ar  
 10   5   9  ar  
 11   6  10  1   
 12   6  28  1   
 13   6  29  1   
 14   7  11  1   
 15   7  12  1   
 16   8  10  1   
 17   8  13  ar  
 18   9  14  ar  
 19   9  30  1   
 20  10  31  1   
 21  10  32  1   
 22  11  15  1   
 23  11  33  1   
 24  11  34  1   
 25  12  16  1   
 26  12  35  1   
 27  12  36  1   
 28  13  17  ar  
 29  13  37  1   
 30  14  17  ar  
 31  14  38  1   
 32  15  16  1   
 33  15  18  1   
 34  15  39  1   
 35  16  19  1   
 36  16  40  1   
 37  17  41  1   
 38  18  42  1   
 39  19  20  1   
 40  19  43  1   
 41  19  44  1   
 42  20  21  ar  
 43  20  22  ar  
 44  21  23  ar  
 45  22  24  ar  
 46  22  45  1   
 47  23  25  ar  
 48  23  46  1   
 49  24  25  ar  
 50  24  47  1   
 51  25  48  1   
@<TRIPOS>SUBSTRUCTURE
  1 ****   7 GROUP 4 **** **** 0

# MOE 2024.06 (io_trps.svl 2023.06)
