@<TRIPOS>MOLECULE
NONAME
43 45 1 0 0 
SMALL
USER_CHARGES


@<TRIPOS>ATOM
  1 S        0.7020    -0.3610     0.9450 S.3   1 <1>  -0.0800 
  2 C        0.3820    -1.4620    -0.3530 C.2   1 <1>   0.1980 
  3 C        1.5520     0.6120    -0.2020 C.2   1 <1>   0.1980 
  4 N        0.8890    -1.0790    -1.4570 N.2   1 <1>  -0.3380 
  5 C       -0.4020    -2.7330    -0.0460 C.3   1 <1>   0.2900 
  6 N        1.5570     0.1130    -1.3700 N.2   1 <1>  -0.3380 
  7 C        2.1750     1.9030     0.2790 C.3   1 <1>  -0.0600 
  8 N       -1.8330    -2.6680    -0.4450 N.3   1 <1>  -0.8100 
  9 C       -2.4270    -4.0120    -0.5110 C.3   1 <1>   0.1100 
 10 C       -2.6030    -1.7080     0.3610 C.3   1 <1>   0.1100 
 11 C       -3.8130    -4.0340    -1.1800 C.3   1 <1>   0.1400 
 12 C       -3.8180    -1.2210    -0.4290 C.3   1 <1>  -0.1600 
 13 N       -4.8950    -3.5360    -0.2690 N.am  1 <1>  -0.6600 
 14 C       -5.0900    -2.0530    -0.2240 C.3   1 <1>   0.1400 
 15 C       -5.9190    -4.3450     0.1890 C.2   1 <1>   0.7030 
 16 O       -6.9930    -3.8360     0.4530 O.2   1 <1>  -0.5700 
 17 C       -5.7750    -5.7860     0.3590 C.2   1 <1>   0.2770 
 18 N       -6.7050    -6.7720     0.0120 N.pl3 1 <1>  -0.7640 
 19 C       -4.7300    -6.4560     0.9100 C.2   1 <1>   0.2000 
 20 C       -6.2070    -7.9520     0.3490 C.cat 1 <1>   0.6500 
 21 C       -8.0440    -6.4800    -0.5780 C.3   1 <1>   0.2740 
 22 N       -5.0070    -7.7960     0.8870 N.pl3 1 <1>  -0.7000 
 23 H       -0.3240    -2.9610     1.0020 H     1 <1>   0.0800 
 24 H        0.0770    -3.5260    -0.5930 H     1 <1>   0.0800 
 25 H        2.8990     1.6950     1.0450 H     1 <1>   0.0800 
 26 H        1.4140     2.5500     0.6740 H     1 <1>   0.0800 
 27 H        2.6640     2.3970    -0.5400 H     1 <1>   0.0800 
 28 H       -2.4800    -4.4360     0.4750 H     1 <1>   0.0800 
 29 H       -1.7800    -4.6320    -1.1070 H     1 <1>   0.0800 
 30 H       -1.9970    -0.8430     0.5630 H     1 <1>   0.0800 
 31 H       -2.8950    -2.1380     1.3050 H     1 <1>   0.0800 
 32 H       -4.0310    -5.0410    -1.4850 H     1 <1>   0.0800 
 33 H       -3.7820    -3.4380    -2.0770 H     1 <1>   0.0800 
 34 H       -3.5730    -1.1540    -1.4740 H     1 <1>   0.0800 
 35 H       -4.0440    -0.2200    -0.1080 H     1 <1>   0.0800 
 36 H       -5.8140    -1.7730    -0.9700 H     1 <1>   0.0800 
 37 H       -5.5060    -1.7960     0.7360 H     1 <1>   0.0800 
 38 H       -3.8220    -6.0460     1.3220 H     1 <1>   0.1500 
 39 H       -6.7070    -8.9030     0.2120 H     1 <1>   0.1500 
 40 H       -7.9330    -5.9000    -1.4780 H     1 <1>   0.0800 
 41 H       -8.6380    -5.9160     0.1230 H     1 <1>   0.0800 
 42 H       -8.5620    -7.3940    -0.8150 H     1 <1>   0.0800 
 43 H       -4.4080    -8.5480     1.2450 H     1 <1>   0.4500 
@<TRIPOS>BOND
  1   1   2  1   
  2   1   3  1   
  3   2   4  2   
  4   2   5  1   
  5   3   6  2   
  6   3   7  1   
  7   4   6  1   
  8   5   8  1   
  9   5  23  1   
 10   5  24  1   
 11   7  25  1   
 12   7  26  1   
 13   7  27  1   
 14   8   9  1   
 15   8  10  1   
 16   9  11  1   
 17   9  28  1   
 18   9  29  1   
 19  10  12  1   
 20  10  30  1   
 21  10  31  1   
 22  11  13  1   
 23  11  32  1   
 24  11  33  1   
 25  12  14  1   
 26  12  34  1   
 27  12  35  1   
 28  13  14  1   
 29  13  15  am  
 30  14  36  1   
 31  14  37  1   
 32  15  16  2   
 33  15  17  1   
 34  17  18  1   
 35  17  19  2   
 36  18  20  ar  
 37  18  21  1   
 38  19  22  1   
 39  19  38  1   
 40  20  22  ar  
 41  20  39  1   
 42  21  40  1   
 43  21  41  1   
 44  21  42  1   
 45  22  43  1   
@<TRIPOS>SUBSTRUCTURE
  1 ****   9 GROUP 4 **** **** 0

# MOE 2024.06 (io_trps.svl 2023.06)
