@<TRIPOS>MOLECULE
NONAME
57 60 1 0 0 
SMALL
USER_CHARGES


@<TRIPOS>ATOM
  1 O       -2.4000     0.6710    -1.3690 O.2   1 <1>  -0.5700 
  2 C       -2.2000     0.8210    -0.1890 C.2   1 <1>   0.5690 
  3 N       -2.2320    -0.2190     0.6780 N.am  1 <1>  -0.7300 
  4 C       -1.9120     2.2050     0.3410 C.3   1 <1>  -0.0990 
  5 C       -2.5370    -1.6130     0.2870 C.3   1 <1>   0.2200 
  6 C       -0.4790     2.6290     0.0110 C.3   1 <1>   0.0210 
  7 C       -4.0260    -1.8580     0.4540 C.3   1 <1>  -0.0800 
  8 C       -1.9450    -2.5840     1.3010 C.3   1 <1>   0.1200 
  9 C       -0.2100     4.0180     0.5620 C.2   1 <1>  -0.1810 
 10 C       -4.1340    -2.2400     1.9350 C.3   1 <1>   0.1200 
 11 C       -4.5210    -2.9800    -0.4800 C.3   1 <1>  -0.0160 
 12 O       -2.8630    -2.6530     2.3500 O.3   1 <1>  -0.5600 
 13 C        0.3390     4.3320     1.8020 C.2   1 <1>   0.1080 
 14 C       -0.4490     5.2130    -0.0200 C.2   1 <1>  -0.3320 
 15 C       -6.0370    -3.1370    -0.4080 C.ar  1 <1>  -0.1440 
 16 N        0.4380     5.6090     1.9840 N.2   1 <1>  -0.7070 
 17 C        0.7880     3.3410     2.8520 C.3   1 <1>  -0.0590 
 18 N       -0.0460     6.1580     0.8590 N.pl3 1 <1>   0.3140 
 19 C       -1.0490     5.5230    -1.3840 C.3   1 <1>  -0.0600 
 20 C       -6.9210    -2.2210    -1.0290 C.ar  1 <1>   0.0000 
 21 C       -6.5870    -4.1840     0.2700 C.ar  1 <1>  -0.1500 
 22 C       -0.0960     7.6140     0.6890 C.3   1 <1>   0.0160 
 23 C       -8.3110    -2.4500    -0.8820 C.ar  1 <1>   0.3100 
 24 C       -6.5100    -1.0980    -1.7850 C.ar  1 <1>  -0.1500 
 25 C       -7.9780    -4.3220     0.3480 C.ar  1 <1>   0.1600 
 26 N       -8.8220    -3.5010    -0.1930 N.ar  1 <1>  -0.6200 
 27 C       -9.2130    -1.5530    -1.4760 C.ar  1 <1>  -0.1500 
 28 C       -7.4170    -0.2440    -2.3520 C.ar  1 <1>  -0.1500 
 29 C       -8.7860    -0.4700    -2.1960 C.ar  1 <1>  -0.1500 
 30 H       -2.1500    -0.0700     1.6860 H     1 <1>   0.3700 
 31 H       -2.6000     2.8960    -0.1110 H     1 <1>   0.0800 
 32 H       -2.0640     2.2320     1.4040 H     1 <1>   0.0800 
 33 H       -2.1840    -1.8010    -0.7140 H     1 <1>   0.0800 
 34 H       -0.3390     2.6310    -1.0560 H     1 <1>   0.0800 
 35 H        0.2210     1.9280     0.4290 H     1 <1>   0.0800 
 36 H       -4.5880    -0.9630     0.2560 H     1 <1>   0.0800 
 37 H       -0.9880    -2.2650     1.6740 H     1 <1>   0.0800 
 38 H       -1.8600    -3.5690     0.8780 H     1 <1>   0.0800 
 39 H       -4.8350    -3.0360     2.1140 H     1 <1>   0.0800 
 40 H       -4.4060    -1.3850     2.5280 H     1 <1>   0.0800 
 41 H       -4.0480    -3.9090    -0.2140 H     1 <1>   0.0800 
 42 H       -4.2390    -2.7650    -1.4960 H     1 <1>   0.0800 
 43 H        0.0190     2.6140     3.0270 H     1 <1>   0.0800 
 44 H        0.9950     3.8570     3.7720 H     1 <1>   0.0800 
 45 H        1.6830     2.8480     2.5210 H     1 <1>   0.0800 
 46 H       -1.3240     4.6170    -1.8930 H     1 <1>   0.0800 
 47 H       -0.3350     6.0500    -1.9900 H     1 <1>   0.0800 
 48 H       -1.9300     6.1280    -1.2710 H     1 <1>   0.0800 
 49 H       -5.9780    -4.9220     0.7600 H     1 <1>   0.1500 
 50 H        0.4790     7.8870    -0.1750 H     1 <1>   0.0800 
 51 H        0.3180     8.0840     1.5620 H     1 <1>   0.0800 
 52 H       -1.1180     7.9180     0.5660 H     1 <1>   0.0800 
 53 H       -5.4630    -0.9020    -1.9240 H     1 <1>   0.1500 
 54 H       -8.3700    -5.1620     0.8940 H     1 <1>   0.1500 
 55 H      -10.2610    -1.7490    -1.3450 H     1 <1>   0.1500 
 56 H       -7.0880     0.6080    -2.9230 H     1 <1>   0.1500 
 57 H       -9.4890     0.2090    -2.6460 H     1 <1>   0.1500 
@<TRIPOS>BOND
  1   1   2  2   
  2   2   3  am  
  3   2   4  1   
  4   3   5  1   
  5   3  30  1   
  6   4   6  1   
  7   4  31  1   
  8   4  32  1   
  9   5   7  1   
 10   5   8  1   
 11   5  33  1   
 12   6   9  1   
 13   6  34  1   
 14   6  35  1   
 15   7  10  1   
 16   7  11  1   
 17   7  36  1   
 18   8  12  1   
 19   8  37  1   
 20   8  38  1   
 21   9  13  1   
 22   9  14  2   
 23  10  12  1   
 24  10  39  1   
 25  10  40  1   
 26  11  15  1   
 27  11  41  1   
 28  11  42  1   
 29  13  16  2   
 30  13  17  1   
 31  14  18  1   
 32  14  19  1   
 33  15  20  ar  
 34  15  21  ar  
 35  16  18  1   
 36  17  43  1   
 37  17  44  1   
 38  17  45  1   
 39  18  22  1   
 40  19  46  1   
 41  19  47  1   
 42  19  48  1   
 43  20  23  ar  
 44  20  24  ar  
 45  21  25  ar  
 46  21  49  1   
 47  22  50  1   
 48  22  51  1   
 49  22  52  1   
 50  23  26  ar  
 51  23  27  ar  
 52  24  28  ar  
 53  24  53  1   
 54  25  26  ar  
 55  25  54  1   
 56  27  29  ar  
 57  27  55  1   
 58  28  29  ar  
 59  28  56  1   
 60  29  57  1   
@<TRIPOS>SUBSTRUCTURE
  1 ****   2 GROUP 4 **** **** 0

# MOE 2024.06 (io_trps.svl 2023.06)
