@<TRIPOS>MOLECULE
NONAME
58 61 1 0 0 
SMALL
USER_CHARGES


@<TRIPOS>ATOM
  1 N        0.7800     0.3860     0.5640 N.ar  1 <1>  -0.6200 
  2 C       -0.0540     1.3370     0.9980 C.ar  1 <1>   0.7200 
  3 C        1.4460     0.6950    -0.5170 C.ar  1 <1>   0.1660 
  4 N       -0.2470     2.5330     0.4340 N.ar  1 <1>  -0.6200 
  5 N       -0.7720     1.0560     2.1400 N.pl3 1 <1>  -0.8380 
  6 C        1.3250     1.8820    -1.1680 C.ar  1 <1>  -0.1440 
  7 C        2.4620    -0.2080    -1.1720 C.3   1 <1>   0.1430 
  8 C        0.4440     2.7980    -0.6500 C.ar  1 <1>   0.1600 
  9 C       -1.1710    -0.3310     2.5050 C.3   1 <1>   0.1290 
 10 C       -1.4530     2.1320     2.9130 C.3   1 <1>   0.1290 
 11 C        2.2310     1.9540    -2.3710 C.3   1 <1>  -0.0160 
 12 C        3.3980    -0.7300    -0.0710 C.3   1 <1>   0.3430 
 13 C        1.7630    -1.3850    -1.8850 C.3   1 <1>  -0.1600 
 14 C        3.1720     0.7490    -2.1680 C.3   1 <1>  -0.1600 
 15 N        4.3790    -1.7450    -0.5970 N.4   1 <1>  -0.9590 
 16 C        2.7660    -2.4670    -2.3270 C.3   1 <1>  -0.1600 
 17 C        3.6720    -2.9220    -1.1770 C.3   1 <1>   0.3430 
 18 C        5.3540    -2.1440     0.4570 C.3   1 <1>   0.4860 
 19 C        6.1460    -0.9230     0.8670 C.ar  1 <1>  -0.1440 
 20 C        7.1770    -0.4570     0.0670 C.ar  1 <1>   0.1600 
 21 C        5.8510    -0.2380     2.0330 C.ar  1 <1>  -0.1500 
 22 N        7.8920     0.6220     0.3080 N.ar  1 <1>  -0.6200 
 23 C        6.6000     0.8830     2.2990 C.ar  1 <1>  -0.1500 
 24 C        7.6000     1.2890     1.4190 C.ar  1 <1>   0.4100 
 25 N        8.3320     2.4310     1.6890 N.pl3 1 <1>  -0.8380 
 26 C        9.7280     2.5460     1.1840 C.3   1 <1>   0.1290 
 27 C        7.6310     3.7300     1.8700 C.3   1 <1>   0.1290 
 28 H        0.3050     3.7540    -1.1240 H     1 <1>   0.1500 
 29 H       -0.9850    -1.0120     1.6930 H     1 <1>   0.0800 
 30 H       -2.2220    -0.3620     2.7350 H     1 <1>   0.0800 
 31 H       -0.6120    -0.6510     3.3660 H     1 <1>   0.0800 
 32 H       -0.8920     3.0490     2.8550 H     1 <1>   0.0800 
 33 H       -1.5350     1.8490     3.9470 H     1 <1>   0.0800 
 34 H       -2.4370     2.2990     2.5090 H     1 <1>   0.0800 
 35 H        2.7740     2.8840    -2.4060 H     1 <1>   0.0800 
 36 H        1.6470     1.8400    -3.2690 H     1 <1>   0.0800 
 37 H        2.7960    -1.1750     0.7040 H     1 <1>   0.0800 
 38 H        3.9180     0.1110     0.3590 H     1 <1>   0.0800 
 39 H        1.2040    -1.0250    -2.7320 H     1 <1>   0.0800 
 40 H        1.0540    -1.8290    -1.2050 H     1 <1>   0.0800 
 41 H        3.4050     0.2830    -3.1090 H     1 <1>   0.0800 
 42 H        4.0860     1.1160    -1.7330 H     1 <1>   0.0800 
 43 H        4.9090    -1.2830    -1.3460 H     1 <1>   0.4500 
 44 H        3.3730    -2.1060    -3.1390 H     1 <1>   0.0800 
 45 H        2.2210    -3.3180    -2.6970 H     1 <1>   0.0800 
 46 H        3.0710    -3.3970    -0.4180 H     1 <1>   0.0800 
 47 H        4.3850    -3.6410    -1.5470 H     1 <1>   0.0800 
 48 H        6.0270    -2.8960     0.0770 H     1 <1>   0.0800 
 49 H        4.8360    -2.5480     1.3110 H     1 <1>   0.0800 
 50 H        7.4360    -0.9930    -0.8300 H     1 <1>   0.1500 
 51 H        5.0760    -0.5510     2.7130 H     1 <1>   0.1500 
 52 H        6.4350     1.4590     3.1900 H     1 <1>   0.1500 
 53 H       10.2070     1.5820     1.2040 H     1 <1>   0.0800 
 54 H       10.2900     3.2220     1.8050 H     1 <1>   0.0800 
 55 H        9.7210     2.9100     0.1710 H     1 <1>   0.0800 
 56 H        6.5690     3.5800     1.9560 H     1 <1>   0.0800 
 57 H        7.8190     4.3680     1.0240 H     1 <1>   0.0800 
 58 H        7.9890     4.2110     2.7630 H     1 <1>   0.0800 
@<TRIPOS>BOND
  1   1   2  ar  
  2   1   3  ar  
  3   2   4  ar  
  4   2   5  1   
  5   3   6  ar  
  6   3   7  1   
  7   4   8  ar  
  8   5   9  1   
  9   5  10  1   
 10   6   8  ar  
 11   6  11  1   
 12   7  12  1   
 13   7  13  1   
 14   7  14  1   
 15   8  28  1   
 16   9  29  1   
 17   9  30  1   
 18   9  31  1   
 19  10  32  1   
 20  10  33  1   
 21  10  34  1   
 22  11  14  1   
 23  11  35  1   
 24  11  36  1   
 25  12  15  1   
 26  12  37  1   
 27  12  38  1   
 28  13  16  1   
 29  13  39  1   
 30  13  40  1   
 31  14  41  1   
 32  14  42  1   
 33  15  17  1   
 34  15  18  1   
 35  15  43  1   
 36  16  17  1   
 37  16  44  1   
 38  16  45  1   
 39  17  46  1   
 40  17  47  1   
 41  18  19  1   
 42  18  48  1   
 43  18  49  1   
 44  19  20  ar  
 45  19  21  ar  
 46  20  22  ar  
 47  20  50  1   
 48  21  23  ar  
 49  21  51  1   
 50  22  24  ar  
 51  23  24  ar  
 52  23  52  1   
 53  24  25  1   
 54  25  26  1   
 55  25  27  1   
 56  26  53  1   
 57  26  54  1   
 58  26  55  1   
 59  27  56  1   
 60  27  57  1   
 61  27  58  1   
@<TRIPOS>SUBSTRUCTURE
  1 ****  12 GROUP 4 **** **** 0

# MOE 2024.06 (io_trps.svl 2023.06)
