@<TRIPOS>MOLECULE
NONAME
53 55 1 0 0 
SMALL
USER_CHARGES


@<TRIPOS>ATOM
  1 O        0.1050     0.5170     1.7210 O.2   1 <1>  -0.5700 
  2 C        0.1140     1.6430     1.2560 C.2   1 <1>   0.5440 
  3 N       -1.0890     2.2520     0.9610 N.am  1 <1>  -0.6600 
  4 C        1.3790     2.3030     1.0360 C.ar  1 <1>   0.0860 
  5 C       -1.1680     3.5880     0.2980 C.3   1 <1>   0.1400 
  6 C       -2.3820     1.5930     1.3100 C.3   1 <1>   0.1400 
  7 C        1.9890     2.4280    -0.2250 C.ar  1 <1>   0.0820 
  8 C        2.0330     2.8760     2.1280 C.ar  1 <1>  -0.1500 
  9 C       -2.4540     3.6730    -0.5210 C.3   1 <1>  -0.1600 
 10 C       -3.4680     2.6390     1.5740 C.3   1 <1>  -0.1600 
 11 O        1.4770     1.9010    -1.3620 O.3   1 <1>  -0.3620 
 12 C        3.1720     3.1340    -0.3710 C.ar  1 <1>  -0.1500 
 13 C        3.2190     3.5670     1.9800 C.ar  1 <1>  -0.1500 
 14 C       -3.7050     3.5980     0.3820 C.3   1 <1>   0.2800 
 15 C        1.0040     0.5690    -1.3880 C.3   1 <1>   0.0400 
 16 C        3.7970     3.7080     0.7290 C.ar  1 <1>   0.0820 
 17 O       -3.8910     4.8580     0.9740 O.3   1 <1>  -0.5600 
 18 C       -4.9540     3.1810    -0.4400 C.3   1 <1>  -0.1600 
 19 O        4.9530     4.4050     0.6630 O.3   1 <1>  -0.3620 
 20 C       -4.5200     5.8790     0.2400 C.3   1 <1>   0.1200 
 21 C       -6.2130     3.9650    -0.0500 C.3   1 <1>   0.2800 
 22 C        5.6350     4.5900    -0.5580 C.3   1 <1>   0.0400 
 23 C       -5.9220     5.4740    -0.2520 C.3   1 <1>   0.2000 
 24 O       -7.2180     3.6010    -0.9260 O.3   1 <1>  -0.6800 
 25 C       -6.7340     3.5940     1.3480 C.3   1 <1>  -0.2400 
 26 O       -6.8960     6.2660     0.3530 O.3   1 <1>  -0.6800 
 27 H       -1.1580     4.3610     1.0480 H     1 <1>   0.0800 
 28 H       -0.3260     3.7330    -0.3560 H     1 <1>   0.0800 
 29 H       -2.6750     0.9490     0.4990 H     1 <1>   0.0800 
 30 H       -2.2540     0.9840     2.1900 H     1 <1>   0.0800 
 31 H        1.5930     2.7750     3.1050 H     1 <1>   0.1500 
 32 H       -2.4510     2.8520    -1.2160 H     1 <1>   0.0800 
 33 H       -2.4540     4.5750    -1.1020 H     1 <1>   0.0800 
 34 H       -3.1580     3.2030     2.4370 H     1 <1>   0.0800 
 35 H       -4.3730     2.1300     1.8420 H     1 <1>   0.0800 
 36 H        3.5880     3.2160    -1.3550 H     1 <1>   0.1500 
 37 H        3.7080     4.0050     2.8330 H     1 <1>   0.1500 
 38 H        1.1220     0.1900    -2.3870 H     1 <1>   0.0800 
 39 H       -0.0370     0.5600    -1.1190 H     1 <1>   0.0800 
 40 H        1.5780    -0.0280    -0.6990 H     1 <1>   0.0800 
 41 H       -4.7600     3.3750    -1.4800 H     1 <1>   0.0800 
 42 H       -5.1190     2.1240    -0.3480 H     1 <1>   0.0800 
 43 H       -4.5860     6.7430     0.8790 H     1 <1>   0.0800 
 44 H       -3.8950     6.1260    -0.5980 H     1 <1>   0.0800 
 45 H        6.5230     5.1640    -0.3610 H     1 <1>   0.0800 
 46 H        4.9960     5.1260    -1.2370 H     1 <1>   0.0800 
 47 H        5.9030     3.6280    -0.9580 H     1 <1>   0.0800 
 48 H       -5.9660     5.6940    -1.3050 H     1 <1>   0.0800 
 49 H       -7.4790     2.6780    -0.7540 H     1 <1>   0.4000 
 50 H       -6.0600     3.9560     2.1030 H     1 <1>   0.0800 
 51 H       -6.8230     2.5290     1.4560 H     1 <1>   0.0800 
 52 H       -7.6920     4.0460     1.5300 H     1 <1>   0.0800 
 53 H       -7.7730     5.9280     0.0800 H     1 <1>   0.4000 
@<TRIPOS>BOND
  1   1   2  2   
  2   2   3  am  
  3   2   4  1   
  4   3   5  1   
  5   3   6  1   
  6   4   7  ar  
  7   4   8  ar  
  8   5   9  1   
  9   5  27  1   
 10   5  28  1   
 11   6  10  1   
 12   6  29  1   
 13   6  30  1   
 14   7  11  1   
 15   7  12  ar  
 16   8  13  ar  
 17   8  31  1   
 18   9  14  1   
 19   9  32  1   
 20   9  33  1   
 21  10  14  1   
 22  10  34  1   
 23  10  35  1   
 24  11  15  1   
 25  12  16  ar  
 26  12  36  1   
 27  13  16  ar  
 28  13  37  1   
 29  14  17  1   
 30  14  18  1   
 31  15  38  1   
 32  15  39  1   
 33  15  40  1   
 34  16  19  1   
 35  17  20  1   
 36  18  21  1   
 37  18  41  1   
 38  18  42  1   
 39  19  22  1   
 40  20  23  1   
 41  20  43  1   
 42  20  44  1   
 43  21  23  1   
 44  21  24  1   
 45  21  25  1   
 46  22  45  1   
 47  22  46  1   
 48  22  47  1   
 49  23  26  1   
 50  23  48  1   
 51  24  49  1   
 52  25  50  1   
 53  25  51  1   
 54  25  52  1   
 55  26  53  1   
@<TRIPOS>SUBSTRUCTURE
  1 ****   5 GROUP 4 **** **** 0

# MOE 2024.06 (io_trps.svl 2023.06)
