@<TRIPOS>MOLECULE
NONAME
45 48 1 0 0 
SMALL
USER_CHARGES


@<TRIPOS>ATOM
  1 O       -0.1480     1.0840     0.4320 O.2   1 <1>  -0.5700 
  2 C       -0.8880     1.9960     0.7320 C.2   1 <1>   0.5690 
  3 N       -2.2240     1.9640     0.4080 N.am  1 <1>  -0.6600 
  4 C       -0.2670     3.1750     1.4950 C.3   1 <1>   0.1810 
  5 C       -3.2350     3.0080     0.7630 C.3   1 <1>   0.1400 
  6 C       -2.7680     0.8180    -0.3870 C.3   1 <1>   0.1400 
  7 O        1.0700     3.3620     1.1420 O.3   1 <1>  -0.6800 
  8 C       -3.8370     3.6500    -0.5080 C.3   1 <1>   0.1430 
  9 C       -4.0940     1.1680    -1.0850 C.3   1 <1>  -0.1600 
 10 C       -5.1160     4.3550    -0.0910 C.ar  1 <1>   0.1670 
 11 C       -4.0700     2.6040    -1.6320 C.3   1 <1>  -0.1600 
 12 C       -2.9690     4.8320    -1.0180 C.3   1 <1>  -0.1600 
 13 N       -6.2470     3.7630     0.2070 N.ar  1 <1>  -0.6200 
 14 C       -4.9530     5.7050    -0.0380 C.ar  1 <1>  -0.1440 
 15 C       -3.5510     6.1180    -0.4060 C.3   1 <1>  -0.0170 
 16 C       -7.2590     4.5690     0.5530 C.ar  1 <1>   0.6200 
 17 C       -6.0340     6.4640     0.3300 C.ar  1 <1>   0.1600 
 18 N       -7.1860     5.9070     0.6250 N.ar  1 <1>  -0.6200 
 19 C       -8.5340     3.9440     0.8800 C.ar  1 <1>   0.0000 
 20 C       -8.6060     2.6380     1.3760 C.ar  1 <1>  -0.1500 
 21 C       -9.7470     4.6190     0.7110 C.ar  1 <1>  -0.1500 
 22 C       -9.8150     2.0410     1.6850 C.ar  1 <1>  -0.1500 
 23 C      -10.9600     4.0290     1.0180 C.ar  1 <1>  -0.1500 
 24 C      -10.9960     2.7360     1.5070 C.ar  1 <1>  -0.1500 
 25 H       -0.3030     2.9710     2.5490 H     1 <1>   0.0800 
 26 H       -0.7770     4.0950     1.2890 H     1 <1>   0.0800 
 27 H       -2.8270     3.7650     1.4050 H     1 <1>   0.0800 
 28 H       -4.0240     2.5260     1.3170 H     1 <1>   0.0800 
 29 H       -2.9070    -0.0310     0.2600 H     1 <1>   0.0800 
 30 H       -2.0430     0.5450    -1.1360 H     1 <1>   0.0800 
 31 H        1.4280     2.4890     0.8640 H     1 <1>   0.4000 
 32 H       -4.9090     1.0590    -0.3900 H     1 <1>   0.0800 
 33 H       -4.2650     0.4720    -1.8870 H     1 <1>   0.0800 
 34 H       -3.2710     2.6590    -2.3510 H     1 <1>   0.0800 
 35 H       -4.9890     2.8170    -2.1510 H     1 <1>   0.0800 
 36 H       -3.0670     4.9110    -2.0870 H     1 <1>   0.0800 
 37 H       -1.9260     4.7060    -0.7870 H     1 <1>   0.0800 
 38 H       -3.5450     6.9300    -1.1130 H     1 <1>   0.0800 
 39 H       -3.0090     6.4000     0.4800 H     1 <1>   0.0800 
 40 H       -5.9550     7.5360     0.3850 H     1 <1>   0.1500 
 41 H       -7.6980     2.0800     1.5220 H     1 <1>   0.1500 
 42 H       -9.7400     5.6260     0.3310 H     1 <1>   0.1500 
 43 H       -9.8360     1.0340     2.0650 H     1 <1>   0.1500 
 44 H      -11.8750     4.5760     0.8770 H     1 <1>   0.1500 
 45 H      -11.9380     2.2740     1.7470 H     1 <1>   0.1500 
@<TRIPOS>BOND
  1   1   2  2   
  2   2   3  am  
  3   2   4  1   
  4   3   5  1   
  5   3   6  1   
  6   4   7  1   
  7   4  25  1   
  8   4  26  1   
  9   5   8  1   
 10   5  27  1   
 11   5  28  1   
 12   6   9  1   
 13   6  29  1   
 14   6  30  1   
 15   7  31  1   
 16   8  10  1   
 17   8  11  1   
 18   8  12  1   
 19   9  11  1   
 20   9  32  1   
 21   9  33  1   
 22  10  13  ar  
 23  10  14  ar  
 24  11  34  1   
 25  11  35  1   
 26  12  15  1   
 27  12  36  1   
 28  12  37  1   
 29  13  16  ar  
 30  14  15  1   
 31  14  17  ar  
 32  15  38  1   
 33  15  39  1   
 34  16  18  ar  
 35  16  19  1   
 36  17  18  ar  
 37  17  40  1   
 38  19  20  ar  
 39  19  21  ar  
 40  20  22  ar  
 41  20  41  1   
 42  21  23  ar  
 43  21  42  1   
 44  22  24  ar  
 45  22  43  1   
 46  23  24  ar  
 47  23  44  1   
 48  24  45  1   
@<TRIPOS>SUBSTRUCTURE
  1 ****  10 GROUP 4 **** **** 0

# MOE 2024.06 (io_trps.svl 2023.06)
