@<TRIPOS>MOLECULE
NONAME
40 42 1 0 0 
SMALL
USER_CHARGES


@<TRIPOS>ATOM
  1 S        0.4560     0.1470    -0.0300 S.3   1 <1>  -0.0800 
  2 C        0.6160     1.8700     0.2160 C.ar  1 <1>   0.0400 
  3 C       -1.2600     0.3730    -0.3530 C.2   1 <1>   0.1980 
  4 C       -0.6250     2.4480     0.0350 C.ar  1 <1>   0.2270 
  5 C        1.7460     2.5960     0.5400 C.ar  1 <1>  -0.1500 
  6 N       -1.6610     1.5750    -0.2870 N.2   1 <1>  -0.5650 
  7 C       -2.0650    -0.8660    -0.6710 C.3   1 <1>  -0.0600 
  8 C       -0.7420     3.8190     0.1810 C.ar  1 <1>  -0.1500 
  9 C        1.6070     3.9660     0.6790 C.ar  1 <1>  -0.1500 
 10 C        0.3680     4.6050     0.4940 C.ar  1 <1>   0.0860 
 11 C        0.2340     6.0430     0.6220 C.2   1 <1>   0.5440 
 12 O       -0.7580     6.5190     1.1350 O.2   1 <1>  -0.5700 
 13 N        1.2350     6.8590     0.1480 N.am  1 <1>  -0.4940 
 14 C        1.4110     8.2630     0.1930 C.2   1 <1>  -0.0880 
 15 N        0.4590     9.2350     0.0920 N.pl3 1 <1>   0.3140 
 16 C        2.5970     8.9080     0.3090 C.2   1 <1>  -0.1810 
 17 N        1.0100    10.4680     0.1360 N.2   1 <1>  -0.7070 
 18 C       -0.9830     9.0980    -0.1480 C.3   1 <1>   0.0160 
 19 C        2.2800    10.2620     0.2690 C.2   1 <1>   0.1080 
 20 C        3.9820     8.3020     0.4610 C.3   1 <1>   0.0210 
 21 C        3.2620    11.4080     0.3660 C.3   1 <1>  -0.0590 
 22 C        4.6250     8.0800    -0.9090 C.3   1 <1>  -0.2400 
 23 H        2.6910     2.1010     0.6800 H     1 <1>   0.1500 
 24 H       -1.6720    -1.3410    -1.5510 H     1 <1>   0.0800 
 25 H       -3.0900    -0.5960    -0.8470 H     1 <1>   0.0800 
 26 H       -2.0200    -1.5520     0.1540 H     1 <1>   0.0800 
 27 H       -1.7080     4.2730     0.0480 H     1 <1>   0.1500 
 28 H        2.4700     4.5500     0.9470 H     1 <1>   0.1500 
 29 H        2.0300     6.3640    -0.2510 H     1 <1>   0.3700 
 30 H       -1.1600     8.2540    -0.7870 H     1 <1>   0.0800 
 31 H       -1.3490     9.9910    -0.6180 H     1 <1>   0.0800 
 32 H       -1.4800     8.9560     0.7930 H     1 <1>   0.0800 
 33 H        3.9080     7.3650     0.9840 H     1 <1>   0.0800 
 34 H        4.5990     8.9550     1.0530 H     1 <1>   0.0800 
 35 H        4.1140    11.2210    -0.2600 H     1 <1>   0.0800 
 36 H        3.5820    11.5210     1.3840 H     1 <1>   0.0800 
 37 H        2.7900    12.3180     0.0460 H     1 <1>   0.0800 
 38 H        4.0190     7.4200    -1.5030 H     1 <1>   0.0800 
 39 H        5.6040     7.6490    -0.7950 H     1 <1>   0.0800 
 40 H        4.7190     9.0170    -1.4300 H     1 <1>   0.0800 
@<TRIPOS>BOND
  1   1   2  1   
  2   1   3  1   
  3   2   4  ar  
  4   2   5  ar  
  5   3   6  2   
  6   3   7  1   
  7   4   6  1   
  8   4   8  ar  
  9   5   9  ar  
 10   5  23  1   
 11   7  24  1   
 12   7  25  1   
 13   7  26  1   
 14   8  10  ar  
 15   8  27  1   
 16   9  10  ar  
 17   9  28  1   
 18  10  11  1   
 19  11  12  2   
 20  11  13  am  
 21  13  14  1   
 22  13  29  1   
 23  14  15  1   
 24  14  16  2   
 25  15  17  1   
 26  15  18  1   
 27  16  19  1   
 28  16  20  1   
 29  17  19  2   
 30  18  30  1   
 31  18  31  1   
 32  18  32  1   
 33  19  21  1   
 34  20  22  1   
 35  20  33  1   
 36  20  34  1   
 37  21  35  1   
 38  21  36  1   
 39  21  37  1   
 40  22  38  1   
 41  22  39  1   
 42  22  40  1   
@<TRIPOS>SUBSTRUCTURE
  1 ****  11 GROUP 4 **** **** 0

# MOE 2024.06 (io_trps.svl 2023.06)
