@<TRIPOS>MOLECULE
NONAME
55 57 1 0 0 
SMALL
USER_CHARGES


@<TRIPOS>ATOM
  1 F        0.0370     2.7900    -1.6220 F     1 <1>  -0.3400 
  2 C       -1.0430     3.3820    -2.1140 C.3   1 <1>   1.2000 
  3 F       -0.6770     4.6110    -2.4480 F     1 <1>  -0.3400 
  4 F       -1.3310     2.7560    -3.2460 F     1 <1>  -0.3400 
  5 C       -2.1990     3.3690    -1.1350 C.2   1 <1>  -0.3320 
  6 N       -2.1350     3.8820     0.1140 N.pl3 1 <1>   0.3140 
  7 C       -3.4460     2.8640    -1.2900 C.2   1 <1>  -0.1500 
  8 N       -3.3010     3.7020     0.7620 N.2   1 <1>  -0.7070 
  9 C       -1.0000     4.5310     0.8220 C.3   1 <1>   0.0960 
 10 C       -4.0780     3.1030    -0.0800 C.2   1 <1>   0.1080 
 11 C       -0.9030     6.0500     0.5630 C.3   1 <1>  -0.0800 
 12 C       -5.5000     2.7220     0.2590 C.3   1 <1>  -0.0590 
 13 C        0.3460     6.5880     1.2780 C.3   1 <1>   0.2090 
 14 C       -2.1750     6.7960     1.0170 C.3   1 <1>  -0.2400 
 15 N        0.6060     7.9890     0.8800 N.pl3 1 <1>  -0.8690 
 16 C        1.6830     8.6910     1.3650 C.ar  1 <1>   0.4100 
 17 N        2.5940     8.0200     2.0570 N.ar  1 <1>  -0.6200 
 18 C        1.7700    10.0520     1.1110 C.ar  1 <1>  -0.1500 
 19 C        3.6090     8.7310     2.5150 C.ar  1 <1>   0.1600 
 20 C        2.8380    10.7950     1.5730 C.ar  1 <1>   0.0860 
 21 C        3.7760    10.0850     2.3090 C.ar  1 <1>  -0.1500 
 22 C        2.9630    12.2130     1.3070 C.2   1 <1>   0.5440 
 23 O        2.0700    12.9560     1.6680 O.2   1 <1>  -0.5700 
 24 N        4.0600    12.7380     0.6530 N.am  1 <1>  -0.6600 
 25 C        5.0180    11.9190    -0.1430 C.3   1 <1>   0.1400 
 26 C        4.2640    14.2090     0.5250 C.3   1 <1>   0.1400 
 27 C        4.9260    12.3110    -1.6220 C.3   1 <1>  -0.1600 
 28 C        4.1620    14.6180    -0.9480 C.3   1 <1>  -0.1600 
 29 C        5.1350    13.8180    -1.8260 C.3   1 <1>  -0.1600 
 30 H       -3.8800     2.3760    -2.1460 H     1 <1>   0.1500 
 31 H       -0.0880     4.0460     0.5300 H     1 <1>   0.0800 
 32 H       -1.1360     4.3580     1.8750 H     1 <1>   0.0800 
 33 H       -0.7610     6.2080    -0.4910 H     1 <1>   0.0800 
 34 H       -5.9660     2.2240    -0.5700 H     1 <1>   0.0800 
 35 H       -6.0590     3.6070     0.4990 H     1 <1>   0.0800 
 36 H       -5.5010     2.0680     1.1110 H     1 <1>   0.0800 
 37 H        1.2060     5.9940     1.0140 H     1 <1>   0.0800 
 38 H        0.2170     6.5390     2.3470 H     1 <1>   0.0800 
 39 H       -2.3510     6.6400     2.0670 H     1 <1>   0.0800 
 40 H       -3.0350     6.4430     0.4750 H     1 <1>   0.0800 
 41 H       -2.0910     7.8520     0.8360 H     1 <1>   0.0800 
 42 H       -0.2440     8.5360     0.7340 H     1 <1>   0.4000 
 43 H        0.9980    10.5350     0.5440 H     1 <1>   0.1500 
 44 H        4.3500     8.1990     3.0890 H     1 <1>   0.1500 
 45 H        4.6280    10.5970     2.7180 H     1 <1>   0.1500 
 46 H        4.8080    10.8690    -0.0470 H     1 <1>   0.0800 
 47 H        6.0150    12.0980     0.2200 H     1 <1>   0.0800 
 48 H        5.2380    14.4600     0.9070 H     1 <1>   0.0800 
 49 H        3.5330    14.7490     1.1020 H     1 <1>   0.0800 
 50 H        3.9570    12.0260    -1.9950 H     1 <1>   0.0800 
 51 H        5.6640    11.7650    -2.1810 H     1 <1>   0.0800 
 52 H        4.3710    15.6690    -1.0400 H     1 <1>   0.0800 
 53 H        3.1510    14.4550    -1.2800 H     1 <1>   0.0800 
 54 H        4.9810    14.0700    -2.8620 H     1 <1>   0.0800 
 55 H        6.1460    14.0770    -1.5660 H     1 <1>   0.0800 
@<TRIPOS>BOND
  1   1   2  1   
  2   2   3  1   
  3   2   4  1   
  4   2   5  1   
  5   5   6  1   
  6   5   7  2   
  7   6   8  1   
  8   6   9  1   
  9   7  10  1   
 10   7  30  1   
 11   8  10  2   
 12   9  11  1   
 13   9  31  1   
 14   9  32  1   
 15  10  12  1   
 16  11  13  1   
 17  11  14  1   
 18  11  33  1   
 19  12  34  1   
 20  12  35  1   
 21  12  36  1   
 22  13  15  1   
 23  13  37  1   
 24  13  38  1   
 25  14  39  1   
 26  14  40  1   
 27  14  41  1   
 28  15  16  1   
 29  15  42  1   
 30  16  17  ar  
 31  16  18  ar  
 32  17  19  ar  
 33  18  20  ar  
 34  18  43  1   
 35  19  21  ar  
 36  19  44  1   
 37  20  21  ar  
 38  20  22  1   
 39  21  45  1   
 40  22  23  2   
 41  22  24  am  
 42  24  25  1   
 43  24  26  1   
 44  25  27  1   
 45  25  46  1   
 46  25  47  1   
 47  26  28  1   
 48  26  48  1   
 49  26  49  1   
 50  27  29  1   
 51  27  50  1   
 52  27  51  1   
 53  28  29  1   
 54  28  52  1   
 55  28  53  1   
 56  29  54  1   
 57  29  55  1   
@<TRIPOS>SUBSTRUCTURE
  1 ****  15 GROUP 4 **** **** 0

# MOE 2024.06 (io_trps.svl 2023.06)
