@<TRIPOS>MOLECULE
NONAME
50 52 1 0 0 
SMALL
USER_CHARGES


@<TRIPOS>ATOM
  1 O       -1.8570     0.3600    -0.9850 O.2   1 <1>  -0.5700 
  2 C       -2.1380     0.9260     0.0410 C.2   1 <1>   0.5690 
  3 N       -2.8340     0.2810     1.0270 N.am  1 <1>  -0.6600 
  4 C       -1.7660     2.3950     0.1820 C.3   1 <1>  -0.0990 
  5 C       -2.6990    -1.1990     1.1590 C.3   1 <1>   0.3200 
  6 C       -3.8110     0.9720     1.9330 C.3   1 <1>   0.1400 
  7 C       -0.4020     2.7270    -0.4390 C.3   1 <1>  -0.0170 
  8 C       -3.9890    -1.8380     0.6930 C.2   1 <1>  -0.3320 
  9 C       -4.9310     1.6960     1.1470 C.3   1 <1>   0.3430 
 10 C       -0.0930     4.2020    -0.2440 C.ar  1 <1>  -0.1440 
 11 N       -4.9080    -2.4140     1.4940 N.pl3 1 <1>   0.0330 
 12 C       -4.4490    -1.9610    -0.5710 C.2   1 <1>   0.0770 
 13 N       -5.4610     0.8420     0.0360 N.4   1 <1>  -0.9590 
 14 C       -0.4730     5.1240    -1.2150 C.ar  1 <1>  -0.1500 
 15 C        0.5660     4.6340     0.9070 C.ar  1 <1>  -0.1500 
 16 C       -5.8970    -2.8020     0.6620 C.2   1 <1>   0.0360 
 17 N       -5.6720    -2.5190    -0.5800 N.2   1 <1>  -0.5650 
 18 C       -5.2090     1.4200    -1.3180 C.3   1 <1>   0.2630 
 19 C       -6.8970     0.4700     0.1950 C.3   1 <1>   0.2630 
 20 C       -0.1840     6.4570    -0.9980 C.ar  1 <1>   0.0820 
 21 C        0.8490     5.9790     1.1070 C.ar  1 <1>  -0.1500 
 22 O       -0.4540     7.5030    -1.7870 O.3   1 <1>  -0.3620 
 23 C        0.4590     6.8730     0.1300 C.ar  1 <1>   0.0820 
 24 C        0.0630     8.6570    -1.1250 C.3   1 <1>   0.4000 
 25 O        0.6230     8.2000     0.1050 O.3   1 <1>  -0.3620 
 26 H       -1.7290     2.6620     1.2210 H     1 <1>   0.0800 
 27 H       -2.5180     2.9910    -0.2980 H     1 <1>   0.0800 
 28 H       -2.4850    -1.4600     2.1820 H     1 <1>   0.0800 
 29 H       -1.8830    -1.5550     0.5520 H     1 <1>   0.0800 
 30 H       -3.2910     1.6810     2.5550 H     1 <1>   0.0800 
 31 H       -4.2640     0.2510     2.5910 H     1 <1>   0.0800 
 32 H       -0.4070     2.4950    -1.4910 H     1 <1>   0.0800 
 33 H        0.3660     2.1290     0.0200 H     1 <1>   0.0800 
 34 H       -4.5350     2.6110     0.7410 H     1 <1>   0.0800 
 35 H       -5.7260     1.9610     1.8240 H     1 <1>   0.0800 
 36 H       -4.8660    -2.5760     2.5070 H     1 <1>   0.2700 
 37 H       -3.9590    -1.6560    -1.4860 H     1 <1>   0.1500 
 38 H       -4.9140    -0.0450     0.0720 H     1 <1>   0.4500 
 39 H       -0.9760     4.8280    -2.1170 H     1 <1>   0.1500 
 40 H        0.8670     3.9220     1.6560 H     1 <1>   0.1500 
 41 H       -6.7810    -3.3060     1.0170 H     1 <1>   0.1500 
 42 H       -5.7220     2.3610    -1.4290 H     1 <1>   0.0800 
 43 H       -5.5600     0.7420    -2.0790 H     1 <1>   0.0800 
 44 H       -4.1530     1.5750    -1.4700 H     1 <1>   0.0800 
 45 H       -7.5250     1.3420     0.1180 H     1 <1>   0.0800 
 46 H       -7.0600     0.0030     1.1520 H     1 <1>   0.0800 
 47 H       -7.1810    -0.2330    -0.5740 H     1 <1>   0.0800 
 48 H        1.3580     6.3270     1.9870 H     1 <1>   0.1500 
 49 H       -0.7360     9.3480    -0.9240 H     1 <1>   0.0800 
 50 H        0.8340     9.1030    -1.7280 H     1 <1>   0.0800 
@<TRIPOS>BOND
  1   1   2  2   
  2   2   3  am  
  3   2   4  1   
  4   3   5  1   
  5   3   6  1   
  6   4   7  1   
  7   4  26  1   
  8   4  27  1   
  9   5   8  1   
 10   5  28  1   
 11   5  29  1   
 12   6   9  1   
 13   6  30  1   
 14   6  31  1   
 15   7  10  1   
 16   7  32  1   
 17   7  33  1   
 18   8  11  1   
 19   8  12  2   
 20   9  13  1   
 21   9  34  1   
 22   9  35  1   
 23  10  14  ar  
 24  10  15  ar  
 25  11  16  1   
 26  11  36  1   
 27  12  17  1   
 28  12  37  1   
 29  13  18  1   
 30  13  19  1   
 31  13  38  1   
 32  14  20  ar  
 33  14  39  1   
 34  15  21  ar  
 35  15  40  1   
 36  16  17  2   
 37  16  41  1   
 38  18  42  1   
 39  18  43  1   
 40  18  44  1   
 41  19  45  1   
 42  19  46  1   
 43  19  47  1   
 44  20  22  1   
 45  20  23  ar  
 46  21  23  ar  
 47  21  48  1   
 48  22  24  1   
 49  23  25  1   
 50  24  25  1   
 51  24  49  1   
 52  24  50  1   
@<TRIPOS>SUBSTRUCTURE
  1 ****   4 GROUP 4 **** **** 0

# MOE 2024.06 (io_trps.svl 2023.06)
