@<TRIPOS>MOLECULE
F2167-9540
21 22 1 0 0 
SMALL
USER_CHARGES


@<TRIPOS>ATOM
  1 BR       0.2610    -0.1300     0.6980 Br    1 <1>  -0.1110 
  2 C        0.1560     1.7490     0.2780 C.ar  1 <1>   0.1110 
  3 C        1.2930     2.5400     0.3590 C.ar  1 <1>   0.0820 
  4 C       -1.0600     2.2890    -0.1010 C.ar  1 <1>  -0.1500 
  5 O        2.5290     2.1430     0.7140 O.3   1 <1>  -0.3630 
  6 C        1.2300     3.8790     0.0600 C.ar  1 <1>  -0.1440 
  7 C       -1.0900     3.6440    -0.3950 C.ar  1 <1>   0.1900 
  8 C        3.4190     3.2580     0.7040 C.3   1 <1>   0.2000 
  9 C        0.0320     4.4590    -0.3250 C.ar  1 <1>  -0.1500 
 10 C        2.5970     4.4740     0.2260 C.3   1 <1>  -0.0170 
 11 F       -2.2270     4.1780    -0.7560 F     1 <1>  -0.1900 
 12 C        4.6160     2.9360    -0.2020 C.3   1 <1>   0.1200 
 13 O        5.2050     1.7490     0.2040 O.3   1 <1>  -0.6800 
 14 H       -1.9460     1.6860    -0.1660 H     1 <1>   0.1500 
 15 H        3.7540     3.4130     1.7150 H     1 <1>   0.0800 
 16 H       -0.0400     5.5060    -0.5630 H     1 <1>   0.1500 
 17 H        2.5970     5.2500     0.9710 H     1 <1>   0.0800 
 18 H        2.9630     4.8670    -0.7050 H     1 <1>   0.0800 
 19 H        5.3580     3.7130    -0.1500 H     1 <1>   0.0800 
 20 H        4.2950     2.8200    -1.2230 H     1 <1>   0.0800 
 21 H        4.5050     1.0720     0.3300 H     1 <1>   0.4000 
@<TRIPOS>BOND
  1   1   2  1   
  2   2   3  ar  
  3   2   4  ar  
  4   3   5  1   
  5   3   6  ar  
  6   4   7  ar  
  7   4  14  1   
  8   5   8  1   
  9   6   9  ar  
 10   6  10  1   
 11   7   9  ar  
 12   7  11  1   
 13   8  10  1   
 14   8  12  1   
 15   8  15  1   
 16   9  16  1   
 17  10  17  1   
 18  10  18  1   
 19  12  13  1   
 20  12  19  1   
 21  12  20  1   
 22  13  21  1   
@<TRIPOS>SUBSTRUCTURE
  1 ****   3 GROUP 4 **** **** 0

# MOE 2024.06 (io_trps.svl 2023.06)
