@<TRIPOS>MOLECULE
NONAME
40 41 1 0 0 
SMALL
USER_CHARGES


@<TRIPOS>ATOM
  1 CL      -0.4950    -0.3220     0.3140 Cl    1 <1>  -0.1770 
  2 C       -0.4920    -2.0660     0.2630 C.ar  1 <1>   0.1770 
  3 C       -1.2390    -2.7700     1.1920 C.ar  1 <1>  -0.1500 
  4 C        0.2560    -2.7130    -0.7040 C.ar  1 <1>  -0.1500 
  5 C       -1.2410    -4.1550     1.1540 C.ar  1 <1>  -0.1500 
  6 C        0.2540    -4.0980    -0.7440 C.ar  1 <1>  -0.1500 
  7 C       -0.4950    -4.8070     0.1800 C.ar  1 <1>   0.1020 
  8 S       -0.4500    -6.6020     0.0520 S.3   1 <1>  -0.3320 
  9 C       -1.6840    -7.2540     1.2790 C.3   1 <1>   0.1310 
 10 C       -1.8050    -8.7700     1.1870 C.2   1 <1>   0.5690 
 11 O       -1.3200    -9.4050     2.0940 O.2   1 <1>  -0.5700 
 12 N       -2.4640    -9.3850     0.1470 N.am  1 <1>  -0.6600 
 13 C       -2.5760   -10.8700     0.1170 C.3   1 <1>   0.3200 
 14 C       -3.0470    -8.6750    -1.0310 C.3   1 <1>   0.1400 
 15 C       -3.9950   -11.2760     0.4620 C.2   1 <1>  -0.3320 
 16 C       -4.4710    -8.1800    -0.7500 C.3   1 <1>   0.1200 
 17 N       -4.9700   -11.6120    -0.4110 N.pl3 1 <1>   0.0480 
 18 C       -4.5360   -11.3720     1.6960 C.2   1 <1>   0.0770 
 19 O       -5.0430    -7.7610    -1.9440 O.3   1 <1>  -0.6800 
 20 C       -6.0420   -11.8840     0.3670 C.2   1 <1>   0.0360 
 21 C       -4.9280   -11.6610    -1.8840 C.3   1 <1>   0.0160 
 22 N       -5.8240   -11.7540     1.6350 N.2   1 <1>  -0.5650 
 23 H       -1.8060    -2.2350     1.9330 H     1 <1>   0.1500 
 24 H        0.8280    -2.1400    -1.4120 H     1 <1>   0.1500 
 25 H       -1.8150    -4.6960     1.8800 H     1 <1>   0.1500 
 26 H        0.8290    -4.6250    -1.4850 H     1 <1>   0.1500 
 27 H       -2.6250    -6.7810     1.0820 H     1 <1>   0.0800 
 28 H       -1.3290    -6.9770     2.2550 H     1 <1>   0.0800 
 29 H       -1.9060   -11.3120     0.8350 H     1 <1>   0.0800 
 30 H       -2.2910   -11.2410    -0.8510 H     1 <1>   0.0800 
 31 H       -3.0690    -9.3500    -1.8680 H     1 <1>   0.0800 
 32 H       -2.4260    -7.8430    -1.3050 H     1 <1>   0.0800 
 33 H       -4.4770    -7.3540    -0.0620 H     1 <1>   0.0800 
 34 H       -5.0860    -8.9690    -0.3570 H     1 <1>   0.0800 
 35 H       -4.0530   -11.1780     2.6400 H     1 <1>   0.1500 
 36 H       -4.6680    -6.9060    -2.2350 H     1 <1>   0.4000 
 37 H       -6.9880   -12.1810    -0.0500 H     1 <1>   0.1500 
 38 H       -3.9920   -12.0750    -2.2070 H     1 <1>   0.0800 
 39 H       -5.0440   -10.6670    -2.2770 H     1 <1>   0.0800 
 40 H       -5.7310   -12.2790    -2.2440 H     1 <1>   0.0800 
@<TRIPOS>BOND
  1   1   2  1   
  2   2   3  ar  
  3   2   4  ar  
  4   3   5  ar  
  5   3  23  1   
  6   4   6  ar  
  7   4  24  1   
  8   5   7  ar  
  9   5  25  1   
 10   6   7  ar  
 11   6  26  1   
 12   7   8  1   
 13   8   9  1   
 14   9  10  1   
 15   9  27  1   
 16   9  28  1   
 17  10  11  2   
 18  10  12  am  
 19  12  13  1   
 20  12  14  1   
 21  13  15  1   
 22  13  29  1   
 23  13  30  1   
 24  14  16  1   
 25  14  31  1   
 26  14  32  1   
 27  15  17  1   
 28  15  18  2   
 29  16  19  1   
 30  16  33  1   
 31  16  34  1   
 32  17  20  1   
 33  17  21  1   
 34  18  22  1   
 35  18  35  1   
 36  19  36  1   
 37  20  22  2   
 38  20  37  1   
 39  21  38  1   
 40  21  39  1   
 41  21  40  1   
@<TRIPOS>SUBSTRUCTURE
  1 ****   9 GROUP 4 **** **** 0

# MOE 2024.06 (io_trps.svl 2023.06)
