@<TRIPOS>MOLECULE
NONAME
49 51 1 0 0 
SMALL
USER_CHARGES


@<TRIPOS>ATOM
  1 F        0.1180    -0.6200     1.3080 F     1 <1>  -0.3400 
  2 C        0.7230    -1.7180     0.8620 C.3   1 <1>   1.2010 
  3 F        1.1090    -2.3830     1.9490 F     1 <1>  -0.3400 
  4 F        1.8410    -1.3170     0.2660 F     1 <1>  -0.3400 
  5 C       -0.1780    -2.5870    -0.0620 C.2   1 <1>   0.1080 
  6 N       -0.8810    -2.1590    -1.0850 N.2   1 <1>  -0.7070 
  7 C       -0.3390    -3.9580     0.0940 C.2   1 <1>  -0.1500 
  8 N       -1.4820    -3.2410    -1.5960 N.pl3 1 <1>   0.3140 
  9 C       -1.1910    -4.3650    -0.8890 C.2   1 <1>  -0.2370 
 10 C       -2.3300    -3.1050    -2.7940 C.3   1 <1>   0.0160 
 11 C       -1.7000    -5.6770    -1.1740 C.2   1 <1>   0.7150 
 12 O       -2.2200    -5.9480    -2.2390 O.2   1 <1>  -0.5700 
 13 N       -1.6840    -6.6640    -0.2170 N.am  1 <1>  -0.6600 
 14 C       -2.2990    -6.4280     1.1220 C.3   1 <1>   0.1400 
 15 C       -1.7130    -8.0950    -0.6390 C.3   1 <1>   0.1400 
 16 C       -3.7460    -6.9810     1.1830 C.3   1 <1>   0.4230 
 17 C       -3.1600    -8.6190    -0.6300 C.3   1 <1>   0.3430 
 18 N       -3.8310    -8.4260     0.7140 N.4   1 <1>  -0.9590 
 19 C       -4.7090    -6.0800     0.3740 C.3   1 <1>   0.1200 
 20 C       -5.2730    -8.8650     0.7280 C.3   1 <1>   0.4230 
 21 O       -6.0130    -6.5770     0.4500 O.3   1 <1>  -0.5600 
 22 C       -6.1770    -7.8760    -0.0470 C.3   1 <1>   0.1200 
 23 C       -5.4050   -10.3130     0.2280 C.3   1 <1>  -0.1600 
 24 C       -6.7680   -10.9320     0.5790 C.3   1 <1>  -0.1600 
 25 C       -6.8290   -12.3980     0.1400 C.3   1 <1>  -0.2400 
 26 H        0.1330    -4.5650     0.8470 H     1 <1>   0.1500 
 27 H       -3.3160    -3.4720    -2.5790 H     1 <1>   0.0800 
 28 H       -1.8980    -3.6700    -3.5990 H     1 <1>   0.0800 
 29 H       -2.3860    -2.0690    -3.0750 H     1 <1>   0.0800 
 30 H       -1.6980    -6.9080     1.8750 H     1 <1>   0.0800 
 31 H       -2.3140    -5.3750     1.3470 H     1 <1>   0.0800 
 32 H       -1.3040    -8.1940    -1.6320 H     1 <1>   0.0800 
 33 H       -1.1000    -8.6810     0.0230 H     1 <1>   0.0800 
 34 H       -4.0670    -6.9290     2.2100 H     1 <1>   0.0800 
 35 H       -3.1520    -9.6640    -0.8930 H     1 <1>   0.0800 
 36 H       -3.7110    -8.0930    -1.3930 H     1 <1>   0.0800 
 37 H       -3.3320    -9.0060     1.3980 H     1 <1>   0.4500 
 38 H       -4.4250    -6.0180    -0.6620 H     1 <1>   0.0800 
 39 H       -4.7210    -5.0840     0.7830 H     1 <1>   0.0800 
 40 H       -5.6140    -8.8530     1.7510 H     1 <1>   0.0800 
 41 H       -7.2130    -8.1350     0.0810 H     1 <1>   0.0800 
 42 H       -5.9540    -7.8760    -1.1000 H     1 <1>   0.0800 
 43 H       -5.2780   -10.3540    -0.8400 H     1 <1>   0.0800 
 44 H       -4.6420   -10.9160     0.6890 H     1 <1>   0.0800 
 45 H       -6.9350   -10.8820     1.6420 H     1 <1>   0.0800 
 46 H       -7.5650   -10.3970     0.0900 H     1 <1>   0.0800 
 47 H       -6.0710   -12.9790     0.6340 H     1 <1>   0.0800 
 48 H       -6.6940   -12.4840    -0.9250 H     1 <1>   0.0800 
 49 H       -7.7890   -12.8150     0.3910 H     1 <1>   0.0800 
@<TRIPOS>BOND
  1   1   2  1   
  2   2   3  1   
  3   2   4  1   
  4   2   5  1   
  5   5   6  2   
  6   5   7  1   
  7   6   8  1   
  8   7   9  2   
  9   7  26  1   
 10   8   9  1   
 11   8  10  1   
 12   9  11  1   
 13  10  27  1   
 14  10  28  1   
 15  10  29  1   
 16  11  12  2   
 17  11  13  am  
 18  13  14  1   
 19  13  15  1   
 20  14  16  1   
 21  14  30  1   
 22  14  31  1   
 23  15  17  1   
 24  15  32  1   
 25  15  33  1   
 26  16  18  1   
 27  16  19  1   
 28  16  34  1   
 29  17  18  1   
 30  17  35  1   
 31  17  36  1   
 32  18  20  1   
 33  18  37  1   
 34  19  21  1   
 35  19  38  1   
 36  19  39  1   
 37  20  22  1   
 38  20  23  1   
 39  20  40  1   
 40  21  22  1   
 41  22  41  1   
 42  22  42  1   
 43  23  24  1   
 44  23  43  1   
 45  23  44  1   
 46  24  25  1   
 47  24  45  1   
 48  24  46  1   
 49  25  47  1   
 50  25  48  1   
 51  25  49  1   
@<TRIPOS>SUBSTRUCTURE
  1 ****  13 GROUP 4 **** **** 0

# MOE 2024.06 (io_trps.svl 2023.06)
