@<TRIPOS>MOLECULE
NONAME
48 50 1 0 0 
SMALL
USER_CHARGES


@<TRIPOS>ATOM
  1 O        0.2030    -0.4550     0.2660 O.3   1 <1>  -0.3630 
  2 C        1.2680     0.3560     0.0470 C.ar  1 <1>   0.0830 
  3 C        0.1920    -1.7860    -0.1800 C.3   1 <1>   0.1200 
  4 C        1.1720     1.6530     0.5270 C.ar  1 <1>  -0.1500 
  5 C        2.4240    -0.0430    -0.6200 C.ar  1 <1>  -0.1500 
  6 C       -1.1510    -2.3870     0.2330 C.3   1 <1>  -0.1600 
  7 C        2.2120     2.5470     0.3460 C.ar  1 <1>  -0.1500 
  8 C        3.4640     0.8530    -0.8000 C.ar  1 <1>  -0.1500 
  9 C       -1.2670    -3.8350    -0.2340 C.3   1 <1>   0.3430 
 10 C        3.3590     2.1470    -0.3170 C.ar  1 <1>  -0.1500 
 11 N       -2.5390    -4.4280     0.2580 N.4   1 <1>  -0.9590 
 12 C       -3.7920    -3.8350    -0.2920 C.3   1 <1>   0.3430 
 13 C       -2.6570    -5.9020     0.0430 C.3   1 <1>   0.3430 
 14 C       -4.8590    -4.8700     0.0630 C.3   1 <1>   0.2000 
 15 C       -4.1400    -6.1890    -0.2380 C.3   1 <1>  -0.0800 
 16 O       -5.1010    -4.7660     1.4290 O.3   1 <1>  -0.6800 
 17 C       -4.6610    -7.4400     0.4970 C.3   1 <1>  -0.0170 
 18 C       -3.7860    -8.6390     0.1700 C.ar  1 <1>  -0.1430 
 19 C       -3.8190    -9.2500    -1.0680 C.ar  1 <1>  -0.1500 
 20 C       -2.9100    -9.1780     1.0930 C.ar  1 <1>  -0.1500 
 21 C       -2.9830   -10.3250    -1.3240 C.ar  1 <1>   0.1600 
 22 C       -2.1180   -10.2560     0.7360 C.ar  1 <1>   0.1600 
 23 N       -2.1270   -10.8320    -0.4540 N.ar  1 <1>  -0.6200 
 24 H        0.3070    -1.7820    -1.2510 H     1 <1>   0.0800 
 25 H        1.0130    -2.3040     0.2860 H     1 <1>   0.0800 
 26 H        0.2790     1.9580     1.0410 H     1 <1>   0.1500 
 27 H        2.5370    -1.0370    -1.0060 H     1 <1>   0.1500 
 28 H       -1.2260    -2.3440     1.3050 H     1 <1>   0.0800 
 29 H       -1.9320    -1.7920    -0.2050 H     1 <1>   0.0800 
 30 H        2.1300     3.5520     0.7220 H     1 <1>   0.1500 
 31 H        4.3570     0.5460    -1.3150 H     1 <1>   0.1500 
 32 H       -0.4340    -4.3990     0.1560 H     1 <1>   0.0800 
 33 H       -1.2310    -3.8790    -1.3110 H     1 <1>   0.0800 
 34 H        4.1690     2.8420    -0.4580 H     1 <1>   0.1500 
 35 H       -2.6160    -4.2830     1.2780 H     1 <1>   0.4500 
 36 H       -4.0160    -2.8770     0.1490 H     1 <1>   0.0800 
 37 H       -3.7190    -3.7370    -1.3620 H     1 <1>   0.0800 
 38 H       -2.0590    -6.2230    -0.7950 H     1 <1>   0.0800 
 39 H       -2.3310    -6.4300     0.9250 H     1 <1>   0.0800 
 40 H       -5.7810    -4.7300    -0.4780 H     1 <1>   0.0800 
 41 H       -4.2240    -6.3710    -1.2950 H     1 <1>   0.0800 
 42 H       -5.9380    -5.2140     1.6790 H     1 <1>   0.4000 
 43 H       -5.6740    -7.6470     0.1980 H     1 <1>   0.0800 
 44 H       -4.6590    -7.2860     1.5620 H     1 <1>   0.0800 
 45 H       -4.4860    -8.9110    -1.8390 H     1 <1>   0.1500 
 46 H       -2.8340    -8.7800     2.0880 H     1 <1>   0.1500 
 47 H       -3.0200   -10.7910    -2.2940 H     1 <1>   0.1500 
 48 H       -1.4410   -10.6680     1.4660 H     1 <1>   0.1500 
@<TRIPOS>BOND
  1   1   2  1   
  2   1   3  1   
  3   2   4  ar  
  4   2   5  ar  
  5   3   6  1   
  6   3  24  1   
  7   3  25  1   
  8   4   7  ar  
  9   4  26  1   
 10   5   8  ar  
 11   5  27  1   
 12   6   9  1   
 13   6  28  1   
 14   6  29  1   
 15   7  10  ar  
 16   7  30  1   
 17   8  10  ar  
 18   8  31  1   
 19   9  11  1   
 20   9  32  1   
 21   9  33  1   
 22  10  34  1   
 23  11  12  1   
 24  11  13  1   
 25  11  35  1   
 26  12  14  1   
 27  12  36  1   
 28  12  37  1   
 29  13  15  1   
 30  13  38  1   
 31  13  39  1   
 32  14  15  1   
 33  14  16  1   
 34  14  40  1   
 35  15  17  1   
 36  15  41  1   
 37  16  42  1   
 38  17  18  1   
 39  17  43  1   
 40  17  44  1   
 41  18  19  ar  
 42  18  20  ar  
 43  19  21  ar  
 44  19  45  1   
 45  20  22  ar  
 46  20  46  1   
 47  21  23  ar  
 48  21  47  1   
 49  22  23  ar  
 50  22  48  1   
@<TRIPOS>SUBSTRUCTURE
  1 ****   9 GROUP 4 **** **** 0

# MOE 2024.06 (io_trps.svl 2023.06)
