@<TRIPOS>MOLECULE
NONAME
54 56 1 0 0 
SMALL
USER_CHARGES


@<TRIPOS>ATOM
  1 S        0.1180     0.6510    -0.6970 S.o2  1 <1>   1.3330 
  2 O       -1.0790     1.4570    -0.6310 O.2   1 <1>  -0.6500 
  3 O        0.2810    -0.3100    -1.7650 O.2   1 <1>  -0.6500 
  4 N        0.2480    -0.1820     0.7780 N.am  1 <1>  -0.8490 
  5 C        1.5500     1.7320    -0.7030 C.3   1 <1>  -0.0550 
  6 C       -0.3790    -1.5070     0.7230 C.3   1 <1>   0.1160 
  7 C       -0.2880     0.5690     1.9190 C.3   1 <1>   0.1160 
  8 C        2.9020     0.9940    -0.8140 C.3   1 <1>  -0.0800 
  9 C        4.1050     1.8990    -1.0320 C.3   1 <1>   0.2200 
 10 C        3.3100     0.1790     0.4220 C.3   1 <1>   0.1200 
 11 N        4.0320     3.0930    -0.1590 N.am  1 <1>  -0.7300 
 12 C        5.2220     1.0010    -0.5250 C.3   1 <1>   0.1200 
 13 O        4.6840     0.3780     0.6000 O.3   1 <1>  -0.5600 
 14 C        3.7910     4.3600    -0.5850 C.2   1 <1>   0.5690 
 15 O        3.4760     4.5830    -1.7300 O.2   1 <1>  -0.5700 
 16 C        3.9150     5.5290     0.4040 C.3   1 <1>   0.1710 
 17 N        5.2870     6.0770     0.5950 N.3   1 <1>  -0.8100 
 18 C        5.8330     6.5520    -0.6920 C.3   1 <1>   0.2530 
 19 C        6.1890     5.1060     1.2460 C.3   1 <1>   0.1100 
 20 C        6.9020     7.6160    -0.4950 C.ar  1 <1>  -0.1430 
 21 C        7.5020     5.7300     1.7380 C.3   1 <1>   0.1200 
 22 C        8.1070     7.3200     0.1330 C.ar  1 <1>   0.0820 
 23 C        6.6990     8.9000    -0.9790 C.ar  1 <1>  -0.1500 
 24 O        8.3360     6.1010     0.6600 O.3   1 <1>  -0.3630 
 25 C        9.1020     8.2770     0.2400 C.ar  1 <1>  -0.1500 
 26 C        7.6870     9.8640    -0.8590 C.ar  1 <1>  -0.1500 
 27 C        8.8920     9.5520    -0.2540 C.ar  1 <1>  -0.1500 
 28 H        1.4660     2.3930    -1.5450 H     1 <1>   0.0800 
 29 H        1.5380     2.3390     0.1800 H     1 <1>   0.0800 
 30 H       -0.2720    -2.0120     1.6670 H     1 <1>   0.0800 
 31 H        0.0950    -2.1090    -0.0350 H     1 <1>   0.0800 
 32 H       -1.4260    -1.4150     0.4850 H     1 <1>   0.0800 
 33 H       -0.0960     0.0380     2.8350 H     1 <1>   0.0800 
 34 H       -1.3520     0.7090     1.8110 H     1 <1>   0.0800 
 35 H        0.1810     1.5360     1.9820 H     1 <1>   0.0800 
 36 H        2.8490     0.3140    -1.6470 H     1 <1>   0.0800 
 37 H        4.2370     2.1820    -2.0640 H     1 <1>   0.0800 
 38 H        3.1230    -0.8730     0.2840 H     1 <1>   0.0800 
 39 H        2.8140     0.5210     1.3130 H     1 <1>   0.0800 
 40 H        4.2960     2.9050     0.8110 H     1 <1>   0.3700 
 41 H        6.1100     1.5450    -0.2540 H     1 <1>   0.0800 
 42 H        5.4620     0.2380    -1.2450 H     1 <1>   0.0800 
 43 H        3.5280     5.2160     1.3570 H     1 <1>   0.0800 
 44 H        3.2770     6.3220     0.0550 H     1 <1>   0.0800 
 45 H        6.2450     5.7270    -1.2490 H     1 <1>   0.0800 
 46 H        5.0390     6.9750    -1.2840 H     1 <1>   0.0800 
 47 H        5.6880     4.7000     2.1070 H     1 <1>   0.0800 
 48 H        6.4160     4.2920     0.5790 H     1 <1>   0.0800 
 49 H        8.0460     5.0110     2.3220 H     1 <1>   0.0800 
 50 H        7.3080     6.5960     2.3480 H     1 <1>   0.0800 
 51 H        5.7700     9.1560    -1.4590 H     1 <1>   0.1500 
 52 H       10.0310     8.0200     0.7140 H     1 <1>   0.1500 
 53 H        7.5170    10.8560    -1.2390 H     1 <1>   0.1500 
 54 H        9.6620    10.2980    -0.1670 H     1 <1>   0.1500 
@<TRIPOS>BOND
  1   1   2  2   
  2   1   3  2   
  3   1   4  am  
  4   1   5  1   
  5   4   6  1   
  6   4   7  1   
  7   5   8  1   
  8   5  28  1   
  9   5  29  1   
 10   6  30  1   
 11   6  31  1   
 12   6  32  1   
 13   7  33  1   
 14   7  34  1   
 15   7  35  1   
 16   8   9  1   
 17   8  10  1   
 18   8  36  1   
 19   9  11  1   
 20   9  12  1   
 21   9  37  1   
 22  10  13  1   
 23  10  38  1   
 24  10  39  1   
 25  11  14  am  
 26  11  40  1   
 27  12  13  1   
 28  12  41  1   
 29  12  42  1   
 30  14  15  2   
 31  14  16  1   
 32  16  17  1   
 33  16  43  1   
 34  16  44  1   
 35  17  18  1   
 36  17  19  1   
 37  18  20  1   
 38  18  45  1   
 39  18  46  1   
 40  19  21  1   
 41  19  47  1   
 42  19  48  1   
 43  20  22  ar  
 44  20  23  ar  
 45  21  24  1   
 46  21  49  1   
 47  21  50  1   
 48  22  24  1   
 49  22  25  ar  
 50  23  26  ar  
 51  23  51  1   
 52  25  27  ar  
 53  25  52  1   
 54  26  27  ar  
 55  26  53  1   
 56  27  54  1   
@<TRIPOS>SUBSTRUCTURE
  1 ****  14 GROUP 4 **** **** 0

# MOE 2024.06 (io_trps.svl 2023.06)
