@<TRIPOS>MOLECULE
NONAME
49 51 1 0 0 
SMALL
USER_CHARGES


@<TRIPOS>ATOM
  1 O       -0.6640    -0.8220     0.2400 O.2   1 <1>  -0.5700 
  2 C       -1.6000    -0.2470    -0.2510 C.2   1 <1>   0.4230 
  3 C       -2.9570    -0.5160     0.1370 C.ar  1 <1>   0.0860 
  4 C       -1.2830     0.7350    -1.3620 C.3   1 <1>  -0.1790 
  5 C       -3.9670     0.4230     0.3320 C.ar  1 <1>   0.1660 
  6 C       -3.3420    -1.8300     0.3490 C.ar  1 <1>   0.1600 
  7 N       -5.1940     0.0810     0.6290 N.ar  1 <1>  -0.6200 
  8 C       -3.7270     1.9220     0.2460 C.3   1 <1>  -0.0960 
  9 N       -4.5610    -2.1950     0.6570 N.ar  1 <1>  -0.6200 
 10 C       -5.4540    -1.2150     0.7820 C.ar  1 <1>   0.7200 
 11 N       -6.7410    -1.5720     1.0940 N.pl3 1 <1>  -0.8380 
 12 C       -7.0940    -2.8980     1.6490 C.3   1 <1>   0.2090 
 13 C       -7.9160    -0.7060     0.8030 C.3   1 <1>   0.2090 
 14 C       -7.9100    -3.6610     0.5990 C.3   1 <1>  -0.0800 
 15 C       -8.8210    -1.4290    -0.2030 C.3   1 <1>  -0.1600 
 16 C       -9.1820    -2.8600     0.2370 C.3   1 <1>  -0.1600 
 17 C       -8.1830    -5.0740     1.1240 C.3   1 <1>   0.3430 
 18 N       -8.8570    -5.9170     0.0940 N.4   1 <1>  -0.9590 
 19 C      -10.3310    -5.9960     0.2480 C.3   1 <1>   0.3430 
 20 C       -8.3770    -7.3200     0.0910 C.3   1 <1>   0.3430 
 21 C      -10.7270    -7.2310    -0.5490 C.3   1 <1>  -0.1600 
 22 C       -9.4630    -8.0900    -0.6470 C.3   1 <1>  -0.1600 
 23 H       -2.1430     0.9010    -1.9840 H     1 <1>   0.0800 
 24 H       -0.4940     0.3350    -1.9730 H     1 <1>   0.0800 
 25 H       -0.9490     1.6660    -0.9440 H     1 <1>   0.0800 
 26 H       -2.5970    -2.6020     0.2500 H     1 <1>   0.1500 
 27 H       -2.7530     2.1780     0.6200 H     1 <1>   0.0800 
 28 H       -4.4540     2.4440     0.8430 H     1 <1>   0.0800 
 29 H       -3.8260     2.2540    -0.7710 H     1 <1>   0.0800 
 30 H       -7.6720    -2.7550     2.5470 H     1 <1>   0.0800 
 31 H       -6.2090    -3.4510     1.9180 H     1 <1>   0.0800 
 32 H       -7.6150     0.2430     0.3940 H     1 <1>   0.0800 
 33 H       -8.4500    -0.5170     1.7180 H     1 <1>   0.0800 
 34 H       -7.2840    -3.7460    -0.2730 H     1 <1>   0.0800 
 35 H       -8.3070    -1.4600    -1.1480 H     1 <1>   0.0800 
 36 H       -9.7180    -0.8520    -0.3430 H     1 <1>   0.0800 
 37 H       -9.8350    -2.8060     1.0920 H     1 <1>   0.0800 
 38 H       -9.7150    -3.3320    -0.5690 H     1 <1>   0.0800 
 39 H       -8.7840    -5.0270     2.0180 H     1 <1>   0.0800 
 40 H       -7.2360    -5.5200     1.3840 H     1 <1>   0.0800 
 41 H       -8.6560    -5.5230    -0.8360 H     1 <1>   0.4500 
 42 H      -10.8250    -5.1100    -0.1180 H     1 <1>   0.0800 
 43 H      -10.5820    -6.1430     1.2860 H     1 <1>   0.0800 
 44 H       -8.3050    -7.6840     1.1040 H     1 <1>   0.0800 
 45 H       -7.4190    -7.4150    -0.3940 H     1 <1>   0.0800 
 46 H      -11.0610    -6.9400    -1.5300 H     1 <1>   0.0800 
 47 H      -11.5300    -7.7540    -0.0570 H     1 <1>   0.0800 
 48 H       -9.6030    -9.0600    -0.2030 H     1 <1>   0.0800 
 49 H       -9.1800    -8.2250    -1.6770 H     1 <1>   0.0800 
@<TRIPOS>BOND
  1   1   2  2   
  2   2   3  1   
  3   2   4  1   
  4   3   5  ar  
  5   3   6  ar  
  6   4  23  1   
  7   4  24  1   
  8   4  25  1   
  9   5   7  ar  
 10   5   8  1   
 11   6   9  ar  
 12   6  26  1   
 13   7  10  ar  
 14   8  27  1   
 15   8  28  1   
 16   8  29  1   
 17   9  10  ar  
 18  10  11  1   
 19  11  12  1   
 20  11  13  1   
 21  12  14  1   
 22  12  30  1   
 23  12  31  1   
 24  13  15  1   
 25  13  32  1   
 26  13  33  1   
 27  14  16  1   
 28  14  17  1   
 29  14  34  1   
 30  15  16  1   
 31  15  35  1   
 32  15  36  1   
 33  16  37  1   
 34  16  38  1   
 35  17  18  1   
 36  17  39  1   
 37  17  40  1   
 38  18  19  1   
 39  18  20  1   
 40  18  41  1   
 41  19  21  1   
 42  19  42  1   
 43  19  43  1   
 44  20  22  1   
 45  20  44  1   
 46  20  45  1   
 47  21  22  1   
 48  21  46  1   
 49  21  47  1   
 50  22  48  1   
 51  22  49  1   
@<TRIPOS>SUBSTRUCTURE
  1 ****  11 GROUP 4 **** **** 0

# MOE 2024.06 (io_trps.svl 2023.06)
