@<TRIPOS>MOLECULE
NONAME
34 35 1 0 0 
SMALL
USER_CHARGES


@<TRIPOS>ATOM
  1 CL      -0.0660    -0.7610    -0.3840 Cl    1 <1>  -0.1230 
  2 C       -1.1380    -2.0480     0.1390 C.2   1 <1>   0.1230 
  3 C       -2.3510    -1.8820     0.7880 C.2   1 <1>   0.1390 
  4 C       -0.9610    -3.3740    -0.0050 C.2   1 <1>  -0.3020 
  5 N       -2.9100    -3.0300     1.0410 N.2   1 <1>  -0.7070 
  6 N       -2.0470    -3.9520     0.5520 N.pl3 1 <1>   0.3140 
  7 C       -2.3290    -5.3920     0.6410 C.3   1 <1>   0.0960 
  8 C       -3.4970    -5.7420    -0.2800 C.3   1 <1>   0.1400 
  9 N       -3.8130    -7.1860    -0.1710 N.am  1 <1>  -0.7300 
 10 C       -3.0630    -8.1930    -0.6910 C.2   1 <1>   0.5690 
 11 O       -2.0360    -7.9660    -1.2850 O.2   1 <1>  -0.5700 
 12 C       -3.5080    -9.6360    -0.5210 C.3   1 <1>   0.1310 
 13 S       -4.8120    -9.7890     0.7990 S.3   1 <1>  -0.3310 
 14 C       -5.1600   -11.5340     0.8580 C.ar  1 <1>   0.7220 
 15 N       -4.4740   -12.2850     0.0120 N.ar  1 <1>  -0.6200 
 16 N       -6.0730   -11.8850     1.7470 N.ar  1 <1>  -0.6200 
 17 C       -4.7470   -13.5680     0.0740 C.ar  1 <1>   0.1670 
 18 C       -6.3220   -13.1740     1.7830 C.ar  1 <1>   0.1600 
 19 C       -5.6780   -14.0670     0.9580 C.ar  1 <1>  -0.1500 
 20 C       -3.9910   -14.4780    -0.8710 C.3   1 <1>  -0.0970 
 21 H       -2.7780    -0.9290     1.0500 H     1 <1>   0.1500 
 22 H       -0.1530    -3.9170    -0.4560 H     1 <1>   0.1500 
 23 H       -2.5790    -5.6230     1.6600 H     1 <1>   0.0800 
 24 H       -1.4500    -5.9370     0.3520 H     1 <1>   0.0800 
 25 H       -3.2320    -5.5170    -1.2990 H     1 <1>   0.0800 
 26 H       -4.3660    -5.1670    -0.0090 H     1 <1>   0.0800 
 27 H       -4.6490    -7.4360     0.3690 H     1 <1>   0.3700 
 28 H       -2.6780   -10.2490    -0.2230 H     1 <1>   0.0800 
 29 H       -3.9300   -10.0090    -1.4350 H     1 <1>   0.0800 
 30 H       -7.0570   -13.5250     2.4880 H     1 <1>   0.1500 
 31 H       -5.9000   -15.1170     1.0070 H     1 <1>   0.1500 
 32 H       -4.1860   -14.1850    -1.8860 H     1 <1>   0.0800 
 33 H       -4.2860   -15.5030    -0.7410 H     1 <1>   0.0800 
 34 H       -2.9360   -14.3940    -0.6840 H     1 <1>   0.0800 
@<TRIPOS>BOND
  1   1   2  1   
  2   2   3  1   
  3   2   4  2   
  4   3   5  2   
  5   3  21  1   
  6   4   6  1   
  7   4  22  1   
  8   5   6  1   
  9   6   7  1   
 10   7   8  1   
 11   7  23  1   
 12   7  24  1   
 13   8   9  1   
 14   8  25  1   
 15   8  26  1   
 16   9  10  am  
 17   9  27  1   
 18  10  11  2   
 19  10  12  1   
 20  12  13  1   
 21  12  28  1   
 22  12  29  1   
 23  13  14  1   
 24  14  15  ar  
 25  14  16  ar  
 26  15  17  ar  
 27  16  18  ar  
 28  17  19  ar  
 29  17  20  1   
 30  18  19  ar  
 31  18  30  1   
 32  19  31  1   
 33  20  32  1   
 34  20  33  1   
 35  20  34  1   
@<TRIPOS>SUBSTRUCTURE
  1 ****   9 GROUP 4 **** **** 0

# MOE 2024.06 (io_trps.svl 2023.06)
