@<TRIPOS>MOLECULE
NONAME
47 49 1 0 0 
SMALL
USER_CHARGES


@<TRIPOS>ATOM
  1 O        0.4680     0.3620     2.4490 O.3   1 <1>  -0.6800 
  2 C        0.7660    -0.0220     1.1470 C.3   1 <1>   0.2000 
  3 C        1.4580    -1.3840     1.2140 C.3   1 <1>  -0.0800 
  4 C        1.8550     0.9180     0.5960 C.3   1 <1>   0.3430 
  5 C        2.8670    -0.9680     1.6410 C.3   1 <1>   0.3430 
  6 C        1.3990    -2.1010    -0.1630 C.3   1 <1>  -0.0170 
  7 N        3.1560     0.2030     0.7900 N.4   1 <1>  -0.9590 
  8 C        2.7040    -2.7620    -0.5850 C.ar  1 <1>   0.1670 
  9 C        4.2450     1.0950     1.2630 C.3   1 <1>   0.5240 
 10 N        3.6170    -1.9590    -1.1170 N.ar  1 <1>  -0.6200 
 11 C        2.8770    -4.1260    -0.4050 C.ar  1 <1>  -0.1500 
 12 C        4.6470     2.0480     0.1430 C.2   1 <1>   0.0460 
 13 C        4.7380    -2.5500    -1.5080 C.ar  1 <1>   0.1600 
 14 C        4.0550    -4.7210    -0.8010 C.ar  1 <1>  -0.1500 
 15 N        3.8050     3.0190    -0.2710 N.2   1 <1>  -0.5650 
 16 C        5.8000     2.0760    -0.5670 C.2   1 <1>  -0.3320 
 17 C        5.0040    -3.9010    -1.3700 C.ar  1 <1>  -0.1500 
 18 C        4.4560     3.6220    -1.2100 C.2   1 <1>   0.0060 
 19 N        5.6770     3.0950    -1.4390 N.pl3 1 <1>   0.0330 
 20 C        7.0470     1.2110    -0.5000 C.3   1 <1>  -0.0600 
 21 C        3.9180     4.8090    -1.9900 C.3   1 <1>   0.0200 
 22 C        4.7080     6.0850    -1.6850 C.3   1 <1>  -0.2400 
 23 H       -0.3670    -0.0460     2.7600 H     1 <1>   0.4000 
 24 H       -0.1390     0.0010     0.5620 H     1 <1>   0.0800 
 25 H        1.0190    -2.0230     1.9610 H     1 <1>   0.0800 
 26 H        1.8370     1.8580     1.1240 H     1 <1>   0.0800 
 27 H        1.7050     1.1040    -0.4540 H     1 <1>   0.0800 
 28 H        3.5900    -1.7550     1.4980 H     1 <1>   0.0800 
 29 H        2.8520    -0.6720     2.6780 H     1 <1>   0.0800 
 30 H        1.1360    -1.4060    -0.9420 H     1 <1>   0.0800 
 31 H        0.6150    -2.8370    -0.1410 H     1 <1>   0.0800 
 32 H        3.4470    -0.1760    -0.1320 H     1 <1>   0.4500 
 33 H        3.9180     1.6630     2.1170 H     1 <1>   0.0800 
 34 H        5.1010     0.5070     1.5440 H     1 <1>   0.0800 
 35 H        2.1000    -4.7260     0.0350 H     1 <1>   0.1500 
 36 H        5.4880    -1.9270    -1.9660 H     1 <1>   0.1500 
 37 H        4.2240    -5.7770    -0.6780 H     1 <1>   0.1500 
 38 H        5.9410    -4.3060    -1.7100 H     1 <1>   0.1500 
 39 H        6.3600     3.4180    -2.1310 H     1 <1>   0.2700 
 40 H        6.9450     0.4420     0.2440 H     1 <1>   0.0800 
 41 H        7.9020     1.8150    -0.2500 H     1 <1>   0.0800 
 42 H        7.2240     0.7420    -1.4520 H     1 <1>   0.0800 
 43 H        3.9590     4.5940    -3.0440 H     1 <1>   0.0800 
 44 H        2.8860     4.9610    -1.7250 H     1 <1>   0.0800 
 45 H        5.7360     5.9780    -1.9800 H     1 <1>   0.0800 
 46 H        4.6700     6.2950    -0.6300 H     1 <1>   0.0800 
 47 H        4.2820     6.9180    -2.2160 H     1 <1>   0.0800 
@<TRIPOS>BOND
  1   1   2  1   
  2   1  23  1   
  3   2   3  1   
  4   2   4  1   
  5   2  24  1   
  6   3   5  1   
  7   3   6  1   
  8   3  25  1   
  9   4   7  1   
 10   4  26  1   
 11   4  27  1   
 12   5   7  1   
 13   5  28  1   
 14   5  29  1   
 15   6   8  1   
 16   6  30  1   
 17   6  31  1   
 18   7   9  1   
 19   7  32  1   
 20   8  10  ar  
 21   8  11  ar  
 22   9  12  1   
 23   9  33  1   
 24   9  34  1   
 25  10  13  ar  
 26  11  14  ar  
 27  11  35  1   
 28  12  15  1   
 29  12  16  2   
 30  13  17  ar  
 31  13  36  1   
 32  14  17  ar  
 33  14  37  1   
 34  15  18  2   
 35  16  19  1   
 36  16  20  1   
 37  17  38  1   
 38  18  19  1   
 39  18  21  1   
 40  19  39  1   
 41  20  40  1   
 42  20  41  1   
 43  20  42  1   
 44  21  22  1   
 45  21  43  1   
 46  21  44  1   
 47  22  45  1   
 48  22  46  1   
 49  22  47  1   
@<TRIPOS>SUBSTRUCTURE
  1 ****   7 GROUP 4 **** **** 0

# MOE 2024.06 (io_trps.svl 2023.06)
