@<TRIPOS>MOLECULE
NONAME
40 41 1 0 0 
SMALL
USER_CHARGES


@<TRIPOS>ATOM
  1 S        0.2070    -0.1730     0.0310 S.3   1 <1>  -0.3320 
  2 C        1.6690     0.8760     0.0010 C.ar  1 <1>   0.1020 
  3 C        0.7810    -1.9270    -0.0670 C.3   1 <1>  -0.0100 
  4 C        1.4680     2.2320     0.0650 C.ar  1 <1>  -0.1500 
  5 C        2.9530     0.3410    -0.0830 C.ar  1 <1>  -0.1500 
  6 C        2.5520     3.1250     0.0470 C.ar  1 <1>   0.0000 
  7 C        4.0320     1.1940    -0.1010 C.ar  1 <1>  -0.1500 
  8 C        3.8500     2.5820    -0.0370 C.ar  1 <1>   0.3610 
  9 C        2.4210     4.5470     0.1100 C.ar  1 <1>  -0.1440 
 10 N        4.9340     3.4420    -0.0560 N.ar  1 <1>  -0.1790 
 11 C        3.5380     5.3270     0.0870 C.ar  1 <1>  -0.1500 
 12 C        1.0400     5.1850     0.2030 C.3   1 <1>  -0.0970 
 13 C        4.8360     4.7690     0.0010 C.ar  1 <1>   0.4610 
 14 N        5.9530     5.5010    -0.0240 N.pl3 1 <1>  -0.8690 
 15 C        6.1150     6.9960     0.0270 C.3   1 <1>   0.2700 
 16 C        7.5980     7.4060    -0.0290 C.2   1 <1>   0.5690 
 17 O        8.4070     6.5040    -0.1040 O.2   1 <1>  -0.5700 
 18 N        7.9800     8.7280     0.0050 N.am  1 <1>  -0.6600 
 19 C        9.4200     9.1170    -0.0500 C.3   1 <1>   0.0600 
 20 C        7.0550     9.8940     0.0970 C.3   1 <1>   0.0600 
 21 H       -0.0930    -2.5540    -0.0490 H     1 <1>   0.0800 
 22 H        1.4050    -2.1230     0.7860 H     1 <1>   0.0800 
 23 H        1.3180    -2.0520    -0.9890 H     1 <1>   0.0800 
 24 H        0.4580     2.5960     0.1290 H     1 <1>   0.1500 
 25 H        3.1020    -0.7220    -0.1320 H     1 <1>   0.1500 
 26 H        5.0240     0.7830    -0.1660 H     1 <1>   0.1500 
 27 H        5.8670     3.0460    -0.1170 H     1 <1>   0.4570 
 28 H        3.4580     6.3970     0.1330 H     1 <1>   0.1500 
 29 H        0.5340     4.8500     1.0920 H     1 <1>   0.0800 
 30 H        0.4480     4.9190    -0.6560 H     1 <1>   0.0800 
 31 H        1.1070     6.2580     0.2430 H     1 <1>   0.0800 
 32 H        6.9090     5.1050    -0.0860 H     1 <1>   0.4000 
 33 H        5.6900     7.3710     0.9410 H     1 <1>   0.0800 
 34 H        5.6050     7.4400    -0.8080 H     1 <1>   0.0800 
 35 H       10.0560     8.2510    -0.1160 H     1 <1>   0.0800 
 36 H        9.6840     9.6650     0.8380 H     1 <1>   0.0800 
 37 H        9.5980     9.7350    -0.9130 H     1 <1>   0.0800 
 38 H        6.0260     9.5890     0.1350 H     1 <1>   0.0800 
 39 H        7.1920    10.5300    -0.7620 H     1 <1>   0.0800 
 40 H        7.2770    10.4610     0.9850 H     1 <1>   0.0800 
@<TRIPOS>BOND
  1   1   2  1   
  2   1   3  1   
  3   2   4  ar  
  4   2   5  ar  
  5   3  21  1   
  6   3  22  1   
  7   3  23  1   
  8   4   6  ar  
  9   4  24  1   
 10   5   7  ar  
 11   5  25  1   
 12   6   8  ar  
 13   6   9  ar  
 14   7   8  ar  
 15   7  26  1   
 16   8  10  ar  
 17   9  11  ar  
 18   9  12  1   
 19  10  13  ar  
 20  10  27  1   
 21  11  13  ar  
 22  11  28  1   
 23  12  29  1   
 24  12  30  1   
 25  12  31  1   
 26  13  14  1   
 27  14  15  1   
 28  14  32  1   
 29  15  16  1   
 30  15  33  1   
 31  15  34  1   
 32  16  17  2   
 33  16  18  am  
 34  18  19  1   
 35  18  20  1   
 36  19  35  1   
 37  19  36  1   
 38  19  37  1   
 39  20  38  1   
 40  20  39  1   
 41  20  40  1   
@<TRIPOS>SUBSTRUCTURE
  1 ****  13 GROUP 4 **** **** 0

# MOE 2024.06 (io_trps.svl 2023.06)
