@<TRIPOS>MOLECULE
NONAME
55 59 1 0 0 
SMALL
USER_CHARGES


@<TRIPOS>ATOM
  1 S        0.1000     0.9430    -0.4100 S.o2  1 <1>   1.5010 
  2 O       -0.0740     0.6840    -1.8240 O.2   1 <1>  -0.6500 
  3 O        0.4560     2.2780     0.0230 O.2   1 <1>  -0.6500 
  4 N       -1.3600     0.5500     0.3620 N.am  1 <1>  -0.8490 
  5 C        1.2560    -0.2500     0.2880 C.2   1 <1>  -0.0630 
  6 C       -2.3540     1.6410     0.4220 C.3   1 <1>   0.1960 
  7 C       -1.9250    -0.7610    -0.0100 C.3   1 <1>   0.1960 
  8 C        1.6530    -0.3220     1.6210 C.2   1 <1>   0.1080 
  9 C        1.9240    -1.2750    -0.2980 C.2   1 <1>  -0.3020 
 10 C       -3.1440     1.8620    -0.8960 C.3   1 <1>   0.1440 
 11 C       -3.2870    -0.6710    -0.7220 C.3   1 <1>  -0.1600 
 12 N        2.4820    -1.2930     1.8430 N.2   1 <1>  -0.7070 
 13 C        1.1970     0.6060     2.7270 C.3   1 <1>  -0.0590 
 14 N        2.6540    -1.8820     0.6530 N.pl3 1 <1>   0.3140 
 15 C       -4.4680     2.5130    -0.5180 C.ar  1 <1>   0.1660 
 16 C       -3.3570     0.5360    -1.6670 C.3   1 <1>  -0.1600 
 17 C       -2.5100     2.9490    -1.8070 C.3   1 <1>  -0.1600 
 18 C        3.5460    -3.0350     0.4910 C.3   1 <1>   0.0160 
 19 N       -5.4780     1.9080     0.0610 N.ar  1 <1>  -0.6200 
 20 C       -4.4910     3.8350    -0.8410 C.ar  1 <1>  -0.1440 
 21 C       -3.2020     4.2810    -1.4800 C.3   1 <1>  -0.0170 
 22 C       -6.5550     2.6650     0.3080 C.ar  1 <1>   0.6200 
 23 C       -5.6270     4.5450    -0.5510 C.ar  1 <1>   0.1600 
 24 N       -6.6600     3.9700     0.0200 N.ar  1 <1>  -0.6200 
 25 C       -7.6990     2.0180     0.9380 C.ar  1 <1>   0.0000 
 26 C       -7.5480     0.9030     1.7690 C.ar  1 <1>  -0.1500 
 27 C       -9.0040     2.4810     0.7410 C.ar  1 <1>  -0.1500 
 28 C       -8.6310     0.2870     2.3670 C.ar  1 <1>  -0.1500 
 29 C      -10.0930     1.8700     1.3360 C.ar  1 <1>  -0.1500 
 30 C       -9.9090     0.7690     2.1520 C.ar  1 <1>  -0.1500 
 31 H       -1.8880     2.5600     0.7330 H     1 <1>   0.0800 
 32 H       -3.0580     1.3820     1.1950 H     1 <1>   0.0800 
 33 H       -2.0390    -1.3520     0.8830 H     1 <1>   0.0800 
 34 H       -1.2370    -1.2870    -0.6510 H     1 <1>   0.0800 
 35 H        1.9110    -1.5880    -1.3260 H     1 <1>   0.1500 
 36 H       -4.0690    -0.5960     0.0150 H     1 <1>   0.0800 
 37 H       -3.4580    -1.5780    -1.2730 H     1 <1>   0.0800 
 38 H        0.1270     0.5730     2.8200 H     1 <1>   0.0800 
 39 H        1.5040     1.6130     2.5110 H     1 <1>   0.0800 
 40 H        1.6350     0.3040     3.6610 H     1 <1>   0.0800 
 41 H       -2.5910     0.4190    -2.4130 H     1 <1>   0.0800 
 42 H       -4.3050     0.5530    -2.1770 H     1 <1>   0.0800 
 43 H       -2.7170     2.7150    -2.8370 H     1 <1>   0.0800 
 44 H       -1.4450     3.0270    -1.6940 H     1 <1>   0.0800 
 45 H        3.5810    -3.3240    -0.5420 H     1 <1>   0.0800 
 46 H        3.1740    -3.8470     1.0870 H     1 <1>   0.0800 
 47 H        4.5280    -2.7630     0.8280 H     1 <1>   0.0800 
 48 H       -3.3750     4.8660    -2.3670 H     1 <1>   0.0800 
 49 H       -2.6210     4.8480    -0.7730 H     1 <1>   0.0800 
 50 H       -5.6900     5.5940    -0.7880 H     1 <1>   0.1500 
 51 H       -6.5610     0.5130     1.9490 H     1 <1>   0.1500 
 52 H       -9.1680     3.3370     0.1090 H     1 <1>   0.1500 
 53 H       -8.4810    -0.5700     3.0010 H     1 <1>   0.1500 
 54 H      -11.0840     2.2520     1.1640 H     1 <1>   0.1500 
 55 H      -10.7540     0.2920     2.6160 H     1 <1>   0.1500 
@<TRIPOS>BOND
  1   1   2  2   
  2   1   3  2   
  3   1   4  am  
  4   1   5  1   
  5   4   6  1   
  6   4   7  1   
  7   5   8  1   
  8   5   9  2   
  9   6  10  1   
 10   6  31  1   
 11   6  32  1   
 12   7  11  1   
 13   7  33  1   
 14   7  34  1   
 15   8  12  2   
 16   8  13  1   
 17   9  14  1   
 18   9  35  1   
 19  10  15  1   
 20  10  16  1   
 21  10  17  1   
 22  11  16  1   
 23  11  36  1   
 24  11  37  1   
 25  12  14  1   
 26  13  38  1   
 27  13  39  1   
 28  13  40  1   
 29  14  18  1   
 30  15  19  ar  
 31  15  20  ar  
 32  16  41  1   
 33  16  42  1   
 34  17  21  1   
 35  17  43  1   
 36  17  44  1   
 37  18  45  1   
 38  18  46  1   
 39  18  47  1   
 40  19  22  ar  
 41  20  21  1   
 42  20  23  ar  
 43  21  48  1   
 44  21  49  1   
 45  22  24  ar  
 46  22  25  1   
 47  23  24  ar  
 48  23  50  1   
 49  25  26  ar  
 50  25  27  ar  
 51  26  28  ar  
 52  26  51  1   
 53  27  29  ar  
 54  27  52  1   
 55  28  30  ar  
 56  28  53  1   
 57  29  30  ar  
 58  29  54  1   
 59  30  55  1   
@<TRIPOS>SUBSTRUCTURE
  1 ****   6 GROUP 4 **** **** 0

# MOE 2024.06 (io_trps.svl 2023.06)
