@<TRIPOS>MOLECULE
NONAME
45 46 1 0 0 
SMALL
USER_CHARGES


@<TRIPOS>ATOM
  1 S        0.1470     0.7630     0.4340 S.o2  1 <1>   1.3330 
  2 O        0.8400     1.9370    -0.0530 O.2   1 <1>  -0.6500 
  3 O        0.0780     0.5290     1.8610 O.2   1 <1>  -0.6500 
  4 N       -1.4370     0.8070    -0.1790 N.am  1 <1>  -0.8490 
  5 C        0.8990    -0.6800    -0.3870 C.3   1 <1>   0.0250 
  6 C       -1.8570     2.1650    -0.5640 C.3   1 <1>   0.1960 
  7 C       -2.4370     0.0580     0.6080 C.3   1 <1>   0.1960 
  8 C        0.1850    -2.0190    -0.1130 C.3   1 <1>  -0.2400 
  9 C        2.3900    -0.8450    -0.0350 C.3   1 <1>  -0.2400 
 10 C       -3.3640     2.2160    -0.8100 C.3   1 <1>  -0.1600 
 11 C       -3.3380     0.9920     1.4190 C.3   1 <1>  -0.1600 
 12 C       -4.1370     1.9460     0.5000 C.3   1 <1>   0.2800 
 13 O       -4.1630     3.1860     1.1760 O.3   1 <1>  -0.5600 
 14 C       -5.5790     1.4010     0.2530 C.3   1 <1>   0.2000 
 15 C       -5.3900     3.7800     1.4920 C.3   1 <1>   0.1200 
 16 O       -5.5870     0.2170    -0.4970 O.3   1 <1>  -0.6800 
 17 C       -6.5550     2.4630    -0.3350 C.3   1 <1>   0.2800 
 18 C       -6.2480     3.8630     0.2270 C.3   1 <1>  -0.1600 
 19 O       -7.8240     2.1130     0.0890 O.3   1 <1>  -0.6800 
 20 C       -6.6450     2.5060    -1.8680 C.3   1 <1>  -0.2400 
 21 H        0.8450    -0.5030    -1.4450 H     1 <1>   0.0800 
 22 H       -1.6050     2.8630     0.2190 H     1 <1>   0.0800 
 23 H       -1.3270     2.4600    -1.4550 H     1 <1>   0.0800 
 24 H       -3.0520    -0.5070    -0.0740 H     1 <1>   0.0800 
 25 H       -1.9620    -0.6500     1.2650 H     1 <1>   0.0800 
 26 H        0.1620    -2.2200     0.9440 H     1 <1>   0.0800 
 27 H        0.6930    -2.8270    -0.6090 H     1 <1>   0.0800 
 28 H       -0.8230    -1.9840    -0.4820 H     1 <1>   0.0800 
 29 H        2.5050    -1.0370     1.0180 H     1 <1>   0.0800 
 30 H        2.9250     0.0570    -0.2760 H     1 <1>   0.0800 
 31 H        2.8260    -1.6570    -0.5900 H     1 <1>   0.0800 
 32 H       -3.6010     1.4790    -1.5560 H     1 <1>   0.0800 
 33 H       -3.6300     3.1790    -1.2020 H     1 <1>   0.0800 
 34 H       -2.7120     1.5520     2.0930 H     1 <1>   0.0800 
 35 H       -4.0040     0.3990     2.0160 H     1 <1>   0.0800 
 36 H       -5.9640     1.1270     1.2190 H     1 <1>   0.0800 
 37 H       -5.8710     3.2010     2.2630 H     1 <1>   0.0800 
 38 H       -5.1840     4.7640     1.8760 H     1 <1>   0.0800 
 39 H       -6.5190    -0.0610    -0.6090 H     1 <1>   0.4000 
 40 H       -5.6920     4.4380    -0.4920 H     1 <1>   0.0800 
 41 H       -7.1550     4.4030     0.4350 H     1 <1>   0.0800 
 42 H       -8.4810     2.7060    -0.3200 H     1 <1>   0.4000 
 43 H       -5.6850     2.7220    -2.2950 H     1 <1>   0.0800 
 44 H       -7.3280     3.2720    -2.1880 H     1 <1>   0.0800 
 45 H       -6.9730     1.5600    -2.2600 H     1 <1>   0.0800 
@<TRIPOS>BOND
  1   1   2  2   
  2   1   3  2   
  3   1   4  am  
  4   1   5  1   
  5   4   6  1   
  6   4   7  1   
  7   5   8  1   
  8   5   9  1   
  9   5  21  1   
 10   6  10  1   
 11   6  22  1   
 12   6  23  1   
 13   7  11  1   
 14   7  24  1   
 15   7  25  1   
 16   8  26  1   
 17   8  27  1   
 18   8  28  1   
 19   9  29  1   
 20   9  30  1   
 21   9  31  1   
 22  10  12  1   
 23  10  32  1   
 24  10  33  1   
 25  11  12  1   
 26  11  34  1   
 27  11  35  1   
 28  12  13  1   
 29  12  14  1   
 30  13  15  1   
 31  14  16  1   
 32  14  17  1   
 33  14  36  1   
 34  15  18  1   
 35  15  37  1   
 36  15  38  1   
 37  16  39  1   
 38  17  18  1   
 39  17  19  1   
 40  17  20  1   
 41  18  40  1   
 42  18  41  1   
 43  19  42  1   
 44  20  43  1   
 45  20  44  1   
 46  20  45  1   
@<TRIPOS>SUBSTRUCTURE
  1 ****  12 GROUP 4 **** **** 0

# MOE 2024.06 (io_trps.svl 2023.06)
