@<TRIPOS>MOLECULE
NONAME
47 49 1 0 0 
SMALL
USER_CHARGES


@<TRIPOS>ATOM
  1 O       -1.4210    -0.5480    -0.8870 O.3   1 <1>  -0.3630 
  2 C       -1.9580     0.4170    -0.0900 C.ar  1 <1>   0.0830 
  3 C       -0.4670    -0.2230    -1.8790 C.3   1 <1>   0.0400 
  4 C       -2.6870     0.0030     1.0210 C.ar  1 <1>  -0.1440 
  5 C       -1.8130     1.7780    -0.3480 C.ar  1 <1>  -0.1500 
  6 C       -3.2570     0.9460     1.8620 C.ar  1 <1>  -0.1500 
  7 C       -2.8580    -1.4740     1.3110 C.3   1 <1>   0.4870 
  8 C       -2.3890     2.7160     0.4910 C.ar  1 <1>  -0.1440 
  9 C       -3.1080     2.2950     1.5960 C.ar  1 <1>  -0.1500 
 10 N       -3.5600    -2.0920     0.1600 N.4   1 <1>  -0.9590 
 11 C       -2.2300     4.2000     0.2100 C.3   1 <1>  -0.0970 
 12 C       -4.9290    -1.5410    -0.0740 C.3   1 <1>   0.3430 
 13 C       -3.6420    -3.5790     0.2140 C.3   1 <1>   0.3430 
 14 C       -5.7500    -2.7240    -0.5860 C.3   1 <1>   0.2000 
 15 C       -5.1220    -3.9490     0.0680 C.3   1 <1>  -0.0800 
 16 O       -7.0890    -2.6240    -0.2410 O.3   1 <1>  -0.6800 
 17 C       -5.3600    -5.2410    -0.7360 C.3   1 <1>  -0.0170 
 18 C       -4.7740    -6.4660    -0.0470 C.ar  1 <1>   0.1670 
 19 N       -3.4560    -6.4890     0.0970 N.ar  1 <1>  -0.6200 
 20 C       -5.6130    -7.4910     0.3890 C.ar  1 <1>   0.1600 
 21 C       -3.0410    -7.6010     0.6860 C.ar  1 <1>   0.1600 
 22 N       -5.1990    -8.5910     0.9910 N.ar  1 <1>  -0.6200 
 23 C       -3.8840    -8.6170     1.1200 C.ar  1 <1>   0.1600 
 24 H       -0.0990    -1.1380    -2.3090 H     1 <1>   0.0800 
 25 H        0.3460     0.3150    -1.4230 H     1 <1>   0.0800 
 26 H       -0.9380     0.3720    -2.6410 H     1 <1>   0.0800 
 27 H       -1.2580     2.1260    -1.1990 H     1 <1>   0.1500 
 28 H       -3.8180     0.6500     2.7320 H     1 <1>   0.1500 
 29 H       -3.4220    -1.6150     2.2180 H     1 <1>   0.0800 
 30 H       -1.8850    -1.9220     1.4330 H     1 <1>   0.0800 
 31 H       -3.5530     3.0220     2.2560 H     1 <1>   0.1500 
 32 H       -2.9680    -1.8150    -0.6450 H     1 <1>   0.4500 
 33 H       -3.1060     4.7390     0.5220 H     1 <1>   0.0800 
 34 H       -2.0840     4.3750    -0.8410 H     1 <1>   0.0800 
 35 H       -1.3800     4.5840     0.7450 H     1 <1>   0.0800 
 36 H       -5.3460    -1.1900     0.8540 H     1 <1>   0.0800 
 37 H       -4.9070    -0.7360    -0.7910 H     1 <1>   0.0800 
 38 H       -3.0800    -4.0040    -0.6040 H     1 <1>   0.0800 
 39 H       -3.2450    -3.9710     1.1370 H     1 <1>   0.0800 
 40 H       -5.6840    -2.7700    -1.6610 H     1 <1>   0.0800 
 41 H       -5.5180    -4.0730     1.0610 H     1 <1>   0.0800 
 42 H       -7.2450    -2.7260     0.7190 H     1 <1>   0.4000 
 43 H       -4.9190    -5.1560    -1.7140 H     1 <1>   0.0800 
 44 H       -6.4190    -5.3780    -0.8740 H     1 <1>   0.0800 
 45 H       -6.6740    -7.4010     0.2340 H     1 <1>   0.1500 
 46 H       -1.9820    -7.7180     0.8350 H     1 <1>   0.1500 
 47 H       -3.4530    -9.4830     1.5910 H     1 <1>   0.1500 
@<TRIPOS>BOND
  1   1   2  1   
  2   1   3  1   
  3   2   4  ar  
  4   2   5  ar  
  5   3  24  1   
  6   3  25  1   
  7   3  26  1   
  8   4   6  ar  
  9   4   7  1   
 10   5   8  ar  
 11   5  27  1   
 12   6   9  ar  
 13   6  28  1   
 14   7  10  1   
 15   7  29  1   
 16   7  30  1   
 17   8   9  ar  
 18   8  11  1   
 19   9  31  1   
 20  10  12  1   
 21  10  13  1   
 22  10  32  1   
 23  11  33  1   
 24  11  34  1   
 25  11  35  1   
 26  12  14  1   
 27  12  36  1   
 28  12  37  1   
 29  13  15  1   
 30  13  38  1   
 31  13  39  1   
 32  14  15  1   
 33  14  16  1   
 34  14  40  1   
 35  15  17  1   
 36  15  41  1   
 37  16  42  1   
 38  17  18  1   
 39  17  43  1   
 40  17  44  1   
 41  18  19  ar  
 42  18  20  ar  
 43  19  21  ar  
 44  20  22  ar  
 45  20  45  1   
 46  21  23  ar  
 47  21  46  1   
 48  22  23  ar  
 49  23  47  1   
@<TRIPOS>SUBSTRUCTURE
  1 ****  10 GROUP 4 **** **** 0

# MOE 2024.06 (io_trps.svl 2023.06)
