@<TRIPOS>MOLECULE
NONAME
53 55 1 0 0 
SMALL
USER_CHARGES


@<TRIPOS>ATOM
  1 O        4.4770    -1.8170    -1.1730 O.2   1 <1>  -0.5700 
  2 C        3.3190    -1.7090    -0.8400 C.2   1 <1>   0.5690 
  3 N        2.5940    -0.6590    -1.3470 N.am  1 <1>  -0.6600 
  4 C        2.7610    -2.7210     0.1710 C.3   1 <1>   0.1250 
  5 C        2.9020    -0.1280    -2.7150 C.3   1 <1>   0.1400 
  6 C        1.6890     0.1940    -0.5320 C.3   1 <1>   0.1400 
  7 C        1.2570    -2.9040     0.1570 C.ar  1 <1>  -0.1440 
  8 C        3.0640    -2.3460     1.6390 C.3   1 <1>  -0.1600 
  9 C        4.1610     0.7620    -2.7270 C.3   1 <1>   0.3430 
 10 C        2.4870     1.3310     0.1260 C.3   1 <1>  -0.1600 
 11 C        0.7450    -2.8990     1.4310 C.ar  1 <1>  -0.1440 
 12 C        0.4210    -3.0600    -0.9360 C.ar  1 <1>  -0.1500 
 13 C        1.8310    -2.7470     2.4670 C.3   1 <1>  -0.0160 
 14 N        4.4790     1.2870    -1.3620 N.4   1 <1>  -0.9590 
 15 C        3.3850     2.1440    -0.8140 C.3   1 <1>   0.3430 
 16 C       -0.6130    -3.0320     1.6500 C.ar  1 <1>  -0.1500 
 17 C       -0.9420    -3.1940    -0.7270 C.ar  1 <1>  -0.1500 
 18 C        5.8300     1.9290    -1.3350 C.3   1 <1>   0.3430 
 19 C       -1.4580    -3.1770     0.5610 C.ar  1 <1>  -0.1500 
 20 C        6.3860     2.0650     0.0880 C.3   1 <1>   0.1200 
 21 O        7.5740     2.7790     0.0020 O.3   1 <1>  -0.5600 
 22 C        8.2450     2.9340     1.2170 C.3   1 <1>   0.1200 
 23 C        9.5660     3.6580     0.9560 C.3   1 <1>   0.1200 
 24 O       10.2160     3.8720     2.1630 O.3   1 <1>  -0.6800 
 25 H        3.2010    -3.6790    -0.0390 H     1 <1>   0.0800 
 26 H        2.0610     0.4310    -3.0870 H     1 <1>   0.0800 
 27 H        3.0550    -0.9530    -3.3900 H     1 <1>   0.0800 
 28 H        1.2040    -0.3860     0.2340 H     1 <1>   0.0800 
 29 H        0.9120     0.5960    -1.1610 H     1 <1>   0.0800 
 30 H        3.2030    -1.2850     1.7230 H     1 <1>   0.0800 
 31 H        3.9530    -2.8400     1.9920 H     1 <1>   0.0800 
 32 H        4.0360     1.5690    -3.4290 H     1 <1>   0.0800 
 33 H        4.9860     0.1550    -3.0670 H     1 <1>   0.0800 
 34 H        3.0800     0.9360     0.9300 H     1 <1>   0.0800 
 35 H        1.7790     2.0050     0.5750 H     1 <1>   0.0800 
 36 H        0.8200    -3.0760    -1.9350 H     1 <1>   0.1500 
 37 H        1.5790    -1.9980     3.1970 H     1 <1>   0.0800 
 38 H        1.9910    -3.6930     2.9550 H     1 <1>   0.0800 
 39 H        4.5080     0.4160    -0.7990 H     1 <1>   0.4500 
 40 H        3.8110     2.9640    -0.2590 H     1 <1>   0.0800 
 41 H        2.7990     2.5590    -1.6180 H     1 <1>   0.0800 
 42 H       -1.0100    -3.0270     2.6500 H     1 <1>   0.1500 
 43 H       -1.6040    -3.3140    -1.5670 H     1 <1>   0.1500 
 44 H        5.7770     2.9060    -1.7860 H     1 <1>   0.0800 
 45 H        6.5230     1.3290    -1.9030 H     1 <1>   0.0800 
 46 H       -2.5170    -3.2830     0.7150 H     1 <1>   0.1500 
 47 H        6.5960     1.0950     0.5040 H     1 <1>   0.0800 
 48 H        5.7120     2.6140     0.7220 H     1 <1>   0.0800 
 49 H        8.4410     1.9610     1.6350 H     1 <1>   0.0800 
 50 H        7.6250     3.5130     1.8800 H     1 <1>   0.0800 
 51 H        9.4030     4.6110     0.4830 H     1 <1>   0.0800 
 52 H       10.2080     3.0500     0.3420 H     1 <1>   0.0800 
 53 H        9.8060     4.6070     2.6600 H     1 <1>   0.4000 
@<TRIPOS>BOND
  1   1   2  2   
  2   2   3  am  
  3   2   4  1   
  4   3   5  1   
  5   3   6  1   
  6   4   7  1   
  7   4   8  1   
  8   4  25  1   
  9   5   9  1   
 10   5  26  1   
 11   5  27  1   
 12   6  10  1   
 13   6  28  1   
 14   6  29  1   
 15   7  11  ar  
 16   7  12  ar  
 17   8  13  1   
 18   8  30  1   
 19   8  31  1   
 20   9  14  1   
 21   9  32  1   
 22   9  33  1   
 23  10  15  1   
 24  10  34  1   
 25  10  35  1   
 26  11  13  1   
 27  11  16  ar  
 28  12  17  ar  
 29  12  36  1   
 30  13  37  1   
 31  13  38  1   
 32  14  15  1   
 33  14  18  1   
 34  14  39  1   
 35  15  40  1   
 36  15  41  1   
 37  16  19  ar  
 38  16  42  1   
 39  17  19  ar  
 40  17  43  1   
 41  18  20  1   
 42  18  44  1   
 43  18  45  1   
 44  19  46  1   
 45  20  21  1   
 46  20  47  1   
 47  20  48  1   
 48  21  22  1   
 49  22  23  1   
 50  22  49  1   
 51  22  50  1   
 52  23  24  1   
 53  23  51  1   
 54  23  52  1   
 55  24  53  1   
@<TRIPOS>SUBSTRUCTURE
  1 ****   2 GROUP 4 **** **** 0

# MOE 2024.06 (io_trps.svl 2023.06)
