@<TRIPOS>MOLECULE
NONAME
44 45 1 0 0 
SMALL
USER_CHARGES


@<TRIPOS>ATOM
  1 S        0.1040     0.9160    -0.6950 S.o2  1 <1>   1.3330 
  2 O        0.6770     0.5930    -1.9810 O.2   1 <1>  -0.6500 
  3 O       -1.0080     1.8340    -0.6020 O.2   1 <1>  -0.6500 
  4 N        1.3520     1.4670     0.3150 N.am  1 <1>  -0.8490 
  5 C       -0.4030    -0.5930     0.1020 C.3   1 <1>  -0.1350 
  6 C        1.5710     2.9210     0.1590 C.3   1 <1>   0.1960 
  7 C        2.6170     0.7490     0.0820 C.3   1 <1>   0.1160 
  8 C        2.2900     3.5360     1.3700 C.3   1 <1>   0.2090 
  9 N        2.5970     4.9690     1.1160 N.pl3 1 <1>  -0.8690 
 10 C        3.7340     5.4130     0.4800 C.ar  1 <1>   0.4100 
 11 N        4.4450     4.4870    -0.1630 N.ar  1 <1>  -0.6200 
 12 C        4.0850     6.7750     0.5260 C.ar  1 <1>   0.0860 
 13 C        5.5470     4.8980    -0.7590 C.ar  1 <1>   0.1600 
 14 C        3.2450     7.7290     1.2060 C.2   1 <1>   0.5440 
 15 C        5.2580     7.1660    -0.1040 C.ar  1 <1>  -0.1500 
 16 C        5.9970     6.2060    -0.7580 C.ar  1 <1>  -0.1500 
 17 O        2.9670     7.5700     2.3820 O.2   1 <1>  -0.5700 
 18 N        2.7350     8.8290     0.5510 N.am  1 <1>  -0.6600 
 19 C        1.8630     9.8230     1.2180 C.3   1 <1>   0.1400 
 20 C        2.6370     8.9470    -0.9220 C.3   1 <1>   0.1400 
 21 C        0.9950    10.3930     0.1020 C.3   1 <1>  -0.1600 
 22 C        1.8290    10.2170    -1.1630 C.3   1 <1>  -0.1600 
 23 H       -1.2290    -1.0240    -0.4290 H     1 <1>   0.0800 
 24 H       -0.7100    -0.3900     1.1090 H     1 <1>   0.0800 
 25 H        0.4010    -1.3000     0.1170 H     1 <1>   0.0800 
 26 H        0.6280     3.4310     0.0710 H     1 <1>   0.0800 
 27 H        2.1340     3.1130    -0.7390 H     1 <1>   0.0800 
 28 H        2.4660    -0.3130     0.1690 H     1 <1>   0.0800 
 29 H        3.3580     1.0370     0.8050 H     1 <1>   0.0800 
 30 H        2.9950     0.9620    -0.9050 H     1 <1>   0.0800 
 31 H        3.2080     3.0150     1.5700 H     1 <1>   0.0800 
 32 H        1.6560     3.4580     2.2350 H     1 <1>   0.0800 
 33 H        2.2370     5.6160     1.8340 H     1 <1>   0.4000 
 34 H        6.1280     4.1540    -1.2770 H     1 <1>   0.1500 
 35 H        5.5750     8.1940    -0.0760 H     1 <1>   0.1500 
 36 H        6.9120     6.4630    -1.2620 H     1 <1>   0.1500 
 37 H        2.4790    10.5920     1.6510 H     1 <1>   0.0800 
 38 H        1.2640     9.3650     1.9870 H     1 <1>   0.0800 
 39 H        2.1140     8.0890    -1.3110 H     1 <1>   0.0800 
 40 H        3.6110     9.0160    -1.3740 H     1 <1>   0.0800 
 41 H        0.7340    11.4200     0.2850 H     1 <1>   0.0800 
 42 H        0.0940     9.8090     0.0310 H     1 <1>   0.0800 
 43 H        1.2210    10.1420    -2.0480 H     1 <1>   0.0800 
 44 H        2.5050    11.0470    -1.2720 H     1 <1>   0.0800 
@<TRIPOS>BOND
  1   1   2  2   
  2   1   3  2   
  3   1   4  am  
  4   1   5  1   
  5   4   6  1   
  6   4   7  1   
  7   5  23  1   
  8   5  24  1   
  9   5  25  1   
 10   6   8  1   
 11   6  26  1   
 12   6  27  1   
 13   7  28  1   
 14   7  29  1   
 15   7  30  1   
 16   8   9  1   
 17   8  31  1   
 18   8  32  1   
 19   9  10  1   
 20   9  33  1   
 21  10  11  ar  
 22  10  12  ar  
 23  11  13  ar  
 24  12  14  1   
 25  12  15  ar  
 26  13  16  ar  
 27  13  34  1   
 28  14  17  2   
 29  14  18  am  
 30  15  16  ar  
 31  15  35  1   
 32  16  36  1   
 33  18  19  1   
 34  18  20  1   
 35  19  21  1   
 36  19  37  1   
 37  19  38  1   
 38  20  22  1   
 39  20  39  1   
 40  20  40  1   
 41  21  22  1   
 42  21  41  1   
 43  21  42  1   
 44  22  43  1   
 45  22  44  1   
@<TRIPOS>SUBSTRUCTURE
  1 ****   9 GROUP 4 **** **** 0

# MOE 2024.06 (io_trps.svl 2023.06)
