@<TRIPOS>MOLECULE
NONAME
50 53 1 0 0 
SMALL
USER_CHARGES


@<TRIPOS>ATOM
  1 CL       1.3820     0.2630     0.1060 Cl    1 <1>  -0.1770 
  2 C        1.5740    -1.4520    -0.1560 C.ar  1 <1>   0.1770 
  3 C        2.8370    -1.9600    -0.4080 C.ar  1 <1>  -0.1500 
  4 C        0.4600    -2.2710    -0.1110 C.ar  1 <1>  -0.1500 
  5 C        2.9900    -3.3220    -0.6130 C.ar  1 <1>  -0.1500 
  6 C        0.6100    -3.6330    -0.3180 C.ar  1 <1>  -0.1500 
  7 C        1.8770    -4.1460    -0.5570 C.ar  1 <1>   0.1020 
  8 S        2.1160    -5.9080    -0.8320 S.3   1 <1>  -0.1580 
  9 C        1.0310    -6.7610     0.3200 C.2   1 <1>   0.1960 
 10 O        0.7790    -8.0280     0.0740 O.3   1 <1>  -0.2800 
 11 C        0.4170    -6.3310     1.4410 C.2   1 <1>  -0.1500 
 12 C       -0.0240    -8.4490     1.0380 C.2   1 <1>  -0.0400 
 13 C       -0.2860    -7.4490     1.9130 C.2   1 <1>  -0.1500 
 14 C       -0.5020    -9.8890     0.9880 C.3   1 <1>   0.5230 
 15 N       -0.7570   -10.2420    -0.4420 N.4   1 <1>  -0.9590 
 16 C       -2.1360   -10.0210    -0.9710 C.3   1 <1>   0.4230 
 17 C       -0.2640   -11.6170    -0.7530 C.3   1 <1>   0.2630 
 18 C       -3.2280   -10.8130    -0.2560 C.3   1 <1>  -0.1600 
 19 C       -2.6160    -8.5760    -0.8930 C.3   1 <1>  -0.1600 
 20 C       -4.5320   -10.1190    -0.6790 C.3   1 <1>  -0.0800 
 21 C       -4.1350    -8.6740    -1.0770 C.3   1 <1>  -0.0800 
 22 C       -5.6580   -10.2410     0.3700 C.3   1 <1>   0.1400 
 23 C       -4.9060    -7.5680    -0.3270 C.3   1 <1>  -0.0990 
 24 N       -6.6720    -9.1980     0.1270 N.am  1 <1>  -0.7300 
 25 C       -6.3700    -7.9260    -0.2040 C.2   1 <1>   0.5690 
 26 O       -7.2230    -7.1000    -0.3880 O.2   1 <1>  -0.5700 
 27 H        3.6840    -1.2970    -0.4410 H     1 <1>   0.1500 
 28 H       -0.5090    -1.8430     0.0790 H     1 <1>   0.1500 
 29 H        3.9610    -3.7400    -0.8130 H     1 <1>   0.1500 
 30 H       -0.2490    -4.2790    -0.3040 H     1 <1>   0.1500 
 31 H        0.4480    -5.3600     1.9030 H     1 <1>   0.1500 
 32 H       -0.8970    -7.4540     2.8000 H     1 <1>   0.1500 
 33 H       -1.3820   -10.0180     1.5940 H     1 <1>   0.0800 
 34 H        0.2830   -10.5140     1.3810 H     1 <1>   0.0800 
 35 H       -0.1490    -9.5700    -0.9430 H     1 <1>   0.4500 
 36 H       -2.1560   -10.3050    -2.0120 H     1 <1>   0.0800 
 37 H       -0.8390   -12.3540    -0.2170 H     1 <1>   0.0800 
 38 H        0.7730   -11.7160    -0.4730 H     1 <1>   0.0800 
 39 H       -0.3500   -11.8140    -1.8100 H     1 <1>   0.0800 
 40 H       -3.2320   -11.8480    -0.5510 H     1 <1>   0.0800 
 41 H       -3.1170   -10.7410     0.8100 H     1 <1>   0.0800 
 42 H       -2.4160    -8.1530     0.0720 H     1 <1>   0.0800 
 43 H       -2.1690    -7.9630    -1.6560 H     1 <1>   0.0800 
 44 H       -4.8880   -10.6060    -1.5730 H     1 <1>   0.0800 
 45 H       -4.3610    -8.5630    -2.1260 H     1 <1>   0.0800 
 46 H       -5.2680   -10.1060     1.3650 H     1 <1>   0.0800 
 47 H       -6.1160   -11.2150     0.3120 H     1 <1>   0.0800 
 48 H       -4.8110    -6.6310    -0.8450 H     1 <1>   0.0800 
 49 H       -4.5260    -7.4410     0.6700 H     1 <1>   0.0800 
 50 H       -7.6620    -9.4290     0.2470 H     1 <1>   0.3700 
@<TRIPOS>BOND
  1   1   2  1   
  2   2   3  ar  
  3   2   4  ar  
  4   3   5  ar  
  5   3  27  1   
  6   4   6  ar  
  7   4  28  1   
  8   5   7  ar  
  9   5  29  1   
 10   6   7  ar  
 11   6  30  1   
 12   7   8  1   
 13   8   9  1   
 14   9  10  1   
 15   9  11  2   
 16  10  12  1   
 17  11  13  1   
 18  11  31  1   
 19  12  13  2   
 20  12  14  1   
 21  13  32  1   
 22  14  15  1   
 23  14  33  1   
 24  14  34  1   
 25  15  16  1   
 26  15  17  1   
 27  15  35  1   
 28  16  18  1   
 29  16  19  1   
 30  16  36  1   
 31  17  37  1   
 32  17  38  1   
 33  17  39  1   
 34  18  20  1   
 35  18  40  1   
 36  18  41  1   
 37  19  21  1   
 38  19  42  1   
 39  19  43  1   
 40  20  21  1   
 41  20  22  1   
 42  20  44  1   
 43  21  23  1   
 44  21  45  1   
 45  22  24  1   
 46  22  46  1   
 47  22  47  1   
 48  23  25  1   
 49  23  48  1   
 50  23  49  1   
 51  24  25  am  
 52  24  50  1   
 53  25  26  2   
@<TRIPOS>SUBSTRUCTURE
  1 ****  19 GROUP 4 **** **** 0

# MOE 2024.06 (io_trps.svl 2023.06)
