@<TRIPOS>MOLECULE
NONAME
46 48 1 0 0 
SMALL
USER_CHARGES


@<TRIPOS>ATOM
  1 O        1.3320    -0.7360    -2.5440 O.2   1 <1>  -0.5700 
  2 C        1.7170    -0.9580    -1.4110 C.2   1 <1>   0.5440 
  3 N        2.2320     0.0800    -0.6550 N.am  1 <1>  -0.6600 
  4 C        1.6880    -2.3190    -0.9320 C.ar  1 <1>   0.0860 
  5 C        2.8380    -0.1260     0.6950 C.3   1 <1>   0.1400 
  6 C        2.2630     1.4810    -1.1720 C.3   1 <1>   0.1400 
  7 C        0.8020    -2.7330     0.0700 C.ar  1 <1>   0.3920 
  8 C        2.5450    -3.2710    -1.4650 C.ar  1 <1>  -0.1500 
  9 C        4.3150    -0.5320     0.5880 C.3   1 <1>   0.1400 
 10 C        3.6470     2.1380    -1.0650 C.3   1 <1>  -0.1600 
 11 O       -0.0470    -1.8160     0.5760 O.3   1 <1>  -0.3630 
 12 N        0.7450    -3.9680     0.5690 N.ar  1 <1>  -0.6200 
 13 C        2.4850    -4.5520    -0.9650 C.ar  1 <1>  -0.1500 
 14 N        5.1840     0.5900     0.1110 N.am  1 <1>  -0.6600 
 15 C        4.8270     1.1700    -1.2160 C.3   1 <1>   0.1400 
 16 C       -1.0120    -2.1450     1.5500 C.3   1 <1>   0.1200 
 17 C        1.5800    -4.8430     0.0400 C.ar  1 <1>   0.1600 
 18 C        6.3030     0.9880     0.8320 C.2   1 <1>   0.7160 
 19 C       -1.7880    -0.8760     1.8920 C.3   1 <1>  -0.2400 
 20 O        6.7230     0.2190     1.6840 O.2   1 <1>  -0.5700 
 21 C        7.0120     2.2530     0.6330 C.2   1 <1>   0.1410 
 22 N        6.5060     3.3840     0.0450 N.2   1 <1>  -0.5650 
 23 C        8.2900     2.5250     1.0310 C.2   1 <1>  -0.3020 
 24 C        7.4560     4.2530     0.1050 C.2   1 <1>   0.0360 
 25 N        8.5740     3.7880     0.6960 N.pl3 1 <1>   0.0330 
 26 H        2.3040    -0.8940     1.2230 H     1 <1>   0.0800 
 27 H        2.7540     0.7740     1.2800 H     1 <1>   0.0800 
 28 H        1.5420     2.0700    -0.6330 H     1 <1>   0.0800 
 29 H        1.9690     1.4910    -2.2080 H     1 <1>   0.0800 
 30 H        3.2300    -3.0030    -2.2520 H     1 <1>   0.1500 
 31 H        4.4160    -1.3690    -0.0790 H     1 <1>   0.0800 
 32 H        4.6360    -0.8560     1.5620 H     1 <1>   0.0800 
 33 H        3.7330     2.6670    -0.1320 H     1 <1>   0.0800 
 34 H        3.7150     2.8780    -1.8410 H     1 <1>   0.0800 
 35 H        3.1310    -5.3220    -1.3500 H     1 <1>   0.1500 
 36 H        5.6740     1.6930    -1.6230 H     1 <1>   0.0800 
 37 H        4.5800     0.3820    -1.9080 H     1 <1>   0.0800 
 38 H       -0.5050    -2.5330     2.4170 H     1 <1>   0.0800 
 39 H       -1.6640    -2.8990     1.1420 H     1 <1>   0.0800 
 40 H        1.5420    -5.8490     0.4260 H     1 <1>   0.1500 
 41 H       -1.1210    -0.1280     2.2810 H     1 <1>   0.0800 
 42 H       -2.5320    -1.0950     2.6360 H     1 <1>   0.0800 
 43 H       -2.2800    -0.4980     1.0140 H     1 <1>   0.0800 
 44 H        8.9780     1.8690     1.5340 H     1 <1>   0.1500 
 45 H        7.3860     5.2590    -0.2720 H     1 <1>   0.1500 
 46 H        9.4460     4.3010     0.8570 H     1 <1>   0.2700 
@<TRIPOS>BOND
  1   1   2  2   
  2   2   3  am  
  3   2   4  1   
  4   3   5  1   
  5   3   6  1   
  6   4   7  ar  
  7   4   8  ar  
  8   5   9  1   
  9   5  26  1   
 10   5  27  1   
 11   6  10  1   
 12   6  28  1   
 13   6  29  1   
 14   7  11  1   
 15   7  12  ar  
 16   8  13  ar  
 17   8  30  1   
 18   9  14  1   
 19   9  31  1   
 20   9  32  1   
 21  10  15  1   
 22  10  33  1   
 23  10  34  1   
 24  11  16  1   
 25  12  17  ar  
 26  13  17  ar  
 27  13  35  1   
 28  14  15  1   
 29  14  18  am  
 30  15  36  1   
 31  15  37  1   
 32  16  19  1   
 33  16  38  1   
 34  16  39  1   
 35  17  40  1   
 36  18  20  2   
 37  18  21  1   
 38  19  41  1   
 39  19  42  1   
 40  19  43  1   
 41  21  22  1   
 42  21  23  2   
 43  22  24  2   
 44  23  25  1   
 45  23  44  1   
 46  24  25  1   
 47  24  45  1   
 48  25  46  1   
@<TRIPOS>SUBSTRUCTURE
  1 ****   5 GROUP 4 **** **** 0

# MOE 2024.06 (io_trps.svl 2023.06)
