@<TRIPOS>MOLECULE
NONAME
40 42 1 0 0 
SMALL
USER_CHARGES


@<TRIPOS>ATOM
  1 F       -2.4320     0.7100    -1.4150 F     1 <1>  -0.1900 
  2 C       -2.9300    -0.4180    -0.9510 C.ar  1 <1>   0.1900 
  3 C       -2.9640    -0.7020     0.4130 C.ar  1 <1>   0.4100 
  4 C       -3.4320    -1.3370    -1.8290 C.ar  1 <1>   0.1600 
  5 N       -3.4760    -1.8340     0.8410 N.ar  1 <1>  -0.6200 
  6 N       -2.5030     0.1070     1.4250 N.pl3 1 <1>  -0.8690 
  7 N       -3.9440    -2.4800    -1.4110 N.ar  1 <1>  -0.6200 
  8 C       -3.9370    -2.6500    -0.0920 C.ar  1 <1>   0.7200 
  9 C       -1.3140     0.9840     1.2970 C.3   1 <1>   0.1290 
 10 N       -4.4630    -3.7930     0.3980 N.pl3 1 <1>  -0.8690 
 11 C       -4.4940    -5.0830    -0.3320 C.3   1 <1>   0.2890 
 12 C       -5.8770    -5.7090    -0.2570 C.3   1 <1>  -0.0800 
 13 C       -3.6740    -6.1160     0.4340 C.3   1 <1>   0.1200 
 14 C       -5.8550    -6.4040     1.1070 C.3   1 <1>   0.1200 
 15 C       -7.0600    -4.7430    -0.4560 C.3   1 <1>  -0.0170 
 16 O       -4.5110    -6.6050     1.4410 O.3   1 <1>  -0.5600 
 17 C       -8.3850    -5.4880    -0.3990 C.ar  1 <1>  -0.1430 
 18 C       -8.8720    -6.1950    -1.4790 C.ar  1 <1>  -0.1500 
 19 C       -9.1660    -5.4980     0.7390 C.ar  1 <1>  -0.1500 
 20 C      -10.0810    -6.8630    -1.3710 C.ar  1 <1>   0.1600 
 21 C      -10.3610    -6.1990     0.7420 C.ar  1 <1>   0.1600 
 22 N      -10.8360    -6.8840    -0.2850 N.ar  1 <1>  -0.6200 
 23 H       -3.4150    -1.1360    -2.8850 H     1 <1>   0.1500 
 24 H       -2.6130    -0.3380     2.3420 H     1 <1>   0.4000 
 25 H       -0.5820     0.5260     0.6520 H     1 <1>   0.0800 
 26 H       -0.8750     1.1460     2.2650 H     1 <1>   0.0800 
 27 H       -1.6070     1.9330     0.8810 H     1 <1>   0.0800 
 28 H       -4.3170    -3.8910     1.4030 H     1 <1>   0.4000 
 29 H       -4.1480    -4.9720    -1.3460 H     1 <1>   0.0800 
 30 H       -5.9350    -6.4760    -1.0080 H     1 <1>   0.0800 
 31 H       -2.7850    -5.6980     0.8710 H     1 <1>   0.0800 
 32 H       -3.4170    -6.9420    -0.2050 H     1 <1>   0.0800 
 33 H       -6.3610    -7.3540     1.0850 H     1 <1>   0.0800 
 34 H       -6.2860    -5.7790     1.8700 H     1 <1>   0.0800 
 35 H       -6.9640    -4.2530    -1.4100 H     1 <1>   0.0800 
 36 H       -7.0510    -3.9760     0.2980 H     1 <1>   0.0800 
 37 H       -8.3250    -6.2320    -2.4030 H     1 <1>   0.1500 
 38 H       -8.8590    -4.9680     1.6210 H     1 <1>   0.1500 
 39 H      -10.4460    -7.4090    -2.2240 H     1 <1>   0.1500 
 40 H      -10.9560    -6.1950     1.6390 H     1 <1>   0.1500 
@<TRIPOS>BOND
  1   1   2  1   
  2   2   3  ar  
  3   2   4  ar  
  4   3   5  ar  
  5   3   6  1   
  6   4   7  ar  
  7   4  23  1   
  8   5   8  ar  
  9   6   9  1   
 10   6  24  1   
 11   7   8  ar  
 12   8  10  1   
 13   9  25  1   
 14   9  26  1   
 15   9  27  1   
 16  10  11  1   
 17  10  28  1   
 18  11  12  1   
 19  11  13  1   
 20  11  29  1   
 21  12  14  1   
 22  12  15  1   
 23  12  30  1   
 24  13  16  1   
 25  13  31  1   
 26  13  32  1   
 27  14  16  1   
 28  14  33  1   
 29  14  34  1   
 30  15  17  1   
 31  15  35  1   
 32  15  36  1   
 33  17  18  ar  
 34  17  19  ar  
 35  18  20  ar  
 36  18  37  1   
 37  19  21  ar  
 38  19  38  1   
 39  20  22  ar  
 40  20  39  1   
 41  21  22  ar  
 42  21  40  1   
@<TRIPOS>SUBSTRUCTURE
  1 ****  10 GROUP 4 **** **** 0

# MOE 2024.06 (io_trps.svl 2023.06)
