@<TRIPOS>MOLECULE
NONAME
57 59 1 0 0 
SMALL
USER_CHARGES


@<TRIPOS>ATOM
  1 O        1.9350     0.0270    -0.4480 O.2   1 <1>  -0.5700 
  2 C        2.5220    -0.8710     0.1040 C.2   1 <1>   0.5690 
  3 N        3.5550    -0.5880     0.9560 N.am  1 <1>  -0.6600 
  4 C        2.1030    -2.3110    -0.1960 C.3   1 <1>  -0.0190 
  5 C        4.9000    -1.2210     0.8350 C.3   1 <1>   0.1400 
  6 C        3.4610     0.6000     1.8510 C.3   1 <1>   0.1400 
  7 C        0.8130    -2.3030    -1.0490 C.3   1 <1>   0.3430 
  8 C        1.9030    -3.1510     1.0850 C.3   1 <1>  -0.1600 
  9 C        5.6840    -0.6290    -0.3590 C.3   1 <1>   0.3430 
 10 C        4.4780     1.6890     1.4950 C.3   1 <1>  -0.1600 
 11 N       -0.0670    -3.5030    -0.8260 N.4   1 <1>  -0.9590 
 12 C        1.4870    -4.5970     0.7460 C.3   1 <1>  -0.1600 
 13 N        6.0170     0.8360    -0.2510 N.4   1 <1>  -0.9590 
 14 C        4.8430     1.7330     0.0130 C.3   1 <1>   0.3430 
 15 C        0.7100    -4.7450    -0.5700 C.3   1 <1>   0.3430 
 16 C       -1.0270    -3.6740    -1.9590 C.3   1 <1>   0.2630 
 17 C        6.7580     1.2890    -1.4640 C.3   1 <1>   0.4860 
 18 C        7.4390     2.6050    -1.1540 C.ar  1 <1>  -0.1440 
 19 C        6.9520     3.7820    -1.7000 C.ar  1 <1>   0.1600 
 20 C        8.5460     2.6640    -0.3270 C.ar  1 <1>  -0.1500 
 21 N        7.4500     4.9800    -1.4690 N.ar  1 <1>  -0.6200 
 22 C        9.0830     3.9100    -0.0870 C.ar  1 <1>  -0.1500 
 23 C        8.5050     5.0350    -0.6720 C.ar  1 <1>   0.3930 
 24 O        8.9790     6.2810    -0.4720 O.3   1 <1>  -0.3630 
 25 C       10.1740     6.5500     0.2280 C.3   1 <1>   0.0400 
 26 H        2.8820    -2.7560    -0.7850 H     1 <1>   0.0800 
 27 H        4.7840    -2.2790     0.6830 H     1 <1>   0.0800 
 28 H        5.4560    -1.0880     1.7480 H     1 <1>   0.0800 
 29 H        3.5980     0.2920     2.8750 H     1 <1>   0.0800 
 30 H        2.4690     1.0170     1.7790 H     1 <1>   0.0800 
 31 H        1.0910    -2.2360    -2.0880 H     1 <1>   0.0800 
 32 H        0.2400    -1.4190    -0.8150 H     1 <1>   0.0800 
 33 H        1.1330    -2.6900     1.6830 H     1 <1>   0.0800 
 34 H        2.7980    -3.1690     1.6830 H     1 <1>   0.0800 
 35 H        5.1040    -0.7940    -1.2520 H     1 <1>   0.0800 
 36 H        6.6010    -1.1860    -0.4640 H     1 <1>   0.0800 
 37 H        5.3590     1.5920     2.1040 H     1 <1>   0.0800 
 38 H        4.0320     2.6320     1.7570 H     1 <1>   0.0800 
 39 H       -0.6130    -3.3220     0.0290 H     1 <1>   0.4500 
 40 H        0.8940    -4.9920     1.5540 H     1 <1>   0.0800 
 41 H        2.3640    -5.2180     0.6800 H     1 <1>   0.0800 
 42 H        6.6620     0.9760     0.5360 H     1 <1>   0.4500 
 43 H        5.1050     2.7500    -0.2290 H     1 <1>   0.0800 
 44 H        3.9950     1.4520    -0.5930 H     1 <1>   0.0800 
 45 H        1.4010    -4.9090    -1.3820 H     1 <1>   0.0800 
 46 H        0.0540    -5.5990    -0.5080 H     1 <1>   0.0800 
 47 H       -0.4950    -3.8750    -2.8750 H     1 <1>   0.0800 
 48 H       -1.6130    -2.7790    -2.0910 H     1 <1>   0.0800 
 49 H       -1.6970    -4.4960    -1.7620 H     1 <1>   0.0800 
 50 H        6.0810     1.4040    -2.2960 H     1 <1>   0.0800 
 51 H        7.5090     0.5650    -1.7340 H     1 <1>   0.0800 
 52 H        6.1030     3.7530    -2.3630 H     1 <1>   0.1500 
 53 H        8.9890     1.7880     0.1160 H     1 <1>   0.1500 
 54 H        9.9430     4.0000     0.5490 H     1 <1>   0.1500 
 55 H       10.3470     7.6110     0.1920 H     1 <1>   0.0800 
 56 H       10.9860     6.0330    -0.2520 H     1 <1>   0.0800 
 57 H       10.0620     6.2360     1.2500 H     1 <1>   0.0800 
@<TRIPOS>BOND
  1   1   2  2   
  2   2   3  am  
  3   2   4  1   
  4   3   5  1   
  5   3   6  1   
  6   4   7  1   
  7   4   8  1   
  8   4  26  1   
  9   5   9  1   
 10   5  27  1   
 11   5  28  1   
 12   6  10  1   
 13   6  29  1   
 14   6  30  1   
 15   7  11  1   
 16   7  31  1   
 17   7  32  1   
 18   8  12  1   
 19   8  33  1   
 20   8  34  1   
 21   9  13  1   
 22   9  35  1   
 23   9  36  1   
 24  10  14  1   
 25  10  37  1   
 26  10  38  1   
 27  11  15  1   
 28  11  16  1   
 29  11  39  1   
 30  12  15  1   
 31  12  40  1   
 32  12  41  1   
 33  13  14  1   
 34  13  17  1   
 35  13  42  1   
 36  14  43  1   
 37  14  44  1   
 38  15  45  1   
 39  15  46  1   
 40  16  47  1   
 41  16  48  1   
 42  16  49  1   
 43  17  18  1   
 44  17  50  1   
 45  17  51  1   
 46  18  19  ar  
 47  18  20  ar  
 48  19  21  ar  
 49  19  52  1   
 50  20  22  ar  
 51  20  53  1   
 52  21  23  ar  
 53  22  23  ar  
 54  22  54  1   
 55  23  24  1   
 56  24  25  1   
 57  25  55  1   
 58  25  56  1   
 59  25  57  1   
@<TRIPOS>SUBSTRUCTURE
  1 ****  14 GROUP 4 **** **** 0

# MOE 2024.06 (io_trps.svl 2023.06)
