@<TRIPOS>MOLECULE
NONAME
47 50 1 0 0 
SMALL
USER_CHARGES


@<TRIPOS>ATOM
  1 S        0.0840    -0.4790     1.8870 S.3   1 <1>  -0.0800 
  2 C       -0.5980    -1.6300     0.7470 C.2   1 <1>  -0.1400 
  3 C        1.6350    -0.5190     1.0740 C.2   1 <1>  -0.1100 
  4 C        0.3260    -1.9930    -0.1660 C.2   1 <1>  -0.1810 
  5 C       -2.0540    -2.0070     0.9700 C.3   1 <1>   0.3200 
  6 C        1.5960    -1.3560     0.0230 C.2   1 <1>  -0.1500 
  7 C        0.1390    -2.9630    -1.3180 C.3   1 <1>  -0.0590 
  8 N       -2.8900    -1.6740    -0.2230 N.am  1 <1>  -0.5090 
  9 C       -3.5690    -2.5920    -0.9970 C.2   1 <1>   0.5690 
 10 C       -2.7570    -0.2610    -0.6590 C.3   1 <1>   0.0490 
 11 O       -3.9250    -2.3250    -2.1230 O.2   1 <1>  -0.5700 
 12 C       -3.9700    -3.9840    -0.4880 C.3   1 <1>   0.2610 
 13 C       -3.2650     0.8120     0.2540 C.3   1 <1>  -0.2000 
 14 C       -3.9710     0.5310    -1.0340 C.3   1 <1>  -0.2000 
 15 O       -2.8500    -4.7830    -0.1430 O.3   1 <1>  -0.5600 
 16 C       -4.9590    -3.8550     0.6970 C.3   1 <1>   0.3640 
 17 C       -3.1720    -6.1150     0.2010 C.3   1 <1>   0.1810 
 18 N       -5.1140    -5.1400     1.4200 N.am  1 <1>  -0.7300 
 19 C       -6.3230    -3.3620     0.2380 C.ar  1 <1>  -0.1440 
 20 C       -4.2950    -6.2020     1.2410 C.2   1 <1>   0.5690 
 21 C       -7.2430    -4.2240    -0.3470 C.ar  1 <1>   0.1600 
 22 C       -6.6660    -2.0320     0.3860 C.ar  1 <1>  -0.1500 
 23 O       -4.4540    -7.2100     1.8790 O.2   1 <1>  -0.5700 
 24 N       -8.4420    -3.8730    -0.7790 N.ar  1 <1>  -0.6200 
 25 C       -7.9120    -1.6490    -0.0640 C.ar  1 <1>  -0.1500 
 26 C       -8.7480    -2.5950    -0.6300 C.ar  1 <1>   0.1600 
 27 H        2.4210     0.0970     1.4730 H     1 <1>   0.1500 
 28 H       -2.4330    -1.4630     1.8160 H     1 <1>   0.0800 
 29 H       -2.0990    -3.0490     1.2140 H     1 <1>   0.0800 
 30 H        2.4190    -1.5570    -0.6400 H     1 <1>   0.1500 
 31 H        0.8680    -3.7500    -1.2570 H     1 <1>   0.0800 
 32 H        0.2590    -2.4470    -2.2530 H     1 <1>   0.0800 
 33 H       -0.8390    -3.4040    -1.2960 H     1 <1>   0.0800 
 34 H       -1.8480    -0.0830    -1.2120 H     1 <1>   0.1000 
 35 H       -4.4720    -4.4830    -1.2990 H     1 <1>   0.0800 
 36 H       -3.7580     0.5450     1.1710 H     1 <1>   0.1000 
 37 H       -2.7000     1.7240     0.3370 H     1 <1>   0.1000 
 38 H       -3.8820     1.2420    -1.8360 H     1 <1>   0.1000 
 39 H       -4.9240     0.0350    -1.0310 H     1 <1>   0.1000 
 40 H       -4.5640    -3.1410     1.3970 H     1 <1>   0.0800 
 41 H       -3.4680    -6.6360    -0.6910 H     1 <1>   0.0800 
 42 H       -2.2850    -6.5770     0.5950 H     1 <1>   0.0800 
 43 H       -5.8570    -5.2100     2.1180 H     1 <1>   0.3700 
 44 H       -6.9840    -5.2620    -0.4680 H     1 <1>   0.1500 
 45 H       -5.9980    -1.3110     0.8270 H     1 <1>   0.1500 
 46 H       -8.2340    -0.6270     0.0200 H     1 <1>   0.1500 
 47 H       -9.7190    -2.2840    -0.9790 H     1 <1>   0.1500 
@<TRIPOS>BOND
  1   1   2  1   
  2   1   3  1   
  3   2   4  2   
  4   2   5  1   
  5   3   6  2   
  6   3  27  1   
  7   4   6  1   
  8   4   7  1   
  9   5   8  1   
 10   5  28  1   
 11   5  29  1   
 12   6  30  1   
 13   7  31  1   
 14   7  32  1   
 15   7  33  1   
 16   8   9  am  
 17   8  10  1   
 18   9  11  2   
 19   9  12  1   
 20  10  13  1   
 21  10  14  1   
 22  10  34  1   
 23  12  15  1   
 24  12  16  1   
 25  12  35  1   
 26  13  14  1   
 27  13  36  1   
 28  13  37  1   
 29  14  38  1   
 30  14  39  1   
 31  15  17  1   
 32  16  18  1   
 33  16  19  1   
 34  16  40  1   
 35  17  20  1   
 36  17  41  1   
 37  17  42  1   
 38  18  20  am  
 39  18  43  1   
 40  19  21  ar  
 41  19  22  ar  
 42  20  23  2   
 43  21  24  ar  
 44  21  44  1   
 45  22  25  ar  
 46  22  45  1   
 47  24  26  ar  
 48  25  26  ar  
 49  25  46  1   
 50  26  47  1   
@<TRIPOS>SUBSTRUCTURE
  1 ****   9 GROUP 4 **** **** 0

# MOE 2024.06 (io_trps.svl 2023.06)
