@<TRIPOS>MOLECULE
NONAME
39 41 1 0 0 
SMALL
USER_CHARGES


@<TRIPOS>ATOM
  1 CL      -2.3600     0.1470    -2.3180 Cl    1 <1>  -0.1230 
  2 C       -2.1620     0.5950    -0.6380 C.2   1 <1>   0.1230 
  3 C       -2.6900    -0.0510     0.4220 C.2   1 <1>  -0.1400 
  4 C       -1.3700     1.7420    -0.3270 C.2   1 <1>  -0.1500 
  5 S       -2.2060     0.7780     1.8950 S.3   1 <1>  -0.0800 
  6 C       -3.5630    -1.2700     0.6370 C.3   1 <1>   0.5230 
  7 C       -1.2910     1.9800     0.9940 C.2   1 <1>  -0.1100 
  8 N       -4.0480    -1.8080    -0.6670 N.4   1 <1>  -0.9590 
  9 C       -5.4790    -1.5350    -0.9930 C.3   1 <1>   0.4230 
 10 C       -3.7180    -3.2590    -0.8080 C.3   1 <1>   0.2630 
 11 C       -6.4790    -2.1580    -0.0200 C.3   1 <1>  -0.1600 
 12 C       -5.8370    -0.0510    -0.9990 C.3   1 <1>  -0.1600 
 13 C       -7.7860    -1.3980    -0.2870 C.3   1 <1>  -0.0800 
 14 C       -7.3680    -0.0290    -0.8830 C.3   1 <1>  -0.0800 
 15 C       -8.7230    -1.3410     0.9390 C.3   1 <1>   0.1400 
 16 C       -7.9030     1.1930    -0.1080 C.3   1 <1>  -0.0990 
 17 N       -9.6840    -0.2350     0.7740 N.am  1 <1>  -0.7300 
 18 C       -9.3480     0.9780     0.2890 C.2   1 <1>   0.5690 
 19 O      -10.1560     1.8610     0.1770 O.2   1 <1>  -0.5700 
 20 H       -0.9030     2.3230    -1.1050 H     1 <1>   0.1500 
 21 H       -4.3960    -1.0000     1.2640 H     1 <1>   0.0800 
 22 H       -2.9850    -2.0180     1.1570 H     1 <1>   0.0800 
 23 H       -0.7840     2.7460     1.5580 H     1 <1>   0.1500 
 24 H       -3.4980    -1.3020    -1.3780 H     1 <1>   0.4500 
 25 H       -5.6950    -1.9220    -1.9770 H     1 <1>   0.0800 
 26 H       -4.2470    -3.8400    -0.0700 H     1 <1>   0.0800 
 27 H       -2.6580    -3.4170    -0.6780 H     1 <1>   0.0800 
 28 H       -3.9960    -3.6130    -1.7880 H     1 <1>   0.0800 
 29 H       -6.6090    -3.2110    -0.1990 H     1 <1>   0.0800 
 30 H       -6.1770    -1.9980     0.9980 H     1 <1>   0.0800 
 31 H       -5.4130     0.4580    -0.1540 H     1 <1>   0.0800 
 32 H       -5.5140     0.4300    -1.9060 H     1 <1>   0.0800 
 33 H       -8.3220    -1.9260    -1.0600 H     1 <1>   0.0800 
 34 H       -7.7840     0.0220    -1.8770 H     1 <1>   0.0800 
 35 H       -8.1600    -1.1640     1.8410 H     1 <1>   0.0800 
 36 H       -9.2540    -2.2720     1.0450 H     1 <1>   0.0800 
 37 H       -7.8280     2.0800    -0.7110 H     1 <1>   0.0800 
 38 H       -7.3440     1.3520     0.7950 H     1 <1>   0.0800 
 39 H      -10.6530    -0.3660     1.0790 H     1 <1>   0.3700 
@<TRIPOS>BOND
  1   1   2  1   
  2   2   3  2   
  3   2   4  1   
  4   3   5  1   
  5   3   6  1   
  6   4   7  2   
  7   4  20  1   
  8   5   7  1   
  9   6   8  1   
 10   6  21  1   
 11   6  22  1   
 12   7  23  1   
 13   8   9  1   
 14   8  10  1   
 15   8  24  1   
 16   9  11  1   
 17   9  12  1   
 18   9  25  1   
 19  10  26  1   
 20  10  27  1   
 21  10  28  1   
 22  11  13  1   
 23  11  29  1   
 24  11  30  1   
 25  12  14  1   
 26  12  31  1   
 27  12  32  1   
 28  13  14  1   
 29  13  15  1   
 30  13  33  1   
 31  14  16  1   
 32  14  34  1   
 33  15  17  1   
 34  15  35  1   
 35  15  36  1   
 36  16  18  1   
 37  16  37  1   
 38  16  38  1   
 39  17  18  am  
 40  17  39  1   
 41  18  19  2   
@<TRIPOS>SUBSTRUCTURE
  1 ****  12 GROUP 4 **** **** 0

# MOE 2024.06 (io_trps.svl 2023.06)
