@<TRIPOS>MOLECULE
NONAME
55 59 1 0 0 
SMALL
USER_CHARGES


@<TRIPOS>ATOM
  1 N       -0.9140    -1.8250    -1.0270 N.ar  1 <1>  -0.3100 
  2 N        0.3930    -1.7840    -0.9670 N.ar  1 <1>  -0.3100 
  3 C       -1.6440    -2.0100     0.0810 C.ar  1 <1>   0.4100 
  4 C        1.0310    -1.9380     0.2010 C.ar  1 <1>   0.3100 
  5 N       -3.0260    -2.0240    -0.0250 N.pl3 1 <1>  -0.8380 
  6 C       -1.0440    -2.1720     1.3160 C.ar  1 <1>  -0.1500 
  7 C        2.4780    -1.8900     0.2100 C.ar  1 <1>   0.0000 
  8 C        0.3260    -2.1330     1.3780 C.ar  1 <1>  -0.1500 
  9 C       -3.8370    -1.0220     0.7330 C.3   1 <1>   0.2090 
 10 C       -3.6830    -2.5190    -1.2670 C.3   1 <1>   0.2090 
 11 C        3.2350    -2.8310     0.9100 C.ar  1 <1>  -0.1500 
 12 C        3.1690    -0.8940    -0.4810 C.ar  1 <1>  -0.1500 
 13 C       -4.1700     0.2020    -0.1450 C.3   1 <1>   0.1430 
 14 C       -4.0540    -1.3460    -2.1830 C.3   1 <1>  -0.1600 
 15 C        4.6160    -2.7730     0.9290 C.ar  1 <1>  -0.1500 
 16 C        4.5500    -0.8310    -0.4650 C.ar  1 <1>  -0.1500 
 17 C       -5.0750     1.1620     0.6030 C.ar  1 <1>   0.1670 
 18 C       -4.8590    -0.2560    -1.4500 C.3   1 <1>  -0.1600 
 19 C       -2.9210     1.0820    -0.4270 C.3   1 <1>  -0.1600 
 20 C        5.2780    -1.7710     0.2430 C.ar  1 <1>  -0.1500 
 21 N       -6.1560     0.8250     1.2620 N.ar  1 <1>  -0.6200 
 22 C       -4.6320     2.4460     0.5100 C.ar  1 <1>  -0.1430 
 23 C       -3.3700     2.5490    -0.3070 C.3   1 <1>  -0.0170 
 24 C       -6.8060     1.8360     1.8450 C.ar  1 <1>   0.7200 
 25 C       -5.3640     3.4190     1.1420 C.ar  1 <1>   0.1600 
 26 N       -6.4520     3.1250     1.8130 N.ar  1 <1>  -0.6200 
 27 N       -7.9520     1.5170     2.5480 N.pl3 1 <1>  -0.8380 
 28 C       -8.6070     2.4850     3.4720 C.3   1 <1>   0.1290 
 29 C       -8.6370     0.2040     2.3960 C.3   1 <1>   0.1290 
 30 H       -1.6460    -2.3280     2.1900 H     1 <1>   0.1500 
 31 H        0.8420    -2.2480     2.3130 H     1 <1>   0.1500 
 32 H       -3.3120    -0.7000     1.6150 H     1 <1>   0.0800 
 33 H       -4.7530    -1.4900     1.0520 H     1 <1>   0.0800 
 34 H       -4.5710    -3.0630    -0.9940 H     1 <1>   0.0800 
 35 H       -3.0260    -3.1970    -1.7860 H     1 <1>   0.0800 
 36 H        2.7370    -3.6230     1.4390 H     1 <1>   0.1500 
 37 H        2.6110    -0.1610    -1.0380 H     1 <1>   0.1500 
 38 H       -4.6300    -1.7200    -3.0110 H     1 <1>   0.0800 
 39 H       -3.1490    -0.9320    -2.5880 H     1 <1>   0.0800 
 40 H        5.1790    -3.5090     1.4760 H     1 <1>   0.1500 
 41 H        5.0590    -0.0520    -1.0060 H     1 <1>   0.1500 
 42 H       -5.0130     0.5870    -2.1000 H     1 <1>   0.0800 
 43 H       -5.8280    -0.6540    -1.2010 H     1 <1>   0.0800 
 44 H       -2.4720     0.8810    -1.3830 H     1 <1>   0.0800 
 45 H       -2.1780     0.8970     0.3280 H     1 <1>   0.0800 
 46 H        6.3530    -1.7240     0.2560 H     1 <1>   0.1500 
 47 H       -3.5980     2.9560    -1.2770 H     1 <1>   0.0800 
 48 H       -2.6230     3.1520     0.1800 H     1 <1>   0.0800 
 49 H       -5.0550     4.4490     1.0970 H     1 <1>   0.1500 
 50 H       -7.8770     3.1520     3.8990 H     1 <1>   0.0800 
 51 H       -9.0940     1.9600     4.2740 H     1 <1>   0.0800 
 52 H       -9.3330     3.0640     2.9290 H     1 <1>   0.0800 
 53 H       -8.4490    -0.2090     1.4200 H     1 <1>   0.0800 
 54 H       -9.6990     0.3250     2.5120 H     1 <1>   0.0800 
 55 H       -8.2710    -0.4800     3.1420 H     1 <1>   0.0800 
@<TRIPOS>BOND
  1   1   2  ar  
  2   1   3  ar  
  3   2   4  ar  
  4   3   5  1   
  5   3   6  ar  
  6   4   7  1   
  7   4   8  ar  
  8   5   9  1   
  9   5  10  1   
 10   6   8  ar  
 11   6  30  1   
 12   7  11  ar  
 13   7  12  ar  
 14   8  31  1   
 15   9  13  1   
 16   9  32  1   
 17   9  33  1   
 18  10  14  1   
 19  10  34  1   
 20  10  35  1   
 21  11  15  ar  
 22  11  36  1   
 23  12  16  ar  
 24  12  37  1   
 25  13  17  1   
 26  13  18  1   
 27  13  19  1   
 28  14  18  1   
 29  14  38  1   
 30  14  39  1   
 31  15  20  ar  
 32  15  40  1   
 33  16  20  ar  
 34  16  41  1   
 35  17  21  ar  
 36  17  22  ar  
 37  18  42  1   
 38  18  43  1   
 39  19  23  1   
 40  19  44  1   
 41  19  45  1   
 42  20  46  1   
 43  21  24  ar  
 44  22  23  1   
 45  22  25  ar  
 46  23  47  1   
 47  23  48  1   
 48  24  26  ar  
 49  24  27  1   
 50  25  26  ar  
 51  25  49  1   
 52  27  28  1   
 53  27  29  1   
 54  28  50  1   
 55  28  51  1   
 56  28  52  1   
 57  29  53  1   
 58  29  54  1   
 59  29  55  1   
@<TRIPOS>SUBSTRUCTURE
  1 ****   9 GROUP 4 **** **** 0

# MOE 2024.06 (io_trps.svl 2023.06)
