@<TRIPOS>MOLECULE
NONAME
45 47 1 0 0 
SMALL
USER_CHARGES


@<TRIPOS>ATOM
  1 O       -0.3870    -0.8900    -0.4280 O.3   1 <1>  -0.5320 
  2 C       -1.5910    -1.4240    -0.1790 C.ar  1 <1>   0.0820 
  3 C       -1.7700    -2.1770     0.9660 C.ar  1 <1>  -0.1500 
  4 C       -2.6420    -1.2220    -1.0580 C.ar  1 <1>  -0.1500 
  5 C       -3.0060    -2.7370     1.2360 C.ar  1 <1>  -0.1500 
  6 C       -3.8780    -1.7850    -0.7870 C.ar  1 <1>  -0.1500 
  7 C       -4.0650    -2.5480     0.3580 C.ar  1 <1>  -0.1430 
  8 C       -5.4110    -3.1830     0.6460 C.3   1 <1>  -0.0170 
  9 C       -5.4120    -4.6000     0.0700 C.3   1 <1>   0.3430 
 10 N       -6.6820    -5.3240     0.3740 N.4   1 <1>  -0.9590 
 11 C       -7.9150    -4.7750    -0.2600 C.3   1 <1>   0.3430 
 12 C       -6.6460    -6.7730     0.0070 C.3   1 <1>   0.3430 
 13 C       -8.9190    -5.9210    -0.1410 C.3   1 <1>   0.2000 
 14 C       -8.0560    -7.1410    -0.4790 C.3   1 <1>  -0.0800 
 15 O       -9.3240    -5.9840     1.1890 O.3   1 <1>  -0.6800 
 16 C       -8.5410    -8.5010     0.0600 C.3   1 <1>  -0.0170 
 17 C       -7.5280    -9.5850    -0.2710 C.ar  1 <1>  -0.1430 
 18 C       -6.7170   -10.1460     0.6970 C.ar  1 <1>  -0.1500 
 19 C       -7.3620   -10.0600    -1.5570 C.ar  1 <1>  -0.1500 
 20 C       -5.7910   -11.1110     0.3370 C.ar  1 <1>   0.1600 
 21 C       -6.4050   -11.0280    -1.8100 C.ar  1 <1>   0.1600 
 22 N       -5.6100   -11.5540    -0.8950 N.ar  1 <1>  -0.6200 
 23 H       -0.3600    -0.3610    -1.2440 H     1 <1>   0.4500 
 24 H       -0.9420    -2.3170     1.6380 H     1 <1>   0.1500 
 25 H       -2.5030    -0.6320    -1.9450 H     1 <1>   0.1500 
 26 H       -3.1280    -3.3160     2.1350 H     1 <1>   0.1500 
 27 H       -4.6870    -1.6180    -1.4760 H     1 <1>   0.1500 
 28 H       -6.1870    -2.5890     0.1990 H     1 <1>   0.0800 
 29 H       -5.5690    -3.2140     1.7100 H     1 <1>   0.0800 
 30 H       -4.5810    -5.1400     0.4950 H     1 <1>   0.0800 
 31 H       -5.2620    -4.5500    -0.9960 H     1 <1>   0.0800 
 32 H       -6.8730    -5.2960     1.3890 H     1 <1>   0.4500 
 33 H       -8.2720    -3.8910     0.2410 H     1 <1>   0.0800 
 34 H       -7.7330    -4.5580    -1.3000 H     1 <1>   0.0800 
 35 H       -5.9310    -6.9570    -0.7790 H     1 <1>   0.0800 
 36 H       -6.3760    -7.3640     0.8670 H     1 <1>   0.0800 
 37 H       -9.7820    -5.7960    -0.7740 H     1 <1>   0.0800 
 38 H       -8.0030    -7.2140    -1.5510 H     1 <1>   0.0800 
 39 H      -10.1360    -6.5270     1.2900 H     1 <1>   0.4000 
 40 H       -9.4910    -8.7540    -0.3810 H     1 <1>   0.0800 
 41 H       -8.6770    -8.4630     1.1270 H     1 <1>   0.0800 
 42 H       -6.7930    -9.8530     1.7280 H     1 <1>   0.1500 
 43 H       -7.9650    -9.6940    -2.3680 H     1 <1>   0.1500 
 44 H       -5.1670   -11.5430     1.1020 H     1 <1>   0.1500 
 45 H       -6.2860   -11.3900    -2.8180 H     1 <1>   0.1500 
@<TRIPOS>BOND
  1   1   2  1   
  2   1  23  1   
  3   2   3  ar  
  4   2   4  ar  
  5   3   5  ar  
  6   3  24  1   
  7   4   6  ar  
  8   4  25  1   
  9   5   7  ar  
 10   5  26  1   
 11   6   7  ar  
 12   6  27  1   
 13   7   8  1   
 14   8   9  1   
 15   8  28  1   
 16   8  29  1   
 17   9  10  1   
 18   9  30  1   
 19   9  31  1   
 20  10  11  1   
 21  10  12  1   
 22  10  32  1   
 23  11  13  1   
 24  11  33  1   
 25  11  34  1   
 26  12  14  1   
 27  12  35  1   
 28  12  36  1   
 29  13  14  1   
 30  13  15  1   
 31  13  37  1   
 32  14  16  1   
 33  14  38  1   
 34  15  39  1   
 35  16  17  1   
 36  16  40  1   
 37  16  41  1   
 38  17  18  ar  
 39  17  19  ar  
 40  18  20  ar  
 41  18  42  1   
 42  19  21  ar  
 43  19  43  1   
 44  20  22  ar  
 45  20  44  1   
 46  21  22  ar  
 47  21  45  1   
@<TRIPOS>SUBSTRUCTURE
  1 ****   9 GROUP 4 **** **** 0

# MOE 2024.06 (io_trps.svl 2023.06)
