@<TRIPOS>MOLECULE
NONAME
52 55 1 0 0 
SMALL
USER_CHARGES


@<TRIPOS>ATOM
  1 F       -2.4420    -2.2600    -0.6190 F     1 <1>  -0.1900 
  2 C       -3.2010    -1.2040    -0.5200 C.ar  1 <1>   0.1900 
  3 C       -3.6750    -0.6110    -1.6750 C.ar  1 <1>  -0.1500 
  4 C       -3.5060    -0.7160     0.7360 C.ar  1 <1>  -0.1500 
  5 C       -4.4940     0.4990    -1.5600 C.ar  1 <1>  -0.1500 
  6 C       -4.3270     0.3950     0.8330 C.ar  1 <1>  -0.1500 
  7 C       -4.8500     1.0050    -0.3090 C.ar  1 <1>   0.0540 
  8 C       -5.7610     2.1210    -0.2040 C.2   1 <1>   0.2350 
  9 N       -5.5010     3.3190    -0.6460 N.2   1 <1>  -0.7070 
 10 C       -7.0400     2.0660     0.3590 C.2   1 <1>  -0.1810 
 11 N       -6.5780     4.0600    -0.3430 N.pl3 1 <1>   0.3000 
 12 C       -7.5280     3.3220     0.2640 C.2   1 <1>  -0.3020 
 13 C       -7.6880     0.8220     0.9220 C.3   1 <1>   0.5240 
 14 N       -7.8980    -0.1230    -0.2120 N.4   1 <1>  -0.9590 
 15 C       -9.3020    -0.2820    -0.6900 C.3   1 <1>   0.4230 
 16 C       -7.2590    -1.4480     0.0580 C.3   1 <1>   0.2630 
 17 C      -10.2770    -0.8030     0.3660 C.3   1 <1>  -0.1600 
 18 C       -9.9290     1.0190    -1.1750 C.3   1 <1>  -0.1600 
 19 C      -11.6630    -0.4330    -0.1820 C.3   1 <1>  -0.0800 
 20 C      -11.4380     0.7500    -1.1530 C.3   1 <1>  -0.0800 
 21 C      -12.7080    -0.1830     0.9260 C.3   1 <1>   0.1400 
 22 C      -12.2670     2.0020    -0.8110 C.3   1 <1>  -0.0990 
 23 N      -13.8700     0.5500     0.3700 N.am  1 <1>  -0.6600 
 24 C      -13.6910     1.6170    -0.4670 C.2   1 <1>   0.5690 
 25 C      -15.2190     0.1060     0.8160 C.3   1 <1>   0.0600 
 26 O      -14.5970     2.2610    -0.9340 O.2   1 <1>  -0.5700 
 27 H       -3.3960    -1.0060    -2.6360 H     1 <1>   0.1500 
 28 H       -3.0960    -1.1920     1.6100 H     1 <1>   0.1500 
 29 H       -4.8560     0.9920    -2.4470 H     1 <1>   0.1500 
 30 H       -4.5530     0.8040     1.8030 H     1 <1>   0.1500 
 31 H       -6.6320     5.0650    -0.5660 H     1 <1>   0.2700 
 32 H       -8.4690     3.7400     0.5760 H     1 <1>   0.1500 
 33 H       -8.6240     1.0790     1.3890 H     1 <1>   0.0800 
 34 H       -7.0390     0.3860     1.6640 H     1 <1>   0.0800 
 35 H       -7.3820     0.3130    -0.9900 H     1 <1>   0.4500 
 36 H       -9.3170    -0.9740    -1.5180 H     1 <1>   0.0800 
 37 H       -7.7370    -1.9350     0.8920 H     1 <1>   0.0800 
 38 H       -6.2120    -1.3230     0.2840 H     1 <1>   0.0800 
 39 H       -7.3420    -2.0870    -0.8070 H     1 <1>   0.0800 
 40 H      -10.1910    -1.8670     0.4980 H     1 <1>   0.0800 
 41 H      -10.1250    -0.3100     1.3090 H     1 <1>   0.0800 
 42 H       -9.7110     1.8270    -0.5030 H     1 <1>   0.0800 
 43 H       -9.5960     1.2770    -2.1650 H     1 <1>   0.0800 
 44 H      -12.0220    -1.2640    -0.7680 H     1 <1>   0.0800 
 45 H      -11.7440     0.4200    -2.1340 H     1 <1>   0.0800 
 46 H      -12.2870     0.4120     1.7180 H     1 <1>   0.0800 
 47 H      -13.0290    -1.1230     1.3430 H     1 <1>   0.0800 
 48 H      -12.2740     2.6820    -1.6440 H     1 <1>   0.0800 
 49 H      -11.8600     2.5160     0.0390 H     1 <1>   0.0800 
 50 H      -15.3860    -0.9130     0.5140 H     1 <1>   0.0800 
 51 H      -15.9850     0.7230     0.3770 H     1 <1>   0.0800 
 52 H      -15.2930     0.1790     1.8860 H     1 <1>   0.0800 
@<TRIPOS>BOND
  1   1   2  1   
  2   2   3  ar  
  3   2   4  ar  
  4   3   5  ar  
  5   3  27  1   
  6   4   6  ar  
  7   4  28  1   
  8   5   7  ar  
  9   5  29  1   
 10   6   7  ar  
 11   6  30  1   
 12   7   8  1   
 13   8   9  2   
 14   8  10  1   
 15   9  11  1   
 16  10  12  2   
 17  10  13  1   
 18  11  12  1   
 19  11  31  1   
 20  12  32  1   
 21  13  14  1   
 22  13  33  1   
 23  13  34  1   
 24  14  15  1   
 25  14  16  1   
 26  14  35  1   
 27  15  17  1   
 28  15  18  1   
 29  15  36  1   
 30  16  37  1   
 31  16  38  1   
 32  16  39  1   
 33  17  19  1   
 34  17  40  1   
 35  17  41  1   
 36  18  20  1   
 37  18  42  1   
 38  18  43  1   
 39  19  20  1   
 40  19  21  1   
 41  19  44  1   
 42  20  22  1   
 43  20  45  1   
 44  21  23  1   
 45  21  46  1   
 46  21  47  1   
 47  22  24  1   
 48  22  48  1   
 49  22  49  1   
 50  23  24  am  
 51  23  25  1   
 52  24  26  2   
 53  25  50  1   
 54  25  51  1   
 55  25  52  1   
@<TRIPOS>SUBSTRUCTURE
  1 ****  14 GROUP 4 **** **** 0

# MOE 2024.06 (io_trps.svl 2023.06)
