@<TRIPOS>MOLECULE
NONAME
47 49 1 0 0 
SMALL
USER_CHARGES


@<TRIPOS>ATOM
  1 S        1.0580     0.5350     0.2340 S.o2  1 <1>   1.3330 
  2 O       -0.2620     1.1020     0.3950 O.2   1 <1>  -0.6500 
  3 O        1.2100    -0.7220    -0.4650 O.2   1 <1>  -0.6500 
  4 N        1.7140     0.3390     1.7890 N.am  1 <1>  -0.8490 
  5 C        2.1390     1.7350    -0.5490 C.3   1 <1>  -0.0550 
  6 C        1.3130    -0.9330     2.3950 C.3   1 <1>   0.1160 
  7 C        1.3830     1.4440     2.6970 C.3   1 <1>   0.1160 
  8 C        3.5530     1.1980    -0.8680 C.3   1 <1>  -0.0800 
  9 C        4.4350     2.1360    -1.6780 C.3   1 <1>   0.2200 
 10 C        4.4250     0.8940     0.3560 C.3   1 <1>   0.1200 
 11 N        4.3530     3.5130    -1.1460 N.am  1 <1>  -0.7300 
 12 C        5.8080     1.5730    -1.3420 C.3   1 <1>   0.1200 
 13 O        5.7370     1.2400     0.0110 O.3   1 <1>  -0.5600 
 14 C        3.5760     4.5160    -1.6290 C.2   1 <1>   0.5690 
 15 O        2.9250     4.3710    -2.6350 O.2   1 <1>  -0.5700 
 16 C        3.4940     5.8500    -0.8880 C.3   1 <1>   0.2010 
 17 N        4.1610     5.8310     0.4460 N.am  1 <1>  -0.4770 
 18 C        3.6810     5.1990     1.5570 C.2   1 <1>   0.7800 
 19 C        5.4520     6.2130     0.7460 C.ar  1 <1>   0.1170 
 20 O        2.6060     4.6400     1.6580 O.2   1 <1>  -0.5700 
 21 O        4.5870     5.2040     2.5340 O.3   1 <1>  -0.2330 
 22 C        5.6840     5.8160     2.0450 C.ar  1 <1>   0.0820 
 23 C        6.4460     6.8550     0.0220 C.ar  1 <1>  -0.1500 
 24 C        6.8940     6.0410     2.6750 C.ar  1 <1>  -0.1500 
 25 C        7.6650     7.0870     0.6390 C.ar  1 <1>  -0.1500 
 26 C        7.8890     6.6850     1.9550 C.ar  1 <1>  -0.1500 
 27 H        1.6860     2.0400    -1.4730 H     1 <1>   0.0800 
 28 H        2.2080     2.6050     0.0710 H     1 <1>   0.0800 
 29 H        1.7530    -1.0370     3.3720 H     1 <1>   0.0800 
 30 H        1.6500    -1.7550     1.7850 H     1 <1>   0.0800 
 31 H        0.2400    -0.9840     2.4810 H     1 <1>   0.0800 
 32 H        1.8920     1.3170     3.6370 H     1 <1>   0.0800 
 33 H        0.3210     1.4830     2.8750 H     1 <1>   0.0800 
 34 H        1.6920     2.3820     2.2730 H     1 <1>   0.0800 
 35 H        3.4480     0.2840    -1.4260 H     1 <1>   0.0800 
 36 H        4.2190     2.1170    -2.7340 H     1 <1>   0.0800 
 37 H        4.3920    -0.1490     0.6230 H     1 <1>   0.0800 
 38 H        4.1440     1.4940     1.2050 H     1 <1>   0.0800 
 39 H        4.8850     3.6460    -0.2800 H     1 <1>   0.3700 
 40 H        6.6030     2.2810    -1.5030 H     1 <1>   0.0800 
 41 H        6.0000     0.6710    -1.8970 H     1 <1>   0.0800 
 42 H        2.4560     6.0940    -0.7520 H     1 <1>   0.0800 
 43 H        3.9380     6.6120    -1.5010 H     1 <1>   0.0800 
 44 H        6.2740     7.1650    -0.9920 H     1 <1>   0.1500 
 45 H        7.0500     5.7230     3.6910 H     1 <1>   0.1500 
 46 H        8.4530     7.5840     0.0980 H     1 <1>   0.1500 
 47 H        8.8440     6.8750     2.4150 H     1 <1>   0.1500 
@<TRIPOS>BOND
  1   1   2  2   
  2   1   3  2   
  3   1   4  am  
  4   1   5  1   
  5   4   6  1   
  6   4   7  1   
  7   5   8  1   
  8   5  27  1   
  9   5  28  1   
 10   6  29  1   
 11   6  30  1   
 12   6  31  1   
 13   7  32  1   
 14   7  33  1   
 15   7  34  1   
 16   8   9  1   
 17   8  10  1   
 18   8  35  1   
 19   9  11  1   
 20   9  12  1   
 21   9  36  1   
 22  10  13  1   
 23  10  37  1   
 24  10  38  1   
 25  11  14  am  
 26  11  39  1   
 27  12  13  1   
 28  12  40  1   
 29  12  41  1   
 30  14  15  2   
 31  14  16  1   
 32  16  17  1   
 33  16  42  1   
 34  16  43  1   
 35  17  18  am  
 36  17  19  1   
 37  18  20  2   
 38  18  21  1   
 39  19  22  ar  
 40  19  23  ar  
 41  21  22  1   
 42  22  24  ar  
 43  23  25  ar  
 44  23  44  1   
 45  24  26  ar  
 46  24  45  1   
 47  25  26  ar  
 48  25  46  1   
 49  26  47  1   
@<TRIPOS>SUBSTRUCTURE
  1 ****  11 GROUP 4 **** **** 0

# MOE 2024.06 (io_trps.svl 2023.06)
