@<TRIPOS>MOLECULE
NONAME
48 51 1 0 0 
SMALL
USER_CHARGES


@<TRIPOS>ATOM
  1 O        0.3810    -0.3410    -2.0990 O.2   1 <1>  -0.5700 
  2 C       -0.3510     0.5270    -1.6870 C.2   1 <1>   0.5690 
  3 N       -1.5320     0.2160    -1.0620 N.am  1 <1>  -0.6600 
  4 C        0.0910     1.9630    -1.9070 C.3   1 <1>   0.1570 
  5 C       -2.5020     1.1640    -0.4490 C.3   1 <1>   0.1400 
  6 C       -1.9370    -1.1850    -0.7920 C.3   1 <1>   0.1400 
  7 N        0.2150     2.7050    -0.6350 N.pl3 1 <1>   0.0480 
  8 C       -3.6580     0.2860     0.0230 C.3   1 <1>   0.2000 
  9 C       -3.0420    -1.0900     0.2610 C.3   1 <1>  -0.0800 
 10 C       -0.4890     3.8200    -0.2960 C.ar  1 <1>  -0.1520 
 11 C        0.9390     2.3810     0.4750 C.2   1 <1>   0.0060 
 12 O       -4.2260     0.7670     1.1900 O.3   1 <1>  -0.6800 
 13 C       -4.0690    -2.2300     0.1860 C.3   1 <1>   0.0200 
 14 C       -0.1420     4.0900     1.0150 C.ar  1 <1>   0.2270 
 15 C       -1.4050     4.6300    -0.9760 C.ar  1 <1>  -0.1500 
 16 N        0.7530     3.1740     1.4700 N.2   1 <1>  -0.5650 
 17 C        1.8790     1.1920     0.5470 C.3   1 <1>  -0.0600 
 18 C       -3.3950    -3.5820     0.3140 C.2   1 <1>  -0.0400 
 19 C       -0.7060     5.1760     1.6800 C.ar  1 <1>  -0.1500 
 20 C       -1.9590     5.7010    -0.3110 C.ar  1 <1>  -0.1500 
 21 O       -2.7310    -3.8810     1.3990 O.3   1 <1>  -0.0190 
 22 C       -3.3180    -4.6300    -0.5190 C.2   1 <1>  -0.1500 
 23 C       -1.6120     5.9750     1.0180 C.ar  1 <1>  -0.1500 
 24 N       -2.2100    -5.0720     1.3340 N.2   1 <1>  -0.4100 
 25 C       -2.5480    -5.5480     0.1900 C.2   1 <1>   0.1080 
 26 C       -2.1560    -6.9200    -0.3100 C.3   1 <1>  -0.0590 
 27 H       -0.6200     2.4520    -2.5430 H     1 <1>   0.0800 
 28 H        1.0460     1.9670    -2.3980 H     1 <1>   0.0800 
 29 H       -2.0410     1.6510     0.3930 H     1 <1>   0.0800 
 30 H       -2.8380     1.8910    -1.1670 H     1 <1>   0.0800 
 31 H       -2.3060    -1.6230    -1.7040 H     1 <1>   0.0800 
 32 H       -1.1030    -1.7670    -0.4330 H     1 <1>   0.0800 
 33 H       -4.4220     0.2490    -0.7360 H     1 <1>   0.0800 
 34 H       -2.5630    -1.1050     1.2250 H     1 <1>   0.0800 
 35 H       -3.5530     0.8370     1.8970 H     1 <1>   0.4000 
 36 H       -4.5990    -2.1880    -0.7490 H     1 <1>   0.0800 
 37 H       -4.7870    -2.1190     0.9800 H     1 <1>   0.0800 
 38 H       -1.6700     4.4260    -1.9970 H     1 <1>   0.1500 
 39 H        2.4800     1.2570     1.4350 H     1 <1>   0.0800 
 40 H        2.5310     1.1740    -0.3070 H     1 <1>   0.0800 
 41 H        1.3170     0.2760     0.5840 H     1 <1>   0.0800 
 42 H       -0.4180     5.3610     2.6980 H     1 <1>   0.1500 
 43 H       -2.6670     6.3420    -0.8070 H     1 <1>   0.1500 
 44 H       -3.7330    -4.7670    -1.5000 H     1 <1>   0.1500 
 45 H       -2.0580     6.8180     1.5170 H     1 <1>   0.1500 
 46 H       -3.0370    -7.4980    -0.5210 H     1 <1>   0.0800 
 47 H       -1.5760    -7.4310     0.4380 H     1 <1>   0.0800 
 48 H       -1.5670    -6.8280    -1.2040 H     1 <1>   0.0800 
@<TRIPOS>BOND
  1   1   2  2   
  2   2   3  am  
  3   2   4  1   
  4   3   5  1   
  5   3   6  1   
  6   4   7  1   
  7   4  27  1   
  8   4  28  1   
  9   5   8  1   
 10   5  29  1   
 11   5  30  1   
 12   6   9  1   
 13   6  31  1   
 14   6  32  1   
 15   7  10  1   
 16   7  11  1   
 17   8   9  1   
 18   8  12  1   
 19   8  33  1   
 20   9  13  1   
 21   9  34  1   
 22  10  14  ar  
 23  10  15  ar  
 24  11  16  2   
 25  11  17  1   
 26  12  35  1   
 27  13  18  1   
 28  13  36  1   
 29  13  37  1   
 30  14  16  1   
 31  14  19  ar  
 32  15  20  ar  
 33  15  38  1   
 34  17  39  1   
 35  17  40  1   
 36  17  41  1   
 37  18  21  1   
 38  18  22  2   
 39  19  23  ar  
 40  19  42  1   
 41  20  23  ar  
 42  20  43  1   
 43  21  24  1   
 44  22  25  1   
 45  22  44  1   
 46  23  45  1   
 47  24  25  2   
 48  25  26  1   
 49  26  46  1   
 50  26  47  1   
 51  26  48  1   
@<TRIPOS>SUBSTRUCTURE
  1 ****   3 GROUP 4 **** **** 0

# MOE 2024.06 (io_trps.svl 2023.06)
