@<TRIPOS>MOLECULE
NONAME
58 61 1 0 0 
SMALL
USER_CHARGES


@<TRIPOS>ATOM
  1 O       -0.3540     0.5010    -1.1620 O.2   1 <1>  -0.5700 
  2 C       -0.3360     1.6380    -0.7500 C.2   1 <1>   0.5690 
  3 N       -1.4750     2.3100    -0.3970 N.am  1 <1>  -0.6600 
  4 C        1.0180     2.3420    -0.6570 C.3   1 <1>   0.1810 
  5 C       -1.4310     3.7290     0.0980 C.3   1 <1>   0.3640 
  6 C       -2.8140     1.6510    -0.3900 C.3   1 <1>   0.0600 
  7 O        1.0110     3.4340     0.2270 O.3   1 <1>  -0.5600 
  8 C       -2.4660     4.5530    -0.6890 C.ar  1 <1>  -0.1430 
  9 C       -0.0200     4.3740    -0.0220 C.3   1 <1>   0.2610 
 10 C       -3.5490     5.1920    -0.0820 C.ar  1 <1>  -0.1430 
 11 C       -2.3190     4.6520    -2.0690 C.ar  1 <1>  -0.1500 
 12 C        0.1530     5.6040     0.8890 C.2   1 <1>   0.5690 
 13 C       -4.4300     5.9320    -0.8580 C.ar  1 <1>  -0.1500 
 14 C       -3.8270     5.1110     1.4150 C.3   1 <1>  -0.0960 
 15 C       -3.2040     5.3880    -2.8340 C.ar  1 <1>  -0.1500 
 16 O       -0.6080     5.7490     1.8210 O.2   1 <1>  -0.5700 
 17 N        1.1600     6.5170     0.6570 N.am  1 <1>  -0.6600 
 18 C       -4.2600     6.0340    -2.2250 C.ar  1 <1>  -0.1500 
 19 C        2.2340     6.3060    -0.3630 C.3   1 <1>   0.1400 
 20 C        1.3220     7.7050     1.5520 C.3   1 <1>   0.1400 
 21 C        2.8980     7.6340    -0.7320 C.3   1 <1>  -0.1600 
 22 C        2.8090     7.9870     1.7860 C.3   1 <1>  -0.1600 
 23 C        3.5650     8.3390     0.4800 C.3   1 <1>   0.0000 
 24 C        5.0460     7.9040     0.6140 C.3   1 <1>  -0.1600 
 25 C        3.5520     9.8640     0.2490 C.3   1 <1>  -0.1600 
 26 C        6.0280     8.7700    -0.1970 C.3   1 <1>   0.1200 
 27 C        4.3970    10.2870    -0.9710 C.3   1 <1>   0.1200 
 28 O        5.3740     9.3360    -1.2870 O.3   1 <1>  -0.5600 
 29 H        1.3100     2.6900    -1.6300 H     1 <1>   0.0800 
 30 H        1.7540     1.6430    -0.3030 H     1 <1>   0.0800 
 31 H       -1.6890     3.7010     1.1400 H     1 <1>   0.0800 
 32 H       -3.2880     1.7940     0.5640 H     1 <1>   0.0800 
 33 H       -2.7200     0.5940    -0.5710 H     1 <1>   0.0800 
 34 H       -3.4350     2.0760    -1.1600 H     1 <1>   0.0800 
 35 H        0.1010     4.7090    -1.0330 H     1 <1>   0.0800 
 36 H       -1.5110     4.1430    -2.5660 H     1 <1>   0.1500 
 37 H       -5.2620     6.4370    -0.3990 H     1 <1>   0.1500 
 38 H       -4.8110     5.4780     1.6420 H     1 <1>   0.0800 
 39 H       -3.1190     5.7090     1.9580 H     1 <1>   0.0800 
 40 H       -3.7710     4.0950     1.7590 H     1 <1>   0.0800 
 41 H       -3.0720     5.4560    -3.8990 H     1 <1>   0.1500 
 42 H       -4.9520     6.6120    -2.8130 H     1 <1>   0.1500 
 43 H        2.9690     5.6280     0.0390 H     1 <1>   0.0800 
 44 H        1.8250     5.8710    -1.2560 H     1 <1>   0.0800 
 45 H        0.8490     8.5570     1.0970 H     1 <1>   0.0800 
 46 H        0.8460     7.5250     2.5010 H     1 <1>   0.0800 
 47 H        3.6220     7.4590    -1.5080 H     1 <1>   0.0800 
 48 H        2.1370     8.2650    -1.1580 H     1 <1>   0.0800 
 49 H        2.9120     8.7790     2.5050 H     1 <1>   0.0800 
 50 H        3.2300     7.1020     2.2320 H     1 <1>   0.0800 
 51 H        5.1560     6.8760     0.3210 H     1 <1>   0.0800 
 52 H        5.3580     7.9640     1.6420 H     1 <1>   0.0800 
 53 H        3.9580    10.3580     1.1150 H     1 <1>   0.0800 
 54 H        2.5470    10.2270     0.1280 H     1 <1>   0.0800 
 55 H        6.8430     8.1750    -0.5690 H     1 <1>   0.0800 
 56 H        6.4270     9.5700     0.4040 H     1 <1>   0.0800 
 57 H        4.8860    11.2280    -0.7890 H     1 <1>   0.0800 
 58 H        3.7690    10.3880    -1.8390 H     1 <1>   0.0800 
@<TRIPOS>BOND
  1   1   2  2   
  2   2   3  am  
  3   2   4  1   
  4   3   5  1   
  5   3   6  1   
  6   4   7  1   
  7   4  29  1   
  8   4  30  1   
  9   5   8  1   
 10   5   9  1   
 11   5  31  1   
 12   6  32  1   
 13   6  33  1   
 14   6  34  1   
 15   7   9  1   
 16   8  10  ar  
 17   8  11  ar  
 18   9  12  1   
 19   9  35  1   
 20  10  13  ar  
 21  10  14  1   
 22  11  15  ar  
 23  11  36  1   
 24  12  16  2   
 25  12  17  am  
 26  13  18  ar  
 27  13  37  1   
 28  14  38  1   
 29  14  39  1   
 30  14  40  1   
 31  15  18  ar  
 32  15  41  1   
 33  17  19  1   
 34  17  20  1   
 35  18  42  1   
 36  19  21  1   
 37  19  43  1   
 38  19  44  1   
 39  20  22  1   
 40  20  45  1   
 41  20  46  1   
 42  21  23  1   
 43  21  47  1   
 44  21  48  1   
 45  22  23  1   
 46  22  49  1   
 47  22  50  1   
 48  23  24  1   
 49  23  25  1   
 50  24  26  1   
 51  24  51  1   
 52  24  52  1   
 53  25  27  1   
 54  25  53  1   
 55  25  54  1   
 56  26  28  1   
 57  26  55  1   
 58  26  56  1   
 59  27  28  1   
 60  27  57  1   
 61  27  58  1   
@<TRIPOS>SUBSTRUCTURE
  1 ****  12 GROUP 4 **** **** 0

# MOE 2024.06 (io_trps.svl 2023.06)
