@<TRIPOS>MOLECULE
NONAME
58 60 1 0 0 
SMALL
USER_CHARGES


@<TRIPOS>ATOM
  1 O       -2.7270     1.8420     2.2810 O.2   1 <1>  -0.5700 
  2 C       -2.8260     1.6450     1.0870 C.2   1 <1>   0.5690 
  3 N       -3.9430     0.9550     0.6240 N.am  1 <1>  -0.6600 
  4 C       -1.6730     2.1880     0.1560 C.3   1 <1>   0.3410 
  5 C       -4.2470     0.4980    -0.7620 C.3   1 <1>   0.1400 
  6 C       -5.0220     0.5430     1.5760 C.3   1 <1>   0.1400 
  7 O       -0.7310     2.8900     0.9520 O.3   1 <1>  -0.5600 
  8 C       -0.9050     1.0250    -0.5100 C.3   1 <1>  -0.2400 
  9 C       -2.2190     3.2080    -0.8680 C.3   1 <1>  -0.2400 
 10 C       -4.3160    -1.0310    -0.7810 C.3   1 <1>  -0.1600 
 11 C       -5.1200    -0.9840     1.6010 C.3   1 <1>  -0.1600 
 12 C        0.4140     3.4740     0.4090 C.3   1 <1>   0.1200 
 13 C       -5.3720    -1.5640     0.2020 C.3   1 <1>   0.4240 
 14 C        1.1570     4.1460     1.5560 C.3   1 <1>  -0.2400 
 15 O       -6.6250    -1.0540    -0.1920 O.3   1 <1>  -0.5600 
 16 C       -5.3690    -3.1070     0.2450 C.ar  1 <1>  -0.1430 
 17 C       -7.3220    -1.7430    -1.1830 C.3   1 <1>   0.1200 
 18 C       -6.4770    -3.8430    -0.1530 C.ar  1 <1>  -0.1430 
 19 C       -4.2440    -3.7970     0.6790 C.ar  1 <1>  -0.1500 
 20 C       -7.7120    -3.1170    -0.6480 C.3   1 <1>  -0.0170 
 21 C       -6.4610    -5.2270    -0.0990 C.ar  1 <1>  -0.1500 
 22 C       -4.2030    -5.1800     0.7260 C.ar  1 <1>   0.0820 
 23 C       -5.3370    -5.9170     0.3460 C.ar  1 <1>   0.0820 
 24 O       -3.0160    -5.6950     1.1590 O.3   1 <1>  -0.3630 
 25 O       -5.3330    -7.2800     0.4290 O.3   1 <1>  -0.3620 
 26 C       -2.5810    -6.9840     0.7900 C.3   1 <1>   0.0400 
 27 C       -6.5160    -8.0410     0.3220 C.3   1 <1>   0.0400 
 28 H       -3.5130     0.8230    -1.4690 H     1 <1>   0.0800 
 29 H       -5.1950     0.9090    -1.0660 H     1 <1>   0.0800 
 30 H       -5.9580     0.9660     1.2530 H     1 <1>   0.0800 
 31 H       -4.8310     0.9030     2.5710 H     1 <1>   0.0800 
 32 H       -0.3620     0.4850     0.2450 H     1 <1>   0.0800 
 33 H       -0.2210     1.3850    -1.2550 H     1 <1>   0.0800 
 34 H       -1.5590     0.3300    -0.9900 H     1 <1>   0.0800 
 35 H       -2.5160     4.1020    -0.3490 H     1 <1>   0.0800 
 36 H       -3.0790     2.8430    -1.3860 H     1 <1>   0.0800 
 37 H       -1.4800     3.4530    -1.6070 H     1 <1>   0.0800 
 38 H       -3.3500    -1.4160    -0.5120 H     1 <1>   0.0800 
 39 H       -4.5290    -1.3800    -1.7740 H     1 <1>   0.0800 
 40 H       -5.9150    -1.2890     2.2560 H     1 <1>   0.0800 
 41 H       -4.2030    -1.3680     2.0070 H     1 <1>   0.0800 
 42 H        0.1350     4.2080    -0.3260 H     1 <1>   0.0800 
 43 H        1.0340     2.7140    -0.0330 H     1 <1>   0.0800 
 44 H        0.5340     4.8970     2.0070 H     1 <1>   0.0800 
 45 H        2.0520     4.6130     1.1890 H     1 <1>   0.0800 
 46 H        1.4260     3.4140     2.2960 H     1 <1>   0.0800 
 47 H       -6.7020    -1.8290    -2.0580 H     1 <1>   0.0800 
 48 H       -8.2000    -1.1710    -1.4270 H     1 <1>   0.0800 
 49 H       -3.3640    -3.2640     0.9900 H     1 <1>   0.1500 
 50 H       -8.1860    -3.6790    -1.4320 H     1 <1>   0.0800 
 51 H       -8.4130    -3.0010     0.1580 H     1 <1>   0.0800 
 52 H       -7.3410    -5.7540    -0.4120 H     1 <1>   0.1500 
 53 H       -1.5250    -7.0490     0.9810 H     1 <1>   0.0800 
 54 H       -2.7780    -7.1350    -0.2560 H     1 <1>   0.0800 
 55 H       -3.1030    -7.7100     1.3870 H     1 <1>   0.0800 
 56 H       -6.2740    -9.0660     0.5390 H     1 <1>   0.0800 
 57 H       -6.8950    -7.9610    -0.6810 H     1 <1>   0.0800 
 58 H       -7.2320    -7.6760     1.0380 H     1 <1>   0.0800 
@<TRIPOS>BOND
  1   1   2  2   
  2   2   3  am  
  3   2   4  1   
  4   3   5  1   
  5   3   6  1   
  6   4   7  1   
  7   4   8  1   
  8   4   9  1   
  9   5  10  1   
 10   5  28  1   
 11   5  29  1   
 12   6  11  1   
 13   6  30  1   
 14   6  31  1   
 15   7  12  1   
 16   8  32  1   
 17   8  33  1   
 18   8  34  1   
 19   9  35  1   
 20   9  36  1   
 21   9  37  1   
 22  10  13  1   
 23  10  38  1   
 24  10  39  1   
 25  11  13  1   
 26  11  40  1   
 27  11  41  1   
 28  12  14  1   
 29  12  42  1   
 30  12  43  1   
 31  13  15  1   
 32  13  16  1   
 33  14  44  1   
 34  14  45  1   
 35  14  46  1   
 36  15  17  1   
 37  16  18  ar  
 38  16  19  ar  
 39  17  20  1   
 40  17  47  1   
 41  17  48  1   
 42  18  20  1   
 43  18  21  ar  
 44  19  22  ar  
 45  19  49  1   
 46  20  50  1   
 47  20  51  1   
 48  21  23  ar  
 49  21  52  1   
 50  22  23  ar  
 51  22  24  1   
 52  23  25  1   
 53  24  26  1   
 54  25  27  1   
 55  26  53  1   
 56  26  54  1   
 57  26  55  1   
 58  27  56  1   
 59  27  57  1   
 60  27  58  1   
@<TRIPOS>SUBSTRUCTURE
  1 ****  10 GROUP 4 **** **** 0

# MOE 2024.06 (io_trps.svl 2023.06)
