@<TRIPOS>MOLECULE
NONAME
58 60 1 0 0 
SMALL
USER_CHARGES


@<TRIPOS>ATOM
  1 O       -1.3320     0.1790     1.7180 O.co2 1 <1>  -0.9000 
  2 C       -1.3620     0.9680     0.7540 C.2   1 <1>   0.9060 
  3 O       -0.8440     0.5920    -0.3080 O.co2 1 <1>  -0.9000 
  4 C       -2.3410     2.1820     0.8270 C.3   1 <1>   0.2280 
  5 N       -3.7300     1.9050     0.2700 N.3   1 <1>  -0.8100 
  6 C       -1.8190     3.5430     0.3220 C.ar  1 <1>  -0.1440 
  7 C       -4.2640     0.6110     0.7440 C.3   1 <1>   0.1100 
  8 C       -3.8510     2.1370    -1.1800 C.3   1 <1>   0.1100 
  9 C       -2.2160     4.7180     0.9610 C.ar  1 <1>   0.0830 
 10 C       -0.9650     3.6350    -0.7710 C.ar  1 <1>  -0.1500 
 11 C       -4.4950    -0.4950    -0.3410 C.3   1 <1>   0.5030 
 12 C       -5.1130     1.4920    -1.8000 C.3   1 <1>   0.3430 
 13 O       -3.0490     4.6180     2.0330 O.3   1 <1>  -0.3630 
 14 C       -1.7610     5.9490     0.4950 C.ar  1 <1>  -0.1500 
 15 C       -0.5090     4.8580    -1.2310 C.ar  1 <1>  -0.1440 
 16 N       -5.4640     0.0670    -1.3630 N.4   1 <1>  -0.9590 
 17 C       -5.0420    -1.7440     0.3770 C.3   1 <1>  -0.1600 
 18 C       -3.2910    -1.0150    -1.1660 C.3   1 <1>  -0.1600 
 19 C       -3.3670     5.7290     2.8390 C.3   1 <1>   0.0400 
 20 C       -0.9140     6.0170    -0.5950 C.ar  1 <1>  -0.1500 
 21 C        0.4280     4.9130    -2.4240 C.3   1 <1>  -0.0970 
 22 C       -6.9010     0.0760    -0.9380 C.3   1 <1>   0.2630 
 23 C       -4.0210    -2.3510     1.3620 C.3   1 <1>   0.3430 
 24 C       -2.3170    -1.9650    -0.4650 C.3   1 <1>   0.3430 
 25 N       -2.6060    -2.0860     0.9790 N.4   1 <1>  -0.9590 
 26 C       -1.6350    -3.0040     1.6340 C.3   1 <1>   0.2630 
 27 H       -2.4720     2.3020     1.8860 H     1 <1>   0.0800 
 28 H       -5.2200     0.8280     1.1870 H     1 <1>   0.0800 
 29 H       -3.6770     0.2450     1.5620 H     1 <1>   0.0800 
 30 H       -2.9670     1.7960    -1.6880 H     1 <1>   0.0800 
 31 H       -3.8950     3.2000    -1.3480 H     1 <1>   0.0800 
 32 H       -0.6390     2.7460    -1.2810 H     1 <1>   0.1500 
 33 H       -5.0110     1.5230    -2.8720 H     1 <1>   0.0800 
 34 H       -5.9340     2.1430    -1.5510 H     1 <1>   0.0800 
 35 H       -2.0540     6.8670     0.9640 H     1 <1>   0.1500 
 36 H       -5.3800    -0.5220    -2.1980 H     1 <1>   0.4500 
 37 H       -5.2990    -2.4980    -0.3450 H     1 <1>   0.0800 
 38 H       -5.9260    -1.5150     0.9430 H     1 <1>   0.0800 
 39 H       -2.7140    -0.2190    -1.5800 H     1 <1>   0.0800 
 40 H       -3.6600    -1.5640    -2.0120 H     1 <1>   0.0800 
 41 H       -3.9750     5.3850     3.6560 H     1 <1>   0.0800 
 42 H       -3.9160     6.4410     2.2500 H     1 <1>   0.0800 
 43 H       -2.4550     6.1570     3.2160 H     1 <1>   0.0800 
 44 H       -0.5700     6.9740    -0.9440 H     1 <1>   0.1500 
 45 H        1.1650     4.1330    -2.3480 H     1 <1>   0.0800 
 46 H        0.9370     5.8580    -2.4670 H     1 <1>   0.0800 
 47 H       -0.1300     4.7750    -3.3320 H     1 <1>   0.0800 
 48 H       -7.0240     0.6800    -0.0540 H     1 <1>   0.0800 
 49 H       -7.2440    -0.9240    -0.7300 H     1 <1>   0.0800 
 50 H       -7.5180     0.4880    -1.7200 H     1 <1>   0.0800 
 51 H       -4.1860    -3.4150     1.4220 H     1 <1>   0.0800 
 52 H       -4.1860    -1.9410     2.3460 H     1 <1>   0.0800 
 53 H       -1.3090    -1.5960    -0.5940 H     1 <1>   0.0800 
 54 H       -2.3720    -2.9380    -0.9240 H     1 <1>   0.0800 
 55 H       -2.2830    -1.1500     1.3570 H     1 <1>   0.4500 
 56 H       -1.7640    -4.0130     1.2800 H     1 <1>   0.0800 
 57 H       -1.7680    -2.9820     2.7040 H     1 <1>   0.0800 
 58 H       -0.6290    -2.6790     1.4170 H     1 <1>   0.0800 
@<TRIPOS>BOND
  1   1   2  ar  
  2   2   3  ar  
  3   2   4  1   
  4   4   5  1   
  5   4   6  1   
  6   4  27  1   
  7   5   7  1   
  8   5   8  1   
  9   6   9  ar  
 10   6  10  ar  
 11   7  11  1   
 12   7  28  1   
 13   7  29  1   
 14   8  12  1   
 15   8  30  1   
 16   8  31  1   
 17   9  13  1   
 18   9  14  ar  
 19  10  15  ar  
 20  10  32  1   
 21  11  16  1   
 22  11  17  1   
 23  11  18  1   
 24  12  16  1   
 25  12  33  1   
 26  12  34  1   
 27  13  19  1   
 28  14  20  ar  
 29  14  35  1   
 30  15  20  ar  
 31  15  21  1   
 32  16  22  1   
 33  16  36  1   
 34  17  23  1   
 35  17  37  1   
 36  17  38  1   
 37  18  24  1   
 38  18  39  1   
 39  18  40  1   
 40  19  41  1   
 41  19  42  1   
 42  19  43  1   
 43  20  44  1   
 44  21  45  1   
 45  21  46  1   
 46  21  47  1   
 47  22  48  1   
 48  22  49  1   
 49  22  50  1   
 50  23  25  1   
 51  23  51  1   
 52  23  52  1   
 53  24  25  1   
 54  24  53  1   
 55  24  54  1   
 56  25  26  1   
 57  25  55  1   
 58  26  56  1   
 59  26  57  1   
 60  26  58  1   
@<TRIPOS>SUBSTRUCTURE
  1 ****   5 GROUP 4 **** **** 0

# MOE 2024.06 (io_trps.svl 2023.06)
