@<TRIPOS>MOLECULE
NONAME
50 50 1 0 0 
SMALL
USER_CHARGES


@<TRIPOS>ATOM
  1 S        0.5510     0.6640     0.7480 S.3   1 <1>  -0.4600 
  2 C        0.5500    -1.1110     0.3840 C.3   1 <1>   0.1500 
  3 C        1.6420     1.3830    -0.4990 C.3   1 <1>   0.0700 
  4 C       -0.6580    -1.7070     1.1010 C.3   1 <1>  -0.2400 
  5 C        1.8670    -1.6970     0.8900 C.3   1 <1>  -0.2400 
  6 C        1.6160     2.8960    -0.2630 C.3   1 <1>   0.3430 
  7 N        2.6070     3.6400    -1.1180 N.4   1 <1>  -0.9590 
  8 C        2.7340     5.0780    -0.7110 C.3   1 <1>   0.3430 
  9 C        2.2370     3.5500    -2.5690 C.3   1 <1>   0.2630 
 10 C        3.4200     5.2480     0.6610 C.3   1 <1>  -0.0800 
 11 C        3.5430     6.7490     1.0070 C.3   1 <1>   0.3430 
 12 C        4.7840     4.5160     0.7320 C.3   1 <1>  -0.1600 
 13 N        4.8870     7.2590     0.6140 N.4   1 <1>  -0.9590 
 14 C        5.7200     5.1900     1.7500 C.3   1 <1>  -0.1600 
 15 C        5.9950     6.6690     1.4290 C.3   1 <1>   0.3430 
 16 C        4.9540     8.7510     0.5410 C.3   1 <1>   0.3430 
 17 C        4.2140     9.2590    -0.7170 C.3   1 <1>   0.1200 
 18 O        4.1920     8.2700    -1.7140 O.3   1 <1>  -0.6800 
 19 H        0.4520    -1.2280    -0.6820 H     1 <1>   0.0800 
 20 H        1.2480     1.1080    -1.4610 H     1 <1>   0.0800 
 21 H        2.6200     0.9660    -0.3420 H     1 <1>   0.0800 
 22 H       -0.5830    -1.5460     2.1620 H     1 <1>   0.0800 
 23 H       -0.7140    -2.7650     0.9170 H     1 <1>   0.0800 
 24 H       -1.5630    -1.2500     0.7440 H     1 <1>   0.0800 
 25 H        1.9830    -1.5040     1.9420 H     1 <1>   0.0800 
 26 H        2.7020    -1.2770     0.3610 H     1 <1>   0.0800 
 27 H        1.8750    -2.7620     0.7370 H     1 <1>   0.0800 
 28 H        1.8380     3.0630     0.7780 H     1 <1>   0.0800 
 29 H        0.6190     3.2610    -0.4500 H     1 <1>   0.0800 
 30 H        3.5280     3.1920    -0.9960 H     1 <1>   0.4500 
 31 H        1.7560     5.5320    -0.6880 H     1 <1>   0.0800 
 32 H        3.3180     5.6030    -1.4520 H     1 <1>   0.0800 
 33 H        1.2640     3.9840    -2.7380 H     1 <1>   0.0800 
 34 H        2.2130     2.5210    -2.8910 H     1 <1>   0.0800 
 35 H        2.9570     4.0760    -3.1750 H     1 <1>   0.0800 
 36 H        2.7680     4.8360     1.4110 H     1 <1>   0.0800 
 37 H        3.4180     6.8810     2.0700 H     1 <1>   0.0800 
 38 H        2.7680     7.3080     0.5080 H     1 <1>   0.0800 
 39 H        5.2710     4.5330    -0.2300 H     1 <1>   0.0800 
 40 H        4.6390     3.4840     1.0100 H     1 <1>   0.0800 
 41 H        5.0310     6.9950    -0.3760 H     1 <1>   0.4500 
 42 H        6.6590     4.6650     1.7940 H     1 <1>   0.0800 
 43 H        5.2850     5.1250     2.7340 H     1 <1>   0.0800 
 44 H        6.1090     7.2130     2.3540 H     1 <1>   0.0800 
 45 H        6.9200     6.7510     0.8810 H     1 <1>   0.0800 
 46 H        5.9850     9.0580     0.4640 H     1 <1>   0.0800 
 47 H        4.5440     9.2040     1.4290 H     1 <1>   0.0800 
 48 H        4.7090    10.1340    -1.1060 H     1 <1>   0.0800 
 49 H        3.1970     9.5200    -0.4790 H     1 <1>   0.0800 
 50 H        3.9700     8.6770    -2.5840 H     1 <1>   0.4000 
@<TRIPOS>BOND
  1   1   2  1   
  2   1   3  1   
  3   2   4  1   
  4   2   5  1   
  5   2  19  1   
  6   3   6  1   
  7   3  20  1   
  8   3  21  1   
  9   4  22  1   
 10   4  23  1   
 11   4  24  1   
 12   5  25  1   
 13   5  26  1   
 14   5  27  1   
 15   6   7  1   
 16   6  28  1   
 17   6  29  1   
 18   7   8  1   
 19   7   9  1   
 20   7  30  1   
 21   8  10  1   
 22   8  31  1   
 23   8  32  1   
 24   9  33  1   
 25   9  34  1   
 26   9  35  1   
 27  10  11  1   
 28  10  12  1   
 29  10  36  1   
 30  11  13  1   
 31  11  37  1   
 32  11  38  1   
 33  12  14  1   
 34  12  39  1   
 35  12  40  1   
 36  13  15  1   
 37  13  16  1   
 38  13  41  1   
 39  14  15  1   
 40  14  42  1   
 41  14  43  1   
 42  15  44  1   
 43  15  45  1   
 44  16  17  1   
 45  16  46  1   
 46  16  47  1   
 47  17  18  1   
 48  17  48  1   
 49  17  49  1   
 50  18  50  1   
@<TRIPOS>SUBSTRUCTURE
  1 ****  10 GROUP 4 **** **** 0

# MOE 2024.06 (io_trps.svl 2023.06)
