@<TRIPOS>MOLECULE
NONAME
41 42 1 0 0 
SMALL
USER_CHARGES


@<TRIPOS>ATOM
  1 O        0.3560    -0.7930    -0.9630 O.2   1 <1>  -0.5700 
  2 C        1.3610    -1.1910    -0.4120 C.2   1 <1>   0.6900 
  3 N        1.3330    -2.3020     0.4030 N.am  1 <1>  -0.4200 
  4 N        2.5510    -0.5560    -0.6240 N.am  1 <1>  -0.5390 
  5 C        2.5140    -2.8430     0.8760 C.2   1 <1>   0.6160 
  6 C        0.0390    -2.9420     0.7510 C.3   1 <1>   0.1400 
  7 C        3.7450    -1.0110    -0.1020 C.2   1 <1>  -0.0290 
  8 O        2.4820    -3.9180     1.4490 O.2   1 <1>  -0.5700 
  9 C        3.7320    -2.1430     0.6370 C.2   1 <1>  -0.1360 
 10 C       -0.1440    -4.2010    -0.1080 C.3   1 <1>   0.3430 
 11 C        4.9860    -0.1990    -0.4090 C.3   1 <1>  -0.1020 
 12 N       -1.3720    -4.9850     0.2600 N.4   1 <1>  -0.9590 
 13 C       -1.3530    -6.3860    -0.3030 C.3   1 <1>   0.4230 
 14 C       -2.5980    -4.2400    -0.1700 C.3   1 <1>   0.3430 
 15 C       -2.6170    -7.1300     0.1740 C.3   1 <1>  -0.1600 
 16 C       -0.0770    -7.1770     0.0950 C.3   1 <1>   0.1200 
 17 C       -3.8520    -4.9490     0.3360 C.3   1 <1>  -0.1600 
 18 C       -3.9120    -6.3900    -0.1750 C.3   1 <1>  -0.1600 
 19 O       -0.1030    -8.4400    -0.4800 O.3   1 <1>  -0.6800 
 20 H        2.5000     0.2790    -1.2110 H     1 <1>   0.3700 
 21 H       -0.7680    -2.2480     0.5910 H     1 <1>   0.0800 
 22 H        0.0570    -3.2080     1.7940 H     1 <1>   0.0800 
 23 H        4.6180    -2.5670     1.0710 H     1 <1>   0.1500 
 24 H        0.7320    -4.8080     0.0370 H     1 <1>   0.0800 
 25 H       -0.1900    -3.9170    -1.1470 H     1 <1>   0.0800 
 26 H        4.8770     0.8010    -0.0280 H     1 <1>   0.0800 
 27 H        5.1440    -0.1510    -1.4720 H     1 <1>   0.0800 
 28 H        5.8530    -0.6450     0.0440 H     1 <1>   0.0800 
 29 H       -1.4110    -5.0910     1.2810 H     1 <1>   0.4500 
 30 H       -1.3770    -6.3250    -1.3790 H     1 <1>   0.0800 
 31 H       -2.6300    -4.1810    -1.2460 H     1 <1>   0.0800 
 32 H       -2.5820    -3.2350     0.2210 H     1 <1>   0.0800 
 33 H       -2.5620    -7.2880     1.2370 H     1 <1>   0.0800 
 34 H       -2.6520    -8.1020    -0.2870 H     1 <1>   0.0800 
 35 H       -0.0220    -7.3020     1.1630 H     1 <1>   0.0800 
 36 H        0.8140    -6.6950    -0.2630 H     1 <1>   0.0800 
 37 H       -4.7200    -4.4140    -0.0080 H     1 <1>   0.0800 
 38 H       -3.8690    -4.9340     1.4120 H     1 <1>   0.0800 
 39 H       -4.7550    -6.9000     0.2620 H     1 <1>   0.0800 
 40 H       -4.0490    -6.3900    -1.2440 H     1 <1>   0.0800 
 41 H        0.6900    -8.9640    -0.2380 H     1 <1>   0.4000 
@<TRIPOS>BOND
  1   1   2  2   
  2   2   3  am  
  3   2   4  am  
  4   3   5  am  
  5   3   6  1   
  6   4   7  1   
  7   4  20  1   
  8   5   8  2   
  9   5   9  1   
 10   6  10  1   
 11   6  21  1   
 12   6  22  1   
 13   7   9  2   
 14   7  11  1   
 15   9  23  1   
 16  10  12  1   
 17  10  24  1   
 18  10  25  1   
 19  11  26  1   
 20  11  27  1   
 21  11  28  1   
 22  12  13  1   
 23  12  14  1   
 24  12  29  1   
 25  13  15  1   
 26  13  16  1   
 27  13  30  1   
 28  14  17  1   
 29  14  31  1   
 30  14  32  1   
 31  15  18  1   
 32  15  33  1   
 33  15  34  1   
 34  16  19  1   
 35  16  35  1   
 36  16  36  1   
 37  17  18  1   
 38  17  37  1   
 39  17  38  1   
 40  18  39  1   
 41  18  40  1   
 42  19  41  1   
@<TRIPOS>SUBSTRUCTURE
  1 ****  10 GROUP 4 **** **** 0

# MOE 2024.06 (io_trps.svl 2023.06)
