@<TRIPOS>MOLECULE
NONAME
40 42 1 0 0 
SMALL
USER_CHARGES


@<TRIPOS>ATOM
  1 O       -1.7240    -1.9730    -0.2640 O.3   1 <1>  -0.5600 
  2 C       -1.5750    -1.2600     0.9220 C.3   1 <1>   0.1200 
  3 C       -1.5990    -1.2690    -1.4540 C.3   1 <1>   0.1200 
  4 C       -2.6910    -0.2180     1.1650 C.3   1 <1>   0.4230 
  5 C       -2.8430    -0.4060    -1.7220 C.3   1 <1>  -0.0800 
  6 N       -2.4540     1.0550     0.3750 N.4   1 <1>  -0.9590 
  7 C       -4.1170    -0.8290     1.0330 C.3   1 <1>   0.1100 
  8 C       -4.1750    -1.1160    -1.4030 C.3   1 <1>   0.1100 
  9 C       -2.7690     0.9930    -1.0960 C.3   1 <1>   0.3430 
 10 C       -3.2440     2.1720     0.9720 C.3   1 <1>   0.2630 
 11 N       -4.8480    -0.5320    -0.2260 N.3   1 <1>  -0.8100 
 12 C       -6.2720    -0.9370    -0.1500 C.3   1 <1>   0.2530 
 13 C       -6.4620    -2.4080     0.2080 C.ar  1 <1>  -0.1430 
 14 C       -6.7140    -2.8120     1.5060 C.ar  1 <1>  -0.1500 
 15 C       -6.4140    -3.4130    -0.7390 C.ar  1 <1>  -0.1500 
 16 C       -6.8810    -4.1580     1.7870 C.ar  1 <1>   0.1600 
 17 C       -6.5920    -4.7310    -0.3520 C.ar  1 <1>   0.1600 
 18 N       -6.8200    -5.1260     0.8890 N.ar  1 <1>  -0.6200 
 19 H       -1.6070    -1.9890     1.7130 H     1 <1>   0.0800 
 20 H       -0.6010    -0.8040     0.9350 H     1 <1>   0.0800 
 21 H       -0.6920    -0.6880    -1.4360 H     1 <1>   0.0800 
 22 H       -1.5080    -2.0080    -2.2330 H     1 <1>   0.0800 
 23 H       -2.5850     0.0410     2.2050 H     1 <1>   0.0800 
 24 H       -2.8470    -0.2430    -2.7840 H     1 <1>   0.0800 
 25 H       -1.4560     1.2750     0.4610 H     1 <1>   0.4500 
 26 H       -4.7010    -0.4550     1.8550 H     1 <1>   0.0800 
 27 H       -4.0480    -1.8970     1.1660 H     1 <1>   0.0800 
 28 H       -4.0170    -2.1730    -1.2570 H     1 <1>   0.0800 
 29 H       -4.8230    -1.0040    -2.2560 H     1 <1>   0.0800 
 30 H       -3.7260     1.4590    -1.2660 H     1 <1>   0.0800 
 31 H       -2.0350     1.5720    -1.6320 H     1 <1>   0.0800 
 32 H       -4.2990     1.9650     0.8790 H     1 <1>   0.0800 
 33 H       -3.0290     3.0980     0.4640 H     1 <1>   0.0800 
 34 H       -3.0040     2.2880     2.0170 H     1 <1>   0.0800 
 35 H       -6.7660    -0.3300     0.5890 H     1 <1>   0.0800 
 36 H       -6.7540    -0.7340    -1.0920 H     1 <1>   0.0800 
 37 H       -6.7850    -2.0960     2.3030 H     1 <1>   0.1500 
 38 H       -6.2400    -3.1880    -1.7740 H     1 <1>   0.1500 
 39 H       -7.0750    -4.4540     2.8030 H     1 <1>   0.1500 
 40 H       -6.5460    -5.5010    -1.1040 H     1 <1>   0.1500 
@<TRIPOS>BOND
  1   1   2  1   
  2   1   3  1   
  3   2   4  1   
  4   2  19  1   
  5   2  20  1   
  6   3   5  1   
  7   3  21  1   
  8   3  22  1   
  9   4   6  1   
 10   4   7  1   
 11   4  23  1   
 12   5   8  1   
 13   5   9  1   
 14   5  24  1   
 15   6   9  1   
 16   6  10  1   
 17   6  25  1   
 18   7  11  1   
 19   7  26  1   
 20   7  27  1   
 21   8  11  1   
 22   8  28  1   
 23   8  29  1   
 24   9  30  1   
 25   9  31  1   
 26  10  32  1   
 27  10  33  1   
 28  10  34  1   
 29  11  12  1   
 30  12  13  1   
 31  12  35  1   
 32  12  36  1   
 33  13  14  ar  
 34  13  15  ar  
 35  14  16  ar  
 36  14  37  1   
 37  15  17  ar  
 38  15  38  1   
 39  16  18  ar  
 40  16  39  1   
 41  17  18  ar  
 42  17  40  1   
@<TRIPOS>SUBSTRUCTURE
  1 ****  11 GROUP 4 **** **** 0

# MOE 2024.06 (io_trps.svl 2023.06)
