@<TRIPOS>MOLECULE
NONAME
56 58 1 0 0 
SMALL
USER_CHARGES


@<TRIPOS>ATOM
  1 O        2.4260    -0.6130    -3.1060 O.2   1 <1>  -0.5700 
  2 C        2.0460    -0.9830    -2.0200 C.2   1 <1>   0.5690 
  3 N        2.0620    -0.1720    -0.9380 N.am  1 <1>  -0.7300 
  4 C        1.5180    -2.4140    -1.8480 C.3   1 <1>   0.1710 
  5 C        2.4720     1.2370    -0.8950 C.3   1 <1>   0.2840 
  6 N        0.6550    -2.6230    -0.6420 N.3   1 <1>  -0.8100 
  7 C        3.1020     1.5150     0.4590 C.ar  1 <1>  -0.1440 
  8 C        0.5290    -4.0620    -0.3370 C.3   1 <1>   0.1100 
  9 C       -0.6510    -1.9650    -0.8060 C.3   1 <1>   0.1100 
 10 C        2.3110     1.6760     1.5940 C.ar  1 <1>   0.0820 
 11 C        4.4810     1.6080     0.5650 C.ar  1 <1>  -0.1500 
 12 C       -0.2070    -4.3600     0.9830 C.3   1 <1>   0.2090 
 13 C       -1.2640    -1.6870     0.5660 C.3   1 <1>  -0.1600 
 14 O        0.9630     1.5630     1.4470 O.3   1 <1>  -0.3630 
 15 C        2.9160     1.9380     2.8210 C.ar  1 <1>  -0.1500 
 16 C        5.0760     1.8660     1.7870 C.ar  1 <1>  -0.1500 
 17 N       -1.6960    -4.1890     0.8610 N.pl3 1 <1>  -0.8380 
 18 C       -2.1920    -2.7930     1.0830 C.3   1 <1>   0.2090 
 19 C        0.0840     1.7130     2.5390 C.3   1 <1>   0.0400 
 20 C        4.2930     2.0330     2.9140 C.ar  1 <1>  -0.1500 
 21 C       -2.5440    -5.2450     0.6910 C.ar  1 <1>   0.1000 
 22 C       -3.8610    -5.2270     1.1780 C.ar  1 <1>  -0.1500 
 23 C       -2.1510    -6.4130     0.0210 C.ar  1 <1>  -0.1500 
 24 C       -4.7090    -6.2910     1.0030 C.ar  1 <1>   0.2180 
 25 C       -3.0150    -7.4640    -0.1400 C.ar  1 <1>   0.2110 
 26 N       -4.2770    -7.3940     0.3470 N.ar  1 <1>  -0.1790 
 27 C       -6.1340    -6.2770     1.5300 C.3   1 <1>  -0.0970 
 28 H        1.6730    -0.5420    -0.0650 H     1 <1>   0.3700 
 29 H        2.3820    -3.0500    -1.7810 H     1 <1>   0.0800 
 30 H        0.9760    -2.6880    -2.7350 H     1 <1>   0.0800 
 31 H        1.6090     1.8630    -1.0370 H     1 <1>   0.0800 
 32 H        3.1700     1.4360    -1.6900 H     1 <1>   0.0800 
 33 H        1.5200    -4.4720    -0.2480 H     1 <1>   0.0800 
 34 H        0.0340    -4.5670    -1.1470 H     1 <1>   0.0800 
 35 H       -1.3100    -2.5640    -1.4140 H     1 <1>   0.0800 
 36 H       -0.5160    -1.0190    -1.3020 H     1 <1>   0.0800 
 37 H        5.0990     1.4750    -0.3070 H     1 <1>   0.1500 
 38 H        0.1810    -3.7270     1.7630 H     1 <1>   0.0800 
 39 H        0.0050    -5.3740     1.2730 H     1 <1>   0.0800 
 40 H       -1.8520    -0.7900     0.4930 H     1 <1>   0.0800 
 41 H       -0.4870    -1.4840     1.2810 H     1 <1>   0.0800 
 42 H        2.3370     2.0690     3.7140 H     1 <1>   0.1500 
 43 H        6.1480     1.9370     1.8590 H     1 <1>   0.1500 
 44 H       -3.1370    -2.6850     0.5780 H     1 <1>   0.0800 
 45 H       -2.3600    -2.6440     2.1360 H     1 <1>   0.0800 
 46 H       -0.9210     1.5860     2.1790 H     1 <1>   0.0800 
 47 H        0.2030     2.6990     2.9500 H     1 <1>   0.0800 
 48 H        0.3070     0.9580     3.2730 H     1 <1>   0.0800 
 49 H        4.7570     2.2350     3.8640 H     1 <1>   0.1500 
 50 H       -4.2000    -4.3590     1.7120 H     1 <1>   0.1500 
 51 H       -1.1570    -6.4770    -0.3790 H     1 <1>   0.1500 
 52 H       -2.7070    -8.3590    -0.6570 H     1 <1>   0.1500 
 53 H       -4.9170    -8.1850     0.2210 H     1 <1>   0.4570 
 54 H       -6.3440    -5.3470     2.0300 H     1 <1>   0.0800 
 55 H       -6.2820    -7.0750     2.2360 H     1 <1>   0.0800 
 56 H       -6.8350    -6.3860     0.7220 H     1 <1>   0.0800 
@<TRIPOS>BOND
  1   1   2  2   
  2   2   3  am  
  3   2   4  1   
  4   3   5  1   
  5   3  28  1   
  6   4   6  1   
  7   4  29  1   
  8   4  30  1   
  9   5   7  1   
 10   5  31  1   
 11   5  32  1   
 12   6   8  1   
 13   6   9  1   
 14   7  10  ar  
 15   7  11  ar  
 16   8  12  1   
 17   8  33  1   
 18   8  34  1   
 19   9  13  1   
 20   9  35  1   
 21   9  36  1   
 22  10  14  1   
 23  10  15  ar  
 24  11  16  ar  
 25  11  37  1   
 26  12  17  1   
 27  12  38  1   
 28  12  39  1   
 29  13  18  1   
 30  13  40  1   
 31  13  41  1   
 32  14  19  1   
 33  15  20  ar  
 34  15  42  1   
 35  16  20  ar  
 36  16  43  1   
 37  17  18  1   
 38  17  21  1   
 39  18  44  1   
 40  18  45  1   
 41  19  46  1   
 42  19  47  1   
 43  19  48  1   
 44  20  49  1   
 45  21  22  ar  
 46  21  23  ar  
 47  22  24  ar  
 48  22  50  1   
 49  23  25  ar  
 50  23  51  1   
 51  24  26  ar  
 52  24  27  1   
 53  25  26  ar  
 54  25  52  1   
 55  26  53  1   
 56  27  54  1   
 57  27  55  1   
 58  27  56  1   
@<TRIPOS>SUBSTRUCTURE
  1 ****   6 GROUP 4 **** **** 0

# MOE 2024.06 (io_trps.svl 2023.06)
