@<TRIPOS>MOLECULE
NONAME
59 62 1 0 0 
SMALL
USER_CHARGES


@<TRIPOS>ATOM
  1 S       -2.7560     0.3580     1.7240 S.3   1 <1>  -0.0800 
  2 C       -2.4690    -0.7460     0.3740 C.2   1 <1>  -0.0450 
  3 C       -2.3300     1.7590     0.7660 C.2   1 <1>  -0.1100 
  4 C       -2.6810    -2.1590     0.5770 C.2   1 <1>   0.7150 
  5 C       -2.0700    -0.0170    -0.7010 C.2   1 <1>  -0.1500 
  6 C       -1.9940     1.3890    -0.4830 C.2   1 <1>  -0.1500 
  7 O       -2.6260    -2.6520     1.6890 O.2   1 <1>  -0.5700 
  8 N       -2.9890    -2.9960    -0.4780 N.am  1 <1>  -0.6600 
  9 C       -2.7210    -4.4510    -0.3840 C.3   1 <1>   0.1400 
 10 C       -4.0050    -2.6200    -1.4870 C.3   1 <1>   0.1400 
 11 C       -4.0100    -5.1510     0.0480 C.3   1 <1>  -0.1600 
 12 C       -5.3290    -3.2720    -1.0830 C.3   1 <1>  -0.1600 
 13 C       -5.1700    -4.7890    -0.8940 C.3   1 <1>   0.4230 
 14 N       -6.4660    -5.3750    -0.4300 N.4   1 <1>  -0.9590 
 15 C       -6.5630    -6.8580    -0.6570 C.3   1 <1>   0.3430 
 16 C       -6.8610    -5.0050     0.9550 C.3   1 <1>   0.3430 
 17 C       -7.8790    -7.5170    -0.1190 C.3   1 <1>   0.4230 
 18 C       -8.3310    -5.3670     1.2110 C.3   1 <1>  -0.1600 
 19 N       -8.4350    -8.6580    -0.9770 N.4   1 <1>  -0.9590 
 20 C       -8.9670    -6.4850     0.3190 C.3   1 <1>   0.0000 
 21 C       -9.8320    -9.0760    -0.6090 C.3   1 <1>   0.3430 
 22 C       -8.3830    -8.4380    -2.4640 C.3   1 <1>   0.2630 
 23 C      -10.0380    -7.2420     1.1640 C.3   1 <1>  -0.1600 
 24 C       -9.7140    -5.8190    -0.8780 C.3   1 <1>   0.1200 
 25 C      -10.1420    -8.7480     0.8500 C.3   1 <1>  -0.1600 
 26 O       -8.8450    -5.2570    -1.8070 O.3   1 <1>  -0.6800 
 27 H       -2.3730     2.7220     1.2450 H     1 <1>   0.1500 
 28 H       -1.8140    -0.4350    -1.6590 H     1 <1>   0.1500 
 29 H       -1.6900     2.0600    -1.2680 H     1 <1>   0.1500 
 30 H       -2.3850    -4.8150    -1.3410 H     1 <1>   0.0800 
 31 H       -1.9380    -4.6370     0.3350 H     1 <1>   0.0800 
 32 H       -4.1270    -1.5510    -1.5280 H     1 <1>   0.0800 
 33 H       -3.6870    -2.9600    -2.4600 H     1 <1>   0.0800 
 34 H       -4.2130    -4.8410     1.0570 H     1 <1>   0.0800 
 35 H       -3.8340    -6.2110     0.0440 H     1 <1>   0.0800 
 36 H       -6.0570    -3.0720    -1.8490 H     1 <1>   0.0800 
 37 H       -5.6540    -2.8000    -0.1740 H     1 <1>   0.0800 
 38 H       -4.9360    -5.1980    -1.8640 H     1 <1>   0.0800 
 39 H       -7.2080    -4.9650    -1.0360 H     1 <1>   0.4500 
 40 H       -6.4860    -7.0360    -1.7150 H     1 <1>   0.0800 
 41 H       -5.7270    -7.3410    -0.1790 H     1 <1>   0.0800 
 42 H       -6.2330    -5.5290     1.6580 H     1 <1>   0.0800 
 43 H       -6.7230    -3.9480     1.1220 H     1 <1>   0.0800 
 44 H       -7.5780    -7.9770     0.8080 H     1 <1>   0.0800 
 45 H       -8.3740    -5.6350     2.2520 H     1 <1>   0.0800 
 46 H       -8.9150    -4.4650     1.1320 H     1 <1>   0.0800 
 47 H       -7.8530    -9.4870    -0.7790 H     1 <1>   0.4500 
 48 H      -10.5450    -8.5610    -1.2330 H     1 <1>   0.0800 
 49 H       -9.9560   -10.1340    -0.7790 H     1 <1>   0.0800 
 50 H       -8.9420    -7.5590    -2.7380 H     1 <1>   0.0800 
 51 H       -8.8080    -9.2850    -2.9810 H     1 <1>   0.0800 
 52 H       -7.3660    -8.3200    -2.8010 H     1 <1>   0.0800 
 53 H       -9.8390    -7.1680     2.2200 H     1 <1>   0.0800 
 54 H      -11.0050    -6.7860     1.0220 H     1 <1>   0.0800 
 55 H      -10.3630    -5.0350    -0.5210 H     1 <1>   0.0800 
 56 H      -10.3300    -6.5290    -1.4010 H     1 <1>   0.0800 
 57 H      -11.1390    -9.0860     1.0810 H     1 <1>   0.0800 
 58 H       -9.4740    -9.3070     1.4830 H     1 <1>   0.0800 
 59 H       -9.3620    -4.7350    -2.4680 H     1 <1>   0.4000 
@<TRIPOS>BOND
  1   1   2  1   
  2   1   3  1   
  3   2   4  1   
  4   2   5  2   
  5   3   6  2   
  6   3  27  1   
  7   4   7  2   
  8   4   8  am  
  9   5   6  1   
 10   5  28  1   
 11   6  29  1   
 12   8   9  1   
 13   8  10  1   
 14   9  11  1   
 15   9  30  1   
 16   9  31  1   
 17  10  12  1   
 18  10  32  1   
 19  10  33  1   
 20  11  13  1   
 21  11  34  1   
 22  11  35  1   
 23  12  13  1   
 24  12  36  1   
 25  12  37  1   
 26  13  14  1   
 27  13  38  1   
 28  14  15  1   
 29  14  16  1   
 30  14  39  1   
 31  15  17  1   
 32  15  40  1   
 33  15  41  1   
 34  16  18  1   
 35  16  42  1   
 36  16  43  1   
 37  17  19  1   
 38  17  20  1   
 39  17  44  1   
 40  18  20  1   
 41  18  45  1   
 42  18  46  1   
 43  19  21  1   
 44  19  22  1   
 45  19  47  1   
 46  20  23  1   
 47  20  24  1   
 48  21  25  1   
 49  21  48  1   
 50  21  49  1   
 51  22  50  1   
 52  22  51  1   
 53  22  52  1   
 54  23  25  1   
 55  23  53  1   
 56  23  54  1   
 57  24  26  1   
 58  24  55  1   
 59  24  56  1   
 60  25  57  1   
 61  25  58  1   
 62  26  59  1   
@<TRIPOS>SUBSTRUCTURE
  1 ****  13 GROUP 4 **** **** 0

# MOE 2024.06 (io_trps.svl 2023.06)
