@<TRIPOS>MOLECULE
NONAME
52 54 1 0 0 
SMALL
USER_CHARGES


@<TRIPOS>ATOM
  1 O        1.8350    -0.3990     1.5740 O.2   1 <1>  -0.5700 
  2 C        1.5320    -0.9940     0.5590 C.2   1 <1>   0.5440 
  3 N        1.5010    -0.3080    -0.6270 N.am  1 <1>  -0.7300 
  4 C        1.1890    -2.4030     0.6060 C.ar  1 <1>   0.0860 
  5 C        1.7730     1.1340    -0.8540 C.3   1 <1>   0.2200 
  6 C        1.3620    -3.2470    -0.4950 C.ar  1 <1>  -0.1500 
  7 C        0.6710    -2.9720     1.7700 C.ar  1 <1>  -0.1500 
  8 C        3.1150     1.5590    -0.2370 C.3   1 <1>   0.0960 
  9 C        0.5810     1.9370    -0.3270 C.3   1 <1>  -0.2400 
 10 C        1.0180    -4.5840    -0.4370 C.ar  1 <1>  -0.1500 
 11 C        0.3260    -4.3090     1.8380 C.ar  1 <1>  -0.1500 
 12 N        3.4590     2.9310    -0.6390 N.pl3 1 <1>   0.3140 
 13 C        0.4940    -5.1250     0.7240 C.ar  1 <1>   0.0830 
 14 N        3.7190     3.2750    -1.8940 N.2   1 <1>  -0.7070 
 15 C        3.5530     4.0200     0.1290 C.2   1 <1>   0.0360 
 16 O        0.1750    -6.4350     0.6950 O.3   1 <1>  -0.3630 
 17 C        3.9530     4.5430    -1.7910 C.2   1 <1>   0.3660 
 18 N        3.8630     5.0590    -0.5590 N.2   1 <1>  -0.5650 
 19 C       -0.4350    -7.0790     1.8040 C.3   1 <1>   0.1810 
 20 C       -0.7940    -8.5250     1.4780 C.2   1 <1>   0.5690 
 21 O       -0.2850    -9.3800     2.1680 O.2   1 <1>  -0.5700 
 22 N       -1.6750    -8.8410     0.4680 N.am  1 <1>  -0.6600 
 23 C       -1.9190   -10.2560     0.0700 C.3   1 <1>   0.1400 
 24 C       -2.3650    -7.8510    -0.4060 C.3   1 <1>   0.1400 
 25 C       -1.4400   -10.4670    -1.3710 C.3   1 <1>  -0.1600 
 26 C       -1.8780    -8.0250    -1.8480 C.3   1 <1>  -0.1600 
 27 C       -2.0850    -9.4650    -2.3410 C.3   1 <1>  -0.1600 
 28 H        1.0900    -0.7800    -1.4340 H     1 <1>   0.3700 
 29 H        1.8420     1.2820    -1.9200 H     1 <1>   0.0800 
 30 H        1.7800    -2.8580    -1.4060 H     1 <1>   0.1500 
 31 H        0.5400    -2.3470     2.6380 H     1 <1>   0.1500 
 32 H        3.8950     0.9060    -0.5810 H     1 <1>   0.0800 
 33 H        3.0720     1.5240     0.8350 H     1 <1>   0.0800 
 34 H        0.5040     1.8430     0.7420 H     1 <1>   0.0800 
 35 H       -0.3300     1.5880    -0.7780 H     1 <1>   0.0800 
 36 H        0.6940     2.9790    -0.5710 H     1 <1>   0.0800 
 37 H        1.1570    -5.2220    -1.2920 H     1 <1>   0.1500 
 38 H       -0.0650    -4.6930     2.7620 H     1 <1>   0.1500 
 39 H        3.3850     4.0040     1.1910 H     1 <1>   0.1500 
 40 H        4.2080     5.1680    -2.6310 H     1 <1>   0.1500 
 41 H       -1.3270    -6.5420     2.0680 H     1 <1>   0.0800 
 42 H        0.2590    -7.0600     2.6240 H     1 <1>   0.0800 
 43 H       -2.9720   -10.4650     0.1430 H     1 <1>   0.0800 
 44 H       -1.3980   -10.9330     0.7250 H     1 <1>   0.0800 
 45 H       -2.1840    -6.8430    -0.0820 H     1 <1>   0.0800 
 46 H       -3.4260    -8.0270    -0.3600 H     1 <1>   0.0800 
 47 H       -1.6720   -11.4710    -1.6790 H     1 <1>   0.0800 
 48 H       -0.3690   -10.3570    -1.3950 H     1 <1>   0.0800 
 49 H       -0.8330    -7.7710    -1.8930 H     1 <1>   0.0800 
 50 H       -2.4090    -7.3440    -2.4890 H     1 <1>   0.0800 
 51 H       -3.1400    -9.6690    -2.4120 H     1 <1>   0.0800 
 52 H       -1.6560    -9.5800    -3.3210 H     1 <1>   0.0800 
@<TRIPOS>BOND
  1   1   2  2   
  2   2   3  am  
  3   2   4  1   
  4   3   5  1   
  5   3  28  1   
  6   4   6  ar  
  7   4   7  ar  
  8   5   8  1   
  9   5   9  1   
 10   5  29  1   
 11   6  10  ar  
 12   6  30  1   
 13   7  11  ar  
 14   7  31  1   
 15   8  12  1   
 16   8  32  1   
 17   8  33  1   
 18   9  34  1   
 19   9  35  1   
 20   9  36  1   
 21  10  13  ar  
 22  10  37  1   
 23  11  13  ar  
 24  11  38  1   
 25  12  14  1   
 26  12  15  1   
 27  13  16  1   
 28  14  17  2   
 29  15  18  2   
 30  15  39  1   
 31  16  19  1   
 32  17  18  1   
 33  17  40  1   
 34  19  20  1   
 35  19  41  1   
 36  19  42  1   
 37  20  21  2   
 38  20  22  am  
 39  22  23  1   
 40  22  24  1   
 41  23  25  1   
 42  23  43  1   
 43  23  44  1   
 44  24  26  1   
 45  24  45  1   
 46  24  46  1   
 47  25  27  1   
 48  25  47  1   
 49  25  48  1   
 50  26  27  1   
 51  26  49  1   
 52  26  50  1   
 53  27  51  1   
 54  27  52  1   
@<TRIPOS>SUBSTRUCTURE
  1 ****   6 GROUP 4 **** **** 0

# MOE 2024.06 (io_trps.svl 2023.06)
