@<TRIPOS>MOLECULE
NONAME
43 45 1 0 0 
SMALL
USER_CHARGES


@<TRIPOS>ATOM
  1 CL      -0.8360    -0.8340     0.0460 Cl    1 <1>  -0.1770 
  2 C       -2.1310     0.3440     0.1250 C.ar  1 <1>   0.1770 
  3 C       -1.9270     1.6120    -0.4060 C.ar  1 <1>   0.0830 
  4 C       -3.3410    -0.0050     0.7030 C.ar  1 <1>  -0.1440 
  5 O       -0.7540     1.9570    -0.9690 O.3   1 <1>  -0.5320 
  6 C       -2.9480     2.5440    -0.3590 C.ar  1 <1>  -0.1500 
  7 C       -4.3580     0.9410     0.7490 C.ar  1 <1>  -0.1500 
  8 C       -3.5560    -1.3900     1.2820 C.3   1 <1>   0.4860 
  9 C       -4.1610     2.2070     0.2190 C.ar  1 <1>  -0.1500 
 10 N       -3.6480    -2.3900     0.1830 N.4   1 <1>  -0.9590 
 11 C       -4.8230    -2.1240    -0.7060 C.3   1 <1>   0.3430 
 12 C       -3.8370    -3.7640     0.7480 C.3   1 <1>   0.3430 
 13 C       -5.9240    -3.0730    -0.2280 C.3   1 <1>   0.2000 
 14 C       -5.1460    -4.3230     0.1700 C.3   1 <1>  -0.0800 
 15 O       -6.5030    -2.5360     0.9180 O.3   1 <1>  -0.6800 
 16 C       -4.8970    -5.2430    -1.0420 C.3   1 <1>   0.0210 
 17 C       -4.0870    -6.4620    -0.6520 C.2   1 <1>   0.1080 
 18 N       -2.8090    -6.4130    -0.4420 N.2   1 <1>  -0.7070 
 19 C       -4.6030    -7.7410    -0.4800 C.2   1 <1>  -0.1500 
 20 N       -2.4660    -7.6840    -0.1410 N.pl3 1 <1>   0.3000 
 21 C       -3.5380    -8.5020    -0.1520 C.2   1 <1>  -0.3320 
 22 C       -3.4770    -9.9890     0.1510 C.3   1 <1>  -0.0600 
 23 H       -0.0770     1.2530    -0.9230 H     1 <1>   0.4500 
 24 H       -2.7890     3.5260    -0.7700 H     1 <1>   0.1500 
 25 H       -5.3110     0.7060     1.1980 H     1 <1>   0.1500 
 26 H       -4.4640    -1.4030     1.8630 H     1 <1>   0.0800 
 27 H       -2.7330    -1.6350     1.9330 H     1 <1>   0.0800 
 28 H       -4.9520     2.9380     0.2580 H     1 <1>   0.1500 
 29 H       -2.7720    -2.3500    -0.3580 H     1 <1>   0.4500 
 30 H       -5.1500    -1.0980    -0.6680 H     1 <1>   0.0800 
 31 H       -4.5640    -2.3710    -1.7220 H     1 <1>   0.0800 
 32 H       -2.9930    -4.3900     0.5140 H     1 <1>   0.0800 
 33 H       -3.9280    -3.7090     1.8210 H     1 <1>   0.0800 
 34 H       -6.6910    -3.2360    -0.9670 H     1 <1>   0.0800 
 35 H       -5.6710    -4.8930     0.9180 H     1 <1>   0.0800 
 36 H       -7.3080    -3.0360     1.1750 H     1 <1>   0.4000 
 37 H       -4.3630    -4.7240    -1.8190 H     1 <1>   0.0800 
 38 H       -5.8360    -5.5710    -1.4500 H     1 <1>   0.0800 
 39 H       -5.6290    -8.0410    -0.5940 H     1 <1>   0.1500 
 40 H       -1.4980    -7.9640     0.0610 H     1 <1>   0.2700 
 41 H       -4.4590   -10.4230     0.0760 H     1 <1>   0.0800 
 42 H       -3.1070   -10.1530     1.1470 H     1 <1>   0.0800 
 43 H       -2.8300   -10.4860    -0.5500 H     1 <1>   0.0800 
@<TRIPOS>BOND
  1   1   2  1   
  2   2   3  ar  
  3   2   4  ar  
  4   3   5  1   
  5   3   6  ar  
  6   4   7  ar  
  7   4   8  1   
  8   5  23  1   
  9   6   9  ar  
 10   6  24  1   
 11   7   9  ar  
 12   7  25  1   
 13   8  10  1   
 14   8  26  1   
 15   8  27  1   
 16   9  28  1   
 17  10  11  1   
 18  10  12  1   
 19  10  29  1   
 20  11  13  1   
 21  11  30  1   
 22  11  31  1   
 23  12  14  1   
 24  12  32  1   
 25  12  33  1   
 26  13  14  1   
 27  13  15  1   
 28  13  34  1   
 29  14  16  1   
 30  14  35  1   
 31  15  36  1   
 32  16  17  1   
 33  16  37  1   
 34  16  38  1   
 35  17  18  2   
 36  17  19  1   
 37  18  20  1   
 38  19  21  2   
 39  19  39  1   
 40  20  21  1   
 41  20  40  1   
 42  21  22  1   
 43  22  41  1   
 44  22  42  1   
 45  22  43  1   
@<TRIPOS>SUBSTRUCTURE
  1 ****  10 GROUP 4 **** **** 0

# MOE 2024.06 (io_trps.svl 2023.06)
