@<TRIPOS>MOLECULE
NONAME
45 47 1 0 0 
SMALL
USER_CHARGES


@<TRIPOS>ATOM
  1 O        0.0550    -0.3490     2.0220 O.2   1 <1>  -0.5700 
  2 C       -0.6640     0.4600     1.4810 C.2   1 <1>   0.5690 
  3 N       -1.6520     0.0660     0.6190 N.am  1 <1>  -0.6600 
  4 C       -0.4500     1.9310     1.8070 C.3   1 <1>   0.0440 
  5 C       -2.5670     0.9580    -0.1340 C.3   1 <1>   0.1400 
  6 C       -1.9360    -1.3530     0.3100 C.3   1 <1>   0.1400 
  7 C        0.0650     2.7370     0.6130 C.ar  1 <1>  -0.1440 
  8 C       -3.5260     0.0220    -0.8720 C.3   1 <1>   0.2000 
  9 C       -3.3730    -1.3490    -0.2130 C.3   1 <1>  -0.0800 
 10 C       -0.6670     3.7800     0.0450 C.ar  1 <1>   0.0820 
 11 C        1.3060     2.4090     0.0880 C.ar  1 <1>  -0.1500 
 12 O       -4.8410     0.4480    -0.7590 O.3   1 <1>  -0.6800 
 13 C       -3.6980    -2.5050    -1.1740 C.3   1 <1>  -0.0170 
 14 O       -1.8860     4.0690     0.5750 O.3   1 <1>  -0.3630 
 15 C       -0.1380     4.4780    -1.0390 C.ar  1 <1>  -0.1500 
 16 C        1.8230     3.1050    -0.9890 C.ar  1 <1>  -0.1500 
 17 C       -3.5860    -3.8560    -0.4860 C.ar  1 <1>   0.1670 
 18 C       -2.6620     5.1510     0.1080 C.3   1 <1>   0.0400 
 19 C        1.1010     4.1410    -1.5520 C.ar  1 <1>  -0.1500 
 20 N       -2.3830    -4.4050    -0.4490 N.ar  1 <1>  -0.6200 
 21 C       -4.7200    -4.4500     0.0670 C.ar  1 <1>   0.1600 
 22 C       -2.3870    -5.5710     0.1750 C.ar  1 <1>   0.1600 
 23 N       -4.7270    -5.6150     0.6920 N.ar  1 <1>  -0.6200 
 24 C       -3.5210    -6.1560     0.7270 C.ar  1 <1>   0.1600 
 25 H       -1.3690     2.3280     2.1920 H     1 <1>   0.0800 
 26 H        0.2720     2.0020     2.5990 H     1 <1>   0.0800 
 27 H       -3.0930     1.6030     0.5490 H     1 <1>   0.0800 
 28 H       -2.0070     1.5450    -0.8410 H     1 <1>   0.0800 
 29 H       -1.2490    -1.6920    -0.4470 H     1 <1>   0.0800 
 30 H       -1.8320    -1.9720     1.1860 H     1 <1>   0.0800 
 31 H       -3.2680    -0.0110    -1.9170 H     1 <1>   0.0800 
 32 H       -4.0180    -1.4080     0.6460 H     1 <1>   0.0800 
 33 H        1.8760     1.6020     0.5180 H     1 <1>   0.1500 
 34 H       -5.0900     0.5220     0.1830 H     1 <1>   0.4000 
 35 H       -3.0290    -2.4840    -2.0160 H     1 <1>   0.0800 
 36 H       -4.6970    -2.3780    -1.5530 H     1 <1>   0.0800 
 37 H       -0.6740     5.2860    -1.4990 H     1 <1>   0.1500 
 38 H        2.7870     2.8400    -1.3870 H     1 <1>   0.1500 
 39 H       -3.5590     5.1990     0.6980 H     1 <1>   0.0800 
 40 H       -2.9120     4.9830    -0.9240 H     1 <1>   0.0800 
 41 H       -2.0990     6.0610     0.2260 H     1 <1>   0.0800 
 42 H        1.5050     4.6840    -2.3890 H     1 <1>   0.1500 
 43 H       -5.6620    -3.9360    -0.0080 H     1 <1>   0.1500 
 44 H       -1.4480    -6.0890     0.2550 H     1 <1>   0.1500 
 45 H       -3.4230    -7.1090     1.2170 H     1 <1>   0.1500 
@<TRIPOS>BOND
  1   1   2  2   
  2   2   3  am  
  3   2   4  1   
  4   3   5  1   
  5   3   6  1   
  6   4   7  1   
  7   4  25  1   
  8   4  26  1   
  9   5   8  1   
 10   5  27  1   
 11   5  28  1   
 12   6   9  1   
 13   6  29  1   
 14   6  30  1   
 15   7  10  ar  
 16   7  11  ar  
 17   8   9  1   
 18   8  12  1   
 19   8  31  1   
 20   9  13  1   
 21   9  32  1   
 22  10  14  1   
 23  10  15  ar  
 24  11  16  ar  
 25  11  33  1   
 26  12  34  1   
 27  13  17  1   
 28  13  35  1   
 29  13  36  1   
 30  14  18  1   
 31  15  19  ar  
 32  15  37  1   
 33  16  19  ar  
 34  16  38  1   
 35  17  20  ar  
 36  17  21  ar  
 37  18  39  1   
 38  18  40  1   
 39  18  41  1   
 40  19  42  1   
 41  20  22  ar  
 42  21  23  ar  
 43  21  43  1   
 44  22  24  ar  
 45  22  44  1   
 46  23  24  ar  
 47  24  45  1   
@<TRIPOS>SUBSTRUCTURE
  1 ****   3 GROUP 4 **** **** 0

# MOE 2024.06 (io_trps.svl 2023.06)
