@<TRIPOS>MOLECULE
NONAME
48 51 1 0 0 
SMALL
USER_CHARGES


@<TRIPOS>ATOM
  1 O        0.3240     0.1310    -1.9170 O.2   1 <1>  -0.5700 
  2 C        1.2570    -0.5090    -1.4960 C.2   1 <1>   0.5690 
  3 N        2.3340     0.0490    -0.8600 N.am  1 <1>  -0.4940 
  4 C        1.2410    -2.0160    -1.6770 C.3   1 <1>  -0.0190 
  5 C        2.5860     1.4130    -0.5560 C.2   1 <1>  -0.0880 
  6 C        0.9880    -2.3860    -3.1410 C.3   1 <1>   0.1200 
  7 C        0.1590    -2.6700    -0.8090 C.3   1 <1>  -0.0160 
  8 N        3.7130     1.8990     0.0400 N.pl3 1 <1>   0.3140 
  9 C        1.7890     2.4840    -0.7830 C.2   1 <1>  -0.1500 
 10 O        1.0900    -3.7880    -3.3030 O.3   1 <1>  -0.3630 
 11 C        0.0160    -4.1380    -1.1770 C.ar  1 <1>  -0.1430 
 12 N        3.6420     3.2460     0.1960 N.2   1 <1>  -0.7070 
 13 C        4.9010     1.1110     0.4820 C.3   1 <1>   0.1760 
 14 C        2.4920     3.5780    -0.3000 C.2   1 <1>   0.1390 
 15 C        0.4880    -4.6080    -2.4010 C.ar  1 <1>   0.0830 
 16 C       -0.5870    -5.0220    -0.2950 C.ar  1 <1>  -0.1500 
 17 C        5.1760     1.2230     1.9820 C.3   1 <1>  -0.1600 
 18 C        6.2090     1.5700    -0.1640 C.3   1 <1>  -0.1600 
 19 C        0.3640    -5.9470    -2.7290 C.ar  1 <1>  -0.1500 
 20 C       -0.7160    -6.3690    -0.6260 C.ar  1 <1>   0.0830 
 21 C        6.6530     0.8510     2.1430 C.3   1 <1>  -0.1600 
 22 C        7.3080     1.0540     0.7690 C.3   1 <1>  -0.1600 
 23 C       -0.2360    -6.8230    -1.8440 C.ar  1 <1>  -0.1500 
 24 O       -1.2940    -7.2950     0.1830 O.3   1 <1>  -0.3620 
 25 C       -1.8480    -6.9330     1.4290 C.3   1 <1>   0.0400 
 26 H        3.0490    -0.6140    -0.5640 H     1 <1>   0.3700 
 27 H        2.2010    -2.4130    -1.4000 H     1 <1>   0.0800 
 28 H        1.7140    -1.9270    -3.7880 H     1 <1>   0.0800 
 29 H        0.0010    -2.0850    -3.4490 H     1 <1>   0.0800 
 30 H       -0.7860    -2.1830    -0.9760 H     1 <1>   0.0800 
 31 H        0.4130    -2.5680     0.2310 H     1 <1>   0.0800 
 32 H        0.8150     2.5120    -1.2370 H     1 <1>   0.1500 
 33 H        4.7480     0.0770     0.2400 H     1 <1>   0.0800 
 34 H        2.1310     4.5930    -0.3290 H     1 <1>   0.1500 
 35 H       -0.9530    -4.6500     0.6420 H     1 <1>   0.1500 
 36 H        4.5350     0.5790     2.5580 H     1 <1>   0.0800 
 37 H        5.0380     2.2430     2.3000 H     1 <1>   0.0800 
 38 H        6.2460     2.6460    -0.1830 H     1 <1>   0.0800 
 39 H        6.3190     1.1900    -1.1640 H     1 <1>   0.0800 
 40 H        0.7370    -6.2950    -3.6750 H     1 <1>   0.1500 
 41 H        6.7470    -0.1800     2.4400 H     1 <1>   0.0800 
 42 H        7.1200     1.4700     2.8910 H     1 <1>   0.0800 
 43 H        8.1220     1.7570     0.8240 H     1 <1>   0.0800 
 44 H        7.6870     0.1140     0.4070 H     1 <1>   0.0800 
 45 H       -0.3370    -7.8640    -2.0910 H     1 <1>   0.1500 
 46 H       -2.2590    -7.8180     1.8810 H     1 <1>   0.0800 
 47 H       -2.6270    -6.2100     1.2670 H     1 <1>   0.0800 
 48 H       -1.0690    -6.5320     2.0530 H     1 <1>   0.0800 
@<TRIPOS>BOND
  1   1   2  2   
  2   2   3  am  
  3   2   4  1   
  4   3   5  1   
  5   3  26  1   
  6   4   6  1   
  7   4   7  1   
  8   4  27  1   
  9   5   8  1   
 10   5   9  2   
 11   6  10  1   
 12   6  28  1   
 13   6  29  1   
 14   7  11  1   
 15   7  30  1   
 16   7  31  1   
 17   8  12  1   
 18   8  13  1   
 19   9  14  1   
 20   9  32  1   
 21  10  15  1   
 22  11  15  ar  
 23  11  16  ar  
 24  12  14  2   
 25  13  17  1   
 26  13  18  1   
 27  13  33  1   
 28  14  34  1   
 29  15  19  ar  
 30  16  20  ar  
 31  16  35  1   
 32  17  21  1   
 33  17  36  1   
 34  17  37  1   
 35  18  22  1   
 36  18  38  1   
 37  18  39  1   
 38  19  23  ar  
 39  19  40  1   
 40  20  23  ar  
 41  20  24  1   
 42  21  22  1   
 43  21  41  1   
 44  21  42  1   
 45  22  43  1   
 46  22  44  1   
 47  23  45  1   
 48  24  25  1   
 49  25  46  1   
 50  25  47  1   
 51  25  48  1   
@<TRIPOS>SUBSTRUCTURE
  1 ****   4 GROUP 4 **** **** 0

# MOE 2024.06 (io_trps.svl 2023.06)
