@<TRIPOS>MOLECULE
NONAME
42 44 1 0 0 
SMALL
USER_CHARGES


@<TRIPOS>ATOM
  1 S        0.0960     0.8300    -0.3000 S.3   1 <1>  -0.4600 
  2 C        0.6010     2.5030     0.1920 C.3   1 <1>   0.0700 
  3 C        1.6970     0.0540    -0.6670 C.3   1 <1>   0.0700 
  4 C        1.6580     2.4030     1.2970 C.3   1 <1>   0.2090 
  5 C        2.6480     0.2360     0.5240 C.3   1 <1>   0.2090 
  6 N        2.8870     1.6890     0.8120 N.pl3 1 <1>  -0.8380 
  7 C        4.0310     2.3580     0.5110 C.ar  1 <1>   0.4100 
  8 N        3.9210     3.6180     0.1380 N.ar  1 <1>  -0.6200 
  9 C        5.2900     1.7320     0.5980 C.ar  1 <1>  -0.1500 
 10 C        5.0170     4.2870    -0.1900 C.ar  1 <1>   0.7710 
 11 C        6.4020     2.4300     0.2690 C.ar  1 <1>   0.2170 
 12 N        6.2310     3.7120    -0.1270 N.ar  1 <1>  -0.1790 
 13 N        4.9220     5.5840    -0.5930 N.pl3 1 <1>  -0.8380 
 14 C        7.8080     1.8590     0.3320 C.3   1 <1>  -0.0970 
 15 C        6.0230     6.4580    -1.1090 C.3   1 <1>   0.2090 
 16 C        3.6230     6.3350    -0.5350 C.3   1 <1>   0.2090 
 17 C        6.2290     7.6270    -0.1410 C.3   1 <1>  -0.1600 
 18 C        3.7700     7.5130     0.4330 C.3   1 <1>  -0.1600 
 19 C        4.9360     8.4330     0.0430 C.3   1 <1>  -0.1600 
 20 H       -0.2800     3.0120     0.5390 H     1 <1>   0.0800 
 21 H        0.9950     2.9990    -0.6760 H     1 <1>   0.0800 
 22 H        2.0890     0.5240    -1.5510 H     1 <1>   0.0800 
 23 H        1.5050    -0.9860    -0.8590 H     1 <1>   0.0800 
 24 H        1.2450     1.8730     2.1370 H     1 <1>   0.0800 
 25 H        1.9120     3.3930     1.6340 H     1 <1>   0.0800 
 26 H        3.5700    -0.2650     0.2940 H     1 <1>   0.0800 
 27 H        2.2250    -0.2370     1.3940 H     1 <1>   0.0800 
 28 H        5.3440     0.7180     0.9410 H     1 <1>   0.1500 
 29 H        7.0070     4.3120    -0.3680 H     1 <1>   0.4570 
 30 H        7.7840     0.8360     0.6660 H     1 <1>   0.0800 
 31 H        8.4130     2.4210     1.0220 H     1 <1>   0.0800 
 32 H        8.2690     1.8830    -0.6400 H     1 <1>   0.0800 
 33 H        5.7410     6.8430    -2.0760 H     1 <1>   0.0800 
 34 H        6.9450     5.9210    -1.2330 H     1 <1>   0.0800 
 35 H        2.8050     5.7140    -0.2110 H     1 <1>   0.0800 
 36 H        3.3790     6.7000    -1.5190 H     1 <1>   0.0800 
 37 H        6.9990     8.2750    -0.5220 H     1 <1>   0.0800 
 38 H        6.5590     7.2500     0.8110 H     1 <1>   0.0800 
 39 H        3.9240     7.1290     1.4260 H     1 <1>   0.0800 
 40 H        2.8550     8.0790     0.4420 H     1 <1>   0.0800 
 41 H        4.6960     8.9380    -0.8790 H     1 <1>   0.0800 
 42 H        5.0770     9.1850     0.8010 H     1 <1>   0.0800 
@<TRIPOS>BOND
  1   1   2  1   
  2   1   3  1   
  3   2   4  1   
  4   2  20  1   
  5   2  21  1   
  6   3   5  1   
  7   3  22  1   
  8   3  23  1   
  9   4   6  1   
 10   4  24  1   
 11   4  25  1   
 12   5   6  1   
 13   5  26  1   
 14   5  27  1   
 15   6   7  1   
 16   7   8  ar  
 17   7   9  ar  
 18   8  10  ar  
 19   9  11  ar  
 20   9  28  1   
 21  10  12  ar  
 22  10  13  1   
 23  11  12  ar  
 24  11  14  1   
 25  12  29  1   
 26  13  15  1   
 27  13  16  1   
 28  14  30  1   
 29  14  31  1   
 30  14  32  1   
 31  15  17  1   
 32  15  33  1   
 33  15  34  1   
 34  16  18  1   
 35  16  35  1   
 36  16  36  1   
 37  17  19  1   
 38  17  37  1   
 39  17  38  1   
 40  18  19  1   
 41  18  39  1   
 42  18  40  1   
 43  19  41  1   
 44  19  42  1   
@<TRIPOS>SUBSTRUCTURE
  1 ****   8 GROUP 4 **** **** 0

# MOE 2024.06 (io_trps.svl 2023.06)
