@<TRIPOS>MOLECULE
NONAME
40 42 1 0 0 
SMALL
USER_CHARGES


@<TRIPOS>ATOM
  1 O       -2.3420     0.6050    -1.9500 O.2   1 <1>  -0.5700 
  2 C       -2.0150     0.7600    -0.7880 C.2   1 <1>   0.7150 
  3 N       -1.9910    -0.3430     0.0170 N.am  1 <1>  -0.7300 
  4 C       -1.6710     2.0570    -0.2450 C.2   1 <1>   0.0550 
  5 C       -2.3260    -1.7190    -0.4080 C.3   1 <1>   0.2200 
  6 O       -1.7170     3.1530    -0.9980 O.3   1 <1>  -0.2800 
  7 C       -1.2680     2.4210     1.0060 C.2   1 <1>  -0.1500 
  8 C       -3.7650    -2.0220    -0.0240 C.3   1 <1>  -0.0800 
  9 C       -1.5620    -2.7150     0.4550 C.3   1 <1>   0.1200 
 10 C       -1.3610     4.1920    -0.2770 C.2   1 <1>  -0.0400 
 11 C       -1.0680     3.8010     0.9830 C.2   1 <1>  -0.1500 
 12 C       -3.6310    -2.4940     1.4310 C.3   1 <1>   0.1200 
 13 C       -4.3750    -3.1020    -0.9370 C.3   1 <1>  -0.0160 
 14 O       -2.2830    -2.8040     1.6450 O.3   1 <1>  -0.5600 
 15 C       -1.3380     5.5580    -0.9410 C.3   1 <1>   0.3000 
 16 C       -5.8260    -3.3810    -0.5740 C.ar  1 <1>  -0.1440 
 17 O       -1.2320     6.5430     0.0280 O.3   1 <1>  -0.6800 
 18 C       -6.8330    -2.4940    -0.8930 C.ar  1 <1>  -0.1500 
 19 C       -6.2130    -4.5300     0.0880 C.ar  1 <1>  -0.1500 
 20 C       -8.1400    -2.7850    -0.5390 C.ar  1 <1>   0.1600 
 21 C       -7.5490    -4.7250     0.3950 C.ar  1 <1>   0.1600 
 22 N       -8.5220    -3.8790     0.1000 N.ar  1 <1>  -0.6200 
 23 H       -1.8070    -0.2410     1.0160 H     1 <1>   0.3700 
 24 H       -2.1250    -1.8480    -1.4590 H     1 <1>   0.0800 
 25 H       -1.1190     1.7950     1.8680 H     1 <1>   0.1500 
 26 H       -4.3750    -1.1380    -0.0860 H     1 <1>   0.0800 
 27 H       -0.5540    -2.4010     0.6620 H     1 <1>   0.0800 
 28 H       -1.5550    -3.6900     0.0010 H     1 <1>   0.0800 
 29 H       -0.7390     4.4060     1.8100 H     1 <1>   0.1500 
 30 H       -4.2240    -3.3660     1.6450 H     1 <1>   0.0800 
 31 H       -3.8970    -1.7070     2.1150 H     1 <1>   0.0800 
 32 H       -3.8050    -4.0130    -0.8730 H     1 <1>   0.0800 
 33 H       -4.3370    -2.7670    -1.9590 H     1 <1>   0.0800 
 34 H       -2.2480     5.7230    -1.4900 H     1 <1>   0.0800 
 35 H       -0.4970     5.6420    -1.6080 H     1 <1>   0.0800 
 36 H       -1.9520     6.4300     0.6770 H     1 <1>   0.4000 
 37 H       -6.6150    -1.5780    -1.4120 H     1 <1>   0.1500 
 38 H       -5.4910    -5.2750     0.3680 H     1 <1>   0.1500 
 39 H       -8.9130    -2.0800    -0.7960 H     1 <1>   0.1500 
 40 H       -7.8320    -5.6260     0.9120 H     1 <1>   0.1500 
@<TRIPOS>BOND
  1   1   2  2   
  2   2   3  am  
  3   2   4  1   
  4   3   5  1   
  5   3  23  1   
  6   4   6  1   
  7   4   7  2   
  8   5   8  1   
  9   5   9  1   
 10   5  24  1   
 11   6  10  1   
 12   7  11  1   
 13   7  25  1   
 14   8  12  1   
 15   8  13  1   
 16   8  26  1   
 17   9  14  1   
 18   9  27  1   
 19   9  28  1   
 20  10  11  2   
 21  10  15  1   
 22  11  29  1   
 23  12  14  1   
 24  12  30  1   
 25  12  31  1   
 26  13  16  1   
 27  13  32  1   
 28  13  33  1   
 29  15  17  1   
 30  15  34  1   
 31  15  35  1   
 32  16  18  ar  
 33  16  19  ar  
 34  17  36  1   
 35  18  20  ar  
 36  18  37  1   
 37  19  21  ar  
 38  19  38  1   
 39  20  22  ar  
 40  20  39  1   
 41  21  22  ar  
 42  21  40  1   
@<TRIPOS>SUBSTRUCTURE
  1 ****   3 GROUP 4 **** **** 0

# MOE 2024.06 (io_trps.svl 2023.06)
