@<TRIPOS>MOLECULE
NONAME
48 50 1 0 0 
SMALL
USER_CHARGES


@<TRIPOS>ATOM
  1 O       -0.6310     1.0000    -0.1460 O.3   1 <1>  -0.5320 
  2 C       -0.2040     2.2570     0.0430 C.ar  1 <1>   0.0830 
  3 C        1.1250     2.5590    -0.1930 C.ar  1 <1>  -0.1500 
  4 C       -1.0850     3.2350     0.4700 C.ar  1 <1>  -0.1500 
  5 C        1.5930     3.8510    -0.0060 C.ar  1 <1>  -0.1430 
  6 C       -0.6260     4.5260     0.6590 C.ar  1 <1>  -0.1500 
  7 C        0.7050     4.8300     0.4230 C.ar  1 <1>  -0.1500 
  8 C        3.0620     4.1720    -0.2710 C.3   1 <1>   0.0630 
  9 C        3.7640     4.6650     1.0060 C.3   1 <1>  -0.1600 
 10 C        3.2090     5.1940    -1.4100 C.3   1 <1>  -0.1600 
 11 C        5.2200     5.0380     0.7280 C.3   1 <1>   0.2090 
 12 C        4.6760     5.5550    -1.6430 C.3   1 <1>   0.2090 
 13 N        5.2550     6.0330    -0.3680 N.pl3 1 <1>  -0.8380 
 14 C        6.3240     6.8920    -0.4330 C.ar  1 <1>   0.4100 
 15 N        7.5210     6.3420    -0.4700 N.ar  1 <1>  -0.6200 
 16 C        6.1570     8.2710    -0.4610 C.ar  1 <1>  -0.1430 
 17 C        8.5350     7.1790    -0.5390 C.ar  1 <1>   0.4770 
 18 C        7.2970     9.0280    -0.5320 C.ar  1 <1>   0.1600 
 19 C        4.7820     8.9290    -0.4080 C.3   1 <1>  -0.0170 
 20 N        8.5030     8.4980    -0.5740 N.ar  1 <1>  -0.6200 
 21 C        9.9110     6.5590    -0.5820 C.3   1 <1>  -0.0970 
 22 C        4.2610     8.9900     1.0330 C.3   1 <1>  -0.1600 
 23 C        2.8670     9.6210     1.1020 C.3   1 <1>  -0.2400 
 24 H       -1.5780     0.8880     0.0460 H     1 <1>   0.4500 
 25 H        1.7800     1.7740    -0.5240 H     1 <1>   0.1500 
 26 H       -2.1180     3.0020     0.6540 H     1 <1>   0.1500 
 27 H       -1.3000     5.2960     0.9900 H     1 <1>   0.1500 
 28 H        1.0470     5.8390     0.5750 H     1 <1>   0.1500 
 29 H        3.5580     3.2690    -0.5820 H     1 <1>   0.0800 
 30 H        3.7290     3.8950     1.7560 H     1 <1>   0.0800 
 31 H        3.2620     5.5300     1.3980 H     1 <1>   0.0800 
 32 H        2.6710     6.0940    -1.1730 H     1 <1>   0.0800 
 33 H        2.7920     4.7880    -2.3130 H     1 <1>   0.0800 
 34 H        5.7850     4.1680     0.4370 H     1 <1>   0.0800 
 35 H        5.6720     5.4570     1.6110 H     1 <1>   0.0800 
 36 H        4.7570     6.3230    -2.3920 H     1 <1>   0.0800 
 37 H        5.2260     4.6920    -1.9800 H     1 <1>   0.0800 
 38 H        7.2310    10.1020    -0.5530 H     1 <1>   0.1500 
 39 H        4.0930     8.3730    -1.0180 H     1 <1>   0.0800 
 40 H        4.8400     9.9250    -0.8110 H     1 <1>   0.0800 
 41 H        9.8420     5.4880    -0.6310 H     1 <1>   0.0800 
 42 H       10.4540     6.8380     0.3010 H     1 <1>   0.0800 
 43 H       10.4360     6.9160    -1.4480 H     1 <1>   0.0800 
 44 H        4.9460     9.5600     1.6380 H     1 <1>   0.0800 
 45 H        4.2180     7.9920     1.4350 H     1 <1>   0.0800 
 46 H        2.8880    10.6270     0.7210 H     1 <1>   0.0800 
 47 H        2.5280     9.6490     2.1220 H     1 <1>   0.0800 
 48 H        2.1660     9.0440     0.5250 H     1 <1>   0.0800 
@<TRIPOS>BOND
  1   1   2  1   
  2   1  24  1   
  3   2   3  ar  
  4   2   4  ar  
  5   3   5  ar  
  6   3  25  1   
  7   4   6  ar  
  8   4  26  1   
  9   5   7  ar  
 10   5   8  1   
 11   6   7  ar  
 12   6  27  1   
 13   7  28  1   
 14   8   9  1   
 15   8  10  1   
 16   8  29  1   
 17   9  11  1   
 18   9  30  1   
 19   9  31  1   
 20  10  12  1   
 21  10  32  1   
 22  10  33  1   
 23  11  13  1   
 24  11  34  1   
 25  11  35  1   
 26  12  13  1   
 27  12  36  1   
 28  12  37  1   
 29  13  14  1   
 30  14  15  ar  
 31  14  16  ar  
 32  15  17  ar  
 33  16  18  ar  
 34  16  19  1   
 35  17  20  ar  
 36  17  21  1   
 37  18  20  ar  
 38  18  38  1   
 39  19  22  1   
 40  19  39  1   
 41  19  40  1   
 42  21  41  1   
 43  21  42  1   
 44  21  43  1   
 45  22  23  1   
 46  22  44  1   
 47  22  45  1   
 48  23  46  1   
 49  23  47  1   
 50  23  48  1   
@<TRIPOS>SUBSTRUCTURE
  1 ****  13 GROUP 4 **** **** 0

# MOE 2024.06 (io_trps.svl 2023.06)
