@<TRIPOS>MOLECULE
NONAME
56 57 1 0 0 
SMALL
USER_CHARGES


@<TRIPOS>ATOM
  1 O       -0.8990     0.2060     1.9880 O.2   1 <1>  -0.5700 
  2 C       -1.5970     0.6660     1.1140 C.2   1 <1>   0.5690 
  3 N       -2.2700    -0.1780     0.2600 N.am  1 <1>  -0.6600 
  4 C       -1.6170     2.2030     1.0290 C.3   1 <1>  -0.0190 
  5 C       -3.2320     0.2260    -0.7980 C.3   1 <1>   0.3210 
  6 C       -2.0800    -1.6590     0.3690 C.3   1 <1>   0.1400 
  7 C       -3.0050     2.8730     1.0410 C.3   1 <1>  -0.1600 
  8 C       -0.7410     2.7400    -0.1270 C.3   1 <1>  -0.1600 
  9 C       -4.6520     0.4520    -0.2760 C.2   1 <1>  -0.1810 
 10 C       -0.7940    -2.0860    -0.3350 C.3   1 <1>   0.1200 
 11 C       -2.9310     4.4030     1.2170 C.3   1 <1>   0.2000 
 12 C       -1.0310     4.2120    -0.4830 C.3   1 <1>  -0.1600 
 13 C       -5.5790     1.2340    -0.9640 C.2   1 <1>   0.1080 
 14 C       -5.3240     0.0380     0.8310 C.2   1 <1>  -0.3320 
 15 O       -0.7830    -3.4760    -0.4300 O.3   1 <1>  -0.5600 
 16 O       -3.9800     4.9910     0.4810 O.3   1 <1>  -0.5600 
 17 C       -1.5820     4.9890     0.7180 C.3   1 <1>   0.2000 
 18 N       -6.7160     1.3070    -0.3560 N.2   1 <1>  -0.7070 
 19 C       -5.3460     1.9610    -2.2710 C.3   1 <1>  -0.0590 
 20 N       -6.5690     0.5610     0.7450 N.pl3 1 <1>   0.3140 
 21 C       -4.8730    -0.8370     1.9960 C.3   1 <1>  -0.0600 
 22 C        0.3940    -3.9940    -0.9590 C.3   1 <1>   0.0400 
 23 C       -5.2690     4.7540     0.9630 C.3   1 <1>   0.0400 
 24 O       -1.7760     6.2970     0.3250 O.3   1 <1>  -0.6800 
 25 C       -7.6890     0.3890     1.6800 C.3   1 <1>   0.0160 
 26 H       -1.1420     2.5320     1.9390 H     1 <1>   0.0800 
 27 H       -2.8770     1.1220    -1.2710 H     1 <1>   0.0800 
 28 H       -3.2660    -0.5310    -1.5620 H     1 <1>   0.0800 
 29 H       -2.0190    -1.9410     1.4060 H     1 <1>   0.0800 
 30 H       -2.9210    -2.1690    -0.0690 H     1 <1>   0.0800 
 31 H       -3.6110     2.4440     1.8210 H     1 <1>   0.0800 
 32 H       -3.4790     2.6980     0.1000 H     1 <1>   0.0800 
 33 H        0.2910     2.6430     0.1660 H     1 <1>   0.0800 
 34 H       -0.8730     2.1400    -1.0100 H     1 <1>   0.0800 
 35 H        0.0610    -1.7660     0.2370 H     1 <1>   0.0800 
 36 H       -0.7550    -1.6800    -1.3310 H     1 <1>   0.0800 
 37 H       -3.0510     4.6670     2.2540 H     1 <1>   0.0800 
 38 H       -1.7630     4.2440    -1.2720 H     1 <1>   0.0800 
 39 H       -0.1300     4.6810    -0.8390 H     1 <1>   0.0800 
 40 H       -0.8550     4.9860     1.5120 H     1 <1>   0.0800 
 41 H       -4.8440     1.3210    -2.9720 H     1 <1>   0.0800 
 42 H       -4.7550     2.8410    -2.0970 H     1 <1>   0.0800 
 43 H       -6.2890     2.2580    -2.6920 H     1 <1>   0.0800 
 44 H       -3.8720    -0.5890     2.2930 H     1 <1>   0.0800 
 45 H       -4.9070    -1.8720     1.7100 H     1 <1>   0.0800 
 46 H       -5.4990    -0.6970     2.8580 H     1 <1>   0.0800 
 47 H        0.3000    -5.0650    -0.9970 H     1 <1>   0.0800 
 48 H        1.2180    -3.7260    -0.3200 H     1 <1>   0.0800 
 49 H        0.5400    -3.6070    -1.9520 H     1 <1>   0.0800 
 50 H       -5.9570     5.3400     0.3800 H     1 <1>   0.0800 
 51 H       -5.3260     5.0500     1.9960 H     1 <1>   0.0800 
 52 H       -5.5150     3.7110     0.8520 H     1 <1>   0.0800 
 53 H       -2.7160     6.3480     0.0340 H     1 <1>   0.4000 
 54 H       -7.8670    -0.6600     1.8280 H     1 <1>   0.0800 
 55 H       -8.5670     0.8470     1.2640 H     1 <1>   0.0800 
 56 H       -7.4450     0.8590     2.6120 H     1 <1>   0.0800 
@<TRIPOS>BOND
  1   1   2  2   
  2   2   3  am  
  3   2   4  1   
  4   3   5  1   
  5   3   6  1   
  6   4   7  1   
  7   4   8  1   
  8   4  26  1   
  9   5   9  1   
 10   5  27  1   
 11   5  28  1   
 12   6  10  1   
 13   6  29  1   
 14   6  30  1   
 15   7  11  1   
 16   7  31  1   
 17   7  32  1   
 18   8  12  1   
 19   8  33  1   
 20   8  34  1   
 21   9  13  1   
 22   9  14  2   
 23  10  15  1   
 24  10  35  1   
 25  10  36  1   
 26  11  16  1   
 27  11  17  1   
 28  11  37  1   
 29  12  17  1   
 30  12  38  1   
 31  12  39  1   
 32  13  18  2   
 33  13  19  1   
 34  14  20  1   
 35  14  21  1   
 36  15  22  1   
 37  16  23  1   
 38  17  24  1   
 39  17  40  1   
 40  18  20  1   
 41  19  41  1   
 42  19  42  1   
 43  19  43  1   
 44  20  25  1   
 45  21  44  1   
 46  21  45  1   
 47  21  46  1   
 48  22  47  1   
 49  22  48  1   
 50  22  49  1   
 51  23  50  1   
 52  23  51  1   
 53  23  52  1   
 54  24  53  1   
 55  25  54  1   
 56  25  55  1   
 57  25  56  1   
@<TRIPOS>SUBSTRUCTURE
  1 ****   5 GROUP 4 **** **** 0

# MOE 2024.06 (io_trps.svl 2023.06)
