@<TRIPOS>MOLECULE
NONAME
43 45 1 0 0 
SMALL
USER_CHARGES


@<TRIPOS>ATOM
  1 O        1.0460    -0.3540     0.8090 O.2   1 <1>  -0.5700 
  2 C        1.8700    -1.0760     0.3020 C.2   1 <1>   0.5690 
  3 N        3.1250    -0.6200     0.0160 N.am  1 <1>  -0.6600 
  4 C        1.5040    -2.5200    -0.0210 C.3   1 <1>  -0.0990 
  5 C        3.5640     0.7700     0.3180 C.3   1 <1>   0.1400 
  6 C        4.2400    -1.3740    -0.6040 C.3   1 <1>   0.1400 
  7 C        0.0220    -2.8670     0.2240 C.3   1 <1>  -0.1600 
  8 C        4.7900     1.0010    -0.5750 C.3   1 <1>   0.4240 
  9 C        5.4140    -0.3920    -0.6310 C.3   1 <1>  -0.1600 
 10 C       -0.2830    -4.3270    -0.1340 C.3   1 <1>   0.0960 
 11 O        4.3270     1.2810    -1.8480 O.3   1 <1>  -0.6800 
 12 C        5.7750     2.1010    -0.1550 C.ar  1 <1>  -0.1440 
 13 N       -1.7110    -4.6310     0.0840 N.pl3 1 <1>   0.0480 
 14 C        6.9420     2.2790    -0.8890 C.ar  1 <1>  -0.1500 
 15 C        5.5500     2.9370     0.9360 C.ar  1 <1>  -0.1500 
 16 C       -2.2710    -5.2940     1.1210 C.2   1 <1>   0.0360 
 17 C       -2.7430    -4.3290    -0.7230 C.2   1 <1>  -0.3020 
 18 C        7.8670     3.2470    -0.5390 C.ar  1 <1>  -0.1500 
 19 C        6.4730     3.9060     1.2880 C.ar  1 <1>  -0.1500 
 20 N       -3.5550    -5.4300     1.0290 N.2   1 <1>  -0.5650 
 21 C       -3.8540    -4.8210    -0.1330 C.2   1 <1>   0.0770 
 22 C        7.6340     4.0610     0.5540 C.ar  1 <1>  -0.1500 
 23 H        2.1220    -3.1590     0.5840 H     1 <1>   0.0800 
 24 H        1.7390    -2.7010    -1.0540 H     1 <1>   0.0800 
 25 H        3.8450     0.8110     1.3550 H     1 <1>   0.0800 
 26 H        2.7880     1.4910     0.1280 H     1 <1>   0.0800 
 27 H        3.9680    -1.6570    -1.6070 H     1 <1>   0.0800 
 28 H        4.4800    -2.2520    -0.0280 H     1 <1>   0.0800 
 29 H       -0.5940    -2.2150    -0.3730 H     1 <1>   0.0800 
 30 H       -0.2160    -2.6950     1.2600 H     1 <1>   0.0800 
 31 H        6.0400    -0.5280    -1.4940 H     1 <1>   0.0800 
 32 H        6.0120    -0.5430     0.2500 H     1 <1>   0.0800 
 33 H        0.3070    -4.9890     0.4750 H     1 <1>   0.0800 
 34 H       -0.0520    -4.5140    -1.1670 H     1 <1>   0.0800 
 35 H        3.5220     0.7510    -1.9950 H     1 <1>   0.4000 
 36 H        7.1310     1.6630    -1.7510 H     1 <1>   0.1500 
 37 H        4.6570     2.8570     1.5270 H     1 <1>   0.1500 
 38 H       -1.6860    -5.6680     1.9420 H     1 <1>   0.1500 
 39 H       -2.6380    -3.7940    -1.6490 H     1 <1>   0.1500 
 40 H        8.7640     3.3690    -1.1200 H     1 <1>   0.1500 
 41 H        6.2870     4.5430     2.1350 H     1 <1>   0.1500 
 42 H       -4.8700    -4.7670    -0.4890 H     1 <1>   0.1500 
 43 H        8.3520     4.8140     0.8280 H     1 <1>   0.1500 
@<TRIPOS>BOND
  1   1   2  2   
  2   2   3  am  
  3   2   4  1   
  4   3   5  1   
  5   3   6  1   
  6   4   7  1   
  7   4  23  1   
  8   4  24  1   
  9   5   8  1   
 10   5  25  1   
 11   5  26  1   
 12   6   9  1   
 13   6  27  1   
 14   6  28  1   
 15   7  10  1   
 16   7  29  1   
 17   7  30  1   
 18   8   9  1   
 19   8  11  1   
 20   8  12  1   
 21   9  31  1   
 22   9  32  1   
 23  10  13  1   
 24  10  33  1   
 25  10  34  1   
 26  11  35  1   
 27  12  14  ar  
 28  12  15  ar  
 29  13  16  1   
 30  13  17  1   
 31  14  18  ar  
 32  14  36  1   
 33  15  19  ar  
 34  15  37  1   
 35  16  20  2   
 36  16  38  1   
 37  17  21  2   
 38  17  39  1   
 39  18  22  ar  
 40  18  40  1   
 41  19  22  ar  
 42  19  41  1   
 43  20  21  1   
 44  21  42  1   
 45  22  43  1   
@<TRIPOS>SUBSTRUCTURE
  1 ****   3 GROUP 4 **** **** 0

# MOE 2024.06 (io_trps.svl 2023.06)
