@<TRIPOS>MOLECULE
NONAME
56 59 1 0 0 
SMALL
USER_CHARGES


@<TRIPOS>ATOM
  1 CL      -1.0680    -0.1950    -2.4980 Cl    1 <1>  -0.1770 
  2 C       -1.4490    -1.6560    -1.6300 C.ar  1 <1>   0.1770 
  3 C       -2.4650    -1.6440    -0.6960 C.ar  1 <1>  -0.1500 
  4 C       -0.7250    -2.8050    -1.8860 C.ar  1 <1>  -0.1500 
  5 C       -2.7720    -2.8110    -0.0050 C.ar  1 <1>   0.0830 
  6 C       -1.0320    -3.9630    -1.1960 C.ar  1 <1>  -0.1500 
  7 O       -3.7520    -2.8280     0.9270 O.3   1 <1>  -0.3630 
  8 C       -2.0610    -3.9950    -0.2520 C.ar  1 <1>   0.0860 
  9 C       -4.9800    -2.1740     0.7010 C.3   1 <1>   0.1200 
 10 C       -2.3690    -5.2350     0.4270 C.2   1 <1>   0.5440 
 11 C       -5.8790    -2.4510     1.9090 C.3   1 <1>  -0.1600 
 12 O       -1.5840    -5.6690     1.2500 O.2   1 <1>  -0.5700 
 13 N       -3.5020    -5.9710     0.1420 N.am  1 <1>  -0.6600 
 14 C       -7.3370    -2.0280     1.6670 C.3   1 <1>   0.0960 
 15 C       -3.8550    -7.1620     0.9810 C.3   1 <1>   0.1400 
 16 C       -4.5260    -5.5520    -0.8580 C.3   1 <1>   0.1400 
 17 N       -8.0350    -2.9710     0.7680 N.pl3 1 <1>   0.3140 
 18 C       -4.9470    -8.0970     0.3950 C.3   1 <1>   0.2200 
 19 C       -5.9340    -5.8900    -0.3670 C.3   1 <1>   0.1400 
 20 N       -7.9490    -2.9270    -0.5660 N.2   1 <1>  -0.4180 
 21 C       -8.8120    -3.9930     1.1260 C.2   1 <1>  -0.3020 
 22 N       -6.0950    -7.3720    -0.2520 N.am  1 <1>  -0.6600 
 23 C       -5.4820    -8.9840     1.5260 C.3   1 <1>  -0.2400 
 24 N       -8.6560    -3.8880    -1.0520 N.2   1 <1>  -0.2270 
 25 C       -9.1920    -4.5610    -0.0270 C.2   1 <1>   0.0460 
 26 C       -7.0780    -8.0650    -0.9200 C.2   1 <1>   0.5690 
 27 C      -10.0750    -5.7830    -0.2120 C.3   1 <1>   0.0210 
 28 O       -6.9590    -9.2330    -1.2020 O.2   1 <1>  -0.5700 
 29 C       -8.3880    -7.3900    -1.3090 C.3   1 <1>  -0.0990 
 30 C       -9.2610    -7.0780    -0.0750 C.3   1 <1>  -0.1600 
 31 H       -2.9880    -0.7260    -0.5140 H     1 <1>   0.1500 
 32 H        0.0670    -2.7860    -2.6140 H     1 <1>   0.1500 
 33 H       -0.4730    -4.8640    -1.3800 H     1 <1>   0.1500 
 34 H       -5.4000    -2.5660    -0.2080 H     1 <1>   0.0800 
 35 H       -4.8080    -1.1180     0.5970 H     1 <1>   0.0800 
 36 H       -5.4930    -1.8960     2.7460 H     1 <1>   0.0800 
 37 H       -5.8480    -3.4970     2.1600 H     1 <1>   0.0800 
 38 H       -7.3800    -1.0450     1.2340 H     1 <1>   0.0800 
 39 H       -7.8670    -2.0080     2.6020 H     1 <1>   0.0800 
 40 H       -4.1870    -6.7980     1.9380 H     1 <1>   0.0800 
 41 H       -2.9670    -7.7440     1.1580 H     1 <1>   0.0800 
 42 H       -4.3430    -6.0620    -1.7870 H     1 <1>   0.0800 
 43 H       -4.4710    -4.4970    -1.0450 H     1 <1>   0.0800 
 44 H       -4.4850    -8.7240    -0.3490 H     1 <1>   0.0800 
 45 H       -6.6230    -5.4770    -1.0730 H     1 <1>   0.0800 
 46 H       -6.1150    -5.4260     0.5860 H     1 <1>   0.0800 
 47 H       -9.0380    -4.2520     2.1430 H     1 <1>   0.1500 
 48 H       -6.0140    -8.3920     2.2480 H     1 <1>   0.0800 
 49 H       -4.6670    -9.4820     2.0200 H     1 <1>   0.0800 
 50 H       -6.1390    -9.7420     1.1400 H     1 <1>   0.0800 
 51 H      -10.5720    -5.7410    -1.1660 H     1 <1>   0.0800 
 52 H      -10.8310    -5.7670     0.5530 H     1 <1>   0.0800 
 53 H       -8.9330    -8.0530    -1.9560 H     1 <1>   0.0800 
 54 H       -8.1900    -6.5110    -1.8890 H     1 <1>   0.0800 
 55 H       -9.9290    -7.9070     0.0870 H     1 <1>   0.0800 
 56 H       -8.6420    -6.9970     0.8030 H     1 <1>   0.0800 
@<TRIPOS>BOND
  1   1   2  1   
  2   2   3  ar  
  3   2   4  ar  
  4   3   5  ar  
  5   3  31  1   
  6   4   6  ar  
  7   4  32  1   
  8   5   7  1   
  9   5   8  ar  
 10   6   8  ar  
 11   6  33  1   
 12   7   9  1   
 13   8  10  1   
 14   9  11  1   
 15   9  34  1   
 16   9  35  1   
 17  10  12  2   
 18  10  13  am  
 19  11  14  1   
 20  11  36  1   
 21  11  37  1   
 22  13  15  1   
 23  13  16  1   
 24  14  17  1   
 25  14  38  1   
 26  14  39  1   
 27  15  18  1   
 28  15  40  1   
 29  15  41  1   
 30  16  19  1   
 31  16  42  1   
 32  16  43  1   
 33  17  20  1   
 34  17  21  1   
 35  18  22  1   
 36  18  23  1   
 37  18  44  1   
 38  19  22  1   
 39  19  45  1   
 40  19  46  1   
 41  20  24  2   
 42  21  25  2   
 43  21  47  1   
 44  22  26  am  
 45  23  48  1   
 46  23  49  1   
 47  23  50  1   
 48  24  25  1   
 49  25  27  1   
 50  26  28  2   
 51  26  29  1   
 52  27  30  1   
 53  27  51  1   
 54  27  52  1   
 55  29  30  1   
 56  29  53  1   
 57  29  54  1   
 58  30  55  1   
 59  30  56  1   
@<TRIPOS>SUBSTRUCTURE
  1 ****  16 GROUP 4 **** **** 0

# MOE 2024.06 (io_trps.svl 2023.06)
