@<TRIPOS>MOLECULE
NONAME
47 49 1 0 0 
SMALL
USER_CHARGES


@<TRIPOS>ATOM
  1 CL       0.5610     2.0860     1.8000 Cl    1 <1>  -0.1770 
  2 C        2.1910     2.6790     1.9840 C.ar  1 <1>   0.1770 
  3 C        2.8110     2.6350     3.2210 C.ar  1 <1>   0.1600 
  4 C        2.8520     3.1910     0.8920 C.ar  1 <1>  -0.1500 
  5 N        4.0460     3.0650     3.4390 N.ar  1 <1>  -0.6200 
  6 C        4.1480     3.6580     1.0870 C.ar  1 <1>   0.0860 
  7 C        4.6740     3.5510     2.3770 C.ar  1 <1>   0.1600 
  8 C        4.9380     4.2320     0.0160 C.2   1 <1>   0.5440 
  9 O        6.1510     4.2900     0.0900 O.2   1 <1>  -0.5700 
 10 N        4.3670     4.8030    -1.0970 N.am  1 <1>  -0.6600 
 11 C        4.9780     4.6130    -2.4560 C.3   1 <1>   0.1400 
 12 C        3.4590     5.9710    -0.9640 C.3   1 <1>   0.1400 
 13 C        6.1910     5.5340    -2.7320 C.3   1 <1>   0.3430 
 14 C        4.2630     7.2310    -0.6100 C.3   1 <1>  -0.1600 
 15 N        6.4180     6.5170    -1.6270 N.4   1 <1>  -0.9590 
 16 C        5.3810     7.5890    -1.5960 C.3   1 <1>   0.3430 
 17 C        7.8190     7.0030    -1.5800 C.3   1 <1>   0.3430 
 18 C        8.1320     7.5110    -0.1720 C.3   1 <1>  -0.1600 
 19 C        9.6190     7.8570    -0.0180 C.3   1 <1>   0.0960 
 20 N        9.8730     8.3520     1.3470 N.pl3 1 <1>   0.0480 
 21 C       10.0100     9.6340     1.7550 C.2   1 <1>   0.0360 
 22 C        9.9780     7.6230     2.4720 C.2   1 <1>  -0.3020 
 23 N       10.1850     9.7640     3.0300 N.2   1 <1>  -0.5650 
 24 C       10.1670     8.4970     3.4840 C.2   1 <1>   0.0770 
 25 H        2.2680     2.2300     4.0580 H     1 <1>   0.1500 
 26 H        2.3750     3.2180    -0.0710 H     1 <1>   0.1500 
 27 H        5.6840     3.8930     2.5400 H     1 <1>   0.1500 
 28 H        4.2300     4.7720    -3.2130 H     1 <1>   0.0800 
 29 H        5.3020     3.5900    -2.5500 H     1 <1>   0.0800 
 30 H        2.7350     5.7820    -0.1880 H     1 <1>   0.0800 
 31 H        2.9170     6.1190    -1.8830 H     1 <1>   0.0800 
 32 H        6.0570     6.0450    -3.6710 H     1 <1>   0.0800 
 33 H        7.0600     4.9030    -2.8270 H     1 <1>   0.0800 
 34 H        4.6740     7.1340     0.3790 H     1 <1>   0.0800 
 35 H        3.5770     8.0580    -0.5760 H     1 <1>   0.0800 
 36 H        6.2730     5.9250    -0.7800 H     1 <1>   0.4500 
 37 H        5.8290     8.5180    -1.2800 H     1 <1>   0.0800 
 38 H        4.9720     7.7390    -2.5820 H     1 <1>   0.0800 
 39 H        7.9710     7.7840    -2.3080 H     1 <1>   0.0800 
 40 H        8.4860     6.1870    -1.8080 H     1 <1>   0.0800 
 41 H        7.8860     6.7430     0.5420 H     1 <1>   0.0800 
 42 H        7.5500     8.3900     0.0400 H     1 <1>   0.0800 
 43 H        9.9090     8.6200    -0.7190 H     1 <1>   0.0800 
 44 H       10.2310     6.9870    -0.1810 H     1 <1>   0.0800 
 45 H        9.9730    10.4640     1.0710 H     1 <1>   0.1500 
 46 H        9.9150     6.5510     2.5020 H     1 <1>   0.1500 
 47 H       10.2940     8.2800     4.5320 H     1 <1>   0.1500 
@<TRIPOS>BOND
  1   1   2  1   
  2   2   3  ar  
  3   2   4  ar  
  4   3   5  ar  
  5   3  25  1   
  6   4   6  ar  
  7   4  26  1   
  8   5   7  ar  
  9   6   7  ar  
 10   6   8  1   
 11   7  27  1   
 12   8   9  2   
 13   8  10  am  
 14  10  11  1   
 15  10  12  1   
 16  11  13  1   
 17  11  28  1   
 18  11  29  1   
 19  12  14  1   
 20  12  30  1   
 21  12  31  1   
 22  13  15  1   
 23  13  32  1   
 24  13  33  1   
 25  14  16  1   
 26  14  34  1   
 27  14  35  1   
 28  15  16  1   
 29  15  17  1   
 30  15  36  1   
 31  16  37  1   
 32  16  38  1   
 33  17  18  1   
 34  17  39  1   
 35  17  40  1   
 36  18  19  1   
 37  18  41  1   
 38  18  42  1   
 39  19  20  1   
 40  19  43  1   
 41  19  44  1   
 42  20  21  1   
 43  20  22  1   
 44  21  23  2   
 45  21  45  1   
 46  22  24  2   
 47  22  46  1   
 48  23  24  1   
 49  24  47  1   
@<TRIPOS>SUBSTRUCTURE
  1 ****   9 GROUP 4 **** **** 0

# MOE 2024.06 (io_trps.svl 2023.06)
