@<TRIPOS>MOLECULE
NONAME
34 36 1 0 0 
SMALL
USER_CHARGES


@<TRIPOS>ATOM
  1 CL      -0.1910    -0.3040    -1.3430 Cl    1 <1>  -0.1770 
  2 C       -0.2450    -1.8780    -0.5940 C.ar  1 <1>   0.1770 
  3 C       -0.3670    -3.0060    -1.3820 C.ar  1 <1>  -0.1500 
  4 C       -0.1600    -1.9770     0.7800 C.ar  1 <1>  -0.1500 
  5 C       -0.4010    -4.2610    -0.7960 C.ar  1 <1>  -0.1440 
  6 C       -0.2040    -3.2300     1.3650 C.ar  1 <1>  -0.1500 
  7 C       -0.3330    -4.3910     0.6000 C.ar  1 <1>   0.0860 
  8 C       -0.5200    -5.4740    -1.7160 C.3   1 <1>  -0.0960 
  9 C       -0.3870    -5.6720     1.2780 C.2   1 <1>   0.5440 
 10 O        0.5990    -6.0780     1.8670 O.2   1 <1>  -0.5700 
 11 N       -1.5330    -6.4220     1.3080 N.am  1 <1>  -0.6600 
 12 C       -2.8740    -5.9790     0.9350 C.3   1 <1>   0.2350 
 13 C       -1.5320    -7.8730     1.1610 C.3   1 <1>   0.2350 
 14 C       -3.3280    -6.8690    -0.2200 C.3   1 <1>  -0.2420 
 15 C       -2.3960    -8.1800    -0.0680 C.3   1 <1>  -0.2420 
 16 C       -4.3840    -5.9500    -0.8350 C.2   1 <1>   0.9470 
 17 C       -3.4530    -8.0500    -1.0730 C.3   1 <1>  -0.2000 
 18 C       -1.8250    -9.5490    -0.4360 C.2   1 <1>   0.9470 
 19 O       -4.0990    -5.2560    -1.8190 O.co2 1 <1>  -0.9000 
 20 O       -5.4810    -5.8510    -0.2700 O.co2 1 <1>  -0.9000 
 21 O       -0.9520    -9.6310    -1.3100 O.co2 1 <1>  -0.9000 
 22 O       -2.2010   -10.5420     0.2020 O.co2 1 <1>  -0.9000 
 23 H       -0.4410    -2.9000    -2.4490 H     1 <1>   0.1500 
 24 H       -0.0620    -1.0890     1.3770 H     1 <1>   0.1500 
 25 H       -0.1380    -3.3270     2.4350 H     1 <1>   0.1500 
 26 H        0.0580    -5.3280    -2.6090 H     1 <1>   0.0800 
 27 H       -1.5470    -5.6160    -2.0020 H     1 <1>   0.0800 
 28 H       -0.1760    -6.3780    -1.2460 H     1 <1>   0.0800 
 29 H       -3.5280    -6.1470     1.7740 H     1 <1>   0.0800 
 30 H       -2.8990    -4.9310     0.6860 H     1 <1>   0.0800 
 31 H       -0.5290    -8.2590     1.0710 H     1 <1>   0.0800 
 32 H       -1.9930    -8.3030     2.0320 H     1 <1>   0.0800 
 33 H       -3.1640    -7.9650    -2.1070 H     1 <1>   0.1000 
 34 H       -4.3310    -8.6630    -0.9630 H     1 <1>   0.1000 
@<TRIPOS>BOND
  1   1   2  1   
  2   2   3  ar  
  3   2   4  ar  
  4   3   5  ar  
  5   3  23  1   
  6   4   6  ar  
  7   4  24  1   
  8   5   7  ar  
  9   5   8  1   
 10   6   7  ar  
 11   6  25  1   
 12   7   9  1   
 13   8  26  1   
 14   8  27  1   
 15   8  28  1   
 16   9  10  2   
 17   9  11  am  
 18  11  12  1   
 19  11  13  1   
 20  12  14  1   
 21  12  29  1   
 22  12  30  1   
 23  13  15  1   
 24  13  31  1   
 25  13  32  1   
 26  14  15  1   
 27  14  16  1   
 28  14  17  1   
 29  15  17  1   
 30  15  18  1   
 31  16  19  ar  
 32  16  20  ar  
 33  17  33  1   
 34  17  34  1   
 35  18  21  ar  
 36  18  22  ar  
@<TRIPOS>SUBSTRUCTURE
  1 ****  11 GROUP 4 **** **** 0

# MOE 2024.06 (io_trps.svl 2023.06)
