@<TRIPOS>MOLECULE
NONAME
38 39 1 0 0 
SMALL
USER_CHARGES


@<TRIPOS>ATOM
  1 F       -0.1850    -0.7580     1.6480 F     1 <1>  -0.1900 
  2 C       -0.1160    -2.0470     1.4500 C.ar  1 <1>   0.1900 
  3 C        0.7260    -2.5220     0.4650 C.ar  1 <1>  -0.1500 
  4 C       -0.8890    -2.8800     2.2330 C.ar  1 <1>  -0.1500 
  5 C        0.7990    -3.8960     0.2530 C.ar  1 <1>   0.0830 
  6 C       -0.8110    -4.2440     2.0170 C.ar  1 <1>  -0.1500 
  7 O        1.5980    -4.4440    -0.7010 O.3   1 <1>  -0.3630 
  8 C        0.0280    -4.7580     1.0360 C.ar  1 <1>  -0.1440 
  9 C        2.4470    -3.6510    -1.5030 C.3   1 <1>   0.0400 
 10 C        0.0780    -6.2690     0.8430 C.3   1 <1>   0.2540 
 11 N       -1.2080    -6.7930     0.3390 N.3   1 <1>  -0.8100 
 12 C       -1.1900    -8.2730     0.3550 C.3   1 <1>   0.2900 
 13 C       -1.5150    -6.2690    -1.0180 C.3   1 <1>   0.1100 
 14 C       -2.5960    -8.8420     0.2690 C.2   1 <1>   0.0060 
 15 C       -2.5220    -5.1030    -0.9930 C.3   1 <1>   0.1200 
 16 N       -2.9020   -10.0090    -0.2040 N.2   1 <1>  -0.5650 
 17 N       -3.6620    -8.1410     0.7050 N.pl3 1 <1>   0.0330 
 18 O       -3.7680    -5.5230    -0.5360 O.3   1 <1>  -0.6800 
 19 C       -4.2420   -10.0690    -0.0670 C.2   1 <1>   0.0770 
 20 C       -4.7250    -8.9340     0.4840 C.2   1 <1>  -0.3020 
 21 H        1.2970    -1.8160    -0.1050 H     1 <1>   0.1500 
 22 H       -1.5370    -2.4700     2.9870 H     1 <1>   0.1500 
 23 H       -1.4130    -4.9140     2.6080 H     1 <1>   0.1500 
 24 H        2.9900    -4.3040    -2.1620 H     1 <1>   0.0800 
 25 H        3.1340    -3.1210    -0.8680 H     1 <1>   0.0800 
 26 H        1.8470    -2.9680    -2.0790 H     1 <1>   0.0800 
 27 H        0.2880    -6.7130     1.8020 H     1 <1>   0.0800 
 28 H        0.8740    -6.5520     0.1770 H     1 <1>   0.0800 
 29 H       -0.7610    -8.6210     1.2790 H     1 <1>   0.0800 
 30 H       -0.5930    -8.6530    -0.4560 H     1 <1>   0.0800 
 31 H       -1.9250    -7.0470    -1.6400 H     1 <1>   0.0800 
 32 H       -0.6090    -5.9350    -1.4950 H     1 <1>   0.0800 
 33 H       -2.6530    -4.7110    -1.9870 H     1 <1>   0.0800 
 34 H       -2.1800    -4.3080    -0.3560 H     1 <1>   0.0800 
 35 H       -3.6120    -7.1700     1.0440 H     1 <1>   0.2700 
 36 H       -4.0860    -6.2700    -1.0800 H     1 <1>   0.4000 
 37 H       -4.7960   -10.9390    -0.3780 H     1 <1>   0.1500 
 38 H       -5.7340    -8.6510     0.7230 H     1 <1>   0.1500 
@<TRIPOS>BOND
  1   1   2  1   
  2   2   3  ar  
  3   2   4  ar  
  4   3   5  ar  
  5   3  21  1   
  6   4   6  ar  
  7   4  22  1   
  8   5   7  1   
  9   5   8  ar  
 10   6   8  ar  
 11   6  23  1   
 12   7   9  1   
 13   8  10  1   
 14   9  24  1   
 15   9  25  1   
 16   9  26  1   
 17  10  11  1   
 18  10  27  1   
 19  10  28  1   
 20  11  12  1   
 21  11  13  1   
 22  12  14  1   
 23  12  29  1   
 24  12  30  1   
 25  13  15  1   
 26  13  31  1   
 27  13  32  1   
 28  14  16  2   
 29  14  17  1   
 30  15  18  1   
 31  15  33  1   
 32  15  34  1   
 33  16  19  1   
 34  17  20  1   
 35  17  35  1   
 36  18  36  1   
 37  19  20  2   
 38  19  37  1   
 39  20  38  1   
@<TRIPOS>SUBSTRUCTURE
  1 ****  11 GROUP 4 **** **** 0

# MOE 2024.06 (io_trps.svl 2023.06)
