@<TRIPOS>MOLECULE
NONAME
51 54 1 0 0 
SMALL
USER_CHARGES


@<TRIPOS>ATOM
  1 O       -0.1770     0.0650     2.6930 O.2   1 <1>  -0.5700 
  2 C       -0.8080     0.8890     2.0720 C.2   1 <1>   0.5690 
  3 N       -1.8850     0.5270     1.3070 N.am  1 <1>  -0.6600 
  4 C       -0.3770     2.3460     2.1860 C.3   1 <1>   0.0440 
  5 C       -2.6320     1.3880     0.3540 C.3   1 <1>   0.1400 
  6 C       -2.3760    -0.8650     1.2170 C.3   1 <1>   0.1400 
  7 C        0.0630     2.9490     0.8470 C.ar  1 <1>  -0.1440 
  8 C       -3.7080     0.4890    -0.2680 C.3   1 <1>   0.2000 
  9 C       -3.1390    -0.9250    -0.1080 C.3   1 <1>  -0.0800 
 10 C       -0.5990     4.0510     0.2330 C.ar  1 <1>   0.0000 
 11 C        1.1390     2.3590     0.2370 C.ar  1 <1>  -0.1500 
 12 O       -4.8960     0.5880     0.4660 O.3   1 <1>  -0.5600 
 13 C       -4.1910    -2.0480    -0.1640 C.3   1 <1>   0.0200 
 14 C       -0.1300     4.4890    -1.0300 C.ar  1 <1>   0.0000 
 15 C       -1.7040     4.7470     0.7830 C.ar  1 <1>  -0.1500 
 16 C        1.6050     2.8100    -1.0000 C.ar  1 <1>  -0.1500 
 17 C       -5.7330     1.6390     0.0980 C.3   1 <1>   0.0400 
 18 C       -3.5790    -3.4390    -0.1790 C.2   1 <1>  -0.0400 
 19 C        0.9790     3.8510    -1.6180 C.ar  1 <1>  -0.1500 
 20 C       -0.7780     5.5570    -1.6830 C.ar  1 <1>  -0.1500 
 21 C       -2.3130     5.7810     0.1280 C.ar  1 <1>  -0.1500 
 22 O       -4.3750    -4.4750    -0.1420 O.3   1 <1>  -0.0190 
 23 C       -2.3170    -3.8970    -0.2300 C.2   1 <1>  -0.1500 
 24 C       -1.8480     6.1910    -1.1220 C.ar  1 <1>  -0.1500 
 25 N       -3.7160    -5.5980    -0.1630 N.2   1 <1>  -0.4100 
 26 C       -2.4730    -5.2800    -0.2150 C.2   1 <1>   0.1080 
 27 C       -1.3400    -6.2800    -0.2520 C.3   1 <1>  -0.0590 
 28 H       -1.1730     2.8810     2.6550 H     1 <1>   0.0800 
 29 H        0.4580     2.3930     2.8620 H     1 <1>   0.0800 
 30 H       -3.0610     2.2370     0.8520 H     1 <1>   0.0800 
 31 H       -1.9590     1.7180    -0.4180 H     1 <1>   0.0800 
 32 H       -1.5600    -1.5650     1.2480 H     1 <1>   0.0800 
 33 H       -3.0390    -1.0500     2.0450 H     1 <1>   0.0800 
 34 H       -3.9050     0.7290    -1.3000 H     1 <1>   0.0800 
 35 H       -2.4220    -1.0790    -0.8940 H     1 <1>   0.0800 
 36 H        1.6480     1.5270     0.6960 H     1 <1>   0.1500 
 37 H       -4.7880    -1.9310    -1.0500 H     1 <1>   0.0800 
 38 H       -4.8500    -1.9720     0.6840 H     1 <1>   0.0800 
 39 H       -2.0900     4.4740     1.7430 H     1 <1>   0.1500 
 40 H        2.4550     2.3250    -1.4490 H     1 <1>   0.1500 
 41 H       -6.5940     1.6200     0.7430 H     1 <1>   0.0800 
 42 H       -6.0450     1.5030    -0.9230 H     1 <1>   0.0800 
 43 H       -5.2150     2.5740     0.2150 H     1 <1>   0.0800 
 44 H        1.3300     4.2040    -2.5710 H     1 <1>   0.1500 
 45 H       -0.4090     5.8690    -2.6440 H     1 <1>   0.1500 
 46 H       -3.1520     6.2960     0.5650 H     1 <1>   0.1500 
 47 H       -1.3840    -3.3690    -0.2750 H     1 <1>   0.1500 
 48 H       -2.3380     7.0070    -1.6260 H     1 <1>   0.1500 
 49 H       -0.6830    -6.1190     0.5820 H     1 <1>   0.0800 
 50 H       -0.7870    -6.1700    -1.1670 H     1 <1>   0.0800 
 51 H       -1.7320    -7.2800    -0.1990 H     1 <1>   0.0800 
@<TRIPOS>BOND
  1   1   2  2   
  2   2   3  am  
  3   2   4  1   
  4   3   5  1   
  5   3   6  1   
  6   4   7  1   
  7   4  28  1   
  8   4  29  1   
  9   5   8  1   
 10   5  30  1   
 11   5  31  1   
 12   6   9  1   
 13   6  32  1   
 14   6  33  1   
 15   7  10  ar  
 16   7  11  ar  
 17   8   9  1   
 18   8  12  1   
 19   8  34  1   
 20   9  13  1   
 21   9  35  1   
 22  10  14  ar  
 23  10  15  ar  
 24  11  16  ar  
 25  11  36  1   
 26  12  17  1   
 27  13  18  1   
 28  13  37  1   
 29  13  38  1   
 30  14  19  ar  
 31  14  20  ar  
 32  15  21  ar  
 33  15  39  1   
 34  16  19  ar  
 35  16  40  1   
 36  17  41  1   
 37  17  42  1   
 38  17  43  1   
 39  18  22  1   
 40  18  23  2   
 41  19  44  1   
 42  20  24  ar  
 43  20  45  1   
 44  21  24  ar  
 45  21  46  1   
 46  22  25  1   
 47  23  26  1   
 48  23  47  1   
 49  24  48  1   
 50  25  26  2   
 51  26  27  1   
 52  27  49  1   
 53  27  50  1   
 54  27  51  1   
@<TRIPOS>SUBSTRUCTURE
  1 ****   5 GROUP 4 **** **** 0

# MOE 2024.06 (io_trps.svl 2023.06)
