@<TRIPOS>MOLECULE
NONAME
48 51 1 0 0 
SMALL
USER_CHARGES


@<TRIPOS>ATOM
  1 F        3.0840     0.4920     3.0660 F     1 <1>  -0.1900 
  2 C        2.7980     0.9980     1.8970 C.ar  1 <1>   0.1900 
  3 C        2.5090     0.1420     0.8380 C.ar  1 <1>   0.0860 
  4 C        2.7880     2.3750     1.7860 C.ar  1 <1>  -0.1500 
  5 C        2.1980     0.7510    -0.3840 C.ar  1 <1>   0.0830 
  6 C        2.5200    -1.2890     1.0060 C.2   1 <1>   0.5440 
  7 C        2.4690     2.9480     0.5660 C.ar  1 <1>  -0.1500 
  8 O        1.8820     0.0170    -1.4690 O.3   1 <1>  -0.3630 
  9 C        2.1720     2.1330    -0.5120 C.ar  1 <1>  -0.1500 
 10 O        3.5840    -1.8800     0.9880 O.2   1 <1>  -0.5700 
 11 N        1.3560    -2.0160     1.1460 N.am  1 <1>  -0.6600 
 12 C        2.9440    -0.5970    -2.1680 C.3   1 <1>   0.0400 
 13 C        1.3530    -3.5120     1.2080 C.3   1 <1>   0.1400 
 14 C       -0.0050    -1.4700     0.8630 C.3   1 <1>   0.1400 
 15 C        0.6820    -4.1030    -0.0480 C.3   1 <1>   0.3430 
 16 C       -0.5920    -2.1480    -0.3900 C.3   1 <1>   0.2950 
 17 O       -0.5930    -3.5390    -0.2350 O.3   1 <1>  -0.5600 
 18 C        0.5620    -5.6200     0.0710 C.ar  1 <1>  -0.1440 
 19 C       -2.0360    -1.7060    -0.6430 C.3   1 <1>  -0.1950 
 20 C       -0.5630    -6.2200     0.6230 C.ar  1 <1>  -0.1500 
 21 C        1.6040    -6.4240    -0.3700 C.ar  1 <1>  -0.1500 
 22 C       -2.6460    -1.7940    -2.0060 C.3   1 <1>  -0.2000 
 23 C       -2.3280    -0.4520    -1.4070 C.3   1 <1>  -0.2000 
 24 C       -0.6440    -7.5970     0.7330 C.ar  1 <1>  -0.1500 
 25 C        1.5250    -7.8020    -0.2610 C.ar  1 <1>  -0.1500 
 26 C        0.4000    -8.3900     0.2910 C.ar  1 <1>  -0.1500 
 27 H        3.0220     2.9860     2.6400 H     1 <1>   0.1500 
 28 H        2.4520     4.0200     0.4580 H     1 <1>   0.1500 
 29 H        1.9170     2.5670    -1.4640 H     1 <1>   0.1500 
 30 H        2.5430    -1.0640    -3.0490 H     1 <1>   0.0800 
 31 H        3.4060    -1.3390    -1.5410 H     1 <1>   0.0800 
 32 H        3.6610     0.1560    -2.4440 H     1 <1>   0.0800 
 33 H        2.3540    -3.8970     1.2880 H     1 <1>   0.0800 
 34 H        0.8120    -3.8320     2.0800 H     1 <1>   0.0800 
 35 H       -0.6470    -1.6640     1.7050 H     1 <1>   0.0800 
 36 H        0.0220    -0.4080     0.7100 H     1 <1>   0.0800 
 37 H        1.2760    -3.8650    -0.9130 H     1 <1>   0.0800 
 38 H        0.0100    -1.9060    -1.2490 H     1 <1>   0.0800 
 39 H       -2.6770    -1.9290     0.1930 H     1 <1>   0.1000 
 40 H       -1.3820    -5.6120     0.9670 H     1 <1>   0.1500 
 41 H        2.4860    -5.9820    -0.7990 H     1 <1>   0.1500 
 42 H       -2.0420    -2.1640    -2.8170 H     1 <1>   0.1000 
 43 H       -3.6740    -2.1030    -2.0860 H     1 <1>   0.1000 
 44 H       -3.1430     0.1740    -1.0870 H     1 <1>   0.1000 
 45 H       -1.5140     0.1140    -1.8280 H     1 <1>   0.1000 
 46 H       -1.5210    -8.0500     1.1610 H     1 <1>   0.1500 
 47 H        2.3380    -8.4170    -0.6050 H     1 <1>   0.1500 
 48 H        0.3380    -9.4600     0.3760 H     1 <1>   0.1500 
@<TRIPOS>BOND
  1   1   2  1   
  2   2   3  ar  
  3   2   4  ar  
  4   3   5  ar  
  5   3   6  1   
  6   4   7  ar  
  7   4  27  1   
  8   5   8  1   
  9   5   9  ar  
 10   6  10  2   
 11   6  11  am  
 12   7   9  ar  
 13   7  28  1   
 14   8  12  1   
 15   9  29  1   
 16  11  13  1   
 17  11  14  1   
 18  12  30  1   
 19  12  31  1   
 20  12  32  1   
 21  13  15  1   
 22  13  33  1   
 23  13  34  1   
 24  14  16  1   
 25  14  35  1   
 26  14  36  1   
 27  15  17  1   
 28  15  18  1   
 29  15  37  1   
 30  16  17  1   
 31  16  19  1   
 32  16  38  1   
 33  18  20  ar  
 34  18  21  ar  
 35  19  22  1   
 36  19  23  1   
 37  19  39  1   
 38  20  24  ar  
 39  20  40  1   
 40  21  25  ar  
 41  21  41  1   
 42  22  23  1   
 43  22  42  1   
 44  22  43  1   
 45  23  44  1   
 46  23  45  1   
 47  24  26  ar  
 48  24  46  1   
 49  25  26  ar  
 50  25  47  1   
 51  26  48  1   
@<TRIPOS>SUBSTRUCTURE
  1 ****  11 GROUP 4 **** **** 0

# MOE 2024.06 (io_trps.svl 2023.06)
