@<TRIPOS>MOLECULE
NONAME
50 51 1 0 0 
SMALL
USER_CHARGES


@<TRIPOS>ATOM
  1 O        0.2620     1.1900     0.1890 O.2   1 <1>  -0.5700 
  2 C       -0.0340     2.3160    -0.1330 C.2   1 <1>   0.5690 
  3 N       -0.8570     3.1060     0.6240 N.am  1 <1>  -0.6600 
  4 C        0.5150     2.8590    -1.4510 C.3   1 <1>   0.1810 
  5 C       -1.2560     4.4800     0.1710 C.3   1 <1>   0.3640 
  6 C       -1.3850     2.6710     1.9490 C.3   1 <1>   0.0600 
  7 O        0.5950     4.2620    -1.4590 O.3   1 <1>  -0.5600 
  8 C       -2.7900     4.6220     0.1660 C.ar  1 <1>  -0.1440 
  9 C       -0.6320     4.9280    -1.1810 C.3   1 <1>   0.2610 
 10 C       -3.6740     3.7520    -0.4830 C.ar  1 <1>  -0.1440 
 11 C       -3.3150     5.7020     0.8670 C.ar  1 <1>  -0.1500 
 12 C       -0.4030     6.4460    -1.1680 C.2   1 <1>   0.5690 
 13 C       -5.0400     3.9820    -0.4030 C.ar  1 <1>  -0.1500 
 14 C       -3.2290     2.5340    -1.2830 C.3   1 <1>  -0.0960 
 15 C       -4.6770     5.9230     0.9370 C.ar  1 <1>  -0.1500 
 16 O       -1.3400     7.1970    -1.0400 O.2   1 <1>  -0.5700 
 17 N        0.8670     6.9180    -1.2970 N.am  1 <1>  -0.7300 
 18 C       -5.5440     5.0590     0.3010 C.ar  1 <1>  -0.1500 
 19 C        1.2770     8.3350    -1.3190 C.3   1 <1>   0.1400 
 20 C        2.3780     8.5500    -0.2810 C.3   1 <1>  -0.1600 
 21 C        2.8500    10.0110    -0.2670 C.3   1 <1>  -0.1600 
 22 C        3.9600    10.2240     0.7700 C.3   1 <1>  -0.1600 
 23 C        4.4370    11.6760     0.7730 C.3   1 <1>   0.1200 
 24 O        5.4500    11.7990     1.7030 O.3   1 <1>  -0.6800 
 25 H       -0.1090     2.5430    -2.2660 H     1 <1>   0.0800 
 26 H        1.5060     2.4740    -1.6040 H     1 <1>   0.0800 
 27 H       -0.8710     5.1550     0.9150 H     1 <1>   0.0800 
 28 H       -1.1550     3.4110     2.6960 H     1 <1>   0.0800 
 29 H       -0.9450     1.7350     2.2460 H     1 <1>   0.0800 
 30 H       -2.4530     2.5460     1.8950 H     1 <1>   0.0800 
 31 H       -1.3110     4.7110    -1.9830 H     1 <1>   0.0800 
 32 H       -2.6610     6.3990     1.3640 H     1 <1>   0.1500 
 33 H       -5.7320     3.3200    -0.8930 H     1 <1>   0.1500 
 34 H       -4.0470     2.1240    -1.8470 H     1 <1>   0.0800 
 35 H       -2.8700     1.7670    -0.6200 H     1 <1>   0.0800 
 36 H       -2.4560     2.7920    -1.9790 H     1 <1>   0.0800 
 37 H       -5.0590     6.7680     1.4830 H     1 <1>   0.1500 
 38 H        1.6040     6.2190    -1.4380 H     1 <1>   0.3700 
 39 H       -6.6050     5.2240     0.3520 H     1 <1>   0.1500 
 40 H        1.6370     8.5830    -2.3030 H     1 <1>   0.0800 
 41 H        0.4310     8.9650    -1.0970 H     1 <1>   0.0800 
 42 H        1.9980     8.2890     0.6910 H     1 <1>   0.0800 
 43 H        3.2120     7.9100    -0.5100 H     1 <1>   0.0800 
 44 H        2.0160    10.6540    -0.0380 H     1 <1>   0.0800 
 45 H        3.2190    10.2770    -1.2440 H     1 <1>   0.0800 
 46 H        4.7940     9.5840     0.5340 H     1 <1>   0.0800 
 47 H        3.5880     9.9660     1.7460 H     1 <1>   0.0800 
 48 H        3.6420    12.3510     1.0440 H     1 <1>   0.0800 
 49 H        4.8330    11.9560    -0.1880 H     1 <1>   0.0800 
 50 H        5.1330    11.5470     2.5910 H     1 <1>   0.4000 
@<TRIPOS>BOND
  1   1   2  2   
  2   2   3  am  
  3   2   4  1   
  4   3   5  1   
  5   3   6  1   
  6   4   7  1   
  7   4  25  1   
  8   4  26  1   
  9   5   8  1   
 10   5   9  1   
 11   5  27  1   
 12   6  28  1   
 13   6  29  1   
 14   6  30  1   
 15   7   9  1   
 16   8  10  ar  
 17   8  11  ar  
 18   9  12  1   
 19   9  31  1   
 20  10  13  ar  
 21  10  14  1   
 22  11  15  ar  
 23  11  32  1   
 24  12  16  2   
 25  12  17  am  
 26  13  18  ar  
 27  13  33  1   
 28  14  34  1   
 29  14  35  1   
 30  14  36  1   
 31  15  18  ar  
 32  15  37  1   
 33  17  19  1   
 34  17  38  1   
 35  18  39  1   
 36  19  20  1   
 37  19  40  1   
 38  19  41  1   
 39  20  21  1   
 40  20  42  1   
 41  20  43  1   
 42  21  22  1   
 43  21  44  1   
 44  21  45  1   
 45  22  23  1   
 46  22  46  1   
 47  22  47  1   
 48  23  24  1   
 49  23  48  1   
 50  23  49  1   
 51  24  50  1   
@<TRIPOS>SUBSTRUCTURE
  1 ****  12 GROUP 4 **** **** 0

# MOE 2024.06 (io_trps.svl 2023.06)
