@<TRIPOS>MOLECULE
NONAME
50 53 1 0 0 
SMALL
USER_CHARGES


@<TRIPOS>ATOM
  1 O       -1.1510     0.3540     1.8720 O.3   1 <1>  -0.3630 
  2 C       -1.6180    -0.2640     0.7610 C.ar  1 <1>   0.0830 
  3 C       -0.6370     1.6680     1.7760 C.3   1 <1>   0.1200 
  4 C       -1.9410     0.4390    -0.3980 C.ar  1 <1>  -0.1440 
  5 C       -1.7780    -1.6390     0.8090 C.ar  1 <1>  -0.1500 
  6 C       -1.5690     2.5440     0.9260 C.3   1 <1>   0.2890 
  7 C       -2.4130    -0.2540    -1.5010 C.ar  1 <1>  -0.1500 
  8 C       -1.7870     1.9500    -0.4700 C.3   1 <1>  -0.0160 
  9 C       -2.2510    -2.3230    -0.2960 C.ar  1 <1>  -0.1500 
 10 N       -1.0970     3.9590     0.8450 N.pl3 1 <1>  -0.8690 
 11 C       -2.5670    -1.6300    -1.4520 C.ar  1 <1>  -0.1500 
 12 C        0.0430     4.5330     0.4230 C.ar  1 <1>   0.4100 
 13 N        0.0830     5.8320     0.6030 N.ar  1 <1>  -0.6200 
 14 C        1.1120     3.8320    -0.1650 C.ar  1 <1>  -0.1500 
 15 C        1.1670     6.4930     0.2200 C.ar  1 <1>   0.7710 
 16 C        2.2160     4.5180    -0.5470 C.ar  1 <1>   0.2180 
 17 N        2.2140     5.8560    -0.3380 N.ar  1 <1>  -0.1790 
 18 N        1.2280     7.8410     0.3980 N.pl3 1 <1>  -0.8380 
 19 C        3.4360     3.8680    -1.1890 C.3   1 <1>  -0.0170 
 20 C        2.2970     8.7870    -0.0860 C.3   1 <1>   0.2090 
 21 C        0.1520     8.5940     1.1470 C.3   1 <1>   0.2090 
 22 C        4.6920     4.0080    -0.3180 C.3   1 <1>  -0.2400 
 23 C        1.6830     9.9920    -0.8240 C.3   1 <1>   0.1200 
 24 C       -0.3390     9.8150     0.3490 C.3   1 <1>   0.1200 
 25 O        0.7390    10.6280    -0.0170 O.3   1 <1>  -0.5600 
 26 H        0.3410     1.5910     1.3450 H     1 <1>   0.0800 
 27 H       -0.5630     2.0590     2.7740 H     1 <1>   0.0800 
 28 H       -1.5310    -2.1660     1.7130 H     1 <1>   0.1500 
 29 H       -2.5210     2.5500     1.4290 H     1 <1>   0.0800 
 30 H       -2.6670     0.2710    -2.4060 H     1 <1>   0.1500 
 31 H       -2.6750     2.3810    -0.8970 H     1 <1>   0.0800 
 32 H       -0.9600     2.1710    -1.1140 H     1 <1>   0.0800 
 33 H       -2.3730    -3.3920    -0.2570 H     1 <1>   0.1500 
 34 H       -1.7830     4.6210     1.2250 H     1 <1>   0.4000 
 35 H       -2.9340    -2.1620    -2.3120 H     1 <1>   0.1500 
 36 H        1.0410     2.7720    -0.3050 H     1 <1>   0.1500 
 37 H        3.0130     6.4300    -0.5660 H     1 <1>   0.4570 
 38 H        3.6140     4.3040    -2.1570 H     1 <1>   0.0800 
 39 H        3.2420     2.8190    -1.3440 H     1 <1>   0.0800 
 40 H        2.9860     8.3020    -0.7520 H     1 <1>   0.0800 
 41 H        2.8540     9.1560     0.7590 H     1 <1>   0.0800 
 42 H        0.5490     8.9360     2.0870 H     1 <1>   0.0800 
 43 H       -0.6980     7.9730     1.3680 H     1 <1>   0.0800 
 44 H        4.9770     5.0380    -0.1940 H     1 <1>   0.0800 
 45 H        5.5140     3.4880    -0.7800 H     1 <1>   0.0800 
 46 H        4.5280     3.5730     0.6530 H     1 <1>   0.0800 
 47 H        1.2040     9.6840    -1.7370 H     1 <1>   0.0800 
 48 H        2.4450    10.7140    -1.0600 H     1 <1>   0.0800 
 49 H       -1.0060    10.4070     0.9500 H     1 <1>   0.0800 
 50 H       -0.8600     9.5050    -0.5400 H     1 <1>   0.0800 
@<TRIPOS>BOND
  1   1   2  1   
  2   1   3  1   
  3   2   4  ar  
  4   2   5  ar  
  5   3   6  1   
  6   3  26  1   
  7   3  27  1   
  8   4   7  ar  
  9   4   8  1   
 10   5   9  ar  
 11   5  28  1   
 12   6   8  1   
 13   6  10  1   
 14   6  29  1   
 15   7  11  ar  
 16   7  30  1   
 17   8  31  1   
 18   8  32  1   
 19   9  11  ar  
 20   9  33  1   
 21  10  12  1   
 22  10  34  1   
 23  11  35  1   
 24  12  13  ar  
 25  12  14  ar  
 26  13  15  ar  
 27  14  16  ar  
 28  14  36  1   
 29  15  17  ar  
 30  15  18  1   
 31  16  17  ar  
 32  16  19  1   
 33  17  37  1   
 34  18  20  1   
 35  18  21  1   
 36  19  22  1   
 37  19  38  1   
 38  19  39  1   
 39  20  23  1   
 40  20  40  1   
 41  20  41  1   
 42  21  24  1   
 43  21  42  1   
 44  21  43  1   
 45  22  44  1   
 46  22  45  1   
 47  22  46  1   
 48  23  25  1   
 49  23  47  1   
 50  23  48  1   
 51  24  25  1   
 52  24  49  1   
 53  24  50  1   
@<TRIPOS>SUBSTRUCTURE
  1 ****  12 GROUP 4 **** **** 0

# MOE 2024.06 (io_trps.svl 2023.06)
