@<TRIPOS>MOLECULE
NONAME
46 48 1 0 0 
SMALL
USER_CHARGES


@<TRIPOS>ATOM
  1 O       -0.4880     1.7330    -0.0680 O.2   1 <1>  -0.5700 
  2 C       -1.1010     0.6760    -0.1040 C.2   1 <1>   0.5440 
  3 N       -2.4780     0.6920    -0.1590 N.am  1 <1>  -0.4200 
  4 C       -0.4340    -0.5960    -0.1100 C.ar  1 <1>   0.0860 
  5 C       -3.1620    -0.4970    -0.2470 C.2   1 <1>   0.4500 
  6 C       -3.2270     1.9740    -0.0840 C.3   1 <1>   0.1400 
  7 C       -1.2370    -1.7400    -0.1970 C.ar  1 <1>   0.1790 
  8 C        0.9540    -0.7470    -0.0360 C.ar  1 <1>  -0.1500 
  9 N       -2.6130    -1.6500    -0.2700 N.2   1 <1>  -0.6290 
 10 C       -3.0740     2.7790    -1.3830 C.3   1 <1>  -0.0990 
 11 C       -0.6380    -2.9950    -0.2110 C.ar  1 <1>  -0.1500 
 12 C        1.5330    -1.9990    -0.0500 C.ar  1 <1>  -0.1500 
 13 C       -2.6590     4.2020    -1.0870 C.2   1 <1>   0.5690 
 14 C        0.7330    -3.1290    -0.1380 C.ar  1 <1>  -0.1500 
 15 O       -3.4500     5.0790    -1.3320 O.2   1 <1>  -0.5700 
 16 N       -1.4150     4.4020    -0.5570 N.am  1 <1>  -0.4940 
 17 C       -0.6720     5.5620    -0.2220 C.2   1 <1>  -0.0880 
 18 N       -1.1160     6.8230     0.0540 N.pl3 1 <1>   0.3140 
 19 C        0.6770     5.6020    -0.0890 C.2   1 <1>  -0.1810 
 20 N       -0.0890     7.6510     0.3510 N.2   1 <1>  -0.7070 
 21 C       -2.4880     7.3340     0.1500 C.3   1 <1>   0.0160 
 22 C        0.9700     6.9170     0.2600 C.2   1 <1>   0.1080 
 23 C        1.6710     4.4680    -0.2780 C.3   1 <1>   0.0210 
 24 C        2.3510     7.4760     0.5170 C.3   1 <1>  -0.0590 
 25 C        1.9780     3.7930     1.0610 C.3   1 <1>  -0.2400 
 26 H       -4.2350    -0.4280    -0.2980 H     1 <1>   0.0600 
 27 H       -2.8530     2.5360     0.7560 H     1 <1>   0.0800 
 28 H       -4.2710     1.7830     0.1000 H     1 <1>   0.0800 
 29 H        1.5730     0.1320     0.0330 H     1 <1>   0.1500 
 30 H       -4.0120     2.7920    -1.9070 H     1 <1>   0.0800 
 31 H       -2.3390     2.3430    -2.0350 H     1 <1>   0.0800 
 32 H       -1.2680    -3.8640    -0.2790 H     1 <1>   0.1500 
 33 H        2.6040    -2.1050     0.0070 H     1 <1>   0.1500 
 34 H        1.1840    -4.1070    -0.1500 H     1 <1>   0.1500 
 35 H       -0.8810     3.5310    -0.4140 H     1 <1>   0.3700 
 36 H       -3.0970     6.6210     0.6720 H     1 <1>   0.0800 
 37 H       -2.8720     7.4940    -0.8390 H     1 <1>   0.0800 
 38 H       -2.4830     8.2630     0.6870 H     1 <1>   0.0800 
 39 H        2.5780     4.8490    -0.7120 H     1 <1>   0.0800 
 40 H        1.2650     3.7420    -0.9600 H     1 <1>   0.0800 
 41 H        2.8120     6.9510     1.3320 H     1 <1>   0.0800 
 42 H        2.2800     8.5180     0.7710 H     1 <1>   0.0800 
 43 H        2.9550     7.3740    -0.3650 H     1 <1>   0.0800 
 44 H        2.4100     4.5000     1.7450 H     1 <1>   0.0800 
 45 H        2.6660     2.9810     0.9170 H     1 <1>   0.0800 
 46 H        1.0720     3.4070     1.4930 H     1 <1>   0.0800 
@<TRIPOS>BOND
  1   1   2  2   
  2   2   3  am  
  3   2   4  1   
  4   3   5  1   
  5   3   6  1   
  6   4   7  ar  
  7   4   8  ar  
  8   5   9  2   
  9   5  26  1   
 10   6  10  1   
 11   6  27  1   
 12   6  28  1   
 13   7   9  1   
 14   7  11  ar  
 15   8  12  ar  
 16   8  29  1   
 17  10  13  1   
 18  10  30  1   
 19  10  31  1   
 20  11  14  ar  
 21  11  32  1   
 22  12  14  ar  
 23  12  33  1   
 24  13  15  2   
 25  13  16  am  
 26  14  34  1   
 27  16  17  1   
 28  16  35  1   
 29  17  18  1   
 30  17  19  2   
 31  18  20  1   
 32  18  21  1   
 33  19  22  1   
 34  19  23  1   
 35  20  22  2   
 36  21  36  1   
 37  21  37  1   
 38  21  38  1   
 39  22  24  1   
 40  23  25  1   
 41  23  39  1   
 42  23  40  1   
 43  24  41  1   
 44  24  42  1   
 45  24  43  1   
 46  25  44  1   
 47  25  45  1   
 48  25  46  1   
@<TRIPOS>SUBSTRUCTURE
  1 ****   1 GROUP 4 **** **** 0

# MOE 2024.06 (io_trps.svl 2023.06)
