@<TRIPOS>MOLECULE
NONAME
66 69 1 0 0 
SMALL
USER_CHARGES


@<TRIPOS>ATOM
  1 O       -0.5440    -2.0340     1.7160 O.3   1 <1>  -0.6800 
  2 C       -1.8780    -2.3540     1.5220 C.3   1 <1>   0.1200 
  3 C       -1.9790    -3.2490     0.2820 C.3   1 <1>   0.1100 
  4 N       -3.3790    -3.6380    -0.0140 N.3   1 <1>  -0.8100 
  5 C       -4.1470    -2.5210    -0.6200 C.3   1 <1>   0.1100 
  6 C       -3.3990    -4.8040    -0.9280 C.3   1 <1>   0.1100 
  7 C       -5.5940    -2.9430    -0.9790 C.3   1 <1>   0.3430 
  8 C       -4.8420    -5.2460    -1.2740 C.3   1 <1>   0.3430 
  9 N       -5.8550    -4.3740    -0.5700 N.4   1 <1>  -0.9590 
 10 C       -7.2780    -4.8300    -0.6420 C.3   1 <1>   0.4230 
 11 C       -8.1720    -3.9090     0.2060 C.3   1 <1>  -0.1600 
 12 C       -7.3970    -6.2790    -0.1450 C.3   1 <1>  -0.1600 
 13 C       -9.6140    -4.4130     0.2920 C.3   1 <1>   0.3430 
 14 C       -8.8500    -6.7430    -0.0590 C.3   1 <1>   0.3430 
 15 N       -9.6280    -5.8070     0.8020 N.4   1 <1>  -0.9590 
 16 C      -11.0170    -6.3000     1.0070 C.3   1 <1>   0.5230 
 17 C      -10.9260    -7.6250     1.7240 C.2   1 <1>  -0.3320 
 18 N      -11.6820    -8.7150     1.4390 N.pl3 1 <1>   0.0480 
 19 C      -10.1130    -7.9810     2.7470 C.2   1 <1>   0.0770 
 20 C      -11.2390    -9.6610     2.3000 C.2   1 <1>   0.0360 
 21 C      -12.7730    -8.8870     0.4390 C.3   1 <1>   0.1760 
 22 N      -10.2980    -9.2600     3.0880 N.2   1 <1>  -0.5650 
 23 C      -14.0900    -9.2790     1.1320 C.3   1 <1>  -0.1600 
 24 C      -12.3740    -9.9260    -0.6230 C.3   1 <1>  -0.1600 
 25 C      -15.2140    -9.4760     0.1050 C.3   1 <1>  -0.1600 
 26 C      -13.4980   -10.1240    -1.6500 C.3   1 <1>  -0.1600 
 27 C      -14.8170   -10.5040    -0.9630 C.3   1 <1>  -0.1600 
 28 H       -0.4240    -1.5050     2.5300 H     1 <1>   0.4000 
 29 H       -2.4200    -1.4350     1.3910 H     1 <1>   0.0800 
 30 H       -2.2300    -2.8770     2.3940 H     1 <1>   0.0800 
 31 H       -1.3980    -4.1340     0.4780 H     1 <1>   0.0800 
 32 H       -1.5470    -2.7420    -0.5650 H     1 <1>   0.0800 
 33 H       -3.6490    -2.1700    -1.5090 H     1 <1>   0.0800 
 34 H       -4.1910    -1.6950     0.0680 H     1 <1>   0.0800 
 35 H       -2.8860    -5.6300    -0.4640 H     1 <1>   0.0800 
 36 H       -2.8710    -4.5690    -1.8380 H     1 <1>   0.0800 
 37 H       -5.7460    -2.8250    -2.0390 H     1 <1>   0.0800 
 38 H       -6.2700    -2.2750    -0.4740 H     1 <1>   0.0800 
 39 H       -4.9530    -6.2740    -0.9730 H     1 <1>   0.0800 
 40 H       -4.9840    -5.1970    -2.3410 H     1 <1>   0.0800 
 41 H       -5.5120    -4.3910     0.4060 H     1 <1>   0.4500 
 42 H       -7.6090    -4.7870    -1.6680 H     1 <1>   0.0800 
 43 H       -8.2090    -2.9280    -0.2300 H     1 <1>   0.0800 
 44 H       -7.7770    -3.8200     1.2030 H     1 <1>   0.0800 
 45 H       -6.9440    -6.3830     0.8260 H     1 <1>   0.0800 
 46 H       -6.8970    -6.9460    -0.8220 H     1 <1>   0.0800 
 47 H      -10.0730    -4.3760    -0.6840 H     1 <1>   0.0800 
 48 H      -10.1800    -3.7720     0.9520 H     1 <1>   0.0800 
 49 H       -8.8810    -7.7410     0.3560 H     1 <1>   0.0800 
 50 H       -9.2840    -6.7800    -1.0450 H     1 <1>   0.0800 
 51 H       -9.2150    -5.8290     1.7450 H     1 <1>   0.4500 
 52 H      -11.5090    -6.4220     0.0550 H     1 <1>   0.0800 
 53 H      -11.5860    -5.6060     1.6050 H     1 <1>   0.0800 
 54 H       -9.3820    -7.3940     3.2790 H     1 <1>   0.1500 
 55 H      -11.6480   -10.6570     2.3150 H     1 <1>   0.1500 
 56 H      -12.9340    -7.9480    -0.0570 H     1 <1>   0.0800 
 57 H      -14.3790    -8.5130     1.8300 H     1 <1>   0.0800 
 58 H      -13.9590   -10.1990     1.6760 H     1 <1>   0.0800 
 59 H      -12.1730   -10.8720    -0.1490 H     1 <1>   0.0800 
 60 H      -11.4820    -9.6080    -1.1330 H     1 <1>   0.0800 
 61 H      -15.4410    -8.5370    -0.3700 H     1 <1>   0.0800 
 62 H      -16.1060    -9.8110     0.6080 H     1 <1>   0.0800 
 63 H      -13.2210   -10.9000    -2.3430 H     1 <1>   0.0800 
 64 H      -13.6400    -9.2180    -2.2140 H     1 <1>   0.0800 
 65 H      -15.5980   -10.5770    -1.7000 H     1 <1>   0.0800 
 66 H      -14.7120   -11.4730    -0.5030 H     1 <1>   0.0800 
@<TRIPOS>BOND
  1   1   2  1   
  2   1  28  1   
  3   2   3  1   
  4   2  29  1   
  5   2  30  1   
  6   3   4  1   
  7   3  31  1   
  8   3  32  1   
  9   4   5  1   
 10   4   6  1   
 11   5   7  1   
 12   5  33  1   
 13   5  34  1   
 14   6   8  1   
 15   6  35  1   
 16   6  36  1   
 17   7   9  1   
 18   7  37  1   
 19   7  38  1   
 20   8   9  1   
 21   8  39  1   
 22   8  40  1   
 23   9  10  1   
 24   9  41  1   
 25  10  11  1   
 26  10  12  1   
 27  10  42  1   
 28  11  13  1   
 29  11  43  1   
 30  11  44  1   
 31  12  14  1   
 32  12  45  1   
 33  12  46  1   
 34  13  15  1   
 35  13  47  1   
 36  13  48  1   
 37  14  15  1   
 38  14  49  1   
 39  14  50  1   
 40  15  16  1   
 41  15  51  1   
 42  16  17  1   
 43  16  52  1   
 44  16  53  1   
 45  17  18  1   
 46  17  19  2   
 47  18  20  1   
 48  18  21  1   
 49  19  22  1   
 50  19  54  1   
 51  20  22  2   
 52  20  55  1   
 53  21  23  1   
 54  21  24  1   
 55  21  56  1   
 56  23  25  1   
 57  23  57  1   
 58  23  58  1   
 59  24  26  1   
 60  24  59  1   
 61  24  60  1   
 62  25  27  1   
 63  25  61  1   
 64  25  62  1   
 65  26  27  1   
 66  26  63  1   
 67  26  64  1   
 68  27  65  1   
 69  27  66  1   
@<TRIPOS>SUBSTRUCTURE
  1 ****  14 GROUP 4 **** **** 0

# MOE 2024.06 (io_trps.svl 2023.06)
