@<TRIPOS>MOLECULE
NONAME
47 49 1 0 0 
SMALL
USER_CHARGES


@<TRIPOS>ATOM
  1 F       -0.6250     1.3410     0.1130 F     1 <1>  -0.1900 
  2 C        0.5740     1.0480    -0.3140 C.ar  1 <1>   0.1900 
  3 C        0.8320    -0.2430    -0.7440 C.ar  1 <1>  -0.1440 
  4 C        1.5370     2.0390    -0.3060 C.ar  1 <1>  -0.1500 
  5 C        2.1140    -0.5410    -1.1860 C.ar  1 <1>  -0.1500 
  6 C       -0.2640    -1.2880    -0.7310 C.3   1 <1>   0.4870 
  7 C        2.8110     1.7240    -0.7450 C.ar  1 <1>  -0.1500 
  8 C        3.0950     0.4400    -1.1830 C.ar  1 <1>  -0.1500 
  9 N       -0.1010    -2.1490     0.4730 N.4   1 <1>  -0.9590 
 10 C       -0.9570    -3.3810     0.3560 C.3   1 <1>   0.3430 
 11 C       -0.3850    -1.3890     1.7280 C.3   1 <1>   0.3430 
 12 C       -0.8350    -4.3240     1.5800 C.3   1 <1>   0.2890 
 13 C       -0.1820    -2.2950     2.9460 C.3   1 <1>  -0.1600 
 14 N       -1.8200    -5.4190     1.5090 N.pl3 1 <1>  -0.8690 
 15 C       -1.0610    -3.5560     2.8850 C.3   1 <1>  -0.1600 
 16 C       -1.8110    -6.2110     0.3880 C.ar  1 <1>   0.4100 
 17 N       -2.6150    -5.7540    -0.5550 N.ar  1 <1>  -0.6200 
 18 C       -1.0130    -7.3670     0.2390 C.ar  1 <1>   0.1670 
 19 C       -2.6060    -6.5100    -1.6400 C.ar  1 <1>   0.1670 
 20 N       -0.9810    -8.0920    -0.8600 N.ar  1 <1>  -0.6200 
 21 C       -0.1180    -7.8660     1.3630 C.3   1 <1>  -0.0970 
 22 C       -1.8100    -7.6400    -1.7880 C.ar  1 <1>   0.1600 
 23 C       -3.5350    -6.0770    -2.7570 C.3   1 <1>  -0.0970 
 24 H        1.2970     3.0310     0.0350 H     1 <1>   0.1500 
 25 H        2.3670    -1.5260    -1.5420 H     1 <1>   0.1500 
 26 H       -0.1880    -1.8840    -1.6260 H     1 <1>   0.0800 
 27 H       -1.2320    -0.8120    -0.7230 H     1 <1>   0.0800 
 28 H        3.5820     2.4790    -0.7500 H     1 <1>   0.1500 
 29 H        4.0900     0.2070    -1.5280 H     1 <1>   0.1500 
 30 H        0.8870    -2.4300     0.5010 H     1 <1>   0.4500 
 31 H       -0.6860    -3.9340    -0.5280 H     1 <1>   0.0800 
 32 H       -1.9900    -3.0910     0.2620 H     1 <1>   0.0800 
 33 H       -1.4010    -1.0260     1.7150 H     1 <1>   0.0800 
 34 H        0.2730    -0.5370     1.8030 H     1 <1>   0.0800 
 35 H        0.1520    -4.7550     1.5860 H     1 <1>   0.0800 
 36 H       -0.4260    -1.7390     3.8350 H     1 <1>   0.0800 
 37 H        0.8560    -2.5700     3.0190 H     1 <1>   0.0800 
 38 H       -2.7750    -5.0820     1.6710 H     1 <1>   0.4000 
 39 H       -0.8320    -4.1970     3.7200 H     1 <1>   0.0800 
 40 H       -2.0950    -3.2660     2.9590 H     1 <1>   0.0800 
 41 H       -0.3830    -7.4260     2.3060 H     1 <1>   0.0800 
 42 H        0.9060    -7.6350     1.1380 H     1 <1>   0.0800 
 43 H       -0.2180    -8.9320     1.4520 H     1 <1>   0.0800 
 44 H       -1.8550    -8.1990    -2.7060 H     1 <1>   0.1500 
 45 H       -4.5480    -6.0670    -2.3970 H     1 <1>   0.0800 
 46 H       -3.4750    -6.7480    -3.5950 H     1 <1>   0.0800 
 47 H       -3.2750    -5.0880    -3.0860 H     1 <1>   0.0800 
@<TRIPOS>BOND
  1   1   2  1   
  2   2   3  ar  
  3   2   4  ar  
  4   3   5  ar  
  5   3   6  1   
  6   4   7  ar  
  7   4  24  1   
  8   5   8  ar  
  9   5  25  1   
 10   6   9  1   
 11   6  26  1   
 12   6  27  1   
 13   7   8  ar  
 14   7  28  1   
 15   8  29  1   
 16   9  10  1   
 17   9  11  1   
 18   9  30  1   
 19  10  12  1   
 20  10  31  1   
 21  10  32  1   
 22  11  13  1   
 23  11  33  1   
 24  11  34  1   
 25  12  14  1   
 26  12  15  1   
 27  12  35  1   
 28  13  15  1   
 29  13  36  1   
 30  13  37  1   
 31  14  16  1   
 32  14  38  1   
 33  15  39  1   
 34  15  40  1   
 35  16  17  ar  
 36  16  18  ar  
 37  17  19  ar  
 38  18  20  ar  
 39  18  21  1   
 40  19  22  ar  
 41  19  23  1   
 42  20  22  ar  
 43  21  41  1   
 44  21  42  1   
 45  21  43  1   
 46  22  44  1   
 47  23  45  1   
 48  23  46  1   
 49  23  47  1   
@<TRIPOS>SUBSTRUCTURE
  1 ****  10 GROUP 4 **** **** 0

# MOE 2024.06 (io_trps.svl 2023.06)
