@<TRIPOS>MOLECULE
NONAME
48 49 1 0 0 
SMALL
USER_CHARGES


@<TRIPOS>ATOM
  1 S       -0.7380     0.4300     1.2940 S.o2  1 <1>   1.4470 
  2 O       -0.6520    -0.7580     2.1110 O.2   1 <1>  -0.6500 
  3 O       -1.4110     1.5960     1.8120 O.2   1 <1>  -0.6500 
  4 N       -1.6350     0.0490    -0.0770 N.am  1 <1>  -0.9140 
  5 C        0.8880     0.8880     0.6340 C.ar  1 <1>  -0.0090 
  6 C       -1.6420    -1.3180    -0.6080 C.3   1 <1>   0.2760 
  7 C        1.0060     1.8100    -0.3990 C.ar  1 <1>  -0.1500 
  8 C        2.0550     0.3300     1.1410 C.ar  1 <1>  -0.1500 
  9 C       -2.4500    -2.3070     0.2380 C.3   1 <1>  -0.0800 
 10 C       -0.2800    -1.9970    -0.7940 C.3   1 <1>   0.1200 
 11 C        2.2430     2.1570    -0.9140 C.ar  1 <1>  -0.1500 
 12 C        3.2950     0.6720     0.6310 C.ar  1 <1>  -0.1500 
 13 C       -1.4370    -3.4240     0.5110 C.3   1 <1>   0.1200 
 14 C       -3.6720    -2.8280    -0.5430 C.3   1 <1>  -0.0550 
 15 O       -0.5220    -3.3400    -0.5310 O.3   1 <1>  -0.5600 
 16 C        3.3960     1.5880    -0.4030 C.ar  1 <1>  -0.1430 
 17 S       -4.8540    -3.7120     0.4730 S.o2  1 <1>   1.3330 
 18 C        4.7570     1.9670    -0.9650 C.3   1 <1>  -0.0160 
 19 O       -4.2660    -4.9370     0.9660 O.2   1 <1>  -0.6500 
 20 O       -5.4150    -2.7570     1.4020 O.2   1 <1>  -0.6500 
 21 N       -6.0580    -4.1290    -0.6490 N.am  1 <1>  -0.8490 
 22 C        5.3310     3.1690    -0.2130 C.3   1 <1>  -0.2400 
 23 C       -5.7560    -5.3560    -1.3950 C.3   1 <1>   0.1160 
 24 C       -7.3810    -4.2410    -0.0260 C.3   1 <1>   0.1160 
 25 H       -2.5850     0.3070     0.1870 H     1 <1>   0.4200 
 26 H       -2.0850    -1.2640    -1.5890 H     1 <1>   0.0800 
 27 H        0.1170     2.2630    -0.8040 H     1 <1>   0.1500 
 28 H        1.9960    -0.3840     1.9470 H     1 <1>   0.1500 
 29 H       -2.7770    -1.8760     1.1680 H     1 <1>   0.0800 
 30 H        0.4600    -1.6650    -0.0920 H     1 <1>   0.0800 
 31 H        0.0890    -1.9010    -1.8000 H     1 <1>   0.0800 
 32 H        2.3040     2.8760    -1.7130 H     1 <1>   0.1500 
 33 H        4.1830     0.2240     1.0430 H     1 <1>   0.1500 
 34 H       -1.8640    -4.4120     0.5240 H     1 <1>   0.0800 
 35 H       -0.9090    -3.2500     1.4340 H     1 <1>   0.0800 
 36 H       -3.3370    -3.4600    -1.3430 H     1 <1>   0.0800 
 37 H       -4.1840    -1.9920    -0.9800 H     1 <1>   0.0800 
 38 H        5.4310     1.1330    -0.8810 H     1 <1>   0.0800 
 39 H        4.6640     2.2060    -2.0100 H     1 <1>   0.0800 
 40 H        5.4450     2.9340     0.8310 H     1 <1>   0.0800 
 41 H        4.6720     4.0140    -0.3050 H     1 <1>   0.0800 
 42 H        6.2920     3.4340    -0.6150 H     1 <1>   0.0800 
 43 H       -6.5030    -5.5210    -2.1530 H     1 <1>   0.0800 
 44 H       -5.7380    -6.2070    -0.7320 H     1 <1>   0.0800 
 45 H       -4.7970    -5.2740    -1.8760 H     1 <1>   0.0800 
 46 H       -8.1220    -4.4910    -0.7660 H     1 <1>   0.0800 
 47 H       -7.6580    -3.3010     0.4220 H     1 <1>   0.0800 
 48 H       -7.3720    -5.0000     0.7390 H     1 <1>   0.0800 
@<TRIPOS>BOND
  1   1   2  2   
  2   1   3  2   
  3   1   4  am  
  4   1   5  1   
  5   4   6  1   
  6   4  25  1   
  7   5   7  ar  
  8   5   8  ar  
  9   6   9  1   
 10   6  10  1   
 11   6  26  1   
 12   7  11  ar  
 13   7  27  1   
 14   8  12  ar  
 15   8  28  1   
 16   9  13  1   
 17   9  14  1   
 18   9  29  1   
 19  10  15  1   
 20  10  30  1   
 21  10  31  1   
 22  11  16  ar  
 23  11  32  1   
 24  12  16  ar  
 25  12  33  1   
 26  13  15  1   
 27  13  34  1   
 28  13  35  1   
 29  14  17  1   
 30  14  36  1   
 31  14  37  1   
 32  16  18  1   
 33  17  19  2   
 34  17  20  2   
 35  17  21  am  
 36  18  22  1   
 37  18  38  1   
 38  18  39  1   
 39  21  23  1   
 40  21  24  1   
 41  22  40  1   
 42  22  41  1   
 43  22  42  1   
 44  23  43  1   
 45  23  44  1   
 46  23  45  1   
 47  24  46  1   
 48  24  47  1   
 49  24  48  1   
@<TRIPOS>SUBSTRUCTURE
  1 ****   6 GROUP 4 **** **** 0

# MOE 2024.06 (io_trps.svl 2023.06)
