@<TRIPOS>MOLECULE
NONAME
63 66 1 0 0 
SMALL
USER_CHARGES


@<TRIPOS>ATOM
  1 S        3.2630     3.0060     1.8430 S.3   1 <1>  -0.0800 
  2 C        2.7450     3.1080     0.1800 C.2   1 <1>   0.1240 
  3 C        2.4540     1.4490     2.0250 C.2   1 <1>  -0.1400 
  4 N        3.0290     4.1300    -0.6620 N.pl3 1 <1>  -0.5340 
  5 C        2.0150     2.0350    -0.2020 C.2   1 <1>  -0.0860 
  6 C        1.8510     1.0820     0.8730 C.2   1 <1>  -0.1810 
  7 C        2.5720     0.8150     3.3980 C.3   1 <1>  -0.0600 
  8 C        2.5600     4.0790    -1.9390 C.2   1 <1>   0.4390 
  9 C        1.5620     2.0480    -1.5620 C.2   1 <1>   0.8670 
 10 C        1.0580    -0.1970     0.6490 C.3   1 <1>  -0.0590 
 11 N        1.8630     3.1030    -2.3980 N.2   1 <1>  -0.6610 
 12 C        2.8880     5.2490    -2.8450 C.3   1 <1>  -0.0990 
 13 O        0.8990     1.1350    -2.0330 O.2   1 <1>  -0.5700 
 14 C        4.4010     5.4130    -3.0430 C.3   1 <1>   0.1400 
 15 N        4.8500     6.7400    -2.5570 N.am  1 <1>  -0.7300 
 16 C        5.0370     7.0830    -1.2520 C.2   1 <1>   0.5690 
 17 O        4.7970     6.2850    -0.3750 O.2   1 <1>  -0.5700 
 18 C        5.6060     8.4680    -0.8870 C.3   1 <1>   0.0610 
 19 C        4.9770     9.0140     0.4280 C.3   1 <1>   0.2200 
 20 C        5.2110     9.6020    -1.8870 C.3   1 <1>  -0.1600 
 21 C        7.1520     8.2820    -0.8020 C.3   1 <1>  -0.1600 
 22 N        5.1330    10.4570     0.2490 N.am  1 <1>  -0.6600 
 23 C        3.4370     8.9610     0.4010 C.3   1 <1>  -0.1600 
 24 C        4.4460    10.6100    -1.0190 C.3   1 <1>   0.2200 
 25 C        8.0050     9.4650    -0.3140 C.3   1 <1>  -0.2400 
 26 C        5.5740    11.3390     1.1980 C.2   1 <1>   0.5690 
 27 C        3.0770    10.0230    -0.6550 C.3   1 <1>  -0.1600 
 28 O        5.9550    10.9400     2.2740 O.2   1 <1>  -0.5700 
 29 C        5.6180    12.8560     0.9570 C.3   1 <1>  -0.0190 
 30 C        4.2230    13.4920     0.8260 C.3   1 <1>  -0.2400 
 31 C        6.5310    13.2600    -0.2130 C.3   1 <1>  -0.2400 
 32 H        3.6310     4.9160    -0.3580 H     1 <1>   0.4000 
 33 H        2.0590    -0.1280     3.4350 H     1 <1>   0.0800 
 34 H        2.1450     1.4680     4.1370 H     1 <1>   0.0800 
 35 H        3.6080     0.6530     3.6340 H     1 <1>   0.0800 
 36 H        1.5110    -0.7740    -0.1380 H     1 <1>   0.0800 
 37 H        0.0500     0.0440     0.3600 H     1 <1>   0.0800 
 38 H        1.0220    -0.7990     1.5360 H     1 <1>   0.0800 
 39 H        2.4310     5.0780    -3.8030 H     1 <1>   0.0800 
 40 H        2.4530     6.1390    -2.4300 H     1 <1>   0.0800 
 41 H        4.6410     5.3190    -4.0890 H     1 <1>   0.0800 
 42 H        4.9390     4.6420    -2.5150 H     1 <1>   0.0800 
 43 H        5.1170     7.4070    -3.2850 H     1 <1>   0.3700 
 44 H        5.4200     8.6290     1.3320 H     1 <1>   0.0800 
 45 H        4.5880     9.2760    -2.6970 H     1 <1>   0.0800 
 46 H        6.0770    10.0790    -2.3070 H     1 <1>   0.0800 
 47 H        7.3520     7.4540    -0.1420 H     1 <1>   0.0800 
 48 H        7.5110     7.9940    -1.7750 H     1 <1>   0.0800 
 49 H        3.0320     7.9940     0.1720 H     1 <1>   0.0800 
 50 H        3.0650     9.2570     1.3670 H     1 <1>   0.0800 
 51 H        4.4150    11.6080    -1.4160 H     1 <1>   0.0800 
 52 H        7.7940     9.6800     0.7190 H     1 <1>   0.0800 
 53 H        7.8300    10.3500    -0.8960 H     1 <1>   0.0800 
 54 H        9.0490     9.2140    -0.3870 H     1 <1>   0.0800 
 55 H        2.4490    10.7840    -0.2260 H     1 <1>   0.0800 
 56 H        2.5810     9.5980    -1.5100 H     1 <1>   0.0800 
 57 H        6.0590    13.2780     1.8440 H     1 <1>   0.0800 
 58 H        3.7290    13.1860    -0.0760 H     1 <1>   0.0800 
 59 H        4.3050    14.5650     0.8210 H     1 <1>   0.0800 
 60 H        3.6130    13.2040     1.6650 H     1 <1>   0.0800 
 61 H        6.1490    12.9120    -1.1530 H     1 <1>   0.0800 
 62 H        7.5120    12.8420    -0.0670 H     1 <1>   0.0800 
 63 H        6.6240    14.3310    -0.2580 H     1 <1>   0.0800 
@<TRIPOS>BOND
  1   1   2  1   
  2   1   3  1   
  3   2   4  1   
  4   2   5  2   
  5   3   6  2   
  6   3   7  1   
  7   4   8  1   
  8   4  32  1   
  9   5   6  1   
 10   5   9  1   
 11   6  10  1   
 12   7  33  1   
 13   7  34  1   
 14   7  35  1   
 15   8  11  2   
 16   8  12  1   
 17   9  11  1   
 18   9  13  2   
 19  10  36  1   
 20  10  37  1   
 21  10  38  1   
 22  12  14  1   
 23  12  39  1   
 24  12  40  1   
 25  14  15  1   
 26  14  41  1   
 27  14  42  1   
 28  15  16  am  
 29  15  43  1   
 30  16  17  2   
 31  16  18  1   
 32  18  19  1   
 33  18  20  1   
 34  18  21  1   
 35  19  22  1   
 36  19  23  1   
 37  19  44  1   
 38  20  24  1   
 39  20  45  1   
 40  20  46  1   
 41  21  25  1   
 42  21  47  1   
 43  21  48  1   
 44  22  24  1   
 45  22  26  am  
 46  23  27  1   
 47  23  49  1   
 48  23  50  1   
 49  24  27  1   
 50  24  51  1   
 51  25  52  1   
 52  25  53  1   
 53  25  54  1   
 54  26  28  2   
 55  26  29  1   
 56  27  55  1   
 57  27  56  1   
 58  29  30  1   
 59  29  31  1   
 60  29  57  1   
 61  30  58  1   
 62  30  59  1   
 63  30  60  1   
 64  31  61  1   
 65  31  62  1   
 66  31  63  1   
@<TRIPOS>SUBSTRUCTURE
  1 ****  17 GROUP 4 **** **** 0

# MOE 2024.06 (io_trps.svl 2023.06)
