@<TRIPOS>MOLECULE
NONAME
43 45 1 0 0 
SMALL
USER_CHARGES


@<TRIPOS>ATOM
  1 O       -2.4570     0.5050    -1.8740 O.2   1 <1>  -0.5700 
  2 C       -2.2530     0.8730    -0.7330 C.2   1 <1>   0.7160 
  3 N       -2.5320    -0.0220     0.2750 N.am  1 <1>  -0.6600 
  4 C       -1.8240     2.2190    -0.4490 C.2   1 <1>  -0.0860 
  5 C       -3.5080     0.3360     1.3470 C.3   1 <1>   0.1400 
  6 C       -2.4710    -1.4850    -0.0110 C.3   1 <1>   0.1400 
  7 C       -1.2760     2.7390     0.6840 C.2   1 <1>  -0.0100 
  8 C       -1.8860     3.3170    -1.3320 C.2   1 <1>  -0.1500 
  9 C       -4.9210    -0.2190     1.0330 C.3   1 <1>   0.4230 
 10 C       -3.8700    -2.0090    -0.3800 C.3   1 <1>   0.3430 
 11 O       -1.0350     4.0200     0.5540 O.3   1 <1>  -0.2800 
 12 C       -1.3950     4.3770    -0.6600 C.2   1 <1>  -0.0100 
 13 N       -4.8950    -1.7020     0.6920 N.4   1 <1>  -0.9590 
 14 C       -5.5970     0.5960    -0.0960 C.3   1 <1>   0.1200 
 15 C       -6.2880    -2.1510     0.3300 C.3   1 <1>   0.4230 
 16 O       -6.8770     0.0950    -0.3500 O.3   1 <1>  -0.5600 
 17 C       -6.9140    -1.2440    -0.7570 C.3   1 <1>   0.1200 
 18 C       -6.2950    -3.6400    -0.0570 C.3   1 <1>  -0.1600 
 19 C       -7.7110    -4.2370    -0.0580 C.3   1 <1>  -0.1600 
 20 C       -7.6690    -5.7370    -0.3650 C.3   1 <1>  -0.2400 
 21 H       -3.1640    -0.0660     2.2850 H     1 <1>   0.0800 
 22 H       -3.5650     1.4050     1.4610 H     1 <1>   0.0800 
 23 H       -1.7940    -1.6700    -0.8290 H     1 <1>   0.0800 
 24 H       -2.0910    -2.0080     0.8500 H     1 <1>   0.0800 
 25 H       -1.0270     2.2590     1.6140 H     1 <1>   0.1500 
 26 H       -2.2570     3.2730    -2.3420 H     1 <1>   0.1500 
 27 H       -5.5250    -0.0760     1.9140 H     1 <1>   0.0800 
 28 H       -3.8100    -3.0730    -0.5410 H     1 <1>   0.0800 
 29 H       -4.1640    -1.5510    -1.3110 H     1 <1>   0.0800 
 30 H       -1.2630     5.4030    -0.9620 H     1 <1>   0.1500 
 31 H       -4.6220    -2.2110     1.5400 H     1 <1>   0.4500 
 32 H       -5.0280     0.5640    -1.0090 H     1 <1>   0.0800 
 33 H       -5.7060     1.6250     0.2000 H     1 <1>   0.0800 
 34 H       -6.9080    -2.0510     1.2060 H     1 <1>   0.0800 
 35 H       -7.9480    -1.4990    -0.9090 H     1 <1>   0.0800 
 36 H       -6.3990    -1.3360    -1.6970 H     1 <1>   0.0800 
 37 H       -5.8690    -3.7740    -1.0360 H     1 <1>   0.0800 
 38 H       -5.7060    -4.1920     0.6540 H     1 <1>   0.0800 
 39 H       -8.1750    -4.0940     0.9050 H     1 <1>   0.0800 
 40 H       -8.3270    -3.7560    -0.7990 H     1 <1>   0.0800 
 41 H       -7.0930    -6.2640     0.3750 H     1 <1>   0.0800 
 42 H       -7.2370    -5.9170    -1.3340 H     1 <1>   0.0800 
 43 H       -8.6680    -6.1390    -0.3630 H     1 <1>   0.0800 
@<TRIPOS>BOND
  1   1   2  2   
  2   2   3  am  
  3   2   4  1   
  4   3   5  1   
  5   3   6  1   
  6   4   7  2   
  7   4   8  1   
  8   5   9  1   
  9   5  21  1   
 10   5  22  1   
 11   6  10  1   
 12   6  23  1   
 13   6  24  1   
 14   7  11  1   
 15   7  25  1   
 16   8  12  2   
 17   8  26  1   
 18   9  13  1   
 19   9  14  1   
 20   9  27  1   
 21  10  13  1   
 22  10  28  1   
 23  10  29  1   
 24  11  12  1   
 25  12  30  1   
 26  13  15  1   
 27  13  31  1   
 28  14  16  1   
 29  14  32  1   
 30  14  33  1   
 31  15  17  1   
 32  15  18  1   
 33  15  34  1   
 34  16  17  1   
 35  17  35  1   
 36  17  36  1   
 37  18  19  1   
 38  18  37  1   
 39  18  38  1   
 40  19  20  1   
 41  19  39  1   
 42  19  40  1   
 43  20  41  1   
 44  20  42  1   
 45  20  43  1   
@<TRIPOS>SUBSTRUCTURE
  1 ****   9 GROUP 4 **** **** 0

# MOE 2024.06 (io_trps.svl 2023.06)
