@<TRIPOS>MOLECULE
NONAME
54 57 1 0 0 
SMALL
USER_CHARGES


@<TRIPOS>ATOM
  1 O        1.0480    -1.2520    -2.3980 O.2   1 <1>  -0.5700 
  2 C        1.3100    -1.8410    -1.3630 C.2   1 <1>   0.5440 
  3 N        1.0810    -1.1690    -0.1750 N.am  1 <1>  -0.6600 
  4 C        1.8730    -3.1900    -1.4440 C.ar  1 <1>   0.3960 
  5 C        0.6020     0.2300    -0.1260 C.3   1 <1>   0.1400 
  6 C        1.4670    -1.6400     1.1760 C.3   1 <1>   0.1400 
  7 N        1.5580    -4.1380    -0.5400 N.ar  1 <1>  -0.6200 
  8 C        2.7390    -3.4610    -2.5090 C.ar  1 <1>   0.1600 
  9 C        1.0480     0.7430     1.2370 C.3   1 <1>  -0.1600 
 10 C        1.0900    -0.5010     2.1190 C.3   1 <1>  -0.1600 
 11 C        2.1480    -5.2910    -0.7620 C.ar  1 <1>   0.4100 
 12 N        3.3490    -4.6180    -2.7360 N.ar  1 <1>  -0.6200 
 13 N        1.7970    -6.2560     0.1420 N.pl3 1 <1>  -0.8690 
 14 C        3.0340    -5.5140    -1.8260 C.ar  1 <1>   0.1600 
 15 C        1.0670    -7.4390    -0.3180 C.3   1 <1>   0.2890 
 16 C       -0.4310    -7.1590    -0.2340 C.3   1 <1>  -0.1600 
 17 C        1.4520    -8.6190     0.5690 C.3   1 <1>  -0.1600 
 18 C       -1.2340    -8.4090    -0.5780 C.3   1 <1>   0.3430 
 19 C        0.6260    -9.8530     0.2190 C.3   1 <1>   0.3430 
 20 N       -0.8290    -9.5360     0.3190 N.4   1 <1>  -0.9590 
 21 C       -1.6610   -10.7550     0.0870 C.3   1 <1>   0.4860 
 22 C       -3.1100   -10.4370     0.3840 C.ar  1 <1>  -0.1440 
 23 C       -3.5460   -10.3420     1.6980 C.ar  1 <1>   0.1600 
 24 C       -4.0210   -10.2350    -0.6370 C.ar  1 <1>  -0.1500 
 25 N       -4.7780   -10.0430     2.0620 N.ar  1 <1>  -0.6200 
 26 C       -5.3150    -9.9330    -0.2680 C.ar  1 <1>  -0.1500 
 27 C       -5.6370    -9.8480     1.0750 C.ar  1 <1>   0.1600 
 28 H       -0.4720     0.2340    -0.2020 H     1 <1>   0.0800 
 29 H        1.0230     0.8160    -0.9270 H     1 <1>   0.0800 
 30 H        2.5280    -1.8180     1.2020 H     1 <1>   0.0800 
 31 H        0.9380    -2.5410     1.4340 H     1 <1>   0.0800 
 32 H        2.9380    -2.6680    -3.2090 H     1 <1>   0.1500 
 33 H        0.3810     1.4960     1.6180 H     1 <1>   0.0800 
 34 H        2.0350     1.1610     1.1460 H     1 <1>   0.0800 
 35 H        1.7890    -0.4070     2.9300 H     1 <1>   0.0800 
 36 H        0.1110    -0.6940     2.5220 H     1 <1>   0.0800 
 37 H        1.3460    -5.8080     0.9460 H     1 <1>   0.4000 
 38 H        3.4900    -6.4830    -1.9050 H     1 <1>   0.1500 
 39 H        1.3360    -7.6560    -1.3400 H     1 <1>   0.0800 
 40 H       -0.6860    -6.3780    -0.9290 H     1 <1>   0.0800 
 41 H       -0.6990    -6.8250     0.7530 H     1 <1>   0.0800 
 42 H        1.3050    -8.3700     1.6060 H     1 <1>   0.0800 
 43 H        2.4940    -8.8410     0.4260 H     1 <1>   0.0800 
 44 H       -1.0610    -8.6780    -1.6080 H     1 <1>   0.0800 
 45 H       -2.2860    -8.1960    -0.4580 H     1 <1>   0.0800 
 46 H        0.8790   -10.6540     0.8960 H     1 <1>   0.0800 
 47 H        0.8630   -10.1710    -0.7840 H     1 <1>   0.0800 
 48 H       -1.0220    -9.2250     1.2810 H     1 <1>   0.4500 
 49 H       -1.3350   -11.5550     0.7330 H     1 <1>   0.0800 
 50 H       -1.5620   -11.0840    -0.9350 H     1 <1>   0.0800 
 51 H       -2.8540   -10.5180     2.5040 H     1 <1>   0.1500 
 52 H       -3.7560   -10.3080    -1.6780 H     1 <1>   0.1500 
 53 H       -6.0750    -9.7660    -1.0120 H     1 <1>   0.1500 
 54 H       -6.6520    -9.6100     1.3520 H     1 <1>   0.1500 
@<TRIPOS>BOND
  1   1   2  2   
  2   2   3  am  
  3   2   4  1   
  4   3   5  1   
  5   3   6  1   
  6   4   7  ar  
  7   4   8  ar  
  8   5   9  1   
  9   5  28  1   
 10   5  29  1   
 11   6  10  1   
 12   6  30  1   
 13   6  31  1   
 14   7  11  ar  
 15   8  12  ar  
 16   8  32  1   
 17   9  10  1   
 18   9  33  1   
 19   9  34  1   
 20  10  35  1   
 21  10  36  1   
 22  11  13  1   
 23  11  14  ar  
 24  12  14  ar  
 25  13  15  1   
 26  13  37  1   
 27  14  38  1   
 28  15  16  1   
 29  15  17  1   
 30  15  39  1   
 31  16  18  1   
 32  16  40  1   
 33  16  41  1   
 34  17  19  1   
 35  17  42  1   
 36  17  43  1   
 37  18  20  1   
 38  18  44  1   
 39  18  45  1   
 40  19  20  1   
 41  19  46  1   
 42  19  47  1   
 43  20  21  1   
 44  20  48  1   
 45  21  22  1   
 46  21  49  1   
 47  21  50  1   
 48  22  23  ar  
 49  22  24  ar  
 50  23  25  ar  
 51  23  51  1   
 52  24  26  ar  
 53  24  52  1   
 54  25  27  ar  
 55  26  27  ar  
 56  26  53  1   
 57  27  54  1   
@<TRIPOS>SUBSTRUCTURE
  1 ****  16 GROUP 4 **** **** 0

# MOE 2024.06 (io_trps.svl 2023.06)
