@<TRIPOS>MOLECULE
NONAME
45 46 1 0 0 
SMALL
USER_CHARGES


@<TRIPOS>ATOM
  1 CL       1.6970    -5.1080     0.8770 Cl    1 <1>  -0.1770 
  2 C        0.2240    -4.2230     0.5490 C.ar  1 <1>   0.1770 
  3 C       -0.1680    -3.2020     1.4030 C.ar  1 <1>   0.0830 
  4 C       -0.5350    -4.5550    -0.5570 C.ar  1 <1>  -0.1500 
  5 O        0.5680    -2.8800     2.4830 O.3   1 <1>  -0.5330 
  6 C       -1.3350    -2.5050     1.1420 C.ar  1 <1>  -0.1500 
  7 C       -1.7100    -3.8610    -0.8180 C.ar  1 <1>  -0.1440 
  8 C       -2.1000    -2.8340     0.0340 C.ar  1 <1>  -0.1500 
  9 C       -2.5670    -4.2330    -2.0260 C.3   1 <1>   0.0440 
 10 C       -2.8130    -5.7310    -2.1440 C.2   1 <1>   0.5690 
 11 O       -2.3600    -6.3020    -3.1070 O.2   1 <1>  -0.5700 
 12 N       -3.5250    -6.4060    -1.1870 N.am  1 <1>  -0.6600 
 13 C       -4.0830    -5.8330     0.0640 C.3   1 <1>   0.1400 
 14 C       -3.7060    -7.8770    -1.2200 C.3   1 <1>   0.1400 
 15 C       -4.7850    -7.0060     0.7450 C.3   1 <1>   0.2000 
 16 C       -4.0900    -8.2560     0.2130 C.3   1 <1>  -0.0800 
 17 O       -4.6690    -6.9480     2.1230 O.3   1 <1>  -0.6800 
 18 C       -4.9740    -9.5090     0.3260 C.3   1 <1>  -0.0550 
 19 S       -4.1480   -11.0060    -0.2100 S.o2  1 <1>   1.3330 
 20 O       -2.9910   -11.1960     0.6360 O.2   1 <1>  -0.6500 
 21 O       -3.9890   -10.9650    -1.6460 O.2   1 <1>  -0.6500 
 22 N       -5.2830   -12.2140     0.1540 N.am  1 <1>  -0.8490 
 23 C       -6.2980   -12.3940    -0.8890 C.3   1 <1>   0.1160 
 24 C       -4.6470   -13.5000     0.4580 C.3   1 <1>   0.1160 
 25 H       -0.2060    -5.3510    -1.2030 H     1 <1>   0.1500 
 26 H        1.3720    -3.4320     2.5570 H     1 <1>   0.4500 
 27 H       -1.6350    -1.7110     1.8030 H     1 <1>   0.1500 
 28 H       -3.0030    -2.2800    -0.1580 H     1 <1>   0.1500 
 29 H       -2.0690    -3.8960    -2.9170 H     1 <1>   0.0800 
 30 H       -3.5180    -3.7380    -1.9820 H     1 <1>   0.0800 
 31 H       -3.2790    -5.4670     0.6790 H     1 <1>   0.0800 
 32 H       -4.7800    -5.0430    -0.1550 H     1 <1>   0.0800 
 33 H       -4.4940    -8.1170    -1.9140 H     1 <1>   0.0800 
 34 H       -2.7990    -8.3700    -1.5320 H     1 <1>   0.0800 
 35 H       -5.8320    -7.0000     0.4920 H     1 <1>   0.0800 
 36 H       -3.1740    -8.4140     0.7570 H     1 <1>   0.0800 
 37 H       -3.7300    -6.9910     2.3930 H     1 <1>   0.4000 
 38 H       -5.8690    -9.3700    -0.2470 H     1 <1>   0.0800 
 39 H       -5.2600    -9.6290     1.3540 H     1 <1>   0.0800 
 40 H       -7.0390   -13.1060    -0.5650 H     1 <1>   0.0800 
 41 H       -5.8440   -12.7510    -1.7990 H     1 <1>   0.0800 
 42 H       -6.7920   -11.4600    -1.0930 H     1 <1>   0.0800 
 43 H       -5.3930   -14.2380     0.7000 H     1 <1>   0.0800 
 44 H       -3.9920   -13.3960     1.3070 H     1 <1>   0.0800 
 45 H       -4.0690   -13.8410    -0.3850 H     1 <1>   0.0800 
@<TRIPOS>BOND
  1   1   2  1   
  2   2   3  ar  
  3   2   4  ar  
  4   3   5  1   
  5   3   6  ar  
  6   4   7  ar  
  7   4  25  1   
  8   5  26  1   
  9   6   8  ar  
 10   6  27  1   
 11   7   8  ar  
 12   7   9  1   
 13   8  28  1   
 14   9  10  1   
 15   9  29  1   
 16   9  30  1   
 17  10  11  2   
 18  10  12  am  
 19  12  13  1   
 20  12  14  1   
 21  13  15  1   
 22  13  31  1   
 23  13  32  1   
 24  14  16  1   
 25  14  33  1   
 26  14  34  1   
 27  15  16  1   
 28  15  17  1   
 29  15  35  1   
 30  16  18  1   
 31  16  36  1   
 32  17  37  1   
 33  18  19  1   
 34  18  38  1   
 35  18  39  1   
 36  19  20  2   
 37  19  21  2   
 38  19  22  am  
 39  22  23  1   
 40  22  24  1   
 41  23  40  1   
 42  23  41  1   
 43  23  42  1   
 44  24  43  1   
 45  24  44  1   
 46  24  45  1   
@<TRIPOS>SUBSTRUCTURE
  1 ****  12 GROUP 4 **** **** 0

# MOE 2024.06 (io_trps.svl 2023.06)
