@<TRIPOS>MOLECULE
NONAME
44 46 1 0 0 
SMALL
USER_CHARGES


@<TRIPOS>ATOM
  1 O        2.1060    -1.2180    -2.5310 O.2   1 <1>  -0.5700 
  2 C        2.1240    -1.3840    -1.3360 C.2   1 <1>   0.5690 
  3 N        2.3650    -0.3770    -0.4400 N.am  1 <1>  -0.4940 
  4 C        1.9270    -2.8040    -0.7830 C.3   1 <1>   0.1710 
  5 C        2.5820     0.9870    -0.6670 C.2   1 <1>   0.2040 
  6 N        0.5450    -3.1850    -0.3610 N.3   1 <1>  -0.8100 
  7 O        2.5640     1.5120    -1.8690 O.3   1 <1>  -0.0190 
  8 C        2.8310     1.9830     0.2080 C.2   1 <1>  -0.1810 
  9 C        0.5230    -4.5980     0.0670 C.3   1 <1>   0.2530 
 10 C       -0.0360    -2.2850     0.6600 C.3   1 <1>   0.1100 
 11 N        2.7890     2.8010    -1.8420 N.2   1 <1>  -0.4100 
 12 C        2.9540     3.1090    -0.6060 C.2   1 <1>   0.1080 
 13 C        2.9590     1.9420     1.7220 C.3   1 <1>  -0.0590 
 14 C       -0.8530    -5.2280    -0.0710 C.ar  1 <1>  -0.1430 
 15 C       -1.5340    -2.5120     0.9120 C.3   1 <1>   0.1200 
 16 C        3.2430     4.5250    -0.1390 C.3   1 <1>   0.0210 
 17 C       -1.9150    -4.8000     0.7150 C.ar  1 <1>   0.0830 
 18 C       -1.0580    -6.2750    -0.9590 C.ar  1 <1>  -0.1500 
 19 O       -1.7750    -3.7500     1.5460 O.3   1 <1>  -0.3630 
 20 C        4.7500     4.7670     0.0030 C.3   1 <1>  -0.2400 
 21 C       -3.1460    -5.4320     0.6500 C.ar  1 <1>  -0.1500 
 22 C       -2.2930    -6.8980    -1.0390 C.ar  1 <1>  -0.1500 
 23 C       -3.3370    -6.4820    -0.2300 C.ar  1 <1>  -0.1500 
 24 H        2.3730    -0.6510     0.5370 H     1 <1>   0.3700 
 25 H        2.6000    -2.9430     0.0430 H     1 <1>   0.0800 
 26 H        2.2360    -3.4760    -1.5640 H     1 <1>   0.0800 
 27 H        0.8490    -4.6770     1.0900 H     1 <1>   0.0800 
 28 H        1.2090    -5.1660    -0.5380 H     1 <1>   0.0800 
 29 H        0.0520    -1.2710     0.3170 H     1 <1>   0.0800 
 30 H        0.4990    -2.3750     1.5900 H     1 <1>   0.0800 
 31 H        2.8300     0.9410     2.0900 H     1 <1>   0.0800 
 32 H        2.2120     2.5720     2.1700 H     1 <1>   0.0800 
 33 H        3.9320     2.2930     2.0170 H     1 <1>   0.0800 
 34 H       -2.0840    -2.4740    -0.0130 H     1 <1>   0.0800 
 35 H       -1.9100    -1.7470     1.5660 H     1 <1>   0.0800 
 36 H        2.7530     4.7030     0.8010 H     1 <1>   0.0800 
 37 H        2.8380     5.2160    -0.8570 H     1 <1>   0.0800 
 38 H       -0.2570    -6.6150    -1.5900 H     1 <1>   0.1500 
 39 H        5.1730     4.0930     0.7250 H     1 <1>   0.0800 
 40 H        4.9350     5.7780     0.3180 H     1 <1>   0.0800 
 41 H        5.2350     4.6060    -0.9440 H     1 <1>   0.0800 
 42 H       -3.9460    -5.0930     1.2810 H     1 <1>   0.1500 
 43 H       -2.4410    -7.7090    -1.7310 H     1 <1>   0.1500 
 44 H       -4.2930    -6.9710    -0.2870 H     1 <1>   0.1500 
@<TRIPOS>BOND
  1   1   2  2   
  2   2   3  am  
  3   2   4  1   
  4   3   5  1   
  5   3  24  1   
  6   4   6  1   
  7   4  25  1   
  8   4  26  1   
  9   5   7  1   
 10   5   8  2   
 11   6   9  1   
 12   6  10  1   
 13   7  11  1   
 14   8  12  1   
 15   8  13  1   
 16   9  14  1   
 17   9  27  1   
 18   9  28  1   
 19  10  15  1   
 20  10  29  1   
 21  10  30  1   
 22  11  12  2   
 23  12  16  1   
 24  13  31  1   
 25  13  32  1   
 26  13  33  1   
 27  14  17  ar  
 28  14  18  ar  
 29  15  19  1   
 30  15  34  1   
 31  15  35  1   
 32  16  20  1   
 33  16  36  1   
 34  16  37  1   
 35  17  19  1   
 36  17  21  ar  
 37  18  22  ar  
 38  18  38  1   
 39  20  39  1   
 40  20  40  1   
 41  20  41  1   
 42  21  23  ar  
 43  21  42  1   
 44  22  23  ar  
 45  22  43  1   
 46  23  44  1   
@<TRIPOS>SUBSTRUCTURE
  1 ****  10 GROUP 4 **** **** 0

# MOE 2024.06 (io_trps.svl 2023.06)
