@<TRIPOS>MOLECULE
NONAME
53 56 1 0 0 
SMALL
USER_CHARGES


@<TRIPOS>ATOM
  1 O        0.6430    -0.3410     0.8780 O.2   1 <1>  -0.5700 
  2 C        1.5170    -0.6140     0.0860 C.2   1 <1>   0.5690 
  3 N        2.3820     0.3660    -0.3630 N.am  1 <1>  -0.6600 
  4 C        1.6340    -2.0750    -0.3930 C.3   1 <1>   0.1250 
  5 C        3.5520     0.1310    -1.2680 C.3   1 <1>   0.1400 
  6 C        2.1340     1.7910     0.0200 C.3   1 <1>   0.1400 
  7 C        0.4090    -2.9540    -0.2030 C.ar  1 <1>  -0.1440 
  8 C        2.7340    -2.8680     0.3480 C.3   1 <1>  -0.1600 
  9 C        4.8570    -0.0360    -0.4710 C.3   1 <1>   0.1100 
 10 C        3.4020     2.6370     0.1870 C.3   1 <1>  -0.1600 
 11 C        0.7590    -4.2040     0.2480 C.ar  1 <1>  -0.1440 
 12 C       -0.9180    -2.6430    -0.4420 C.ar  1 <1>  -0.1500 
 13 C        2.2470    -4.3230     0.4440 C.3   1 <1>  -0.0170 
 14 N        5.4200     1.2360     0.0210 N.3   1 <1>  -0.8100 
 15 C        4.5240     1.9380     0.9560 C.3   1 <1>   0.1100 
 16 C       -0.2010    -5.1740     0.4690 C.ar  1 <1>  -0.1500 
 17 C       -1.8890    -3.6080    -0.2240 C.ar  1 <1>  -0.1500 
 18 C        6.7710     1.0190     0.6080 C.3   1 <1>   0.2900 
 19 C       -1.5320    -4.8700     0.2290 C.ar  1 <1>  -0.1500 
 20 C        7.6770     2.2470     0.5590 C.2   1 <1>   0.2980 
 21 O        7.4540     3.2390     1.3870 O.3   1 <1>  -0.0190 
 22 N        8.6790     2.3970    -0.2130 N.2   1 <1>  -0.5650 
 23 N        8.3890     4.0960     1.1140 N.2   1 <1>  -0.4100 
 24 C        9.1030     3.5930     0.1850 C.2   1 <1>   0.3350 
 25 C       10.3090     4.2750    -0.4530 C.3   1 <1>   0.3010 
 26 O       11.5110     3.7470     0.0410 O.3   1 <1>  -0.5600 
 27 C       12.6530     4.3050    -0.5230 C.3   1 <1>   0.0400 
 28 H        1.8300    -2.0850    -1.4470 H     1 <1>   0.0800 
 29 H        3.6550     0.9470    -1.9620 H     1 <1>   0.0800 
 30 H        3.3960    -0.7530    -1.8540 H     1 <1>   0.0800 
 31 H        1.6000     1.8170     0.9550 H     1 <1>   0.0800 
 32 H        1.5000     2.2430    -0.7220 H     1 <1>   0.0800 
 33 H        2.8290    -2.4750     1.3460 H     1 <1>   0.0800 
 34 H        3.6840    -2.8030    -0.1500 H     1 <1>   0.0800 
 35 H        5.5750    -0.4860    -1.1350 H     1 <1>   0.0800 
 36 H        4.6960    -0.7100     0.3520 H     1 <1>   0.0800 
 37 H        3.1210     3.5190     0.7330 H     1 <1>   0.0800 
 38 H        3.7640     2.9730    -0.7690 H     1 <1>   0.0800 
 39 H       -1.1930    -1.6610    -0.7860 H     1 <1>   0.1500 
 40 H        2.4840    -4.7580     1.3990 H     1 <1>   0.0800 
 41 H        2.6650    -4.9220    -0.3460 H     1 <1>   0.0800 
 42 H        4.1230     1.2570     1.6890 H     1 <1>   0.0800 
 43 H        5.0730     2.6990     1.4800 H     1 <1>   0.0800 
 44 H        0.0800    -6.1500     0.8220 H     1 <1>   0.1500 
 45 H       -2.9230    -3.3750    -0.4040 H     1 <1>   0.1500 
 46 H        7.2770     0.2480     0.0540 H     1 <1>   0.0800 
 47 H        6.6810     0.6810     1.6250 H     1 <1>   0.0800 
 48 H       -2.2910    -5.6130     0.3970 H     1 <1>   0.1500 
 49 H       10.2830     5.3260    -0.2320 H     1 <1>   0.0800 
 50 H       10.2780     4.1260    -1.5170 H     1 <1>   0.0800 
 51 H       13.5100     3.8340    -0.0740 H     1 <1>   0.0800 
 52 H       12.6720     5.3620    -0.3180 H     1 <1>   0.0800 
 53 H       12.6530     4.1220    -1.5840 H     1 <1>   0.0800 
@<TRIPOS>BOND
  1   1   2  2   
  2   2   3  am  
  3   2   4  1   
  4   3   5  1   
  5   3   6  1   
  6   4   7  1   
  7   4   8  1   
  8   4  28  1   
  9   5   9  1   
 10   5  29  1   
 11   5  30  1   
 12   6  10  1   
 13   6  31  1   
 14   6  32  1   
 15   7  11  ar  
 16   7  12  ar  
 17   8  13  1   
 18   8  33  1   
 19   8  34  1   
 20   9  14  1   
 21   9  35  1   
 22   9  36  1   
 23  10  15  1   
 24  10  37  1   
 25  10  38  1   
 26  11  13  1   
 27  11  16  ar  
 28  12  17  ar  
 29  12  39  1   
 30  13  40  1   
 31  13  41  1   
 32  14  15  1   
 33  14  18  1   
 34  15  42  1   
 35  15  43  1   
 36  16  19  ar  
 37  16  44  1   
 38  17  19  ar  
 39  17  45  1   
 40  18  20  1   
 41  18  46  1   
 42  18  47  1   
 43  19  48  1   
 44  20  21  1   
 45  20  22  2   
 46  21  23  1   
 47  22  24  1   
 48  23  24  2   
 49  24  25  1   
 50  25  26  1   
 51  25  49  1   
 52  25  50  1   
 53  26  27  1   
 54  27  51  1   
 55  27  52  1   
 56  27  53  1   
@<TRIPOS>SUBSTRUCTURE
  1 ****   9 GROUP 4 **** **** 0

# MOE 2024.06 (io_trps.svl 2023.06)
