@<TRIPOS>MOLECULE
NONAME
42 44 1 0 0 
SMALL
USER_CHARGES


@<TRIPOS>ATOM
  1 S       -3.1370    -0.2540     2.7080 S.3   1 <1>  -0.0800 
  2 C       -3.6640     0.8370     1.4460 C.2   1 <1>   0.1980 
  3 C       -2.8140    -1.4560     1.4930 C.2   1 <1>  -0.1100 
  4 N       -3.6090     0.3490     0.2720 N.2   1 <1>  -0.5650 
  5 C       -4.1240     2.2140     1.8650 C.3   1 <1>  -0.0600 
  6 C       -3.1220    -0.9490     0.2890 C.2   1 <1>   0.0460 
  7 C       -2.9930    -1.6640    -1.0430 C.3   1 <1>   0.0820 
  8 C       -3.6170    -3.0500    -0.9980 C.2   1 <1>   0.5690 
  9 O       -2.8590    -3.9860    -1.1080 O.2   1 <1>  -0.5700 
 10 N       -4.9740    -3.2380    -0.8430 N.am  1 <1>  -0.6600 
 11 C       -5.9510    -2.1110    -0.6950 C.3   1 <1>   0.2200 
 12 C       -5.5150    -4.6320    -0.7670 C.3   1 <1>   0.0600 
 13 C       -6.4640    -1.9680     0.7400 C.3   1 <1>  -0.1600 
 14 C       -7.1960    -2.2450    -1.5680 C.3   1 <1>  -0.1600 
 15 C       -7.9290    -1.5070     0.6390 C.3   1 <1>  -0.0800 
 16 C       -8.2510    -1.3990    -0.8540 C.3   1 <1>  -0.0800 
 17 C       -8.1920    -0.1160     1.2230 C.3   1 <1>  -0.1600 
 18 C       -8.1950     0.0990    -1.2110 C.3   1 <1>  -0.1600 
 19 C       -7.9690     0.8750     0.0870 C.3   1 <1>   0.2000 
 20 O       -6.6640     1.3180     0.1300 O.3   1 <1>  -0.6800 
 21 H       -2.4300    -2.4100     1.8070 H     1 <1>   0.1500 
 22 H       -4.3790     2.7910     0.9950 H     1 <1>   0.0800 
 23 H       -3.3400     2.7150     2.4010 H     1 <1>   0.0800 
 24 H       -4.9920     2.1320     2.4930 H     1 <1>   0.0800 
 25 H       -1.9510    -1.7500    -1.2870 H     1 <1>   0.0800 
 26 H       -3.4590    -1.0930    -1.8240 H     1 <1>   0.0800 
 27 H       -5.4930    -1.1780    -0.9690 H     1 <1>   0.0800 
 28 H       -6.3600    -4.6800    -0.1050 H     1 <1>   0.0800 
 29 H       -4.7630    -5.3100    -0.4010 H     1 <1>   0.0800 
 30 H       -5.8160    -4.9540    -1.7490 H     1 <1>   0.0800 
 31 H       -6.4260    -2.9080     1.2570 H     1 <1>   0.0800 
 32 H       -5.8600    -1.2620     1.2800 H     1 <1>   0.0800 
 33 H       -7.0150    -1.9110    -2.5740 H     1 <1>   0.0800 
 34 H       -7.5490    -3.2590    -1.5920 H     1 <1>   0.0800 
 35 H       -8.5620    -2.2400     1.1120 H     1 <1>   0.0800 
 36 H       -9.2400    -1.7770    -1.0560 H     1 <1>   0.0800 
 37 H       -7.5990     0.1060     2.0920 H     1 <1>   0.0800 
 38 H       -9.2290    -0.0630     1.5030 H     1 <1>   0.0800 
 39 H       -9.1470     0.3880    -1.6190 H     1 <1>   0.0800 
 40 H       -7.4380     0.3290    -1.9410 H     1 <1>   0.0800 
 41 H       -8.6100     1.7370     0.1660 H     1 <1>   0.0800 
 42 H       -6.0350     0.5690     0.0840 H     1 <1>   0.4000 
@<TRIPOS>BOND
  1   1   2  1   
  2   1   3  1   
  3   2   4  2   
  4   2   5  1   
  5   3   6  2   
  6   3  21  1   
  7   4   6  1   
  8   5  22  1   
  9   5  23  1   
 10   5  24  1   
 11   6   7  1   
 12   7   8  1   
 13   7  25  1   
 14   7  26  1   
 15   8   9  2   
 16   8  10  am  
 17  10  11  1   
 18  10  12  1   
 19  11  13  1   
 20  11  14  1   
 21  11  27  1   
 22  12  28  1   
 23  12  29  1   
 24  12  30  1   
 25  13  15  1   
 26  13  31  1   
 27  13  32  1   
 28  14  16  1   
 29  14  33  1   
 30  14  34  1   
 31  15  16  1   
 32  15  17  1   
 33  15  35  1   
 34  16  18  1   
 35  16  36  1   
 36  17  19  1   
 37  17  37  1   
 38  17  38  1   
 39  18  19  1   
 40  18  39  1   
 41  18  40  1   
 42  19  20  1   
 43  19  41  1   
 44  20  42  1   
@<TRIPOS>SUBSTRUCTURE
  1 ****  11 GROUP 4 **** **** 0

# MOE 2024.06 (io_trps.svl 2023.06)
