@<TRIPOS>MOLECULE
NONAME
53 55 1 0 0 
SMALL
USER_CHARGES


@<TRIPOS>ATOM
  1 O       -0.7960     0.1760    -0.6030 O.2   1 <1>  -0.5700 
  2 C       -1.6550     0.8120    -0.0230 C.2   1 <1>   0.5440 
  3 N       -2.7580     0.1450     0.4660 N.am  1 <1>  -0.6600 
  4 C       -1.5140     2.2500     0.1070 C.ar  1 <1>   0.0860 
  5 C       -2.8190    -1.3500     0.5190 C.3   1 <1>   0.1400 
  6 C       -4.1070     0.7750     0.5890 C.3   1 <1>   0.1400 
  7 C       -1.1250     3.0350    -0.9750 C.ar  1 <1>  -0.1500 
  8 C       -1.7650     2.9080     1.3110 C.ar  1 <1>  -0.1500 
  9 C       -3.8750    -1.8920    -0.4600 C.3   1 <1>   0.3440 
 10 C       -5.0970     0.1360    -0.4150 C.3   1 <1>   0.2000 
 11 C       -1.0150     4.4090    -0.8700 C.ar  1 <1>  -0.1500 
 12 C       -1.6560     4.2810     1.4160 C.ar  1 <1>  -0.1500 
 13 O       -5.1080    -1.2570    -0.2360 O.3   1 <1>  -0.5600 
 14 C       -4.0370    -3.4010    -0.2960 C.ar  1 <1>  -0.1430 
 15 C       -6.5550     0.6790    -0.3250 C.3   1 <1>   0.0000 
 16 C       -1.2800     5.0720     0.3310 C.ar  1 <1>   0.0860 
 17 C       -3.2450    -4.2580    -1.0460 C.ar  1 <1>  -0.1500 
 18 C       -4.9520    -3.9400     0.5990 C.ar  1 <1>  -0.1500 
 19 C       -7.4170     0.0170    -1.4160 C.3   1 <1>  -0.2400 
 20 C       -6.5910     2.2000    -0.5640 C.3   1 <1>  -0.2400 
 21 C       -7.2010     0.3850     1.0430 C.3   1 <1>  -0.2400 
 22 C       -1.1760     6.5150     0.4610 C.2   1 <1>   0.5440 
 23 C       -3.3630    -5.6300    -0.9050 C.ar  1 <1>  -0.1500 
 24 C       -5.0720    -5.3120     0.7410 C.ar  1 <1>  -0.1500 
 25 O       -1.7760     7.1200     1.3220 O.2   1 <1>  -0.5700 
 26 N       -0.4010     7.2610    -0.3590 N.am  1 <1>  -0.8000 
 27 C       -4.2770    -6.1580    -0.0100 C.ar  1 <1>  -0.1500 
 28 H       -1.8630    -1.7820     0.2830 H     1 <1>   0.0800 
 29 H       -3.0770    -1.6600     1.5160 H     1 <1>   0.0800 
 30 H       -4.4660     0.6380     1.5920 H     1 <1>   0.0800 
 31 H       -4.0450     1.8290     0.3960 H     1 <1>   0.0800 
 32 H       -0.9090     2.5480    -1.9120 H     1 <1>   0.1500 
 33 H       -2.0490     2.3280     2.1720 H     1 <1>   0.1500 
 34 H       -3.5710    -1.6770    -1.4700 H     1 <1>   0.0800 
 35 H       -4.7350     0.3290    -1.4110 H     1 <1>   0.0800 
 36 H       -0.7260     4.9760    -1.7360 H     1 <1>   0.1500 
 37 H       -1.8630     4.7620     2.3580 H     1 <1>   0.1500 
 38 H       -2.5280    -3.8620    -1.7450 H     1 <1>   0.1500 
 39 H       -5.5770    -3.2900     1.1860 H     1 <1>   0.1500 
 40 H       -8.4220     0.3990    -1.3960 H     1 <1>   0.0800 
 41 H       -7.4620    -1.0480    -1.2680 H     1 <1>   0.0800 
 42 H       -7.0020     0.2020    -2.3910 H     1 <1>   0.0800 
 43 H       -7.6080     2.5500    -0.6030 H     1 <1>   0.0800 
 44 H       -6.1170     2.4480    -1.4970 H     1 <1>   0.0800 
 45 H       -6.0960     2.7340     0.2270 H     1 <1>   0.0800 
 46 H       -8.2260     0.7110     1.0520 H     1 <1>   0.0800 
 47 H       -6.6850     0.8910     1.8370 H     1 <1>   0.0800 
 48 H       -7.1850    -0.6710     1.2450 H     1 <1>   0.0800 
 49 H       -2.7450    -6.2870    -1.4910 H     1 <1>   0.1500 
 50 H       -5.7850    -5.7180     1.4370 H     1 <1>   0.1500 
 51 H       -0.3480     8.2660    -0.1890 H     1 <1>   0.3700 
 52 H        0.2680     6.8740    -1.0210 H     1 <1>   0.3700 
 53 H       -4.3700    -7.2240     0.1000 H     1 <1>   0.1500 
@<TRIPOS>BOND
  1   1   2  2   
  2   2   3  am  
  3   2   4  1   
  4   3   5  1   
  5   3   6  1   
  6   4   7  ar  
  7   4   8  ar  
  8   5   9  1   
  9   5  28  1   
 10   5  29  1   
 11   6  10  1   
 12   6  30  1   
 13   6  31  1   
 14   7  11  ar  
 15   7  32  1   
 16   8  12  ar  
 17   8  33  1   
 18   9  13  1   
 19   9  14  1   
 20   9  34  1   
 21  10  13  1   
 22  10  15  1   
 23  10  35  1   
 24  11  16  ar  
 25  11  36  1   
 26  12  16  ar  
 27  12  37  1   
 28  14  17  ar  
 29  14  18  ar  
 30  15  19  1   
 31  15  20  1   
 32  15  21  1   
 33  16  22  1   
 34  17  23  ar  
 35  17  38  1   
 36  18  24  ar  
 37  18  39  1   
 38  19  40  1   
 39  19  41  1   
 40  19  42  1   
 41  20  43  1   
 42  20  44  1   
 43  20  45  1   
 44  21  46  1   
 45  21  47  1   
 46  21  48  1   
 47  22  25  2   
 48  22  26  am  
 49  23  27  ar  
 50  23  49  1   
 51  24  27  ar  
 52  24  50  1   
 53  26  51  1   
 54  26  52  1   
 55  27  53  1   
@<TRIPOS>SUBSTRUCTURE
  1 ****   3 GROUP 4 **** **** 0

# MOE 2024.06 (io_trps.svl 2023.06)
