@<TRIPOS>MOLECULE
NONAME
47 49 1 0 0 
SMALL
USER_CHARGES


@<TRIPOS>ATOM
  1 O        0.2570     0.0440    -0.4080 O.3   1 <1>  -0.5600 
  2 C        1.4860    -0.5710    -0.6800 C.3   1 <1>   0.3440 
  3 C        0.1710     1.4000    -0.7420 C.3   1 <1>   0.2000 
  4 C        1.4340    -2.0310    -0.2570 C.ar  1 <1>  -0.1440 
  5 C        2.6110     0.1450     0.1030 C.3   1 <1>   0.3430 
  6 C       -1.2740     1.8720    -0.4760 C.3   1 <1>  -0.0800 
  7 C        1.2230     2.1990     0.0630 C.3   1 <1>   0.3430 
  8 C        0.7350    -2.4280     0.8760 C.ar  1 <1>  -0.1500 
  9 C        2.1130    -2.9870    -1.0010 C.ar  1 <1>  -0.1500 
 10 N        2.6170     1.6420    -0.0970 N.4   1 <1>  -0.9590 
 11 C       -1.4900     3.3240    -0.9310 C.3   1 <1>  -0.2400 
 12 C       -1.7080     1.7230     0.9930 C.3   1 <1>  -0.2400 
 13 C        0.7240    -3.7560     1.2640 C.ar  1 <1>  -0.1500 
 14 C        2.1010    -4.3160    -0.6120 C.ar  1 <1>  -0.1500 
 15 C        3.5880     2.3140     0.8140 C.3   1 <1>   0.4860 
 16 C        1.4090    -4.7010     0.5210 C.ar  1 <1>  -0.1500 
 17 C        3.6300     3.7900     0.4840 C.ar  1 <1>  -0.1440 
 18 C        4.3280     4.2320    -0.6310 C.ar  1 <1>   0.1600 
 19 C        2.9770     4.7180     1.2730 C.ar  1 <1>  -0.1500 
 20 N        4.3960     5.4880    -1.0260 N.ar  1 <1>  -0.6200 
 21 C        3.0530     6.0370     0.8780 C.ar  1 <1>  -0.1500 
 22 C        3.7630     6.3650    -0.2640 C.ar  1 <1>   0.1600 
 23 H        1.6620    -0.5100    -1.7400 H     1 <1>   0.0800 
 24 H        0.3700     1.4950    -1.7960 H     1 <1>   0.0800 
 25 H        3.5580    -0.2750    -0.1920 H     1 <1>   0.0800 
 26 H        2.4670    -0.0810     1.1470 H     1 <1>   0.0800 
 27 H       -1.9210     1.2510    -1.0750 H     1 <1>   0.0800 
 28 H        0.9400     2.1730     1.1020 H     1 <1>   0.0800 
 29 H        1.2000     3.2290    -0.2560 H     1 <1>   0.0800 
 30 H        0.1870    -1.7100     1.4610 H     1 <1>   0.1500 
 31 H        2.6550    -2.7160    -1.8900 H     1 <1>   0.1500 
 32 H        2.9090     1.8450    -1.0620 H     1 <1>   0.4500 
 33 H       -0.9250     4.0180    -0.3340 H     1 <1>   0.0800 
 34 H       -2.5310     3.5830    -0.8420 H     1 <1>   0.0800 
 35 H       -1.2110     3.4430    -1.9640 H     1 <1>   0.0800 
 36 H       -1.1480     2.3690     1.6440 H     1 <1>   0.0800 
 37 H       -1.5850     0.7050     1.3200 H     1 <1>   0.0800 
 38 H       -2.7510     1.9720     1.0920 H     1 <1>   0.0800 
 39 H        0.1780    -4.0580     2.1420 H     1 <1>   0.1500 
 40 H        2.6280    -5.0540    -1.1920 H     1 <1>   0.1500 
 41 H        3.2890     2.1780     1.8410 H     1 <1>   0.0800 
 42 H        4.5720     1.8910     0.6880 H     1 <1>   0.0800 
 43 H        1.3980    -5.7340     0.8230 H     1 <1>   0.1500 
 44 H        4.8610     3.5230    -1.2430 H     1 <1>   0.1500 
 45 H        2.4300     4.4470     2.1610 H     1 <1>   0.1500 
 46 H        2.5700     6.8130     1.4480 H     1 <1>   0.1500 
 47 H        3.8150     7.4000    -0.5640 H     1 <1>   0.1500 
@<TRIPOS>BOND
  1   1   2  1   
  2   1   3  1   
  3   2   4  1   
  4   2   5  1   
  5   2  23  1   
  6   3   6  1   
  7   3   7  1   
  8   3  24  1   
  9   4   8  ar  
 10   4   9  ar  
 11   5  10  1   
 12   5  25  1   
 13   5  26  1   
 14   6  11  1   
 15   6  12  1   
 16   6  27  1   
 17   7  10  1   
 18   7  28  1   
 19   7  29  1   
 20   8  13  ar  
 21   8  30  1   
 22   9  14  ar  
 23   9  31  1   
 24  10  15  1   
 25  10  32  1   
 26  11  33  1   
 27  11  34  1   
 28  11  35  1   
 29  12  36  1   
 30  12  37  1   
 31  12  38  1   
 32  13  16  ar  
 33  13  39  1   
 34  14  16  ar  
 35  14  40  1   
 36  15  17  1   
 37  15  41  1   
 38  15  42  1   
 39  16  43  1   
 40  17  18  ar  
 41  17  19  ar  
 42  18  20  ar  
 43  18  44  1   
 44  19  21  ar  
 45  19  45  1   
 46  20  22  ar  
 47  21  22  ar  
 48  21  46  1   
 49  22  47  1   
@<TRIPOS>SUBSTRUCTURE
  1 ****  10 GROUP 4 **** **** 0

# MOE 2024.06 (io_trps.svl 2023.06)
