@<TRIPOS>MOLECULE
NONAME
48 50 1 0 0 
SMALL
USER_CHARGES


@<TRIPOS>ATOM
  1 S        1.0330    -0.2400    -1.0670 S.o2  1 <1>   1.3330 
  2 O        2.2170    -0.8520    -0.5050 O.2   1 <1>  -0.6500 
  3 O        0.7710    -0.3670    -2.4830 O.2   1 <1>  -0.6500 
  4 N       -0.3170    -0.8850    -0.2610 N.am  1 <1>  -0.8490 
  5 C        0.9920     1.5020    -0.6160 C.3   1 <1>  -0.0550 
  6 C       -1.5770    -0.6970    -0.9890 C.3   1 <1>   0.1160 
  7 C       -0.1440    -2.3040     0.0650 C.3   1 <1>   0.1160 
  8 C        1.5570     1.8980     0.7670 C.3   1 <1>  -0.0800 
  9 C        3.0720     1.7110     0.8790 C.3   1 <1>   0.2200 
 10 C        1.0030     1.1560     1.9890 C.3   1 <1>   0.1200 
 11 N        3.7080     3.0290     1.1020 N.am  1 <1>  -0.7300 
 12 C        3.2230     0.8240     2.1130 C.3   1 <1>   0.1200 
 13 O        2.0770     1.0560     2.8660 O.3   1 <1>  -0.5600 
 14 C        4.0230     3.9140     0.1100 C.2   1 <1>   0.5440 
 15 O        3.7740     3.5900    -1.0360 O.2   1 <1>  -0.5700 
 16 C        4.6270     5.2010     0.4090 C.ar  1 <1>   0.0860 
 17 C        5.3170     5.9040    -0.5680 C.ar  1 <1>  -0.1500 
 18 C        4.5340     5.7860     1.6930 C.ar  1 <1>  -0.1500 
 19 C        5.9050     7.1370    -0.2820 C.ar  1 <1>  -0.1520 
 20 C        5.1110     6.9990     1.9850 C.ar  1 <1>  -0.1500 
 21 N        6.6270     7.9980    -1.0740 N.pl3 1 <1>   0.0480 
 22 C        5.8090     7.6880     0.9910 C.ar  1 <1>   0.0000 
 23 C        6.9800     9.0710    -0.3080 C.2   1 <1>  -0.3020 
 24 C        6.9530     7.7980    -2.4950 C.3   1 <1>   0.0160 
 25 C        6.4990     8.9150     0.9490 C.2   1 <1>  -0.1500 
 26 H        1.5550     2.0470    -1.3520 H     1 <1>   0.0800 
 27 H       -0.0180     1.8510    -0.6850 H     1 <1>   0.0800 
 28 H       -2.4050    -1.0360    -0.3900 H     1 <1>   0.0800 
 29 H       -1.5650    -1.2510    -1.9140 H     1 <1>   0.0800 
 30 H       -1.7260     0.3450    -1.2150 H     1 <1>   0.0800 
 31 H       -1.0110    -2.6800     0.5790 H     1 <1>   0.0800 
 32 H        0.7100    -2.4340     0.7090 H     1 <1>   0.0800 
 33 H        0.0120    -2.8780    -0.8340 H     1 <1>   0.0800 
 34 H        1.3230     2.9390     0.9060 H     1 <1>   0.0800 
 35 H        3.5130     1.2410     0.0150 H     1 <1>   0.0800 
 36 H        0.6850     0.1550     1.7650 H     1 <1>   0.0800 
 37 H        0.2040     1.6930     2.4710 H     1 <1>   0.0800 
 38 H        3.8320     3.2820     2.0820 H     1 <1>   0.3700 
 39 H        4.0970     1.0540     2.6950 H     1 <1>   0.0800 
 40 H        3.2300    -0.2160     1.8330 H     1 <1>   0.0800 
 41 H        5.4010     5.4930    -1.5590 H     1 <1>   0.1500 
 42 H        3.9910     5.2720     2.4640 H     1 <1>   0.1500 
 43 H        5.0360     7.4370     2.9640 H     1 <1>   0.1500 
 44 H        7.5540     9.8900    -0.7030 H     1 <1>   0.1500 
 45 H        7.5170     8.6370    -2.8580 H     1 <1>   0.0800 
 46 H        6.0410     7.7060    -3.0570 H     1 <1>   0.0800 
 47 H        7.5340     6.9000    -2.6010 H     1 <1>   0.0800 
 48 H        6.6030     9.5800     1.7870 H     1 <1>   0.1500 
@<TRIPOS>BOND
  1   1   2  2   
  2   1   3  2   
  3   1   4  am  
  4   1   5  1   
  5   4   6  1   
  6   4   7  1   
  7   5   8  1   
  8   5  26  1   
  9   5  27  1   
 10   6  28  1   
 11   6  29  1   
 12   6  30  1   
 13   7  31  1   
 14   7  32  1   
 15   7  33  1   
 16   8   9  1   
 17   8  10  1   
 18   8  34  1   
 19   9  11  1   
 20   9  12  1   
 21   9  35  1   
 22  10  13  1   
 23  10  36  1   
 24  10  37  1   
 25  11  14  am  
 26  11  38  1   
 27  12  13  1   
 28  12  39  1   
 29  12  40  1   
 30  14  15  2   
 31  14  16  1   
 32  16  17  ar  
 33  16  18  ar  
 34  17  19  ar  
 35  17  41  1   
 36  18  20  ar  
 37  18  42  1   
 38  19  21  1   
 39  19  22  ar  
 40  20  22  ar  
 41  20  43  1   
 42  21  23  1   
 43  21  24  1   
 44  22  25  1   
 45  23  25  2   
 46  23  44  1   
 47  24  45  1   
 48  24  46  1   
 49  24  47  1   
 50  25  48  1   
@<TRIPOS>SUBSTRUCTURE
  1 ****  14 GROUP 4 **** **** 0

# MOE 2024.06 (io_trps.svl 2023.06)
