@<TRIPOS>MOLECULE
NONAME
45 48 1 0 0 
SMALL
USER_CHARGES


@<TRIPOS>ATOM
  1 S        0.5650    -0.4800    -1.1710 S.3   1 <1>  -0.0800 
  2 C        0.2820    -1.4140     0.2600 C.2   1 <1>   0.1980 
  3 C        1.2850     0.7120    -0.1480 C.2   1 <1>   0.1980 
  4 N        0.7100    -0.8410     1.3130 N.2   1 <1>  -0.3380 
  5 C       -0.3850    -2.7780     0.1110 C.3   1 <1>   0.2900 
  6 N        1.2810     0.3820     1.0790 N.2   1 <1>  -0.3380 
  7 C        1.8220     1.9720    -0.7880 C.3   1 <1>  -0.0600 
  8 N       -1.8560    -2.7660     0.3160 N.3   1 <1>  -0.8100 
  9 C       -2.4010    -4.1390     0.3680 C.3   1 <1>   0.1100 
 10 C       -2.5430    -1.8680    -0.6320 C.3   1 <1>   0.1100 
 11 C       -3.4790    -4.2520     1.4560 C.3   1 <1>   0.1400 
 12 C       -4.0770    -1.8450    -0.5310 C.3   1 <1>  -0.1600 
 13 N       -4.7520    -3.5940     1.0480 N.am  1 <1>  -0.6600 
 14 C       -4.6500    -2.1230     0.8610 C.3   1 <1>   0.1400 
 15 C       -5.9310    -4.2730     0.7990 C.2   1 <1>   0.7150 
 16 O       -6.9810    -3.6570     0.8640 O.2   1 <1>  -0.5700 
 17 C       -5.9790    -5.6740     0.4560 C.2   1 <1>   0.0550 
 18 O       -4.9640    -6.3050    -0.0930 O.3   1 <1>  -0.0190 
 19 C       -6.9690    -6.5900     0.5600 C.2   1 <1>  -0.1500 
 20 N       -5.2070    -7.5560    -0.3350 N.2   1 <1>  -0.4100 
 21 C       -6.4200    -7.7540     0.0470 C.2   1 <1>   0.2030 
 22 C       -7.1370    -9.0890    -0.0520 C.3   1 <1>  -0.0140 
 23 C       -7.4330    -9.6750    -1.3990 C.3   1 <1>  -0.2000 
 24 C       -8.5510    -9.1640    -0.5460 C.3   1 <1>  -0.2000 
 25 H        0.0590    -3.4230     0.8490 H     1 <1>   0.0800 
 26 H       -0.1570    -3.1810    -0.8600 H     1 <1>   0.0800 
 27 H        2.5910     1.7220    -1.4950 H     1 <1>   0.0800 
 28 H        2.2370     2.6140    -0.0320 H     1 <1>   0.0800 
 29 H        1.0280     2.4920    -1.2910 H     1 <1>   0.0800 
 30 H       -1.6190    -4.8300     0.6300 H     1 <1>   0.0800 
 31 H       -2.7950    -4.4390    -0.5890 H     1 <1>   0.0800 
 32 H       -2.2640    -2.1190    -1.6420 H     1 <1>   0.0800 
 33 H       -2.2020    -0.8650    -0.4390 H     1 <1>   0.0800 
 34 H       -3.1130    -3.7900     2.3570 H     1 <1>   0.0800 
 35 H       -3.6510    -5.2880     1.6840 H     1 <1>   0.0800 
 36 H       -4.4970    -2.5390    -1.2370 H     1 <1>   0.0800 
 37 H       -4.4020    -0.8680    -0.8380 H     1 <1>   0.0800 
 38 H       -5.6260    -1.6750     0.9410 H     1 <1>   0.0800 
 39 H       -4.0250    -1.6900     1.6240 H     1 <1>   0.0800 
 40 H       -7.9620    -6.4590     0.9470 H     1 <1>   0.1500 
 41 H       -6.8350    -9.7700     0.7230 H     1 <1>   0.1000 
 42 H       -7.3170   -10.7360    -1.5320 H     1 <1>   0.1000 
 43 H       -7.1390    -9.1150    -2.2710 H     1 <1>   0.1000 
 44 H       -9.0510    -8.2610    -0.8520 H     1 <1>   0.1000 
 45 H       -9.2200    -9.8720    -0.0900 H     1 <1>   0.1000 
@<TRIPOS>BOND
  1   1   2  1   
  2   1   3  1   
  3   2   4  2   
  4   2   5  1   
  5   3   6  2   
  6   3   7  1   
  7   4   6  1   
  8   5   8  1   
  9   5  25  1   
 10   5  26  1   
 11   7  27  1   
 12   7  28  1   
 13   7  29  1   
 14   8   9  1   
 15   8  10  1   
 16   9  11  1   
 17   9  30  1   
 18   9  31  1   
 19  10  12  1   
 20  10  32  1   
 21  10  33  1   
 22  11  13  1   
 23  11  34  1   
 24  11  35  1   
 25  12  14  1   
 26  12  36  1   
 27  12  37  1   
 28  13  14  1   
 29  13  15  am  
 30  14  38  1   
 31  14  39  1   
 32  15  16  2   
 33  15  17  1   
 34  17  18  1   
 35  17  19  2   
 36  18  20  1   
 37  19  21  1   
 38  19  40  1   
 39  20  21  2   
 40  21  22  1   
 41  22  23  1   
 42  22  24  1   
 43  22  41  1   
 44  23  24  1   
 45  23  42  1   
 46  23  43  1   
 47  24  44  1   
 48  24  45  1   
@<TRIPOS>SUBSTRUCTURE
  1 ****   9 GROUP 4 **** **** 0

# MOE 2024.06 (io_trps.svl 2023.06)
