@<TRIPOS>MOLECULE
NONAME
54 57 1 0 0 
SMALL
USER_CHARGES


@<TRIPOS>ATOM
  1 O        0.4130    -0.0470    -1.2430 O.2   1 <1>  -0.5700 
  2 C       -0.4960     0.7280    -1.0760 C.2   1 <1>   0.5690 
  3 N       -1.7810     0.3130    -0.8680 N.am  1 <1>  -0.6600 
  4 C       -0.1660     2.2020    -1.0650 C.3   1 <1>  -0.0990 
  5 C       -2.9530     1.1810    -0.5720 C.3   1 <1>   0.1400 
  6 C       -2.1560    -1.1180    -0.7680 C.3   1 <1>   0.1400 
  7 C        0.0770     2.6550     0.3790 C.3   1 <1>   0.0960 
  8 C       -4.1070     0.2140    -0.3010 C.3   1 <1>   0.2000 
  9 C       -3.4530    -1.1220     0.0440 C.3   1 <1>  -0.0800 
 10 N       -0.4460     4.0160     0.5840 N.pl3 1 <1>   0.3140 
 11 O       -4.8990     0.6410     0.7540 O.3   1 <1>  -0.6800 
 12 C       -4.3660    -2.3240    -0.2480 C.3   1 <1>  -0.0160 
 13 N       -1.7530     4.2110     0.8440 N.2   1 <1>  -0.7070 
 14 C        0.2240     5.1890     0.5160 C.2   1 <1>  -0.3320 
 15 C       -3.6780    -3.6360     0.0850 C.ar  1 <1>   0.1670 
 16 C       -1.8840     5.4960     0.9430 C.2   1 <1>   0.1080 
 17 C       -0.6820     6.1630     0.7470 C.2   1 <1>  -0.1500 
 18 C        1.7080     5.3340     0.2300 C.3   1 <1>  -0.0600 
 19 N       -3.0030    -4.2150    -0.8610 N.ar  1 <1>  -0.6200 
 20 C       -3.7940    -4.1510     1.3860 C.ar  1 <1>  -0.1500 
 21 C       -3.2110     6.1540     1.2370 C.3   1 <1>  -0.0590 
 22 C       -2.3740    -5.3820    -0.5650 C.ar  1 <1>   0.3100 
 23 C       -3.1750    -5.3200     1.7090 C.ar  1 <1>  -0.1500 
 24 C       -2.4310    -5.9760     0.7140 C.ar  1 <1>   0.0000 
 25 C       -1.6320    -6.0260    -1.5680 C.ar  1 <1>  -0.1500 
 26 C       -1.7470    -7.1880     0.9380 C.ar  1 <1>  -0.1500 
 27 C       -0.9740    -7.2040    -1.3310 C.ar  1 <1>  -0.1500 
 28 C       -1.0340    -7.7900    -0.0620 C.ar  1 <1>  -0.1500 
 29 H        0.7180     2.3710    -1.6510 H     1 <1>   0.0800 
 30 H       -0.9730     2.7510    -1.5130 H     1 <1>   0.0800 
 31 H       -2.7480     1.7850     0.2950 H     1 <1>   0.0800 
 32 H       -3.1780     1.8110    -1.4150 H     1 <1>   0.0800 
 33 H       -2.3200    -1.5080    -1.7590 H     1 <1>   0.0800 
 34 H       -1.3830    -1.6930    -0.2860 H     1 <1>   0.0800 
 35 H        1.1240     2.6270     0.6150 H     1 <1>   0.0800 
 36 H       -0.4400     2.0090     1.0650 H     1 <1>   0.0800 
 37 H       -4.7260     0.1290    -1.1780 H     1 <1>   0.0800 
 38 H       -3.1750    -1.1280     1.0830 H     1 <1>   0.0800 
 39 H       -4.3420     0.8740     1.5230 H     1 <1>   0.4000 
 40 H       -4.6440    -2.3290    -1.2880 H     1 <1>   0.0800 
 41 H       -5.2700    -2.2360     0.3280 H     1 <1>   0.0800 
 42 H       -0.5350     7.2280     0.7780 H     1 <1>   0.1500 
 43 H        1.9810     6.3750     0.2140 H     1 <1>   0.0800 
 44 H        1.9470     4.9040    -0.7260 H     1 <1>   0.0800 
 45 H        2.2850     4.8420     0.9930 H     1 <1>   0.0800 
 46 H       -4.3720    -3.6120     2.1140 H     1 <1>   0.1500 
 47 H       -3.1030     7.2220     1.2600 H     1 <1>   0.0800 
 48 H       -3.5750     5.8150     2.1890 H     1 <1>   0.0800 
 49 H       -3.9200     5.8860     0.4760 H     1 <1>   0.0800 
 50 H       -3.2400    -5.7460     2.6940 H     1 <1>   0.1500 
 51 H       -1.5980    -5.5590    -2.5350 H     1 <1>   0.1500 
 52 H       -1.7960    -7.6330     1.9160 H     1 <1>   0.1500 
 53 H       -0.4090    -7.6870    -2.1090 H     1 <1>   0.1500 
 54 H       -0.5110    -8.7160     0.1110 H     1 <1>   0.1500 
@<TRIPOS>BOND
  1   1   2  2   
  2   2   3  am  
  3   2   4  1   
  4   3   5  1   
  5   3   6  1   
  6   4   7  1   
  7   4  29  1   
  8   4  30  1   
  9   5   8  1   
 10   5  31  1   
 11   5  32  1   
 12   6   9  1   
 13   6  33  1   
 14   6  34  1   
 15   7  10  1   
 16   7  35  1   
 17   7  36  1   
 18   8   9  1   
 19   8  11  1   
 20   8  37  1   
 21   9  12  1   
 22   9  38  1   
 23  10  13  1   
 24  10  14  1   
 25  11  39  1   
 26  12  15  1   
 27  12  40  1   
 28  12  41  1   
 29  13  16  2   
 30  14  17  2   
 31  14  18  1   
 32  15  19  ar  
 33  15  20  ar  
 34  16  17  1   
 35  16  21  1   
 36  17  42  1   
 37  18  43  1   
 38  18  44  1   
 39  18  45  1   
 40  19  22  ar  
 41  20  23  ar  
 42  20  46  1   
 43  21  47  1   
 44  21  48  1   
 45  21  49  1   
 46  22  24  ar  
 47  22  25  ar  
 48  23  24  ar  
 49  23  50  1   
 50  24  26  ar  
 51  25  27  ar  
 52  25  51  1   
 53  26  28  ar  
 54  26  52  1   
 55  27  28  ar  
 56  27  53  1   
 57  28  54  1   
@<TRIPOS>SUBSTRUCTURE
  1 ****   6 GROUP 4 **** **** 0

# MOE 2024.06 (io_trps.svl 2023.06)
