@<TRIPOS>MOLECULE
NONAME
59 63 1 0 0 
SMALL
USER_CHARGES


@<TRIPOS>ATOM
  1 F       -2.4070    -0.2060    -2.5180 F     1 <1>  -0.1900 
  2 C       -2.7610    -0.8200    -1.4130 C.ar  1 <1>   0.1900 
  3 C       -2.8050    -0.0980    -0.2080 C.ar  1 <1>   0.1000 
  4 C       -3.0730    -2.1540    -1.4960 C.ar  1 <1>  -0.1500 
  5 N       -2.4950     1.2560    -0.0790 N.pl3 1 <1>  -0.8380 
  6 C       -3.1820    -0.8030     0.9200 C.ar  1 <1>  -0.1500 
  7 C       -3.4570    -2.8610    -0.3490 C.ar  1 <1>   0.0860 
  8 C       -1.0650     1.6430    -0.2720 C.3   1 <1>   0.2090 
  9 C       -3.4100     2.2320    -0.7440 C.3   1 <1>   0.2090 
 10 C       -3.5040    -2.1560     0.8670 C.ar  1 <1>   0.1000 
 11 C       -3.8000    -4.2600    -0.3710 C.2   1 <1>   0.4690 
 12 C       -0.8390     3.1120     0.1310 C.3   1 <1>   0.1200 
 13 C       -3.0720     3.6730    -0.3190 C.3   1 <1>   0.1200 
 14 N       -3.8750    -2.8370     2.0190 N.pl3 1 <1>  -0.6000 
 15 O       -3.7330    -4.8780    -1.4280 O.2   1 <1>  -0.5700 
 16 C       -4.2110    -4.8930     0.8450 C.2   1 <1>   0.0290 
 17 O       -1.7200     3.9630    -0.5510 O.3   1 <1>  -0.5600 
 18 C       -4.2110    -4.1580     2.0000 C.2   1 <1>  -0.0500 
 19 C       -4.5940    -6.2780     0.8590 C.2   1 <1>   0.6160 
 20 O       -4.0950    -7.0010     1.7060 O.2   1 <1>  -0.5700 
 21 N       -5.5320    -6.8420     0.0090 N.am  1 <1>  -0.6600 
 22 C       -6.5800    -6.0570    -0.7200 C.3   1 <1>   0.2200 
 23 C       -5.3240    -8.2570    -0.4290 C.3   1 <1>   0.0600 
 24 C       -7.7670    -6.9160    -1.1630 C.3   1 <1>  -0.1600 
 25 C       -7.2490    -4.9940     0.1550 C.3   1 <1>  -0.1600 
 26 C       -8.9130    -5.9290    -1.4050 C.3   1 <1>  -0.0800 
 27 C       -8.6110    -4.7170    -0.4950 C.3   1 <1>  -0.0800 
 28 C      -10.3040    -6.5730    -1.2310 C.3   1 <1>   0.1400 
 29 C       -9.7190    -4.4020     0.5300 C.3   1 <1>  -0.0990 
 30 N      -11.3100    -5.5280    -0.9520 N.am  1 <1>  -0.7300 
 31 C      -11.0830    -4.4910    -0.1190 C.2   1 <1>   0.5690 
 32 O      -11.9320    -3.6690     0.1100 O.2   1 <1>  -0.5700 
 33 H       -3.0210    -2.6600    -2.4440 H     1 <1>   0.1500 
 34 H       -3.2220    -0.2780     1.8560 H     1 <1>   0.1500 
 35 H       -0.4380     1.0060     0.3270 H     1 <1>   0.0800 
 36 H       -0.7890     1.5140    -1.3040 H     1 <1>   0.0800 
 37 H       -3.3160     2.1510    -1.8130 H     1 <1>   0.0800 
 38 H       -4.4280     2.0080    -0.4770 H     1 <1>   0.0800 
 39 H        0.1630     3.4130    -0.1140 H     1 <1>   0.0800 
 40 H       -0.9900     3.2370     1.1880 H     1 <1>   0.0800 
 41 H       -3.2780     3.8110     0.7280 H     1 <1>   0.0800 
 42 H       -3.6600     4.3740    -0.8830 H     1 <1>   0.0800 
 43 H       -3.8740    -2.3150     2.9050 H     1 <1>   0.4000 
 44 H       -4.4830    -4.6220     2.9360 H     1 <1>   0.1500 
 45 H       -6.1450    -5.5930    -1.5900 H     1 <1>   0.0800 
 46 H       -5.3400    -8.3160    -1.5030 H     1 <1>   0.0800 
 47 H       -6.0940    -8.8850    -0.0180 H     1 <1>   0.0800 
 48 H       -4.3700    -8.6240    -0.0890 H     1 <1>   0.0800 
 49 H       -7.5450    -7.4780    -2.0530 H     1 <1>   0.0800 
 50 H       -8.0350    -7.5840    -0.3630 H     1 <1>   0.0800 
 51 H       -7.3860    -5.3920     1.1460 H     1 <1>   0.0800 
 52 H       -6.6750    -4.0870     0.2060 H     1 <1>   0.0800 
 53 H       -8.8410    -5.5890    -2.4250 H     1 <1>   0.0800 
 54 H       -8.5110    -3.8570    -1.1380 H     1 <1>   0.0800 
 55 H      -10.2960    -7.2620    -0.4030 H     1 <1>   0.0800 
 56 H      -10.5740    -7.1140    -2.1220 H     1 <1>   0.0800 
 57 H       -9.5780    -3.4180     0.9380 H     1 <1>   0.0800 
 58 H       -9.6980    -5.1110     1.3370 H     1 <1>   0.0800 
 59 H      -12.2430    -5.6120    -1.3620 H     1 <1>   0.3700 
@<TRIPOS>BOND
  1   1   2  1   
  2   2   3  ar  
  3   2   4  ar  
  4   3   5  1   
  5   3   6  ar  
  6   4   7  ar  
  7   4  33  1   
  8   5   8  1   
  9   5   9  1   
 10   6  10  ar  
 11   6  34  1   
 12   7  10  ar  
 13   7  11  1   
 14   8  12  1   
 15   8  35  1   
 16   8  36  1   
 17   9  13  1   
 18   9  37  1   
 19   9  38  1   
 20  10  14  1   
 21  11  15  2   
 22  11  16  1   
 23  12  17  1   
 24  12  39  1   
 25  12  40  1   
 26  13  17  1   
 27  13  41  1   
 28  13  42  1   
 29  14  18  1   
 30  14  43  1   
 31  16  18  2   
 32  16  19  1   
 33  18  44  1   
 34  19  20  2   
 35  19  21  am  
 36  21  22  1   
 37  21  23  1   
 38  22  24  1   
 39  22  25  1   
 40  22  45  1   
 41  23  46  1   
 42  23  47  1   
 43  23  48  1   
 44  24  26  1   
 45  24  49  1   
 46  24  50  1   
 47  25  27  1   
 48  25  51  1   
 49  25  52  1   
 50  26  27  1   
 51  26  28  1   
 52  26  53  1   
 53  27  29  1   
 54  27  54  1   
 55  28  30  1   
 56  28  55  1   
 57  28  56  1   
 58  29  31  1   
 59  29  57  1   
 60  29  58  1   
 61  30  31  am  
 62  30  59  1   
 63  31  32  2   
@<TRIPOS>SUBSTRUCTURE
  1 ****   7 GROUP 4 **** **** 0

# MOE 2024.06 (io_trps.svl 2023.06)
