@<TRIPOS>MOLECULE
NONAME
39 40 1 0 0 
SMALL
USER_CHARGES


@<TRIPOS>ATOM
  1 S       -0.4330     1.1350     1.6760 S.3   1 <1>  -0.3320 
  2 C       -0.0890     2.3490     0.3900 C.ar  1 <1>   0.1020 
  3 C       -2.1400     0.5030     1.3640 C.3   1 <1>  -0.0100 
  4 C        1.1490     2.9650     0.4280 C.ar  1 <1>  -0.1500 
  5 C       -1.0100     2.6630    -0.5960 C.ar  1 <1>  -0.1500 
  6 C        1.4820     3.9120    -0.5280 C.ar  1 <1>  -0.1430 
  7 C       -0.6790     3.6100    -1.5510 C.ar  1 <1>  -0.1500 
  8 C        0.5590     4.2300    -1.5140 C.ar  1 <1>  -0.1500 
  9 C        2.8450     4.5920    -0.4980 C.3   1 <1>   0.2530 
 10 N        2.7170     6.0590    -0.4810 N.3   1 <1>  -0.8100 
 11 C        4.0450     6.6990    -0.6390 C.3   1 <1>   0.2900 
 12 C        2.0360     6.5290     0.7390 C.3   1 <1>   0.0300 
 13 C        3.9860     8.2170    -0.7840 C.2   1 <1>   0.2980 
 14 O        3.3960     8.7270    -1.8370 O.3   1 <1>  -0.0190 
 15 N        4.4780     9.0620     0.0330 N.2   1 <1>  -0.5650 
 16 N        3.5270    10.0100    -1.6790 N.2   1 <1>  -0.4100 
 17 C        4.1650    10.1920    -0.5920 C.2   1 <1>   0.3350 
 18 C        4.5300    11.5530    -0.0200 C.3   1 <1>   0.2510 
 19 S        6.3060    11.9000    -0.2660 S.3   1 <1>  -0.4600 
 20 C        6.5330    13.5210     0.5110 C.3   1 <1>  -0.0100 
 21 H       -2.3610    -0.2230     2.1260 H     1 <1>   0.0800 
 22 H       -2.1520     0.0490     0.3890 H     1 <1>   0.0800 
 23 H       -2.8170     1.3350     1.4210 H     1 <1>   0.0800 
 24 H        1.8400     2.6980     1.2070 H     1 <1>   0.1500 
 25 H       -1.9710     2.1910    -0.6350 H     1 <1>   0.1500 
 26 H       -1.3840     3.8690    -2.3220 H     1 <1>   0.1500 
 27 H        0.8100     4.9720    -2.2540 H     1 <1>   0.1500 
 28 H        3.3850     4.2910    -1.3800 H     1 <1>   0.0800 
 29 H        3.4020     4.2650     0.3630 H     1 <1>   0.0800 
 30 H        4.5230     6.3080    -1.5190 H     1 <1>   0.0800 
 31 H        4.6630     6.4610     0.2100 H     1 <1>   0.0800 
 32 H        1.0560     6.0880     0.8130 H     1 <1>   0.0800 
 33 H        1.9090     7.5970     0.7090 H     1 <1>   0.0800 
 34 H        2.6030     6.2670     1.6160 H     1 <1>   0.0800 
 35 H        4.3400    11.5800     1.0370 H     1 <1>   0.0800 
 36 H        3.9820    12.3310    -0.5180 H     1 <1>   0.0800 
 37 H        7.5680    13.7920     0.4000 H     1 <1>   0.0800 
 38 H        6.2710    13.4330     1.5500 H     1 <1>   0.0800 
 39 H        5.8980    14.2260     0.0060 H     1 <1>   0.0800 
@<TRIPOS>BOND
  1   1   2  1   
  2   1   3  1   
  3   2   4  ar  
  4   2   5  ar  
  5   3  21  1   
  6   3  22  1   
  7   3  23  1   
  8   4   6  ar  
  9   4  24  1   
 10   5   7  ar  
 11   5  25  1   
 12   6   8  ar  
 13   6   9  1   
 14   7   8  ar  
 15   7  26  1   
 16   8  27  1   
 17   9  10  1   
 18   9  28  1   
 19   9  29  1   
 20  10  11  1   
 21  10  12  1   
 22  11  13  1   
 23  11  30  1   
 24  11  31  1   
 25  12  32  1   
 26  12  33  1   
 27  12  34  1   
 28  13  14  1   
 29  13  15  2   
 30  14  16  1   
 31  15  17  1   
 32  16  17  2   
 33  17  18  1   
 34  18  19  1   
 35  18  35  1   
 36  18  36  1   
 37  19  20  1   
 38  20  37  1   
 39  20  38  1   
 40  20  39  1   
@<TRIPOS>SUBSTRUCTURE
  1 ****  10 GROUP 4 **** **** 0

# MOE 2024.06 (io_trps.svl 2023.06)
