@<TRIPOS>MOLECULE
NONAME
50 52 1 0 0 
SMALL
USER_CHARGES


@<TRIPOS>ATOM
  1 S       -4.5070    -0.3740    -0.6250 S.3   1 <1>  -0.0800 
  2 C       -2.8510    -0.9070    -0.5100 C.2   1 <1>  -0.1400 
  3 C       -3.9900     1.2350    -0.1790 C.2   1 <1>   0.2280 
  4 C       -2.0870     0.1420    -0.1590 C.2   1 <1>   0.0460 
  5 C       -2.5730    -2.3690    -0.8110 C.3   1 <1>   0.0200 
  6 N       -2.7400     1.3480     0.0280 N.2   1 <1>  -0.5650 
  7 C       -0.5890     0.1640     0.0590 C.3   1 <1>  -0.0590 
  8 C       -3.1220    -3.2630     0.3040 C.3   1 <1>   0.2090 
  9 N       -3.0120    -4.7040    -0.0770 N.pl3 1 <1>  -0.8380 
 10 C       -4.0400    -5.4400    -0.5910 C.ar  1 <1>   0.4100 
 11 C       -1.7150    -5.3320     0.3310 C.3   1 <1>   0.1290 
 12 N       -3.9580    -6.7550    -0.5030 N.ar  1 <1>  -0.6200 
 13 C       -5.1550    -4.8250    -1.1960 C.ar  1 <1>  -0.1500 
 14 C       -4.9530    -7.4940    -0.9680 C.ar  1 <1>   0.7710 
 15 C       -6.1600    -5.5940    -1.6780 C.ar  1 <1>   0.2180 
 16 N       -6.0290    -6.9340    -1.5470 N.ar  1 <1>  -0.1790 
 17 N       -4.8850    -8.8510    -0.8640 N.pl3 1 <1>  -0.8380 
 18 C       -7.4050    -5.0300    -2.3520 C.3   1 <1>  -0.0170 
 19 C       -3.6490    -9.5460    -0.3410 C.3   1 <1>   0.2090 
 20 C       -5.9560    -9.8560    -1.2010 C.3   1 <1>   0.2090 
 21 C       -8.6810    -5.3370    -1.5580 C.3   1 <1>  -0.2400 
 22 C       -4.0010   -10.5500     0.7700 C.3   1 <1>   0.1200 
 23 C       -6.1830   -10.8370    -0.0350 C.3   1 <1>   0.1200 
 24 O       -4.9820   -11.4460     0.3320 O.3   1 <1>  -0.5600 
 25 H       -4.7490     1.9950    -0.1120 H     1 <1>   0.1500 
 26 H       -1.5150    -2.5270    -0.9030 H     1 <1>   0.0800 
 27 H       -3.0310    -2.6240    -1.7490 H     1 <1>   0.0800 
 28 H       -0.1580    -0.8060    -0.0920 H     1 <1>   0.0800 
 29 H       -0.3780     0.4860     1.0630 H     1 <1>   0.0800 
 30 H       -0.1380     0.8570    -0.6270 H     1 <1>   0.0800 
 31 H       -4.1490    -3.0150     0.5070 H     1 <1>   0.0800 
 32 H       -2.5710    -3.0830     1.2120 H     1 <1>   0.0800 
 33 H       -0.9020    -4.6400     0.1930 H     1 <1>   0.0800 
 34 H       -1.5110    -6.2070    -0.2610 H     1 <1>   0.0800 
 35 H       -1.7610    -5.6160     1.3690 H     1 <1>   0.0800 
 36 H       -5.1890    -3.7570    -1.2740 H     1 <1>   0.1500 
 37 H       -6.7290    -7.5720    -1.8950 H     1 <1>   0.4570 
 38 H       -7.4910    -5.4300    -3.3490 H     1 <1>   0.0800 
 39 H       -7.3070    -3.9610    -2.4460 H     1 <1>   0.0800 
 40 H       -2.9280    -8.8510     0.0500 H     1 <1>   0.0800 
 41 H       -3.1750   -10.0780    -1.1480 H     1 <1>   0.0800 
 42 H       -5.6520   -10.4210    -2.0660 H     1 <1>   0.0800 
 43 H       -6.8910    -9.3800    -1.4260 H     1 <1>   0.0800 
 44 H       -8.8660    -6.3950    -1.4960 H     1 <1>   0.0800 
 45 H       -9.5280    -4.8790    -2.0400 H     1 <1>   0.0800 
 46 H       -8.6090    -4.9370    -0.5610 H     1 <1>   0.0800 
 47 H       -4.3610   -10.0390     1.6460 H     1 <1>   0.0800 
 48 H       -3.1310   -11.1240     1.0400 H     1 <1>   0.0800 
 49 H       -6.8640   -11.6170    -0.3300 H     1 <1>   0.0800 
 50 H       -6.5890   -10.3310     0.8240 H     1 <1>   0.0800 
@<TRIPOS>BOND
  1   1   2  1   
  2   1   3  1   
  3   2   4  2   
  4   2   5  1   
  5   3   6  2   
  6   3  25  1   
  7   4   6  1   
  8   4   7  1   
  9   5   8  1   
 10   5  26  1   
 11   5  27  1   
 12   7  28  1   
 13   7  29  1   
 14   7  30  1   
 15   8   9  1   
 16   8  31  1   
 17   8  32  1   
 18   9  10  1   
 19   9  11  1   
 20  10  12  ar  
 21  10  13  ar  
 22  11  33  1   
 23  11  34  1   
 24  11  35  1   
 25  12  14  ar  
 26  13  15  ar  
 27  13  36  1   
 28  14  16  ar  
 29  14  17  1   
 30  15  16  ar  
 31  15  18  1   
 32  16  37  1   
 33  17  19  1   
 34  17  20  1   
 35  18  21  1   
 36  18  38  1   
 37  18  39  1   
 38  19  22  1   
 39  19  40  1   
 40  19  41  1   
 41  20  23  1   
 42  20  42  1   
 43  20  43  1   
 44  21  44  1   
 45  21  45  1   
 46  21  46  1   
 47  22  24  1   
 48  22  47  1   
 49  22  48  1   
 50  23  24  1   
 51  23  49  1   
 52  23  50  1   
@<TRIPOS>SUBSTRUCTURE
  1 ****  10 GROUP 4 **** **** 0

# MOE 2024.06 (io_trps.svl 2023.06)
