@<TRIPOS>MOLECULE
NONAME
57 61 1 0 0 
SMALL
USER_CHARGES


@<TRIPOS>ATOM
  1 N       -1.8670     0.6530    -0.7260 N.ar  1 <1>  -0.6200 
  2 C       -1.0490     1.2780    -1.5640 C.ar  1 <1>   0.4760 
  3 C       -2.0410     1.2330     0.4480 C.ar  1 <1>   0.1660 
  4 N       -0.4110     2.4150    -1.3540 N.ar  1 <1>  -0.6200 
  5 C       -0.8200     0.6160    -2.9150 C.3   1 <1>  -0.0160 
  6 C       -1.4120     2.4140     0.7690 C.ar  1 <1>  -0.1500 
  7 C       -2.9840     0.5480     1.4350 C.3   1 <1>   0.4870 
  8 C       -0.5930     2.9750    -0.1810 C.ar  1 <1>   0.1600 
  9 C        0.2870    -0.4460    -2.8590 C.3   1 <1>  -0.2400 
 10 N       -4.1410    -0.0670     0.7070 N.4   1 <1>  -0.9590 
 11 C       -4.9950     0.9470    -0.0060 C.3   1 <1>   0.3430 
 12 C       -4.9380    -1.0050     1.5610 C.3   1 <1>   0.3430 
 13 C       -5.7980     1.8630     0.9490 C.3   1 <1>   0.1430 
 14 C       -6.2270    -0.3660     2.1070 C.3   1 <1>  -0.1600 
 15 C       -7.0780     2.2510     0.2390 C.ar  1 <1>   0.1670 
 16 C       -6.1300     1.1580     2.2900 C.3   1 <1>  -0.1600 
 17 C       -5.1230     3.2430     1.1800 C.3   1 <1>  -0.1600 
 18 N       -7.8750     1.4110    -0.3730 N.ar  1 <1>  -0.6200 
 19 C       -7.3090     3.5890     0.3010 C.ar  1 <1>  -0.1430 
 20 C       -6.2300     4.3090     1.0680 C.3   1 <1>  -0.0170 
 21 C       -8.9570     1.9550    -0.9500 C.ar  1 <1>   0.6200 
 22 C       -8.4360     4.0690    -0.3150 C.ar  1 <1>   0.1600 
 23 N       -9.2590     3.2600    -0.9430 N.ar  1 <1>  -0.6200 
 24 C       -9.8680     1.0570    -1.6410 C.ar  1 <1>   0.0000 
 25 C      -10.5250     1.4440    -2.8120 C.ar  1 <1>  -0.1500 
 26 C      -10.1260    -0.2320    -1.1650 C.ar  1 <1>  -0.1500 
 27 C      -11.3880     0.5910    -3.4760 C.ar  1 <1>  -0.1500 
 28 C      -10.9880    -1.0900    -1.8250 C.ar  1 <1>  -0.1500 
 29 C      -11.6200    -0.6800    -2.9840 C.ar  1 <1>  -0.1500 
 30 H       -0.5510     1.3710    -3.6330 H     1 <1>   0.0800 
 31 H       -1.7370     0.1640    -3.2460 H     1 <1>   0.0800 
 32 H       -1.5390     2.8960     1.7210 H     1 <1>   0.1500 
 33 H       -3.3320     1.2580     2.1640 H     1 <1>   0.0800 
 34 H       -2.4310    -0.2230     1.9460 H     1 <1>   0.0800 
 35 H       -0.0750     3.8990     0.0210 H     1 <1>   0.1500 
 36 H        1.2140     0.0030    -2.5470 H     1 <1>   0.0800 
 37 H        0.4280    -0.8870    -3.8300 H     1 <1>   0.0800 
 38 H        0.0260    -1.2220    -2.1610 H     1 <1>   0.0800 
 39 H       -3.6730    -0.6040    -0.0440 H     1 <1>   0.4500 
 40 H       -5.7000     0.4130    -0.6220 H     1 <1>   0.0800 
 41 H       -4.3930     1.5480    -0.6690 H     1 <1>   0.0800 
 42 H       -4.3300    -1.3430     2.3850 H     1 <1>   0.0800 
 43 H       -5.2100    -1.8750     0.9840 H     1 <1>   0.0800 
 44 H       -6.4770    -0.8320     3.0450 H     1 <1>   0.0800 
 45 H       -7.0340    -0.5890     1.4300 H     1 <1>   0.0800 
 46 H       -7.0600     1.5370     2.6820 H     1 <1>   0.0800 
 47 H       -5.3710     1.3630     3.0230 H     1 <1>   0.0800 
 48 H       -4.4100     3.4320     0.3950 H     1 <1>   0.0800 
 49 H       -4.6130     3.3160     2.1240 H     1 <1>   0.0800 
 50 H       -5.8890     5.1880     0.5470 H     1 <1>   0.0800 
 51 H       -6.6010     4.5820     2.0410 H     1 <1>   0.0800 
 52 H       -8.6680     5.1210    -0.2960 H     1 <1>   0.1500 
 53 H      -10.3560     2.4310    -3.2060 H     1 <1>   0.1500 
 54 H       -9.6470    -0.5640    -0.2620 H     1 <1>   0.1500 
 55 H      -11.8790     0.9170    -4.3760 H     1 <1>   0.1500 
 56 H      -11.1690    -2.0770    -1.4360 H     1 <1>   0.1500 
 57 H      -12.2920    -1.3450    -3.4990 H     1 <1>   0.1500 
@<TRIPOS>BOND
  1   1   2  ar  
  2   1   3  ar  
  3   2   4  ar  
  4   2   5  1   
  5   3   6  ar  
  6   3   7  1   
  7   4   8  ar  
  8   5   9  1   
  9   5  30  1   
 10   5  31  1   
 11   6   8  ar  
 12   6  32  1   
 13   7  10  1   
 14   7  33  1   
 15   7  34  1   
 16   8  35  1   
 17   9  36  1   
 18   9  37  1   
 19   9  38  1   
 20  10  11  1   
 21  10  12  1   
 22  10  39  1   
 23  11  13  1   
 24  11  40  1   
 25  11  41  1   
 26  12  14  1   
 27  12  42  1   
 28  12  43  1   
 29  13  15  1   
 30  13  16  1   
 31  13  17  1   
 32  14  16  1   
 33  14  44  1   
 34  14  45  1   
 35  15  18  ar  
 36  15  19  ar  
 37  16  46  1   
 38  16  47  1   
 39  17  20  1   
 40  17  48  1   
 41  17  49  1   
 42  18  21  ar  
 43  19  20  1   
 44  19  22  ar  
 45  20  50  1   
 46  20  51  1   
 47  21  23  ar  
 48  21  24  1   
 49  22  23  ar  
 50  22  52  1   
 51  24  25  ar  
 52  24  26  ar  
 53  25  27  ar  
 54  25  53  1   
 55  26  28  ar  
 56  26  54  1   
 57  27  29  ar  
 58  27  55  1   
 59  28  29  ar  
 60  28  56  1   
 61  29  57  1   
@<TRIPOS>SUBSTRUCTURE
  1 ****  11 GROUP 4 **** **** 0

# MOE 2024.06 (io_trps.svl 2023.06)
