@<TRIPOS>MOLECULE
NONAME
44 46 1 0 0 
SMALL
USER_CHARGES


@<TRIPOS>ATOM
  1 O        1.1950     2.8300     0.5790 O.co2 1 <1>  -0.9000 
  2 C       -0.0100     2.9200     0.8140 C.2   1 <1>   0.9060 
  3 O       -0.4410     3.5080     1.8100 O.co2 1 <1>  -0.9000 
  4 C       -0.9450     2.5690    -0.3130 C.3   1 <1>  -0.1860 
  5 C       -2.4620     2.7730    -0.0970 C.3   1 <1>   0.2000 
  6 C       -0.4700     3.4380    -1.4700 C.3   1 <1>   0.3430 
  7 O       -2.7700     2.6020     1.2300 O.3   1 <1>  -0.6800 
  8 C       -2.9610     4.1610    -0.5200 C.3   1 <1>  -0.1600 
  9 N       -0.6950     4.9070    -1.2110 N.4   1 <1>  -0.9590 
 10 C       -1.8680     5.2040    -0.3190 C.3   1 <1>   0.3430 
 11 C        0.5320     5.4960    -0.5750 C.3   1 <1>   0.5230 
 12 C        0.5930     6.9950    -0.8340 C.2   1 <1>  -0.0400 
 13 O        1.5910     7.6600    -0.2940 O.3   1 <1>  -0.2800 
 14 C       -0.1930     7.8420    -1.5370 C.2   1 <1>  -0.1500 
 15 C        1.4930     8.9430    -0.6160 C.2   1 <1>   0.0870 
 16 C        0.3900     9.1030    -1.3950 C.2   1 <1>  -0.1500 
 17 C        2.4750     9.8920    -0.1370 C.ar  1 <1>   0.0530 
 18 C        3.4590     9.5190     0.7780 C.ar  1 <1>  -0.1500 
 19 C        2.4760    11.2170    -0.5700 C.ar  1 <1>  -0.1500 
 20 C        4.3980    10.4220     1.2380 C.ar  1 <1>  -0.1500 
 21 C        3.4140    12.1260    -0.1120 C.ar  1 <1>  -0.1500 
 22 C        4.3830    11.7340     0.7960 C.ar  1 <1>  -0.1430 
 23 C        5.4120    12.7280     1.3010 C.3   1 <1>  -0.0970 
 24 H       -0.7680     1.5390    -0.5560 H     1 <1>   0.0800 
 25 H       -3.0170     2.0250    -0.6380 H     1 <1>   0.0800 
 26 H       -1.0110     3.1470    -2.3550 H     1 <1>   0.0800 
 27 H        0.5790     3.2500    -1.6470 H     1 <1>   0.0800 
 28 H       -1.9940     2.9520     1.7660 H     1 <1>   0.4000 
 29 H       -3.2470     4.1470    -1.5560 H     1 <1>   0.0800 
 30 H       -3.8340     4.4260     0.0510 H     1 <1>   0.0800 
 31 H       -0.8040     5.3850    -2.1090 H     1 <1>   0.4500 
 32 H       -1.5580     5.1710     0.7150 H     1 <1>   0.0800 
 33 H       -2.2480     6.1920    -0.5200 H     1 <1>   0.0800 
 34 H        0.5290     5.3110     0.4880 H     1 <1>   0.0800 
 35 H        1.4180     5.0340    -0.9780 H     1 <1>   0.0800 
 36 H       -1.0870     7.6530    -2.1040 H     1 <1>   0.1500 
 37 H        0.0150    10.0130    -1.8290 H     1 <1>   0.1500 
 38 H        3.4890     8.5050     1.1360 H     1 <1>   0.1500 
 39 H        1.7370    11.5470    -1.2750 H     1 <1>   0.1500 
 40 H        5.1410    10.0980     1.9460 H     1 <1>   0.1500 
 41 H        3.3860    13.1420    -0.4640 H     1 <1>   0.1500 
 42 H        6.3340    12.2280     1.5380 H     1 <1>   0.0800 
 43 H        5.0430    13.2140     2.1860 H     1 <1>   0.0800 
 44 H        5.6140    13.4730     0.5530 H     1 <1>   0.0800 
@<TRIPOS>BOND
  1   1   2  ar  
  2   2   3  ar  
  3   2   4  1   
  4   4   5  1   
  5   4   6  1   
  6   4  24  1   
  7   5   7  1   
  8   5   8  1   
  9   5  25  1   
 10   6   9  1   
 11   6  26  1   
 12   6  27  1   
 13   7  28  1   
 14   8  10  1   
 15   8  29  1   
 16   8  30  1   
 17   9  10  1   
 18   9  11  1   
 19   9  31  1   
 20  10  32  1   
 21  10  33  1   
 22  11  12  1   
 23  11  34  1   
 24  11  35  1   
 25  12  13  1   
 26  12  14  2   
 27  13  15  1   
 28  14  16  1   
 29  14  36  1   
 30  15  16  2   
 31  15  17  1   
 32  16  37  1   
 33  17  18  ar  
 34  17  19  ar  
 35  18  20  ar  
 36  18  38  1   
 37  19  21  ar  
 38  19  39  1   
 39  20  22  ar  
 40  20  40  1   
 41  21  22  ar  
 42  21  41  1   
 43  22  23  1   
 44  23  42  1   
 45  23  43  1   
 46  23  44  1   
@<TRIPOS>SUBSTRUCTURE
  1 ****  12 GROUP 4 **** **** 0

# MOE 2024.06 (io_trps.svl 2023.06)
