@<TRIPOS>MOLECULE
NONAME
44 45 1 0 0 
SMALL
USER_CHARGES


@<TRIPOS>ATOM
  1 CL       1.7610     1.3510    -2.9430 Cl    1 <1>  -0.1770 
  2 C        2.4670     1.8530    -1.4290 C.ar  1 <1>   0.1770 
  3 C        2.6660     3.1980    -1.1870 C.ar  1 <1>  -0.1500 
  4 C        2.8180     0.8950    -0.4960 C.ar  1 <1>  -0.1500 
  5 C        3.2310     3.5990     0.0120 C.ar  1 <1>   0.0830 
  6 C        3.3790     1.2940     0.7060 C.ar  1 <1>  -0.1500 
  7 O        3.4080     4.9310     0.1820 O.3   1 <1>  -0.3630 
  8 C        3.5850     2.6410     0.9620 C.ar  1 <1>  -0.1500 
  9 C        4.1340     5.4430     1.2910 C.3   1 <1>   0.1810 
 10 C        4.3110     6.9560     1.1960 C.2   1 <1>   0.5690 
 11 O        3.8230     7.6210     2.0820 O.2   1 <1>  -0.5700 
 12 N        5.0350     7.5400     0.1820 N.am  1 <1>  -0.6600 
 13 C        5.7070     6.8090    -0.9420 C.3   1 <1>   0.1400 
 14 C        5.1760     9.0190     0.1050 C.3   1 <1>   0.1400 
 15 C        7.2340     6.7570    -0.7800 C.3   1 <1>   0.1400 
 16 C        6.3810     9.5090     0.9190 C.3   1 <1>  -0.1600 
 17 N        7.8320     8.1110    -0.5650 N.am  1 <1>  -0.6600 
 18 C        7.6460     8.6460     0.8130 C.3   1 <1>   0.1400 
 19 C        8.4910     8.7610    -1.5810 C.2   1 <1>   0.5690 
 20 O        8.5130     8.3080    -2.7030 O.2   1 <1>  -0.5700 
 21 C        9.1760    10.1090    -1.3640 C.3   1 <1>   0.1310 
 22 S       10.6910     9.9540    -0.3500 S.3   1 <1>  -0.4600 
 23 C       11.4760    11.5780    -0.5170 C.3   1 <1>  -0.0100 
 24 H        2.3840     3.9270    -1.9230 H     1 <1>   0.1500 
 25 H        2.6510    -0.1460    -0.7100 H     1 <1>   0.1500 
 26 H        3.6530     0.5570     1.4420 H     1 <1>   0.1500 
 27 H        4.0160     2.9210     1.9040 H     1 <1>   0.1500 
 28 H        5.0980     4.9720     1.3170 H     1 <1>   0.0800 
 29 H        3.5860     5.2060     2.1850 H     1 <1>   0.0800 
 30 H        5.4750     7.2990    -1.8720 H     1 <1>   0.0800 
 31 H        5.3370     5.8040    -1.0220 H     1 <1>   0.0800 
 32 H        4.2780     9.4900     0.4700 H     1 <1>   0.0800 
 33 H        5.2980     9.3100    -0.9250 H     1 <1>   0.0800 
 34 H        7.6590     6.3050    -1.6600 H     1 <1>   0.0800 
 35 H        7.4840     6.1210     0.0500 H     1 <1>   0.0800 
 36 H        6.0930     9.5590     1.9540 H     1 <1>   0.0800 
 37 H        6.6100    10.5130     0.6150 H     1 <1>   0.0800 
 38 H        7.5590     7.8190     1.4980 H     1 <1>   0.0800 
 39 H        8.5050     9.2150     1.1200 H     1 <1>   0.0800 
 40 H        8.5200    10.7950    -0.8650 H     1 <1>   0.0800 
 41 H        9.4750    10.5170    -2.3110 H     1 <1>   0.0800 
 42 H       12.3810    11.5640     0.0640 H     1 <1>   0.0800 
 43 H       10.7940    12.3210    -0.1450 H     1 <1>   0.0800 
 44 H       11.6950    11.7370    -1.5580 H     1 <1>   0.0800 
@<TRIPOS>BOND
  1   1   2  1   
  2   2   3  ar  
  3   2   4  ar  
  4   3   5  ar  
  5   3  24  1   
  6   4   6  ar  
  7   4  25  1   
  8   5   7  1   
  9   5   8  ar  
 10   6   8  ar  
 11   6  26  1   
 12   7   9  1   
 13   8  27  1   
 14   9  10  1   
 15   9  28  1   
 16   9  29  1   
 17  10  11  2   
 18  10  12  am  
 19  12  13  1   
 20  12  14  1   
 21  13  15  1   
 22  13  30  1   
 23  13  31  1   
 24  14  16  1   
 25  14  32  1   
 26  14  33  1   
 27  15  17  1   
 28  15  34  1   
 29  15  35  1   
 30  16  18  1   
 31  16  36  1   
 32  16  37  1   
 33  17  18  1   
 34  17  19  am  
 35  18  38  1   
 36  18  39  1   
 37  19  20  2   
 38  19  21  1   
 39  21  22  1   
 40  21  40  1   
 41  21  41  1   
 42  22  23  1   
 43  23  42  1   
 44  23  43  1   
 45  23  44  1   
@<TRIPOS>SUBSTRUCTURE
  1 ****  13 GROUP 4 **** **** 0

# MOE 2024.06 (io_trps.svl 2023.06)
