@<TRIPOS>MOLECULE
NONAME
54 55 1 0 0 
SMALL
USER_CHARGES


@<TRIPOS>ATOM
  1 O       -1.0140     1.1350    -2.6800 O.2   1 <1>  -0.5700 
  2 C       -2.0180     1.7470    -2.4000 C.2   1 <1>   0.5690 
  3 N       -2.9570     1.2360    -1.5460 N.am  1 <1>  -0.6600 
  4 C       -2.1950     3.0990    -3.0760 C.3   1 <1>  -0.0990 
  5 C       -2.8650    -0.1940    -1.1020 C.3   1 <1>   0.3210 
  6 C       -4.1860     1.9540    -1.0640 C.3   1 <1>   0.1400 
  7 C       -0.9420     3.9950    -3.0460 C.3   1 <1>  -0.1600 
  8 C       -2.4540    -0.3530     0.3650 C.2   1 <1>   0.0460 
  9 C       -3.8890     3.1270    -0.1060 C.3   1 <1>   0.1200 
 10 C       -0.6430     4.6960    -1.7110 C.3   1 <1>   0.3430 
 11 N       -3.1390     0.2460     1.3670 N.2   1 <1>  -0.5650 
 12 C       -1.4430    -1.1050     0.8680 C.2   1 <1>  -0.3320 
 13 O       -2.7060     2.9130     0.5860 O.3   1 <1>  -0.6800 
 14 N       -0.2340     3.8390    -0.5570 N.4   1 <1>  -0.9590 
 15 C       -2.5500    -0.1650     2.4420 C.2   1 <1>   0.0360 
 16 N       -1.5100    -0.9880     2.2070 N.pl3 1 <1>   0.0330 
 17 C       -0.3940    -1.9670     0.1830 C.3   1 <1>  -0.0600 
 18 C        0.1300     4.7750     0.5470 C.3   1 <1>   0.3430 
 19 C        0.8920     2.9120    -0.8760 C.3   1 <1>   0.3430 
 20 C        0.1590     4.1550     1.9430 C.3   1 <1>  -0.1600 
 21 C        0.8800     1.6210    -0.0510 C.3   1 <1>  -0.1600 
 22 C        1.1200     2.9740     2.1290 C.3   1 <1>  -0.1600 
 23 C        0.5840     1.7150     1.4510 C.3   1 <1>  -0.1600 
 24 H       -3.0290     3.6420    -2.6840 H     1 <1>   0.0800 
 25 H       -2.4250     2.8860    -4.1050 H     1 <1>   0.0800 
 26 H       -2.1720    -0.7290    -1.7250 H     1 <1>   0.0800 
 27 H       -3.8240    -0.6620    -1.2350 H     1 <1>   0.0800 
 28 H       -4.8210     1.2580    -0.5420 H     1 <1>   0.0800 
 29 H       -4.7550     2.3090    -1.9060 H     1 <1>   0.0800 
 30 H       -1.1100     4.7800    -3.7630 H     1 <1>   0.0800 
 31 H       -0.0840     3.4570    -3.4070 H     1 <1>   0.0800 
 32 H       -4.6860     3.2230     0.6110 H     1 <1>   0.0800 
 33 H       -3.8010     4.0560    -0.6390 H     1 <1>   0.0800 
 34 H       -1.5190     5.2570    -1.4250 H     1 <1>   0.0800 
 35 H        0.1430     5.4100    -1.8940 H     1 <1>   0.0800 
 36 H       -2.7380     1.9740     0.9300 H     1 <1>   0.4000 
 37 H       -1.0530     3.2740    -0.2370 H     1 <1>   0.4500 
 38 H       -2.8460     0.1090     3.4410 H     1 <1>   0.1500 
 39 H       -0.9110    -1.4390     2.9060 H     1 <1>   0.2700 
 40 H       -0.4620    -1.8830    -0.8860 H     1 <1>   0.0800 
 41 H       -0.5310    -2.9990     0.4520 H     1 <1>   0.0800 
 42 H        0.5920    -1.6580     0.4810 H     1 <1>   0.0800 
 43 H       -0.5870     5.5790     0.5710 H     1 <1>   0.0800 
 44 H        1.0950     5.2080     0.3390 H     1 <1>   0.0800 
 45 H        1.8270     3.4230    -0.7190 H     1 <1>   0.0800 
 46 H        0.8510     2.6200    -1.9110 H     1 <1>   0.0800 
 47 H       -0.8390     3.8710     2.2290 H     1 <1>   0.0800 
 48 H        0.4580     4.9310     2.6260 H     1 <1>   0.0800 
 49 H        1.8460     1.1660    -0.1750 H     1 <1>   0.0800 
 50 H        0.1740     0.9390    -0.4850 H     1 <1>   0.0800 
 51 H        1.1930     2.7750     3.1850 H     1 <1>   0.0800 
 52 H        2.1110     3.2130     1.7800 H     1 <1>   0.0800 
 53 H        1.0130     0.8510     1.9290 H     1 <1>   0.0800 
 54 H       -0.4790     1.6550     1.6060 H     1 <1>   0.0800 
@<TRIPOS>BOND
  1   1   2  2   
  2   2   3  am  
  3   2   4  1   
  4   3   5  1   
  5   3   6  1   
  6   4   7  1   
  7   4  24  1   
  8   4  25  1   
  9   5   8  1   
 10   5  26  1   
 11   5  27  1   
 12   6   9  1   
 13   6  28  1   
 14   6  29  1   
 15   7  10  1   
 16   7  30  1   
 17   7  31  1   
 18   8  11  1   
 19   8  12  2   
 20   9  13  1   
 21   9  32  1   
 22   9  33  1   
 23  10  14  1   
 24  10  34  1   
 25  10  35  1   
 26  11  15  2   
 27  12  16  1   
 28  12  17  1   
 29  13  36  1   
 30  14  18  1   
 31  14  19  1   
 32  14  37  1   
 33  15  16  1   
 34  15  38  1   
 35  16  39  1   
 36  17  40  1   
 37  17  41  1   
 38  17  42  1   
 39  18  20  1   
 40  18  43  1   
 41  18  44  1   
 42  19  21  1   
 43  19  45  1   
 44  19  46  1   
 45  20  22  1   
 46  20  47  1   
 47  20  48  1   
 48  21  23  1   
 49  21  49  1   
 50  21  50  1   
 51  22  23  1   
 52  22  51  1   
 53  22  52  1   
 54  23  53  1   
 55  23  54  1   
@<TRIPOS>SUBSTRUCTURE
  1 ****  13 GROUP 4 **** **** 0

# MOE 2024.06 (io_trps.svl 2023.06)
