@<TRIPOS>MOLECULE
NONAME
50 51 1 0 0 
SMALL
USER_CHARGES


@<TRIPOS>ATOM
  1 O       -0.1080     0.3800    -0.0190 O.3   1 <1>  -0.6800 
  2 C       -1.3050     0.9230     0.4360 C.3   1 <1>   0.2000 
  3 C       -1.4670     2.3380    -0.1300 C.3   1 <1>   0.2000 
  4 C       -2.4830     0.0470     0.0020 C.3   1 <1>   0.2000 
  5 O       -0.4070     3.1150     0.3170 O.3   1 <1>  -0.6800 
  6 C       -2.8010     2.9960     0.2950 C.3   1 <1>   0.4230 
  7 O       -2.3280    -1.2480     0.4960 O.3   1 <1>  -0.6800 
  8 C       -3.8050     0.6470     0.5050 C.3   1 <1>   0.3430 
  9 N       -3.9980     2.0860     0.0960 N.4   1 <1>  -0.9590 
 10 C       -3.0030     4.2800    -0.5480 C.3   1 <1>   0.1200 
 11 C       -5.2330     2.6640     0.7030 C.3   1 <1>   0.3430 
 12 O       -3.5660     3.9420    -1.7850 O.3   1 <1>  -0.6800 
 13 C       -6.4800     2.0360     0.0790 C.3   1 <1>  -0.1600 
 14 C       -7.7490     2.7280     0.6000 C.3   1 <1>  -0.1600 
 15 C       -9.0370     2.2440    -0.0940 C.3   1 <1>  -0.0800 
 16 C      -10.2230     3.1150     0.3600 C.3   1 <1>  -0.1600 
 17 C       -9.3320     0.7570     0.1850 C.3   1 <1>  -0.1600 
 18 C      -11.5390     2.6680    -0.2910 C.3   1 <1>  -0.1600 
 19 C      -10.6510     0.3100    -0.4600 C.3   1 <1>  -0.1600 
 20 C      -11.8210     1.1890    -0.0040 C.3   1 <1>  -0.1600 
 21 H       -0.1290    -0.6000     0.0540 H     1 <1>   0.4000 
 22 H       -1.2620     0.9700     1.5110 H     1 <1>   0.0800 
 23 H       -1.4100     2.3000    -1.2060 H     1 <1>   0.0800 
 24 H       -2.5160    -0.0250    -1.0720 H     1 <1>   0.0800 
 25 H        0.4300     2.6190     0.1560 H     1 <1>   0.4000 
 26 H       -2.7130     3.2560     1.3370 H     1 <1>   0.0800 
 27 H       -2.0860    -1.2730     1.4450 H     1 <1>   0.4000 
 28 H       -3.8200     0.5850     1.5800 H     1 <1>   0.0800 
 29 H       -4.6150     0.0510     0.1200 H     1 <1>   0.0800 
 30 H       -4.1440     2.1480    -0.9310 H     1 <1>   0.4500 
 31 H       -2.0640     4.7820    -0.7190 H     1 <1>   0.0800 
 32 H       -3.6650     4.9650    -0.0480 H     1 <1>   0.0800 
 33 H       -5.2350     2.5080     1.7700 H     1 <1>   0.0800 
 34 H       -5.2660     3.7250     0.5180 H     1 <1>   0.0800 
 35 H       -3.5700     4.7180    -2.3900 H     1 <1>   0.4000 
 36 H       -6.4400     2.1470    -0.9910 H     1 <1>   0.0800 
 37 H       -6.5240     0.9920     0.3240 H     1 <1>   0.0800 
 38 H       -7.6580     3.7890     0.4350 H     1 <1>   0.0800 
 39 H       -7.8410     2.5720     1.6630 H     1 <1>   0.0800 
 40 H       -8.9240     2.3730    -1.1580 H     1 <1>   0.0800 
 41 H      -10.3270     3.0550     1.4300 H     1 <1>   0.0800 
 42 H      -10.0420     4.1440     0.1030 H     1 <1>   0.0800 
 43 H       -8.5460     0.1370    -0.2050 H     1 <1>   0.0800 
 44 H       -9.3910     0.5940     1.2480 H     1 <1>   0.0800 
 45 H      -12.3490     3.2690     0.0850 H     1 <1>   0.0800 
 46 H      -11.4820     2.8210    -1.3550 H     1 <1>   0.0800 
 47 H      -10.5620     0.3660    -1.5310 H     1 <1>   0.0800 
 48 H      -10.8510    -0.7150    -0.1990 H     1 <1>   0.0800 
 49 H      -12.7200     0.8880    -0.5150 H     1 <1>   0.0800 
 50 H      -11.9810     1.0540     1.0520 H     1 <1>   0.0800 
@<TRIPOS>BOND
  1   1   2  1   
  2   1  21  1   
  3   2   3  1   
  4   2   4  1   
  5   2  22  1   
  6   3   5  1   
  7   3   6  1   
  8   3  23  1   
  9   4   7  1   
 10   4   8  1   
 11   4  24  1   
 12   5  25  1   
 13   6   9  1   
 14   6  10  1   
 15   6  26  1   
 16   7  27  1   
 17   8   9  1   
 18   8  28  1   
 19   8  29  1   
 20   9  11  1   
 21   9  30  1   
 22  10  12  1   
 23  10  31  1   
 24  10  32  1   
 25  11  13  1   
 26  11  33  1   
 27  11  34  1   
 28  12  35  1   
 29  13  14  1   
 30  13  36  1   
 31  13  37  1   
 32  14  15  1   
 33  14  38  1   
 34  14  39  1   
 35  15  16  1   
 36  15  17  1   
 37  15  40  1   
 38  16  18  1   
 39  16  41  1   
 40  16  42  1   
 41  17  19  1   
 42  17  43  1   
 43  17  44  1   
 44  18  20  1   
 45  18  45  1   
 46  18  46  1   
 47  19  20  1   
 48  19  47  1   
 49  19  48  1   
 50  20  49  1   
 51  20  50  1   
@<TRIPOS>SUBSTRUCTURE
  1 ****  11 GROUP 4 **** **** 0

# MOE 2024.06 (io_trps.svl 2023.06)
