@<TRIPOS>MOLECULE
NONAME
56 59 1 0 0 
SMALL
USER_CHARGES


@<TRIPOS>ATOM
  1 O        1.8490    -0.0440     0.6660 O.3   1 <1>  -0.5600 
  2 C        2.6550    -1.1550     0.9900 C.3   1 <1>   0.4240 
  3 C        0.4640    -0.1780     0.8070 C.3   1 <1>   0.1200 
  4 C        1.9900    -2.4930     0.6180 C.ar  1 <1>  -0.1440 
  5 C        2.9810    -1.0620     2.4940 C.3   1 <1>  -0.1600 
  6 C        3.9460    -0.9640     0.1840 C.3   1 <1>  -0.1600 
  7 C       -0.0380    -1.2440    -0.1620 C.3   1 <1>  -0.0160 
  8 C        0.7170    -2.5370     0.0700 C.ar  1 <1>  -0.1440 
  9 C        2.6580    -3.6930     0.8200 C.ar  1 <1>  -0.1500 
 10 C        4.0480    -0.0130     2.8330 C.3   1 <1>   0.3430 
 11 C        4.6150     0.3890     0.4450 C.3   1 <1>   0.3430 
 12 C        0.1370    -3.7500    -0.2670 C.ar  1 <1>  -0.1500 
 13 C        2.0970    -4.9160     0.4950 C.ar  1 <1>   0.0830 
 14 N        4.1560     0.9830     1.7380 N.4   1 <1>  -0.9590 
 15 C        0.8070    -4.9530    -0.0620 C.ar  1 <1>   0.0830 
 16 O        2.9110    -5.9770     0.7710 O.3   1 <1>  -0.3630 
 17 C        4.8890     2.2250     2.1120 C.3   1 <1>   0.5230 
 18 O        0.2270    -6.1450    -0.3930 O.3   1 <1>  -0.3630 
 19 C        2.5700    -7.3160     0.4910 C.3   1 <1>   0.0400 
 20 C        4.7160     3.2590     1.0210 C.2   1 <1>  -0.0400 
 21 C       -1.0530    -6.2330    -0.9800 C.3   1 <1>   0.0400 
 22 O        3.5070     3.5890     0.6560 O.3   1 <1>  -0.0190 
 23 C        5.5820     3.9640     0.2760 C.2   1 <1>  -0.1500 
 24 N        3.5160     4.4690    -0.2980 N.2   1 <1>  -0.4100 
 25 C        4.7520     4.7220    -0.5470 C.2   1 <1>   0.1080 
 26 C        5.2250     5.7130    -1.5960 C.3   1 <1>   0.0210 
 27 C        5.7630     6.9930    -0.9490 C.3   1 <1>  -0.2400 
 28 H        0.0130     0.7730     0.5830 H     1 <1>   0.0800 
 29 H        0.2340    -0.4480     1.8230 H     1 <1>   0.0800 
 30 H        3.3460    -2.0090     2.8460 H     1 <1>   0.0800 
 31 H        2.0840    -0.8650     3.0500 H     1 <1>   0.0800 
 32 H        3.7310    -1.0620    -0.8650 H     1 <1>   0.0800 
 33 H        4.6440    -1.7430     0.4300 H     1 <1>   0.0800 
 34 H        0.1090    -0.9110    -1.1740 H     1 <1>   0.0800 
 35 H       -1.0920    -1.3940    -0.0060 H     1 <1>   0.0800 
 36 H        3.6460    -3.7090     1.2400 H     1 <1>   0.1500 
 37 H        5.0010    -0.5010     2.9650 H     1 <1>   0.0800 
 38 H        3.7860     0.4720     3.7600 H     1 <1>   0.0800 
 39 H        4.3540     1.0630    -0.3580 H     1 <1>   0.0800 
 40 H        5.6860     0.2670     0.4430 H     1 <1>   0.0800 
 41 H       -0.8480    -3.7340    -0.6910 H     1 <1>   0.1500 
 42 H        3.1790     1.2660     1.5230 H     1 <1>   0.4500 
 43 H        5.9350     2.0140     2.2530 H     1 <1>   0.0800 
 44 H        4.4890     2.6220     3.0310 H     1 <1>   0.0800 
 45 H        3.3920    -7.9410     0.7870 H     1 <1>   0.0800 
 46 H        2.3950    -7.4170    -0.5650 H     1 <1>   0.0800 
 47 H        1.6920    -7.5760     1.0550 H     1 <1>   0.0800 
 48 H       -1.2700    -7.2720    -1.1520 H     1 <1>   0.0800 
 49 H       -1.0460    -5.7030    -1.9160 H     1 <1>   0.0800 
 50 H       -1.7770    -5.8170    -0.3020 H     1 <1>   0.0800 
 51 H        6.6570     3.9830     0.2700 H     1 <1>   0.1500 
 52 H        4.4000     5.9600    -2.2420 H     1 <1>   0.0800 
 53 H        5.9910     5.2570    -2.1970 H     1 <1>   0.0800 
 54 H        4.9960     7.4540    -0.3530 H     1 <1>   0.0800 
 55 H        6.0730     7.6880    -1.7090 H     1 <1>   0.0800 
 56 H        6.6060     6.7720    -0.3190 H     1 <1>   0.0800 
@<TRIPOS>BOND
  1   1   2  1   
  2   1   3  1   
  3   2   4  1   
  4   2   5  1   
  5   2   6  1   
  6   3   7  1   
  7   3  28  1   
  8   3  29  1   
  9   4   8  ar  
 10   4   9  ar  
 11   5  10  1   
 12   5  30  1   
 13   5  31  1   
 14   6  11  1   
 15   6  32  1   
 16   6  33  1   
 17   7   8  1   
 18   7  34  1   
 19   7  35  1   
 20   8  12  ar  
 21   9  13  ar  
 22   9  36  1   
 23  10  14  1   
 24  10  37  1   
 25  10  38  1   
 26  11  14  1   
 27  11  39  1   
 28  11  40  1   
 29  12  15  ar  
 30  12  41  1   
 31  13  15  ar  
 32  13  16  1   
 33  14  17  1   
 34  14  42  1   
 35  15  18  1   
 36  16  19  1   
 37  17  20  1   
 38  17  43  1   
 39  17  44  1   
 40  18  21  1   
 41  19  45  1   
 42  19  46  1   
 43  19  47  1   
 44  20  22  1   
 45  20  23  2   
 46  21  48  1   
 47  21  49  1   
 48  21  50  1   
 49  22  24  1   
 50  23  25  1   
 51  23  51  1   
 52  24  25  2   
 53  25  26  1   
 54  26  27  1   
 55  26  52  1   
 56  26  53  1   
 57  27  54  1   
 58  27  55  1   
 59  27  56  1   
@<TRIPOS>SUBSTRUCTURE
  1 ****   2 GROUP 4 **** **** 0

# MOE 2024.06 (io_trps.svl 2023.06)
