@<TRIPOS>MOLECULE
NONAME
42 44 1 0 0 
SMALL
USER_CHARGES


@<TRIPOS>ATOM
  1 O       -0.0320     0.5800     0.2430 O.2   1 <1>  -0.5700 
  2 C       -0.1300     1.7790     0.0560 C.2   1 <1>   0.7160 
  3 N       -1.3430     2.3930     0.2890 N.am  1 <1>  -0.6600 
  4 C        1.0260     2.5070    -0.4130 C.2   1 <1>  -0.0860 
  5 C       -2.4260     1.6680     1.0170 C.3   1 <1>   0.1400 
  6 C       -1.7160     3.7000    -0.3280 C.3   1 <1>   0.1400 
  7 C        2.0070     2.0600    -1.2420 C.2   1 <1>  -0.0100 
  8 C        1.4220     3.8280    -0.1050 C.2   1 <1>  -0.1500 
  9 C       -3.3630     2.6670     1.7020 C.3   1 <1>  -0.1600 
 10 C       -3.2190     3.7520    -0.6040 C.3   1 <1>  -0.1600 
 11 O        2.9150     2.9810    -1.4600 O.3   1 <1>  -0.2800 
 12 C        2.5710     4.0500    -0.7750 C.2   1 <1>  -0.0100 
 13 C       -4.0370     3.6400     0.7020 C.3   1 <1>   0.2800 
 14 O       -3.9450     4.9180     1.2980 O.3   1 <1>  -0.5600 
 15 C       -5.5230     3.2310     0.4510 C.3   1 <1>   0.2000 
 16 C       -5.1090     5.6560     1.5430 C.3   1 <1>   0.1200 
 17 O       -5.6330     2.0140    -0.2340 O.3   1 <1>  -0.6800 
 18 C       -6.3790     4.3490    -0.2160 C.3   1 <1>   0.2800 
 19 C       -5.9280     5.7430     0.2540 C.3   1 <1>  -0.1600 
 20 O       -7.6780     4.1660     0.2220 O.3   1 <1>  -0.6800 
 21 C       -6.4650     4.2950    -1.7480 C.3   1 <1>  -0.2400 
 22 H       -2.9800     1.0630     0.3180 H     1 <1>   0.0800 
 23 H       -1.9930     1.0150     1.7560 H     1 <1>   0.0800 
 24 H       -1.4520     4.4980     0.3450 H     1 <1>   0.0800 
 25 H       -1.1790     3.8340    -1.2520 H     1 <1>   0.0800 
 26 H        2.1130     1.0940    -1.7060 H     1 <1>   0.1500 
 27 H        0.8930     4.4950     0.5500 H     1 <1>   0.1500 
 28 H       -2.7840     3.2170     2.4210 H     1 <1>   0.0800 
 29 H       -4.1060     2.1130     2.2450 H     1 <1>   0.0800 
 30 H       -3.4620     2.9460    -1.2730 H     1 <1>   0.0800 
 31 H       -3.4530     4.6710    -1.1050 H     1 <1>   0.0800 
 32 H        3.2040     4.9200    -0.8190 H     1 <1>   0.1500 
 33 H       -5.9510     3.0500     1.4220 H     1 <1>   0.0800 
 34 H       -5.6630     5.1810     2.3360 H     1 <1>   0.0800 
 35 H       -4.8090     6.6360     1.8700 H     1 <1>   0.0800 
 36 H       -6.5850     1.8090    -0.3370 H     1 <1>   0.4000 
 37 H       -5.3000     6.2000    -0.4900 H     1 <1>   0.0800 
 38 H       -6.7730     6.3920     0.4000 H     1 <1>   0.0800 
 39 H       -8.2690     4.7960    -0.2310 H     1 <1>   0.4000 
 40 H       -5.4860     4.3640    -2.1820 H     1 <1>   0.0800 
 41 H       -7.0520     5.1130    -2.1260 H     1 <1>   0.0800 
 42 H       -6.9050     3.3710    -2.0760 H     1 <1>   0.0800 
@<TRIPOS>BOND
  1   1   2  2   
  2   2   3  am  
  3   2   4  1   
  4   3   5  1   
  5   3   6  1   
  6   4   7  2   
  7   4   8  1   
  8   5   9  1   
  9   5  22  1   
 10   5  23  1   
 11   6  10  1   
 12   6  24  1   
 13   6  25  1   
 14   7  11  1   
 15   7  26  1   
 16   8  12  2   
 17   8  27  1   
 18   9  13  1   
 19   9  28  1   
 20   9  29  1   
 21  10  13  1   
 22  10  30  1   
 23  10  31  1   
 24  11  12  1   
 25  12  32  1   
 26  13  14  1   
 27  13  15  1   
 28  14  16  1   
 29  15  17  1   
 30  15  18  1   
 31  15  33  1   
 32  16  19  1   
 33  16  34  1   
 34  16  35  1   
 35  17  36  1   
 36  18  19  1   
 37  18  20  1   
 38  18  21  1   
 39  19  37  1   
 40  19  38  1   
 41  20  39  1   
 42  21  40  1   
 43  21  41  1   
 44  21  42  1   
@<TRIPOS>SUBSTRUCTURE
  1 ****   6 GROUP 4 **** **** 0

# MOE 2024.06 (io_trps.svl 2023.06)
