@<TRIPOS>MOLECULE
NONAME
47 49 1 0 0 
SMALL
USER_CHARGES


@<TRIPOS>ATOM
  1 CL       1.0010    -0.0630    -2.0010 Cl    1 <1>  -0.1770 
  2 C        0.4950    -1.6720    -1.5540 C.ar  1 <1>   0.1770 
  3 C        0.4540    -2.0190    -0.2150 C.ar  1 <1>  -0.1500 
  4 C        0.1450    -2.5710    -2.5460 C.ar  1 <1>  -0.1500 
  5 C        0.0510    -3.2960     0.1450 C.ar  1 <1>  -0.1500 
  6 C       -0.2580    -3.8470    -2.1880 C.ar  1 <1>  -0.1500 
  7 C       -0.3060    -4.1980    -0.8480 C.ar  1 <1>   0.1020 
  8 S       -0.8520    -5.8710    -0.4690 S.3   1 <1>  -0.3320 
  9 C       -0.9910    -5.9790     1.3830 C.3   1 <1>   0.1310 
 10 C       -1.5640    -7.3240     1.8110 C.2   1 <1>   0.5690 
 11 O       -0.7980    -8.0800     2.3640 O.2   1 <1>  -0.5700 
 12 N       -2.8860    -7.6610     1.6130 N.am  1 <1>  -0.6600 
 13 C       -3.8700    -6.7720     0.9200 C.3   1 <1>   0.2200 
 14 C       -3.3460    -9.0240     2.0310 C.3   1 <1>   0.0600 
 15 C       -4.5600    -7.4290    -0.2710 C.3   1 <1>  -0.1600 
 16 C       -5.0090    -6.3170     1.8270 C.3   1 <1>  -0.1600 
 17 C       -5.8140    -6.5750    -0.5000 C.3   1 <1>  -0.0800 
 18 C       -6.1330    -5.9130     0.8620 C.3   1 <1>  -0.0800 
 19 C       -6.9720    -7.3740    -1.1300 C.3   1 <1>   0.1400 
 20 C       -7.5370    -6.2500     1.3960 C.3   1 <1>  -0.0990 
 21 N       -8.2600    -6.6640    -0.9260 N.am  1 <1>  -0.6600 
 22 C       -8.5660    -6.1210     0.2920 C.2   1 <1>   0.5690 
 23 C       -9.1990    -6.6310    -2.0790 C.3   1 <1>   0.0600 
 24 O       -9.6060    -5.5550     0.5250 O.2   1 <1>  -0.5700 
 25 H        0.7360    -1.2970     0.5300 H     1 <1>   0.1500 
 26 H        0.1890    -2.2750    -3.5790 H     1 <1>   0.1500 
 27 H        0.0280    -3.5620     1.1830 H     1 <1>   0.1500 
 28 H       -0.5340    -4.5660    -2.9390 H     1 <1>   0.1500 
 29 H        0.0010    -5.8610     1.7780 H     1 <1>   0.0800 
 30 H       -1.6190    -5.1750     1.7160 H     1 <1>   0.0800 
 31 H       -3.3870    -5.8850     0.5530 H     1 <1>   0.0800 
 32 H       -4.4060    -9.0480     2.1990 H     1 <1>   0.0800 
 33 H       -2.8530    -9.3180     2.9420 H     1 <1>   0.0800 
 34 H       -3.0950    -9.7340     1.2630 H     1 <1>   0.0800 
 35 H       -3.9210    -7.4350    -1.1360 H     1 <1>   0.0800 
 36 H       -4.8500    -8.4350    -0.0340 H     1 <1>   0.0800 
 37 H       -5.3370    -7.1230     2.4560 H     1 <1>   0.0800 
 38 H       -4.7080    -5.4900     2.4450 H     1 <1>   0.0800 
 39 H       -5.5550    -5.7880    -1.1870 H     1 <1>   0.0800 
 40 H       -6.0890    -4.8460     0.7150 H     1 <1>   0.0800 
 41 H       -7.0500    -8.3440    -0.6690 H     1 <1>   0.0800 
 42 H       -6.7850    -7.5140    -2.1810 H     1 <1>   0.0800 
 43 H       -7.7930    -5.5910     2.2050 H     1 <1>   0.0800 
 44 H       -7.5730    -7.2610     1.7580 H     1 <1>   0.0800 
 45 H       -8.7440    -6.1120    -2.9040 H     1 <1>   0.0800 
 46 H      -10.1080    -6.1190    -1.8100 H     1 <1>   0.0800 
 47 H       -9.4440    -7.6340    -2.3780 H     1 <1>   0.0800 
@<TRIPOS>BOND
  1   1   2  1   
  2   2   3  ar  
  3   2   4  ar  
  4   3   5  ar  
  5   3  25  1   
  6   4   6  ar  
  7   4  26  1   
  8   5   7  ar  
  9   5  27  1   
 10   6   7  ar  
 11   6  28  1   
 12   7   8  1   
 13   8   9  1   
 14   9  10  1   
 15   9  29  1   
 16   9  30  1   
 17  10  11  2   
 18  10  12  am  
 19  12  13  1   
 20  12  14  1   
 21  13  15  1   
 22  13  16  1   
 23  13  31  1   
 24  14  32  1   
 25  14  33  1   
 26  14  34  1   
 27  15  17  1   
 28  15  35  1   
 29  15  36  1   
 30  16  18  1   
 31  16  37  1   
 32  16  38  1   
 33  17  18  1   
 34  17  19  1   
 35  17  39  1   
 36  18  20  1   
 37  18  40  1   
 38  19  21  1   
 39  19  41  1   
 40  19  42  1   
 41  20  22  1   
 42  20  43  1   
 43  20  44  1   
 44  21  22  am  
 45  21  23  1   
 46  22  24  2   
 47  23  45  1   
 48  23  46  1   
 49  23  47  1   
@<TRIPOS>SUBSTRUCTURE
  1 ****  13 GROUP 4 **** **** 0

# MOE 2024.06 (io_trps.svl 2023.06)
