@<TRIPOS>MOLECULE
NONAME
44 46 1 0 0 
SMALL
USER_CHARGES


@<TRIPOS>ATOM
  1 S        1.2620     3.4290     2.5710 S.3   1 <1>  -0.0800 
  2 C        0.9820     3.8010     0.8660 C.2   1 <1>  -0.0450 
  3 C       -0.1600     2.4170     2.6640 C.2   1 <1>  -0.1100 
  4 C        1.9160     4.6670     0.2010 C.2   1 <1>   0.5940 
  5 C       -0.1480     3.1560     0.4660 C.2   1 <1>  -0.1500 
  6 C       -0.7870     2.3800     1.4750 C.2   1 <1>  -0.1500 
  7 O        2.8760     5.1570     0.7420 O.2   1 <1>  -0.5700 
  8 C        1.7010     4.9970    -1.2720 C.3   1 <1>  -0.0190 
  9 C        3.0390     5.3840    -1.9370 C.3   1 <1>   0.3430 
 10 C        0.6090     6.0800    -1.4510 C.3   1 <1>  -0.1600 
 11 N        3.1780     6.8670    -2.0420 N.4   1 <1>  -0.9590 
 12 C        0.7870     6.8180    -2.7870 C.3   1 <1>  -0.1600 
 13 C        2.1470     7.5260    -2.8950 C.3   1 <1>   0.3430 
 14 C        4.5530     7.3670    -2.3420 C.3   1 <1>   0.3430 
 15 C        5.5610     7.0550    -1.2130 C.3   1 <1>   0.1400 
 16 N        5.0850     7.3540     0.1760 N.am  1 <1>  -0.6600 
 17 C        4.1180     8.2020     0.6090 C.2   1 <1>   0.5690 
 18 C        5.7970     6.7210     1.3070 C.3   1 <1>   0.1400 
 19 O        3.3490     8.8070    -0.1010 O.2   1 <1>  -0.5700 
 20 C        4.0720     8.2710     2.1090 C.3   1 <1>  -0.0990 
 21 C        4.9900     7.1230     2.5490 C.3   1 <1>  -0.1600 
 22 H       -0.3800     1.9520     3.6090 H     1 <1>   0.1500 
 23 H       -0.5730     3.1920    -0.5210 H     1 <1>   0.1500 
 24 H       -1.6880     1.8270     1.2700 H     1 <1>   0.1500 
 25 H        1.3750     4.0950    -1.7560 H     1 <1>   0.0800 
 26 H        3.0790     4.9590    -2.9260 H     1 <1>   0.0800 
 27 H        3.8550     4.9750    -1.3630 H     1 <1>   0.0800 
 28 H        0.6770     6.8010    -0.6500 H     1 <1>   0.0800 
 29 H       -0.3690     5.6330    -1.4010 H     1 <1>   0.0800 
 30 H        3.0170     7.2450    -1.0830 H     1 <1>   0.4500 
 31 H        0.0070     7.5500    -2.9080 H     1 <1>   0.0800 
 32 H        0.6910     6.1200    -3.6000 H     1 <1>   0.0800 
 33 H        2.4620     7.5340    -3.9250 H     1 <1>   0.0800 
 34 H        2.0390     8.5500    -2.5700 H     1 <1>   0.0800 
 35 H        4.5150     8.4390    -2.4530 H     1 <1>   0.0800 
 36 H        4.9070     6.9510    -3.2700 H     1 <1>   0.0800 
 37 H        6.4620     7.6160    -1.3920 H     1 <1>   0.0800 
 38 H        5.8210     6.0120    -1.2680 H     1 <1>   0.0800 
 39 H        6.8020     7.1060     1.3650 H     1 <1>   0.0800 
 40 H        5.8180     5.6500     1.1960 H     1 <1>   0.0800 
 41 H        3.0680     8.1360     2.4670 H     1 <1>   0.0800 
 42 H        4.4550     9.2220     2.4300 H     1 <1>   0.0800 
 43 H        5.6330     7.4070     3.3630 H     1 <1>   0.0800 
 44 H        4.3930     6.2820     2.8590 H     1 <1>   0.0800 
@<TRIPOS>BOND
  1   1   2  1   
  2   1   3  1   
  3   2   4  1   
  4   2   5  2   
  5   3   6  2   
  6   3  22  1   
  7   4   7  2   
  8   4   8  1   
  9   5   6  1   
 10   5  23  1   
 11   6  24  1   
 12   8   9  1   
 13   8  10  1   
 14   8  25  1   
 15   9  11  1   
 16   9  26  1   
 17   9  27  1   
 18  10  12  1   
 19  10  28  1   
 20  10  29  1   
 21  11  13  1   
 22  11  14  1   
 23  11  30  1   
 24  12  13  1   
 25  12  31  1   
 26  12  32  1   
 27  13  33  1   
 28  13  34  1   
 29  14  15  1   
 30  14  35  1   
 31  14  36  1   
 32  15  16  1   
 33  15  37  1   
 34  15  38  1   
 35  16  17  am  
 36  16  18  1   
 37  17  19  2   
 38  17  20  1   
 39  18  21  1   
 40  18  39  1   
 41  18  40  1   
 42  20  21  1   
 43  20  41  1   
 44  20  42  1   
 45  21  43  1   
 46  21  44  1   
@<TRIPOS>SUBSTRUCTURE
  1 ****   7 GROUP 4 **** **** 0

# MOE 2024.06 (io_trps.svl 2023.06)
