@<TRIPOS>MOLECULE
NONAME
41 42 1 0 0 
SMALL
USER_CHARGES


@<TRIPOS>ATOM
  1 O       -0.2570     0.2250    -0.3040 O.3   1 <1>  -0.5600 
  2 C       -0.1060     1.5930    -0.5330 C.3   1 <1>   0.1200 
  3 C       -1.4830    -0.3040    -0.7060 C.3   1 <1>   0.1200 
  4 C       -1.1400     2.3810     0.2960 C.3   1 <1>  -0.0800 
  5 C       -2.6070     0.3440     0.1090 C.3   1 <1>  -0.1600 
  6 C       -2.5570     1.8720    -0.0140 C.3   1 <1>  -0.1600 
  7 C       -1.0580     3.8980     0.0410 C.3   1 <1>  -0.1600 
  8 C        0.2830     4.4990     0.4650 C.3   1 <1>   0.2090 
  9 N        0.2450     5.9570     0.2270 N.pl3 1 <1>  -0.8690 
 10 C        1.3630     6.7550     0.1720 C.ar  1 <1>   0.4100 
 11 N        2.5320     6.1550     0.2550 N.ar  1 <1>  -0.6200 
 12 C        1.2620     8.1360     0.0410 C.ar  1 <1>  -0.1440 
 13 C        3.5890     6.9360     0.2110 C.ar  1 <1>   0.4770 
 14 C        2.4450     8.8330     0.0080 C.ar  1 <1>   0.1600 
 15 C       -0.1140     8.8030    -0.0630 C.3   1 <1>  -0.0170 
 16 N        3.6230     8.2490     0.0930 N.ar  1 <1>  -0.6200 
 17 C        4.9270     6.2430     0.3030 C.3   1 <1>  -0.0970 
 18 C       -0.0930    10.3200    -0.2870 C.3   1 <1>  -0.2400 
 19 H       -0.2250     1.7800    -1.5860 H     1 <1>   0.0800 
 20 H        0.8970     1.8530    -0.2430 H     1 <1>   0.0800 
 21 H       -1.4540    -1.3660    -0.5340 H     1 <1>   0.0800 
 22 H       -1.6070    -0.1220    -1.7600 H     1 <1>   0.0800 
 23 H       -0.9320     2.1990     1.3370 H     1 <1>   0.0800 
 24 H       -2.4950     0.0560     1.1400 H     1 <1>   0.0800 
 25 H       -3.5580    -0.0210    -0.2350 H     1 <1>   0.0800 
 26 H       -2.8280     2.1500    -1.0180 H     1 <1>   0.0800 
 27 H       -3.2690     2.3140     0.6610 H     1 <1>   0.0800 
 28 H       -1.8400     4.3830     0.5980 H     1 <1>   0.0800 
 29 H       -1.2120     4.0950    -1.0060 H     1 <1>   0.0800 
 30 H        1.0860     4.0670    -0.1080 H     1 <1>   0.0800 
 31 H        0.4670     4.3150     1.5100 H     1 <1>   0.0800 
 32 H       -0.6440     6.4080     0.4350 H     1 <1>   0.4000 
 33 H        2.4540     9.9040    -0.0900 H     1 <1>   0.1500 
 34 H       -0.6610     8.6000     0.8420 H     1 <1>   0.0800 
 35 H       -0.6500     8.3490    -0.8790 H     1 <1>   0.0800 
 36 H        4.8540     5.3890     0.9500 H     1 <1>   0.0800 
 37 H        5.6680     6.9150     0.6940 H     1 <1>   0.0800 
 38 H        5.2240     5.9200    -0.6770 H     1 <1>   0.0800 
 39 H        0.3860    10.8180     0.5380 H     1 <1>   0.0800 
 40 H       -1.0990    10.6900    -0.3660 H     1 <1>   0.0800 
 41 H        0.4270    10.5580    -1.1980 H     1 <1>   0.0800 
@<TRIPOS>BOND
  1   1   2  1   
  2   1   3  1   
  3   2   4  1   
  4   2  19  1   
  5   2  20  1   
  6   3   5  1   
  7   3  21  1   
  8   3  22  1   
  9   4   6  1   
 10   4   7  1   
 11   4  23  1   
 12   5   6  1   
 13   5  24  1   
 14   5  25  1   
 15   6  26  1   
 16   6  27  1   
 17   7   8  1   
 18   7  28  1   
 19   7  29  1   
 20   8   9  1   
 21   8  30  1   
 22   8  31  1   
 23   9  10  1   
 24   9  32  1   
 25  10  11  ar  
 26  10  12  ar  
 27  11  13  ar  
 28  12  14  ar  
 29  12  15  1   
 30  13  16  ar  
 31  13  17  1   
 32  14  16  ar  
 33  14  33  1   
 34  15  18  1   
 35  15  34  1   
 36  15  35  1   
 37  17  36  1   
 38  17  37  1   
 39  17  38  1   
 40  18  39  1   
 41  18  40  1   
 42  18  41  1   
@<TRIPOS>SUBSTRUCTURE
  1 ****   8 GROUP 4 **** **** 0

# MOE 2024.06 (io_trps.svl 2023.06)
