@<TRIPOS>MOLECULE
NONAME
46 49 1 0 0 
SMALL
USER_CHARGES


@<TRIPOS>ATOM
  1 S        0.6660    -0.2700    -0.5360 S.3   1 <1>  -0.0800 
  2 C        0.0000    -1.8000    -0.0090 C.ar  1 <1>   0.0400 
  3 C        1.5430    -1.1160    -1.8060 C.2   1 <1>   0.2280 
  4 C        0.4980    -2.7930    -0.8300 C.ar  1 <1>   0.2270 
  5 C       -0.8720    -2.0480     1.0330 C.ar  1 <1>  -0.1500 
  6 N        1.3650    -2.3740    -1.8360 N.2   1 <1>  -0.5650 
  7 C        0.1050    -4.1000    -0.5970 C.ar  1 <1>  -0.1500 
  8 C       -1.2530    -3.3610     1.2450 C.ar  1 <1>  -0.1500 
  9 C       -0.7820    -4.4080     0.4350 C.ar  1 <1>   0.0860 
 10 C       -1.2030    -5.7780     0.6650 C.2   1 <1>   0.5440 
 11 O       -0.4060    -6.6920     0.5520 O.2   1 <1>  -0.5700 
 12 N       -2.5040    -6.0940     0.9850 N.am  1 <1>  -0.6600 
 13 C       -2.8400    -7.4490     1.5090 C.3   1 <1>   0.1400 
 14 C       -3.6630    -5.4130     0.3410 C.3   1 <1>   0.1400 
 15 C       -3.2630    -8.3310     0.3140 C.3   1 <1>   0.4230 
 16 C       -4.1840    -6.2900    -0.8120 C.3   1 <1>  -0.1600 
 17 N       -3.4900    -9.7800     0.6350 N.4   1 <1>  -0.9590 
 18 C       -4.5260    -7.7410    -0.3590 C.3   1 <1>  -0.1060 
 19 C       -3.8030   -10.6220    -0.5570 C.3   1 <1>   0.3430 
 20 C       -2.4820   -10.4040     1.5320 C.3   1 <1>   0.2630 
 21 C       -5.6580    -7.7460     0.6850 C.2   1 <1>   0.9060 
 22 C       -4.9530    -8.5910    -1.5920 C.3   1 <1>  -0.1600 
 23 C       -4.0280    -9.7950    -1.8320 C.3   1 <1>  -0.1600 
 24 O       -5.7820    -8.7450     1.4120 O.co2 1 <1>  -0.9000 
 25 O       -6.3950    -6.7690     0.8010 O.co2 1 <1>  -0.9000 
 26 H        2.1550    -0.5120    -2.4520 H     1 <1>   0.1500 
 27 H       -1.2330    -1.2450     1.6520 H     1 <1>   0.1500 
 28 H        0.4950    -4.8800    -1.2260 H     1 <1>   0.1500 
 29 H       -1.9290    -3.5930     2.0510 H     1 <1>   0.1500 
 30 H       -1.9750    -7.8600     1.9960 H     1 <1>   0.0800 
 31 H       -3.6310    -7.3670     2.2350 H     1 <1>   0.0800 
 32 H       -4.4380    -5.2560     1.0740 H     1 <1>   0.0800 
 33 H       -3.3790    -4.4500    -0.0460 H     1 <1>   0.0800 
 34 H       -2.4530    -8.2770    -0.3930 H     1 <1>   0.0800 
 35 H       -5.0660    -5.8260    -1.2190 H     1 <1>   0.0800 
 36 H       -3.4410    -6.3100    -1.5900 H     1 <1>   0.0800 
 37 H       -4.4060    -9.7070     1.1560 H     1 <1>   0.4500 
 38 H       -3.0010   -11.3200    -0.7340 H     1 <1>   0.0800 
 39 H       -4.6970   -11.1880    -0.3490 H     1 <1>   0.0800 
 40 H       -1.5080   -10.3800     1.0710 H     1 <1>   0.0800 
 41 H       -2.7510   -11.4280     1.7350 H     1 <1>   0.0800 
 42 H       -2.4390    -9.8740     2.4690 H     1 <1>   0.0800 
 43 H       -5.9560    -8.9570    -1.4360 H     1 <1>   0.0800 
 44 H       -4.9850    -7.9860    -2.4820 H     1 <1>   0.0800 
 45 H       -3.0770    -9.4550    -2.2040 H     1 <1>   0.0800 
 46 H       -4.4550   -10.4290    -2.5890 H     1 <1>   0.0800 
@<TRIPOS>BOND
  1   1   2  1   
  2   1   3  1   
  3   2   4  ar  
  4   2   5  ar  
  5   3   6  2   
  6   3  26  1   
  7   4   6  1   
  8   4   7  ar  
  9   5   8  ar  
 10   5  27  1   
 11   7   9  ar  
 12   7  28  1   
 13   8   9  ar  
 14   8  29  1   
 15   9  10  1   
 16  10  11  2   
 17  10  12  am  
 18  12  13  1   
 19  12  14  1   
 20  13  15  1   
 21  13  30  1   
 22  13  31  1   
 23  14  16  1   
 24  14  32  1   
 25  14  33  1   
 26  15  17  1   
 27  15  18  1   
 28  15  34  1   
 29  16  18  1   
 30  16  35  1   
 31  16  36  1   
 32  17  19  1   
 33  17  20  1   
 34  17  37  1   
 35  18  21  1   
 36  18  22  1   
 37  19  23  1   
 38  19  38  1   
 39  19  39  1   
 40  20  40  1   
 41  20  41  1   
 42  20  42  1   
 43  21  24  ar  
 44  21  25  ar  
 45  22  23  1   
 46  22  43  1   
 47  22  44  1   
 48  23  45  1   
 49  23  46  1   
@<TRIPOS>SUBSTRUCTURE
  1 ****  12 GROUP 4 **** **** 0

# MOE 2024.06 (io_trps.svl 2023.06)
