@<TRIPOS>MOLECULE
NONAME
67 71 1 0 0 
SMALL
USER_CHARGES


@<TRIPOS>ATOM
  1 O       -1.9530     1.2510    -0.1410 O.3   1 <1>  -0.5600 
  2 C       -2.5210     0.0490    -0.5730 C.3   1 <1>   0.1200 
  3 C       -2.7350     2.3880    -0.3620 C.3   1 <1>   0.1200 
  4 C       -3.8640    -0.1930     0.1430 C.3   1 <1>   0.3430 
  5 C       -4.0870     2.2540     0.3640 C.3   1 <1>   0.3430 
  6 N       -4.7990     0.9820    -0.0140 N.4   1 <1>  -0.9590 
  7 C       -6.0510     0.8320     0.7990 C.3   1 <1>   0.3430 
  8 C       -6.9500    -0.3110     0.3160 C.3   1 <1>   0.1200 
  9 O       -8.0750    -0.3360     1.1600 O.3   1 <1>  -0.3630 
 10 C       -9.0220    -1.3000     1.0590 C.ar  1 <1>   0.0820 
 11 C       -9.0850    -2.2200     0.0160 C.ar  1 <1>  -0.1500 
 12 C       -9.9660    -1.3520     2.0700 C.ar  1 <1>  -0.1500 
 13 C      -10.0870    -3.1750    -0.0040 C.ar  1 <1>  -0.1500 
 14 C      -10.9650    -2.3070     2.0510 C.ar  1 <1>  -0.1500 
 15 C      -11.0360    -3.2220     1.0090 C.ar  1 <1>  -0.1430 
 16 C      -12.1430    -4.2580     0.9740 C.3   1 <1>   0.4860 
 17 N      -13.1810    -3.7870     0.0210 N.4   1 <1>  -0.9590 
 18 C      -13.9040    -2.5820     0.5610 C.3   1 <1>   0.3430 
 19 C      -14.1350    -4.8720    -0.3430 C.3   1 <1>   0.3430 
 20 C      -14.9020    -2.0030    -0.4550 C.3   1 <1>   0.1430 
 21 C      -15.1100    -4.3660    -1.4100 C.3   1 <1>  -0.1600 
 22 C      -15.6790    -0.9000     0.2220 C.ar  1 <1>   0.1670 
 23 C      -15.8630    -3.1040    -0.9530 C.3   1 <1>  -0.1600 
 24 C      -14.2080    -1.2550    -1.6260 C.3   1 <1>  -0.1600 
 25 N      -16.2320    -1.0020     1.4090 N.ar  1 <1>  -0.6200 
 26 C      -15.7270     0.2280    -0.5370 C.ar  1 <1>  -0.1430 
 27 C      -14.9930     0.0540    -1.8420 C.3   1 <1>  -0.0170 
 28 C      -16.8640     0.0960     1.8050 C.ar  1 <1>   0.4770 
 29 C      -16.4030     1.3080    -0.0260 C.ar  1 <1>   0.1600 
 30 N      -16.9790     1.2480     1.1570 N.ar  1 <1>  -0.6200 
 31 C      -17.5300     0.0360     3.1590 C.3   1 <1>  -0.0970 
 32 H       -1.8290    -0.7410    -0.3390 H     1 <1>   0.0800 
 33 H       -2.6470     0.0890    -1.6410 H     1 <1>   0.0800 
 34 H       -2.8690     2.5170    -1.4230 H     1 <1>   0.0800 
 35 H       -2.1910     3.2360     0.0190 H     1 <1>   0.0800 
 36 H       -3.6630    -0.3610     1.1880 H     1 <1>   0.0800 
 37 H       -4.3180    -1.0860    -0.2540 H     1 <1>   0.0800 
 38 H       -4.7020     3.1070     0.1290 H     1 <1>   0.0800 
 39 H       -3.9000     2.2650     1.4260 H     1 <1>   0.0800 
 40 H       -5.0470     1.0610    -1.0100 H     1 <1>   0.4500 
 41 H       -6.6200     1.7460     0.7480 H     1 <1>   0.0800 
 42 H       -5.7910     0.6560     1.8300 H     1 <1>   0.0800 
 43 H       -6.4540    -1.2620     0.4010 H     1 <1>   0.0800 
 44 H       -7.2900    -0.1370    -0.6890 H     1 <1>   0.0800 
 45 H       -8.3700    -2.2100    -0.7840 H     1 <1>   0.1500 
 46 H       -9.9120    -0.6410     2.8760 H     1 <1>   0.1500 
 47 H      -10.1140    -3.8820    -0.8160 H     1 <1>   0.1500 
 48 H      -11.6800    -2.3250     2.8570 H     1 <1>   0.1500 
 49 H      -12.5650    -4.3890     1.9570 H     1 <1>   0.0800 
 50 H      -11.7350    -5.2000     0.6460 H     1 <1>   0.0800 
 51 H      -12.6850    -3.4870    -0.8270 H     1 <1>   0.4500 
 52 H      -13.2010    -1.8110     0.8290 H     1 <1>   0.0800 
 53 H      -14.4470    -2.8560     1.4510 H     1 <1>   0.0800 
 54 H      -14.6890    -5.1790     0.5310 H     1 <1>   0.0800 
 55 H      -13.5990    -5.7280    -0.7230 H     1 <1>   0.0800 
 56 H      -15.8260    -5.1430    -1.6220 H     1 <1>   0.0800 
 57 H      -14.5740    -4.1750    -2.3230 H     1 <1>   0.0800 
 58 H      -16.4760    -2.7250    -1.7550 H     1 <1>   0.0800 
 59 H      -16.5280    -3.3720    -0.1490 H     1 <1>   0.0800 
 60 H      -14.1680    -1.8340    -2.5320 H     1 <1>   0.0800 
 61 H      -13.2020    -0.9930    -1.3440 H     1 <1>   0.0800 
 62 H      -15.7030    -0.0520    -2.6440 H     1 <1>   0.0800 
 63 H      -14.3370     0.8840    -2.0450 H     1 <1>   0.0800 
 64 H      -16.4740     2.2270    -0.5830 H     1 <1>   0.1500 
 65 H      -17.6910    -0.9830     3.4550 H     1 <1>   0.0800 
 66 H      -18.4780     0.5400     3.1200 H     1 <1>   0.0800 
 67 H      -16.9040     0.5210     3.8840 H     1 <1>   0.0800 
@<TRIPOS>BOND
  1   1   2  1   
  2   1   3  1   
  3   2   4  1   
  4   2  32  1   
  5   2  33  1   
  6   3   5  1   
  7   3  34  1   
  8   3  35  1   
  9   4   6  1   
 10   4  36  1   
 11   4  37  1   
 12   5   6  1   
 13   5  38  1   
 14   5  39  1   
 15   6   7  1   
 16   6  40  1   
 17   7   8  1   
 18   7  41  1   
 19   7  42  1   
 20   8   9  1   
 21   8  43  1   
 22   8  44  1   
 23   9  10  1   
 24  10  11  ar  
 25  10  12  ar  
 26  11  13  ar  
 27  11  45  1   
 28  12  14  ar  
 29  12  46  1   
 30  13  15  ar  
 31  13  47  1   
 32  14  15  ar  
 33  14  48  1   
 34  15  16  1   
 35  16  17  1   
 36  16  49  1   
 37  16  50  1   
 38  17  18  1   
 39  17  19  1   
 40  17  51  1   
 41  18  20  1   
 42  18  52  1   
 43  18  53  1   
 44  19  21  1   
 45  19  54  1   
 46  19  55  1   
 47  20  22  1   
 48  20  23  1   
 49  20  24  1   
 50  21  23  1   
 51  21  56  1   
 52  21  57  1   
 53  22  25  ar  
 54  22  26  ar  
 55  23  58  1   
 56  23  59  1   
 57  24  27  1   
 58  24  60  1   
 59  24  61  1   
 60  25  28  ar  
 61  26  27  1   
 62  26  29  ar  
 63  27  62  1   
 64  27  63  1   
 65  28  30  ar  
 66  28  31  1   
 67  29  30  ar  
 68  29  64  1   
 69  31  65  1   
 70  31  66  1   
 71  31  67  1   
@<TRIPOS>SUBSTRUCTURE
  1 ****  12 GROUP 4 **** **** 0

# MOE 2024.06 (io_trps.svl 2023.06)
