@<TRIPOS>MOLECULE
NONAME
51 52 1 0 0 
SMALL
USER_CHARGES


@<TRIPOS>ATOM
  1 O       -0.3220     0.0230    -0.1570 O.2   1 <1>  -0.5700 
  2 C        0.7630    -0.5130    -0.2730 C.2   1 <1>   0.5440 
  3 N        1.9170     0.2370    -0.2820 N.am  1 <1>  -0.4940 
  4 C        0.8570    -1.9510    -0.4290 C.ar  1 <1>   0.0860 
  5 C        2.1030     1.6210    -0.0370 C.2   1 <1>  -0.0880 
  6 C        1.8920    -2.6890     0.1470 C.ar  1 <1>  -0.1500 
  7 C       -0.0920    -2.6530    -1.1720 C.ar  1 <1>  -0.1500 
  8 N        3.2780     2.2900    -0.1910 N.pl3 1 <1>   0.3140 
  9 C        1.2080     2.5410     0.3930 C.2   1 <1>  -0.1500 
 10 C        1.9830    -4.0590    -0.0250 C.ar  1 <1>  -0.1500 
 11 C       -0.0060    -4.0210    -1.3470 C.ar  1 <1>  -0.1500 
 12 N        3.1550     3.5980     0.1300 N.2   1 <1>  -0.7070 
 13 C        4.5640     1.7450    -0.6690 C.3   1 <1>   0.0960 
 14 C        1.9150     3.7330     0.4750 C.2   1 <1>   0.1080 
 15 C        1.0350    -4.7340    -0.7760 C.ar  1 <1>  -0.1430 
 16 C        5.2950     0.9910     0.4520 C.3   1 <1>  -0.1600 
 17 C        1.3370     5.0580     0.9130 C.3   1 <1>  -0.0590 
 18 C        1.1260    -6.2400    -0.9610 C.3   1 <1>  -0.0170 
 19 C        6.6070     0.3790    -0.0510 C.3   1 <1>  -0.2400 
 20 C        0.3970    -6.9570     0.1890 C.3   1 <1>  -0.1600 
 21 C        0.3360    -8.4890     0.0700 C.3   1 <1>   0.2800 
 22 O       -0.2790    -8.8070    -1.1120 O.3   1 <1>  -0.6800 
 23 C       -0.5200    -9.0890     1.1840 C.3   1 <1>  -0.2400 
 24 C        1.7150    -9.1460     0.0400 C.3   1 <1>  -0.2400 
 25 H        2.7540    -0.2910    -0.5190 H     1 <1>   0.3700 
 26 H        2.6300    -2.1920     0.7500 H     1 <1>   0.1500 
 27 H       -0.9090    -2.1090    -1.6160 H     1 <1>   0.1500 
 28 H        0.1690     2.3960     0.6240 H     1 <1>   0.1500 
 29 H        2.7920    -4.6030     0.4320 H     1 <1>   0.1500 
 30 H       -0.7550    -4.5310    -1.9270 H     1 <1>   0.1500 
 31 H        5.1670     2.5660    -1.0120 H     1 <1>   0.0800 
 32 H        4.3700     1.0960    -1.5020 H     1 <1>   0.0800 
 33 H        4.6660     0.2090     0.8400 H     1 <1>   0.0800 
 34 H        5.5100     1.6800     1.2520 H     1 <1>   0.0800 
 35 H        0.2950     4.9530     1.1500 H     1 <1>   0.0800 
 36 H        1.4490     5.7760     0.1220 H     1 <1>   0.0800 
 37 H        1.8640     5.4090     1.7810 H     1 <1>   0.0800 
 38 H        2.1600    -6.5320    -0.9880 H     1 <1>   0.0800 
 39 H        0.6870    -6.5110    -1.9050 H     1 <1>   0.0800 
 40 H        6.4210    -0.3260    -0.8420 H     1 <1>   0.0800 
 41 H        7.1050    -0.1350     0.7530 H     1 <1>   0.0800 
 42 H        7.2640     1.1480    -0.4190 H     1 <1>   0.0800 
 43 H       -0.6050    -6.5710     0.2550 H     1 <1>   0.0800 
 44 H        0.8880    -6.7040     1.1120 H     1 <1>   0.0800 
 45 H       -1.2030    -8.4990    -1.0890 H     1 <1>   0.4000 
 46 H       -1.5030    -8.6540     1.1900 H     1 <1>   0.0800 
 47 H       -0.0620    -8.8990     2.1380 H     1 <1>   0.0800 
 48 H       -0.6050   -10.1540     1.0590 H     1 <1>   0.0800 
 49 H        2.2740    -8.8300    -0.8220 H     1 <1>   0.0800 
 50 H        1.6150   -10.2160     0.0040 H     1 <1>   0.0800 
 51 H        2.2680    -8.8890     0.9240 H     1 <1>   0.0800 
@<TRIPOS>BOND
  1   1   2  2   
  2   2   3  am  
  3   2   4  1   
  4   3   5  1   
  5   3  25  1   
  6   4   6  ar  
  7   4   7  ar  
  8   5   8  1   
  9   5   9  2   
 10   6  10  ar  
 11   6  26  1   
 12   7  11  ar  
 13   7  27  1   
 14   8  12  1   
 15   8  13  1   
 16   9  14  1   
 17   9  28  1   
 18  10  15  ar  
 19  10  29  1   
 20  11  15  ar  
 21  11  30  1   
 22  12  14  2   
 23  13  16  1   
 24  13  31  1   
 25  13  32  1   
 26  14  17  1   
 27  15  18  1   
 28  16  19  1   
 29  16  33  1   
 30  16  34  1   
 31  17  35  1   
 32  17  36  1   
 33  17  37  1   
 34  18  20  1   
 35  18  38  1   
 36  18  39  1   
 37  19  40  1   
 38  19  41  1   
 39  19  42  1   
 40  20  21  1   
 41  20  43  1   
 42  20  44  1   
 43  21  22  1   
 44  21  23  1   
 45  21  24  1   
 46  22  45  1   
 47  23  46  1   
 48  23  47  1   
 49  23  48  1   
 50  24  49  1   
 51  24  50  1   
 52  24  51  1   
@<TRIPOS>SUBSTRUCTURE
  1 ****   6 GROUP 4 **** **** 0

# MOE 2024.06 (io_trps.svl 2023.06)
