@<TRIPOS>MOLECULE
NONAME
60 63 1 0 0 
SMALL
USER_CHARGES


@<TRIPOS>ATOM
  1 O       -1.8160    -0.3450     0.4370 O.2   1 <1>  -0.5700 
  2 C       -2.3350     0.6380    -0.0790 C.2   1 <1>   0.4690 
  3 C       -3.4270     0.5110    -0.9950 C.2   1 <1>   0.0290 
  4 C       -1.8490     1.9490     0.2630 C.ar  1 <1>   0.0860 
  5 C       -3.9310    -0.7770    -1.4040 C.2   1 <1>   0.6160 
  6 C       -3.9740     1.6580    -1.5020 C.2   1 <1>  -0.0500 
  7 C       -2.4710     3.0850    -0.2800 C.ar  1 <1>   0.4100 
  8 C       -0.7750     2.1490     1.1280 C.ar  1 <1>  -0.1500 
  9 O       -4.3910    -0.9070    -2.5240 O.2   1 <1>  -0.5700 
 10 N       -4.0190    -1.8880    -0.5900 N.am  1 <1>  -0.6600 
 11 N       -3.5410     2.9080    -1.1610 N.pl3 1 <1>  -0.5690 
 12 N       -2.0930     4.3370     0.0030 N.ar  1 <1>  -0.6200 
 13 C       -0.3930     3.4380     1.4060 C.ar  1 <1>  -0.1500 
 14 C       -4.3530    -1.8230     0.8620 C.3   1 <1>   0.1400 
 15 C       -4.0350    -3.2650    -1.1600 C.3   1 <1>   0.1400 
 16 C       -4.2120     4.0840    -1.7860 C.3   1 <1>   0.2090 
 17 C       -1.0810     4.4930     0.8230 C.ar  1 <1>   0.1670 
 18 C       -5.7070    -2.5130     1.1500 C.3   1 <1>   0.4230 
 19 C       -5.3980    -3.9270    -0.9020 C.3   1 <1>   0.3430 
 20 C       -5.3490     4.5640    -0.8860 C.3   1 <1>  -0.2400 
 21 C       -0.6760     5.9210     1.1210 C.3   1 <1>  -0.0960 
 22 N       -5.7760    -3.9160     0.5660 N.4   1 <1>  -0.9590 
 23 C       -6.8760    -1.6450     0.6300 C.3   1 <1>   0.1200 
 24 C       -7.1420    -4.4910     0.8320 C.3   1 <1>   0.4230 
 25 O       -8.1000    -2.2650     0.9050 O.3   1 <1>  -0.5600 
 26 C       -8.2610    -3.5380     0.3430 C.3   1 <1>   0.1200 
 27 C       -7.2590    -5.9050     0.2400 C.3   1 <1>  -0.1600 
 28 C       -8.4670    -6.6750     0.7970 C.3   1 <1>  -0.1600 
 29 C       -8.5030    -8.1040     0.2500 C.3   1 <1>  -0.2400 
 30 H       -4.7870     1.5940    -2.2090 H     1 <1>   0.1500 
 31 H       -0.2600     1.3100     1.5660 H     1 <1>   0.1500 
 32 H        0.4310     3.6280     2.0700 H     1 <1>   0.1500 
 33 H       -3.5700    -2.3040     1.4240 H     1 <1>   0.0800 
 34 H       -4.3990    -0.7990     1.1900 H     1 <1>   0.0800 
 35 H       -3.8460    -3.2360    -2.2200 H     1 <1>   0.0800 
 36 H       -3.2500    -3.8460    -0.7100 H     1 <1>   0.0800 
 37 H       -3.5040     4.8790    -1.9500 H     1 <1>   0.0800 
 38 H       -4.6070     3.8030    -2.7470 H     1 <1>   0.0800 
 39 H       -5.8170    -2.5740     2.2200 H     1 <1>   0.0800 
 40 H       -5.3630    -4.9400    -1.2670 H     1 <1>   0.0800 
 41 H       -6.1400    -3.3960    -1.4750 H     1 <1>   0.0800 
 42 H       -4.9570     4.8670     0.0690 H     1 <1>   0.0800 
 43 H       -6.0720     3.7820    -0.7460 H     1 <1>   0.0800 
 44 H       -5.8360     5.4090    -1.3370 H     1 <1>   0.0800 
 45 H        0.1550     5.9570     1.8010 H     1 <1>   0.0800 
 46 H       -1.5060     6.4450     1.5570 H     1 <1>   0.0800 
 47 H       -0.3990     6.4130     0.2070 H     1 <1>   0.0800 
 48 H       -5.0910    -4.4920     1.0680 H     1 <1>   0.4500 
 49 H       -6.8020    -1.4740    -0.4310 H     1 <1>   0.0800 
 50 H       -6.8800    -0.6910     1.1270 H     1 <1>   0.0800 
 51 H       -7.2620    -4.5840     1.8990 H     1 <1>   0.0800 
 52 H       -9.2240    -3.9010     0.6540 H     1 <1>   0.0800 
 53 H       -8.2630    -3.4470    -0.7290 H     1 <1>   0.0800 
 54 H       -7.3510    -5.8570    -0.8310 H     1 <1>   0.0800 
 55 H       -6.3720    -6.4630     0.4840 H     1 <1>   0.0800 
 56 H       -8.4160    -6.7170     1.8730 H     1 <1>   0.0800 
 57 H       -9.3880    -6.1850     0.5270 H     1 <1>   0.0800 
 58 H       -7.6150    -8.6450     0.5300 H     1 <1>   0.0800 
 59 H       -8.5820    -8.1010    -0.8240 H     1 <1>   0.0800 
 60 H       -9.3550    -8.6280     0.6480 H     1 <1>   0.0800 
@<TRIPOS>BOND
  1   1   2  2   
  2   2   3  1   
  3   2   4  1   
  4   3   5  1   
  5   3   6  2   
  6   4   7  ar  
  7   4   8  ar  
  8   5   9  2   
  9   5  10  am  
 10   6  11  1   
 11   6  30  1   
 12   7  11  1   
 13   7  12  ar  
 14   8  13  ar  
 15   8  31  1   
 16  10  14  1   
 17  10  15  1   
 18  11  16  1   
 19  12  17  ar  
 20  13  17  ar  
 21  13  32  1   
 22  14  18  1   
 23  14  33  1   
 24  14  34  1   
 25  15  19  1   
 26  15  35  1   
 27  15  36  1   
 28  16  20  1   
 29  16  37  1   
 30  16  38  1   
 31  17  21  1   
 32  18  22  1   
 33  18  23  1   
 34  18  39  1   
 35  19  22  1   
 36  19  40  1   
 37  19  41  1   
 38  20  42  1   
 39  20  43  1   
 40  20  44  1   
 41  21  45  1   
 42  21  46  1   
 43  21  47  1   
 44  22  24  1   
 45  22  48  1   
 46  23  25  1   
 47  23  49  1   
 48  23  50  1   
 49  24  26  1   
 50  24  27  1   
 51  24  51  1   
 52  25  26  1   
 53  26  52  1   
 54  26  53  1   
 55  27  28  1   
 56  27  54  1   
 57  27  55  1   
 58  28  29  1   
 59  28  56  1   
 60  28  57  1   
 61  29  58  1   
 62  29  59  1   
 63  29  60  1   
@<TRIPOS>SUBSTRUCTURE
  1 ****   5 GROUP 4 **** **** 0

# MOE 2024.06 (io_trps.svl 2023.06)
