@<TRIPOS>MOLECULE
NONAME
48 50 1 0 0 
SMALL
USER_CHARGES


@<TRIPOS>ATOM
  1 O       -1.9050     0.6430    -1.8720 O.2   1 <1>  -0.5700 
  2 C       -1.8130     0.7150    -0.6720 C.2   1 <1>   0.5690 
  3 N       -1.8840    -0.3800     0.1200 N.am  1 <1>  -0.7300 
  4 C       -1.6100     2.0630    -0.0260 C.3   1 <1>  -0.0990 
  5 C       -2.0380    -1.7700    -0.3640 C.3   1 <1>   0.2200 
  6 C       -0.1200     2.4000     0.0610 C.3   1 <1>   0.0210 
  7 C       -3.4500    -2.2880    -0.1250 C.3   1 <1>  -0.0800 
  8 C       -1.2430    -2.6980     0.5430 C.3   1 <1>   0.1200 
  9 C        0.0740     3.7180     0.7820 C.2   1 <1>   0.1080 
 10 C       -3.3960    -2.7780     1.3270 C.3   1 <1>   0.1200 
 11 C       -4.5900    -1.2960    -0.4180 C.3   1 <1>  -0.0170 
 12 O       -2.0440    -2.8800     1.6710 O.3   1 <1>  -0.5600 
 13 N        0.0660     3.7910     2.0760 N.2   1 <1>  -0.7070 
 14 C        0.2630     4.9620     0.1810 C.2   1 <1>  -0.1810 
 15 C       -5.9460    -1.9580    -0.2320 C.ar  1 <1>  -0.1440 
 16 N        0.2600     5.0950     2.3410 N.pl3 1 <1>   0.3000 
 17 C        0.3810     5.8270     1.2130 C.2   1 <1>  -0.3320 
 18 C        0.3150     5.2330    -1.3120 C.3   1 <1>  -0.0590 
 19 C       -6.5070    -2.7500    -1.2140 C.ar  1 <1>  -0.1500 
 20 C       -6.6850    -1.8060     0.9240 C.ar  1 <1>  -0.1500 
 21 C        0.6060     7.3290     1.2320 C.3   1 <1>  -0.0600 
 22 C       -7.7420    -3.3380    -0.9960 C.ar  1 <1>   0.1600 
 23 C       -7.9110    -2.4400     1.0410 C.ar  1 <1>   0.1600 
 24 N       -8.4570    -3.2050     0.1090 N.ar  1 <1>  -0.6200 
 25 H       -1.8090    -0.2970     1.1380 H     1 <1>   0.3700 
 26 H       -2.1160     2.8110    -0.6070 H     1 <1>   0.0800 
 27 H       -2.0370     2.0600     0.9600 H     1 <1>   0.0800 
 28 H       -1.7360    -1.8490    -1.3960 H     1 <1>   0.0800 
 29 H        0.3050     2.4490    -0.9240 H     1 <1>   0.0800 
 30 H        0.3980     1.6320     0.6080 H     1 <1>   0.0800 
 31 H       -3.5910    -3.1530    -0.7490 H     1 <1>   0.0800 
 32 H       -0.2920    -2.2870     0.8330 H     1 <1>   0.0800 
 33 H       -1.1020    -3.6590     0.0790 H     1 <1>   0.0800 
 34 H       -3.8610    -3.7420     1.4410 H     1 <1>   0.0800 
 35 H       -3.8490    -2.0730     2.0020 H     1 <1>   0.0800 
 36 H       -4.5020    -0.9410    -1.4310 H     1 <1>   0.0800 
 37 H       -4.5210    -0.4400     0.2290 H     1 <1>   0.0800 
 38 H        0.3050     5.4550     3.3010 H     1 <1>   0.2700 
 39 H       -0.5680     4.8420    -1.7850 H     1 <1>   0.0800 
 40 H        1.1790     4.7560    -1.7390 H     1 <1>   0.0800 
 41 H        0.3700     6.2860    -1.5110 H     1 <1>   0.0800 
 42 H       -5.9970    -2.9130    -2.1450 H     1 <1>   0.1500 
 43 H       -6.3210    -1.2020     1.7350 H     1 <1>   0.1500 
 44 H        0.6970     7.7170     0.2350 H     1 <1>   0.0800 
 45 H        1.5100     7.5600     1.7680 H     1 <1>   0.0800 
 46 H       -0.2210     7.8200     1.7130 H     1 <1>   0.0800 
 47 H       -8.1640    -3.9520    -1.7730 H     1 <1>   0.1500 
 48 H       -8.4740    -2.3100     1.9500 H     1 <1>   0.1500 
@<TRIPOS>BOND
  1   1   2  2   
  2   2   3  am  
  3   2   4  1   
  4   3   5  1   
  5   3  25  1   
  6   4   6  1   
  7   4  26  1   
  8   4  27  1   
  9   5   7  1   
 10   5   8  1   
 11   5  28  1   
 12   6   9  1   
 13   6  29  1   
 14   6  30  1   
 15   7  10  1   
 16   7  11  1   
 17   7  31  1   
 18   8  12  1   
 19   8  32  1   
 20   8  33  1   
 21   9  13  2   
 22   9  14  1   
 23  10  12  1   
 24  10  34  1   
 25  10  35  1   
 26  11  15  1   
 27  11  36  1   
 28  11  37  1   
 29  13  16  1   
 30  14  17  2   
 31  14  18  1   
 32  15  19  ar  
 33  15  20  ar  
 34  16  17  1   
 35  16  38  1   
 36  17  21  1   
 37  18  39  1   
 38  18  40  1   
 39  18  41  1   
 40  19  22  ar  
 41  19  42  1   
 42  20  23  ar  
 43  20  43  1   
 44  21  44  1   
 45  21  45  1   
 46  21  46  1   
 47  22  24  ar  
 48  22  47  1   
 49  23  24  ar  
 50  23  48  1   
@<TRIPOS>SUBSTRUCTURE
  1 ****   3 GROUP 4 **** **** 0

# MOE 2024.06 (io_trps.svl 2023.06)
