@<TRIPOS>MOLECULE
NONAME
44 46 1 0 0 
SMALL
USER_CHARGES


@<TRIPOS>ATOM
  1 O       -1.0110    -3.5360    -0.7410 O.co2 1 <1>  -0.9000 
  2 C       -0.8480    -3.4100     0.4830 C.2   1 <1>   1.0330 
  3 O       -1.8530    -3.5700     1.2010 O.co2 1 <1>  -0.9000 
  4 C        0.4640    -3.4170     1.0440 C.2   1 <1>  -0.2330 
  5 C        0.8000    -4.1920     2.1510 C.2   1 <1>   0.3720 
  6 C        1.6530    -2.8820     0.6580 C.2   1 <1>   0.0870 
  7 N        2.0620    -4.1730     2.3800 N.2   1 <1>  -0.4100 
  8 N       -0.1190    -4.9190     2.8980 N.pl3 1 <1>  -0.8520 
  9 O        2.5600    -3.3660     1.4790 O.3   1 <1>  -0.0190 
 10 C        2.0530    -1.9790    -0.3990 C.ar  1 <1>   0.0530 
 11 C        0.0090    -6.3910     2.9160 C.3   1 <1>   0.2090 
 12 C        3.3990    -1.8290    -0.7440 C.ar  1 <1>  -0.1500 
 13 C        1.1300    -1.2130    -1.1140 C.ar  1 <1>  -0.1500 
 14 C       -1.0470    -7.0240     2.0010 C.3   1 <1>  -0.1600 
 15 C        3.8030    -0.9650    -1.7450 C.ar  1 <1>  -0.1500 
 16 C        1.5250    -0.3490    -2.1180 C.ar  1 <1>  -0.1500 
 17 C       -0.8150    -6.6180     0.5440 C.3   1 <1>   0.4230 
 18 C        2.8650    -0.2210    -2.4370 C.ar  1 <1>  -0.1500 
 19 N       -1.9760    -6.8410    -0.3400 N.4   1 <1>  -0.9590 
 20 C        0.3250    -7.3450    -0.1570 C.3   1 <1>  -0.1600 
 21 C       -1.4140    -6.6220    -1.6940 C.3   1 <1>   0.3430 
 22 C       -3.0770    -5.8540    -0.0950 C.3   1 <1>   0.2630 
 23 C       -0.0220    -7.2440    -1.6440 C.3   1 <1>  -0.1600 
 24 H       -1.0690    -4.5890     2.6260 H     1 <1>   0.4000 
 25 H       -0.1370    -6.7300     3.9280 H     1 <1>   0.0800 
 26 H        1.0020    -6.6790     2.6120 H     1 <1>   0.0800 
 27 H        4.1440    -2.3990    -0.2180 H     1 <1>   0.1500 
 28 H        0.0830    -1.2920    -0.8860 H     1 <1>   0.1500 
 29 H       -2.0110    -6.6900     2.3380 H     1 <1>   0.0800 
 30 H       -1.0060    -8.0920     2.0990 H     1 <1>   0.0800 
 31 H        4.8470    -0.8710    -1.9870 H     1 <1>   0.1500 
 32 H        0.7860     0.2230    -2.6510 H     1 <1>   0.1500 
 33 H       -0.5820    -5.5780     0.5140 H     1 <1>   0.0800 
 34 H        3.1730     0.4520    -3.2180 H     1 <1>   0.1500 
 35 H       -2.2970    -7.8050    -0.2340 H     1 <1>   0.4500 
 36 H        0.3680    -8.3750     0.1510 H     1 <1>   0.0800 
 37 H        1.2640    -6.8700     0.0670 H     1 <1>   0.0800 
 38 H       -1.3210    -5.5600    -1.8740 H     1 <1>   0.0800 
 39 H       -2.0290    -7.0620    -2.4620 H     1 <1>   0.0800 
 40 H       -2.7750    -4.8680    -0.4090 H     1 <1>   0.0800 
 41 H       -3.3230    -5.8030     0.9520 H     1 <1>   0.0800 
 42 H       -3.9580    -6.1250    -0.6500 H     1 <1>   0.0800 
 43 H       -0.0250    -8.2150    -2.1070 H     1 <1>   0.0800 
 44 H        0.6730    -6.6090    -2.1670 H     1 <1>   0.0800 
@<TRIPOS>BOND
  1   1   2  ar  
  2   2   3  ar  
  3   2   4  1   
  4   4   5  1   
  5   4   6  2   
  6   5   7  2   
  7   5   8  1   
  8   6   9  1   
  9   6  10  1   
 10   7   9  1   
 11   8  11  1   
 12   8  24  1   
 13  10  12  ar  
 14  10  13  ar  
 15  11  14  1   
 16  11  25  1   
 17  11  26  1   
 18  12  15  ar  
 19  12  27  1   
 20  13  16  ar  
 21  13  28  1   
 22  14  17  1   
 23  14  29  1   
 24  14  30  1   
 25  15  18  ar  
 26  15  31  1   
 27  16  18  ar  
 28  16  32  1   
 29  17  19  1   
 30  17  20  1   
 31  17  33  1   
 32  18  34  1   
 33  19  21  1   
 34  19  22  1   
 35  19  35  1   
 36  20  23  1   
 37  20  36  1   
 38  20  37  1   
 39  21  23  1   
 40  21  38  1   
 41  21  39  1   
 42  22  40  1   
 43  22  41  1   
 44  22  42  1   
 45  23  43  1   
 46  23  44  1   
@<TRIPOS>SUBSTRUCTURE
  1 ****   4 GROUP 4 **** **** 0

# MOE 2024.06 (io_trps.svl 2023.06)
