@<TRIPOS>MOLECULE
NONAME
50 51 1 0 0 
SMALL
USER_CHARGES


@<TRIPOS>ATOM
  1 O       -1.1700    -0.9170    -1.0620 O.2   1 <1>  -0.5700 
  2 C       -1.6920     0.0930    -0.6410 C.2   1 <1>   0.5690 
  3 N       -2.5180     0.0360     0.4620 N.am  1 <1>  -0.6600 
  4 C       -1.3550     1.4020    -1.4130 C.3   1 <1>   0.2510 
  5 C       -2.7230    -1.2550     1.1760 C.3   1 <1>   0.3200 
  6 C       -3.3210     1.1810     0.9860 C.3   1 <1>   0.1400 
  7 N       -0.7160     2.4860    -0.5880 N.3   1 <1>  -0.8100 
  8 C       -2.5810     1.9360    -2.1730 C.3   1 <1>  -0.2400 
  9 C       -3.8040    -2.0440     0.4730 C.2   1 <1>  -0.3320 
 10 C       -4.7700     1.1170     0.4870 C.3   1 <1>   0.1200 
 11 C       -0.3120     3.6630    -1.3970 C.3   1 <1>   0.1100 
 12 C        0.4400     1.9510     0.1740 C.3   1 <1>   0.1100 
 13 N       -3.6740    -2.4500    -0.8010 N.pl3 1 <1>   0.0330 
 14 C       -5.0100    -2.4880     0.8900 C.2   1 <1>   0.0770 
 15 O       -5.4170     2.2950     0.8310 O.3   1 <1>  -0.6800 
 16 C        0.3630     4.7550    -0.5420 C.3   1 <1>   0.3430 
 17 C        1.1240     3.0300     1.0380 C.3   1 <1>   0.3430 
 18 C       -4.8170    -3.1090    -1.0840 C.2   1 <1>   0.0060 
 19 N       -5.6450    -3.1520    -0.0930 N.2   1 <1>  -0.5650 
 20 N        1.5420     4.2180     0.2190 N.4   1 <1>  -0.9590 
 21 C       -5.0870    -3.7310    -2.4370 C.3   1 <1>  -0.0600 
 22 C        2.1640     5.2740     1.0720 C.3   1 <1>   0.2630 
 23 H       -0.6400     1.1070    -2.1630 H     1 <1>   0.0800 
 24 H       -3.0030    -1.0750     2.1990 H     1 <1>   0.0800 
 25 H       -1.8070    -1.8220     1.1790 H     1 <1>   0.0800 
 26 H       -2.8860     2.1120     0.6750 H     1 <1>   0.0800 
 27 H       -3.3120     1.1600     2.0620 H     1 <1>   0.0800 
 28 H       -3.2180     2.5160    -1.5320 H     1 <1>   0.0800 
 29 H       -3.1500     1.1110    -2.5650 H     1 <1>   0.0800 
 30 H       -2.2790     2.5380    -3.0100 H     1 <1>   0.0800 
 31 H       -5.3070     0.2920     0.9220 H     1 <1>   0.0800 
 32 H       -4.7970     1.0310    -0.5850 H     1 <1>   0.0800 
 33 H       -1.1820     4.1050    -1.8510 H     1 <1>   0.0800 
 34 H        0.3540     3.3580    -2.1860 H     1 <1>   0.0800 
 35 H        1.1600     1.5220    -0.5030 H     1 <1>   0.0800 
 36 H        0.1070     1.1680     0.8340 H     1 <1>   0.0800 
 37 H       -2.8620    -2.2730    -1.4070 H     1 <1>   0.2700 
 38 H       -5.4670    -2.3660     1.8580 H     1 <1>   0.1500 
 39 H       -5.8040     2.2340     1.7270 H     1 <1>   0.4000 
 40 H       -0.3680     5.1440     0.1470 H     1 <1>   0.0800 
 41 H        0.6760     5.5620    -1.1840 H     1 <1>   0.0800 
 42 H        1.9830     2.6000     1.5260 H     1 <1>   0.0800 
 43 H        0.4300     3.3420     1.8010 H     1 <1>   0.0800 
 44 H        2.2310     3.8890    -0.4710 H     1 <1>   0.4500 
 45 H       -4.3420    -4.4750    -2.6550 H     1 <1>   0.0800 
 46 H       -5.0720    -2.9750    -3.2000 H     1 <1>   0.0800 
 47 H       -6.0540    -4.2010    -2.4330 H     1 <1>   0.0800 
 48 H        1.4550     5.6310     1.8020 H     1 <1>   0.0800 
 49 H        2.4810     6.1070     0.4650 H     1 <1>   0.0800 
 50 H        3.0240     4.8810     1.5890 H     1 <1>   0.0800 
@<TRIPOS>BOND
  1   1   2  2   
  2   2   3  am  
  3   2   4  1   
  4   3   5  1   
  5   3   6  1   
  6   4   7  1   
  7   4   8  1   
  8   4  23  1   
  9   5   9  1   
 10   5  24  1   
 11   5  25  1   
 12   6  10  1   
 13   6  26  1   
 14   6  27  1   
 15   7  11  1   
 16   7  12  1   
 17   8  28  1   
 18   8  29  1   
 19   8  30  1   
 20   9  13  1   
 21   9  14  2   
 22  10  15  1   
 23  10  31  1   
 24  10  32  1   
 25  11  16  1   
 26  11  33  1   
 27  11  34  1   
 28  12  17  1   
 29  12  35  1   
 30  12  36  1   
 31  13  18  1   
 32  13  37  1   
 33  14  19  1   
 34  14  38  1   
 35  15  39  1   
 36  16  20  1   
 37  16  40  1   
 38  16  41  1   
 39  17  20  1   
 40  17  42  1   
 41  17  43  1   
 42  18  19  2   
 43  18  21  1   
 44  20  22  1   
 45  20  44  1   
 46  21  45  1   
 47  21  46  1   
 48  21  47  1   
 49  22  48  1   
 50  22  49  1   
 51  22  50  1   
@<TRIPOS>SUBSTRUCTURE
  1 ****   2 GROUP 4 **** **** 0

# MOE 2024.06 (io_trps.svl 2023.06)
