@<TRIPOS>MOLECULE
NONAME
35 36 1 0 0 
SMALL
USER_CHARGES


@<TRIPOS>ATOM
  1 S       -0.9580    -0.0690    -2.0540 S.3   1 <1>  -0.0800 
  2 C       -1.7070     0.5650    -0.6020 C.2   1 <1>   0.1980 
  3 C        0.3880     1.0010    -1.7930 C.2   1 <1>  -0.1100 
  4 N       -1.0220     1.4660    -0.0120 N.2   1 <1>  -0.5650 
  5 C       -3.0610    -0.0140    -0.2100 C.3   1 <1>   0.3890 
  6 C        0.1640     1.7160    -0.6810 C.2   1 <1>   0.0460 
  7 N       -2.9680    -1.4570     0.1880 N.pl3 1 <1>  -0.8380 
  8 C        1.0760     2.7650    -0.0860 C.3   1 <1>  -0.0590 
  9 C       -4.0830    -2.2600     0.0150 C.ar  1 <1>   0.4100 
 10 C       -2.0480    -1.7170     1.3310 C.3   1 <1>   0.1290 
 11 N       -5.2440    -1.6600     0.2610 N.ar  1 <1>  -0.6200 
 12 C       -3.9720    -3.6000    -0.3900 C.ar  1 <1>   0.0730 
 13 C       -6.3310    -2.3890     0.1200 C.ar  1 <1>   0.1670 
 14 C       -2.6830    -4.1660    -0.6540 C.1   1 <1>   0.4840 
 15 C       -5.1310    -4.3520    -0.5330 C.ar  1 <1>  -0.1440 
 16 C       -6.3270    -3.7170    -0.2670 C.ar  1 <1>  -0.1500 
 17 C       -7.6390    -1.6840     0.4110 C.3   1 <1>  -0.0960 
 18 N       -1.6770    -4.6720    -0.8500 N.1   1 <1>  -0.5570 
 19 C       -5.1170    -5.8140    -0.9650 C.3   1 <1>  -0.0970 
 20 H        1.1960     0.9770    -2.5000 H     1 <1>   0.1500 
 21 H       -3.7330     0.0880    -1.0430 H     1 <1>   0.0800 
 22 H       -3.4610     0.5530     0.6120 H     1 <1>   0.0800 
 23 H        1.9620     2.8760    -0.6830 H     1 <1>   0.0800 
 24 H        1.3570     2.4750     0.9100 H     1 <1>   0.0800 
 25 H        0.5610     3.7070    -0.0420 H     1 <1>   0.0800 
 26 H       -1.0350    -1.7890     0.9700 H     1 <1>   0.0800 
 27 H       -2.3080    -2.6380     1.8240 H     1 <1>   0.0800 
 28 H       -2.1080    -0.9160     2.0470 H     1 <1>   0.0800 
 29 H       -7.2560    -4.2490    -0.3610 H     1 <1>   0.1500 
 30 H       -7.6340    -1.3260     1.4240 H     1 <1>   0.0800 
 31 H       -8.4760    -2.3430     0.2780 H     1 <1>   0.0800 
 32 H       -7.7480    -0.8440    -0.2510 H     1 <1>   0.0800 
 33 H       -4.5450    -6.4020    -0.2680 H     1 <1>   0.0800 
 34 H       -4.6740    -5.9080    -1.9410 H     1 <1>   0.0800 
 35 H       -6.1140    -6.2150    -1.0060 H     1 <1>   0.0800 
@<TRIPOS>BOND
  1   1   2  1   
  2   1   3  1   
  3   2   4  2   
  4   2   5  1   
  5   3   6  2   
  6   3  20  1   
  7   4   6  1   
  8   5   7  1   
  9   5  21  1   
 10   5  22  1   
 11   6   8  1   
 12   7   9  1   
 13   7  10  1   
 14   8  23  1   
 15   8  24  1   
 16   8  25  1   
 17   9  11  ar  
 18   9  12  ar  
 19  10  26  1   
 20  10  27  1   
 21  10  28  1   
 22  11  13  ar  
 23  12  14  1   
 24  12  15  ar  
 25  13  16  ar  
 26  13  17  1   
 27  14  18  3   
 28  15  16  ar  
 29  15  19  1   
 30  16  29  1   
 31  17  30  1   
 32  17  31  1   
 33  17  32  1   
 34  19  33  1   
 35  19  34  1   
 36  19  35  1   
@<TRIPOS>SUBSTRUCTURE
  1 ****   7 GROUP 4 **** **** 0

# MOE 2024.06 (io_trps.svl 2023.06)
