@<TRIPOS>MOLECULE
NONAME
45 47 1 0 0 
SMALL
USER_CHARGES


@<TRIPOS>ATOM
  1 O       -0.7230     0.2520     1.3910 O.2   1 <1>  -0.5700 
  2 C       -1.6340     0.8640     0.8670 C.2   1 <1>   0.5440 
  3 N       -2.7320     0.1590     0.4300 N.am  1 <1>  -0.6600 
  4 C       -1.5420     2.3020     0.6990 C.ar  1 <1>   0.0860 
  5 C       -3.8050     0.6900    -0.4480 C.3   1 <1>   0.1400 
  6 C       -2.8110    -1.3230     0.4990 C.3   1 <1>   0.1400 
  7 C       -0.5060     2.8670    -0.0390 C.ar  1 <1>  -0.1500 
  8 C       -2.4760     3.1670     1.2630 C.ar  1 <1>  -0.1500 
  9 C       -4.8230    -0.4470    -0.5250 C.3   1 <1>   0.2000 
 10 C       -3.9600    -1.7100    -0.4400 C.3   1 <1>  -0.0800 
 11 C       -0.4050     4.2350    -0.2340 C.ar  1 <1>  -0.1440 
 12 C       -2.3890     4.5330     1.0760 C.ar  1 <1>  -0.1500 
 13 O       -5.6370    -0.3670     0.5960 O.3   1 <1>  -0.6800 
 14 C       -4.7040    -2.9910    -0.0200 C.3   1 <1>  -0.0170 
 15 C       -1.3590     5.0780     0.3270 C.ar  1 <1>  -0.1430 
 16 C        0.7540     4.7810    -1.0560 C.3   1 <1>  -0.0970 
 17 C       -3.7780    -4.1970    -0.0630 C.ar  1 <1>  -0.1430 
 18 C       -1.2950     6.5880     0.1420 C.3   1 <1>  -0.0970 
 19 C       -3.1260    -4.6620     1.0610 C.ar  1 <1>  -0.1500 
 20 C       -3.5400    -4.8870    -1.2340 C.ar  1 <1>  -0.1500 
 21 C       -2.2890    -5.7610     0.9610 C.ar  1 <1>   0.1600 
 22 C       -2.6840    -5.9760    -1.2260 C.ar  1 <1>   0.1600 
 23 N       -2.0520    -6.4290    -0.1560 N.ar  1 <1>  -0.6200 
 24 H       -4.2470     1.5890    -0.0580 H     1 <1>   0.0800 
 25 H       -3.3950     0.8830    -1.4240 H     1 <1>   0.0800 
 26 H       -1.8810    -1.7730     0.1890 H     1 <1>   0.0800 
 27 H       -3.0230    -1.6120     1.5130 H     1 <1>   0.0800 
 28 H        0.2300     2.2050    -0.4600 H     1 <1>   0.1500 
 29 H       -3.2750     2.7590     1.8560 H     1 <1>   0.1500 
 30 H       -5.4430    -0.4050    -1.4040 H     1 <1>   0.0800 
 31 H       -3.5320    -1.8750    -1.4130 H     1 <1>   0.0800 
 32 H       -3.1290     5.1730     1.5240 H     1 <1>   0.1500 
 33 H       -5.0670    -0.2600     1.3840 H     1 <1>   0.4000 
 34 H       -5.5340    -3.1550    -0.6840 H     1 <1>   0.0800 
 35 H       -5.1050    -2.8840     0.9730 H     1 <1>   0.0800 
 36 H        1.3910     3.9870    -1.4010 H     1 <1>   0.0800 
 37 H        1.3460     5.4500    -0.4580 H     1 <1>   0.0800 
 38 H        0.3810     5.3120    -1.9130 H     1 <1>   0.0800 
 39 H       -2.1150     7.0730     0.6390 H     1 <1>   0.0800 
 40 H       -1.3400     6.8340    -0.9030 H     1 <1>   0.0800 
 41 H       -0.3780     6.9700     0.5540 H     1 <1>   0.0800 
 42 H       -3.2580    -4.1830     2.0140 H     1 <1>   0.1500 
 43 H       -4.0120    -4.5900    -2.1530 H     1 <1>   0.1500 
 44 H       -1.7870    -6.1080     1.8480 H     1 <1>   0.1500 
 45 H       -2.5110    -6.5020    -2.1490 H     1 <1>   0.1500 
@<TRIPOS>BOND
  1   1   2  2   
  2   2   3  am  
  3   2   4  1   
  4   3   5  1   
  5   3   6  1   
  6   4   7  ar  
  7   4   8  ar  
  8   5   9  1   
  9   5  24  1   
 10   5  25  1   
 11   6  10  1   
 12   6  26  1   
 13   6  27  1   
 14   7  11  ar  
 15   7  28  1   
 16   8  12  ar  
 17   8  29  1   
 18   9  10  1   
 19   9  13  1   
 20   9  30  1   
 21  10  14  1   
 22  10  31  1   
 23  11  15  ar  
 24  11  16  1   
 25  12  15  ar  
 26  12  32  1   
 27  13  33  1   
 28  14  17  1   
 29  14  34  1   
 30  14  35  1   
 31  15  18  1   
 32  16  36  1   
 33  16  37  1   
 34  16  38  1   
 35  17  19  ar  
 36  17  20  ar  
 37  18  39  1   
 38  18  40  1   
 39  18  41  1   
 40  19  21  ar  
 41  19  42  1   
 42  20  22  ar  
 43  20  43  1   
 44  21  23  ar  
 45  21  44  1   
 46  22  23  ar  
 47  22  45  1   
@<TRIPOS>SUBSTRUCTURE
  1 ****   3 GROUP 4 **** **** 0

# MOE 2024.06 (io_trps.svl 2023.06)
