@<TRIPOS>MOLECULE
NONAME
52 54 1 0 0 
SMALL
USER_CHARGES


@<TRIPOS>ATOM
  1 O        0.0650    -0.9220     1.2890 O.3   1 <1>  -0.6800 
  2 C       -0.0650    -2.2810     1.0750 C.3   1 <1>   0.1200 
  3 C       -1.5440    -2.5890     0.7930 C.3   1 <1>  -0.0800 
  4 C       -1.7620    -4.1140     0.7240 C.3   1 <1>   0.3430 
  5 C       -2.0580    -1.8820    -0.4770 C.3   1 <1>  -0.1600 
  6 N       -2.8580    -4.5090    -0.2290 N.4   1 <1>  -0.9590 
  7 C       -3.5470    -2.1940    -0.7180 C.3   1 <1>  -0.1600 
  8 C       -3.9970    -3.5470    -0.1540 C.3   1 <1>   0.3430 
  9 C       -3.2570    -5.9420    -0.0060 C.3   1 <1>   0.3430 
 10 C       -4.2070    -6.5020    -1.0860 C.3   1 <1>   0.2090 
 11 N       -4.3340    -7.9830    -0.9540 N.pl3 1 <1>  -0.8690 
 12 C       -5.3430    -8.7450    -0.4670 C.ar  1 <1>   0.1000 
 13 C       -5.2580   -10.1750    -0.5180 C.ar  1 <1>   0.0000 
 14 C       -6.4960    -8.1870     0.0910 C.ar  1 <1>  -0.1500 
 15 C       -6.3240   -10.9610    -0.0270 C.ar  1 <1>   0.3610 
 16 C       -4.1490   -10.8600    -1.0420 C.ar  1 <1>  -0.1500 
 17 C       -7.5140    -8.9750     0.5590 C.ar  1 <1>   0.2110 
 18 N       -7.4210   -10.3140     0.4950 N.ar  1 <1>  -0.1790 
 19 C       -6.2730   -12.3720    -0.0650 C.ar  1 <1>  -0.1440 
 20 C       -4.1030   -12.2270    -1.0750 C.ar  1 <1>  -0.1500 
 21 C       -5.1600   -12.9990    -0.5890 C.ar  1 <1>  -0.1440 
 22 C       -7.4590   -13.1810     0.4790 C.3   1 <1>  -0.0960 
 23 C       -5.0050   -14.5140    -0.6760 C.3   1 <1>  -0.0960 
 24 H        0.9940    -0.6730     1.4740 H     1 <1>   0.4000 
 25 H        0.2760    -2.7870     1.9630 H     1 <1>   0.0800 
 26 H        0.5600    -2.5510     0.2400 H     1 <1>   0.0800 
 27 H       -2.1060    -2.2240     1.6370 H     1 <1>   0.0800 
 28 H       -1.9890    -4.4700     1.7170 H     1 <1>   0.0800 
 29 H       -0.8440    -4.5850     0.4110 H     1 <1>   0.0800 
 30 H       -1.4770    -2.2040    -1.3250 H     1 <1>   0.0800 
 31 H       -1.9300    -0.8140    -0.3910 H     1 <1>   0.0800 
 32 H       -2.4640    -4.4080    -1.1750 H     1 <1>   0.4500 
 33 H       -3.7540    -2.1530    -1.7740 H     1 <1>   0.0800 
 34 H       -4.1480    -1.4290    -0.2560 H     1 <1>   0.0800 
 35 H       -4.2960    -3.4240     0.8750 H     1 <1>   0.0800 
 36 H       -4.8450    -3.9020    -0.7150 H     1 <1>   0.0800 
 37 H       -3.7300    -6.0410     0.9570 H     1 <1>   0.0800 
 38 H       -2.3690    -6.5520    -0.0020 H     1 <1>   0.0800 
 39 H       -3.8090    -6.2870    -2.0630 H     1 <1>   0.0800 
 40 H       -5.1730    -6.0380    -1.0090 H     1 <1>   0.0800 
 41 H       -3.5430    -8.4800    -1.3890 H     1 <1>   0.4000 
 42 H       -6.6000    -7.1210     0.1550 H     1 <1>   0.1500 
 43 H       -3.3090   -10.3150    -1.4300 H     1 <1>   0.1500 
 44 H       -8.4040    -8.5350     0.9830 H     1 <1>   0.1500 
 45 H       -8.1770   -10.9090     0.8400 H     1 <1>   0.4570 
 46 H       -3.2340   -12.7160    -1.4850 H     1 <1>   0.1500 
 47 H       -7.6100   -12.9720     1.5240 H     1 <1>   0.0800 
 48 H       -7.3110   -14.2410     0.3940 H     1 <1>   0.0800 
 49 H       -8.3560   -12.9490    -0.0680 H     1 <1>   0.0800 
 50 H       -5.7840   -14.9350    -1.2860 H     1 <1>   0.0800 
 51 H       -5.0490   -14.9510     0.3060 H     1 <1>   0.0800 
 52 H       -4.0610   -14.7890    -1.1140 H     1 <1>   0.0800 
@<TRIPOS>BOND
  1   1   2  1   
  2   1  24  1   
  3   2   3  1   
  4   2  25  1   
  5   2  26  1   
  6   3   4  1   
  7   3   5  1   
  8   3  27  1   
  9   4   6  1   
 10   4  28  1   
 11   4  29  1   
 12   5   7  1   
 13   5  30  1   
 14   5  31  1   
 15   6   8  1   
 16   6   9  1   
 17   6  32  1   
 18   7   8  1   
 19   7  33  1   
 20   7  34  1   
 21   8  35  1   
 22   8  36  1   
 23   9  10  1   
 24   9  37  1   
 25   9  38  1   
 26  10  11  1   
 27  10  39  1   
 28  10  40  1   
 29  11  12  1   
 30  11  41  1   
 31  12  13  ar  
 32  12  14  ar  
 33  13  15  ar  
 34  13  16  ar  
 35  14  17  ar  
 36  14  42  1   
 37  15  18  ar  
 38  15  19  ar  
 39  16  20  ar  
 40  16  43  1   
 41  17  18  ar  
 42  17  44  1   
 43  18  45  1   
 44  19  21  ar  
 45  19  22  1   
 46  20  21  ar  
 47  20  46  1   
 48  21  23  1   
 49  22  47  1   
 50  22  48  1   
 51  22  49  1   
 52  23  50  1   
 53  23  51  1   
 54  23  52  1   
@<TRIPOS>SUBSTRUCTURE
  1 ****  11 GROUP 4 **** **** 0

# MOE 2024.06 (io_trps.svl 2023.06)
