@<TRIPOS>MOLECULE
NONAME
48 50 1 0 0 
SMALL
USER_CHARGES


@<TRIPOS>ATOM
  1 F       -0.7230    -0.3940    -0.7770 F     1 <1>  -0.1900 
  2 C       -1.7830    -1.1370    -0.5980 C.ar  1 <1>   0.1900 
  3 C       -1.6230    -2.5050    -0.4770 C.ar  1 <1>  -0.1500 
  4 C       -3.0220    -0.5280    -0.5360 C.ar  1 <1>  -0.1500 
  5 C       -2.7470    -3.2930    -0.2870 C.ar  1 <1>  -0.1500 
  6 C       -4.1390    -1.3240    -0.3460 C.ar  1 <1>  -0.1500 
  7 C       -4.0100    -2.7020    -0.2210 C.ar  1 <1>   0.0830 
  8 O       -5.1590    -3.4000    -0.0390 O.3   1 <1>  -0.3630 
  9 C       -5.1550    -4.7990     0.0940 C.3   1 <1>   0.1200 
 10 C       -6.6080    -5.2350     0.2770 C.3   1 <1>  -0.1600 
 11 C       -6.7080    -6.7530     0.3970 C.3   1 <1>   0.3430 
 12 N       -8.1120    -7.1510     0.6770 N.4   1 <1>  -0.9590 
 13 C       -9.1070    -6.8660    -0.3950 C.3   1 <1>   0.3430 
 14 C       -8.2850    -8.5940     1.0130 C.3   1 <1>   0.3430 
 15 C      -10.3180    -7.7010     0.0170 C.3   1 <1>   0.2000 
 16 C       -9.6910    -8.9970     0.5330 C.3   1 <1>  -0.0800 
 17 O      -10.9210    -7.0590     1.0920 O.3   1 <1>  -0.6800 
 18 C       -9.6360   -10.0840    -0.5600 C.3   1 <1>   0.0200 
 19 C       -8.7310   -11.2300    -0.1490 C.2   1 <1>  -0.0400 
 20 O       -8.7970   -11.7060     1.0650 O.3   1 <1>  -0.0190 
 21 C       -7.7800   -11.9090    -0.8080 C.2   1 <1>  -0.1500 
 22 N       -7.9290   -12.6520     1.2610 N.2   1 <1>  -0.4100 
 23 C       -7.3090   -12.8070     0.1470 C.2   1 <1>   0.1080 
 24 C       -6.2180   -13.8300    -0.0830 C.3   1 <1>  -0.0590 
 25 H       -0.6400    -2.9360    -0.5310 H     1 <1>   0.1500 
 26 H       -3.1050     0.5390    -0.6340 H     1 <1>   0.1500 
 27 H       -2.6150    -4.3540    -0.1930 H     1 <1>   0.1500 
 28 H       -5.1170    -0.8810    -0.2930 H     1 <1>   0.1500 
 29 H       -4.7300    -5.2200    -0.8020 H     1 <1>   0.0800 
 30 H       -4.5580    -5.0550     0.9530 H     1 <1>   0.0800 
 31 H       -6.9900    -4.7750     1.1720 H     1 <1>   0.0800 
 32 H       -7.1710    -4.8930    -0.5720 H     1 <1>   0.0800 
 33 H       -6.0750    -7.0860     1.2040 H     1 <1>   0.0800 
 34 H       -6.3670    -7.2180    -0.5150 H     1 <1>   0.0800 
 35 H       -8.4640    -6.6270     1.4960 H     1 <1>   0.4500 
 36 H       -9.3560    -5.8180    -0.4500 H     1 <1>   0.0800 
 37 H       -8.7340    -7.2040    -1.3470 H     1 <1>   0.0800 
 38 H       -7.5370    -9.1880     0.5110 H     1 <1>   0.0800 
 39 H       -8.1910    -8.7490     2.0760 H     1 <1>   0.0800 
 40 H      -11.0420    -7.8260    -0.7720 H     1 <1>   0.0800 
 41 H      -10.2520    -9.3930     1.3630 H     1 <1>   0.0800 
 42 H      -11.7770    -7.4780     1.3270 H     1 <1>   0.4000 
 43 H       -9.2770    -9.6810    -1.4900 H     1 <1>   0.0800 
 44 H      -10.6270   -10.4730    -0.7270 H     1 <1>   0.0800 
 45 H       -7.4320   -11.8220    -1.8210 H     1 <1>   0.1500 
 46 H       -5.3290   -13.3480    -0.4460 H     1 <1>   0.0800 
 47 H       -6.5460   -14.5570    -0.8020 H     1 <1>   0.0800 
 48 H       -5.9870   -14.3350     0.8380 H     1 <1>   0.0800 
@<TRIPOS>BOND
  1   1   2  1   
  2   2   3  ar  
  3   2   4  ar  
  4   3   5  ar  
  5   3  25  1   
  6   4   6  ar  
  7   4  26  1   
  8   5   7  ar  
  9   5  27  1   
 10   6   7  ar  
 11   6  28  1   
 12   7   8  1   
 13   8   9  1   
 14   9  10  1   
 15   9  29  1   
 16   9  30  1   
 17  10  11  1   
 18  10  31  1   
 19  10  32  1   
 20  11  12  1   
 21  11  33  1   
 22  11  34  1   
 23  12  13  1   
 24  12  14  1   
 25  12  35  1   
 26  13  15  1   
 27  13  36  1   
 28  13  37  1   
 29  14  16  1   
 30  14  38  1   
 31  14  39  1   
 32  15  16  1   
 33  15  17  1   
 34  15  40  1   
 35  16  18  1   
 36  16  41  1   
 37  17  42  1   
 38  18  19  1   
 39  18  43  1   
 40  18  44  1   
 41  19  20  1   
 42  19  21  2   
 43  20  22  1   
 44  21  23  1   
 45  21  45  1   
 46  22  23  2   
 47  23  24  1   
 48  24  46  1   
 49  24  47  1   
 50  24  48  1   
@<TRIPOS>SUBSTRUCTURE
  1 ****  11 GROUP 4 **** **** 0

# MOE 2024.06 (io_trps.svl 2023.06)
