@<TRIPOS>MOLECULE
NONAME
37 38 1 0 0 
SMALL
USER_CHARGES


@<TRIPOS>ATOM
  1 S       -0.1190    -0.1670    -1.9460 S.3   1 <1>  -0.0800 
  2 C       -1.4810     0.3860    -0.9810 C.2   1 <1>  -0.1400 
  3 C        0.9870     0.8670    -1.0640 C.2   1 <1>  -0.1100 
  4 C       -1.0750     1.2920    -0.0670 C.2   1 <1>  -0.1810 
  5 C       -2.8370    -0.2130    -1.3210 C.3   1 <1>   0.2900 
  6 C        0.3310     1.5630    -0.1180 C.2   1 <1>  -0.1500 
  7 C       -1.9350     2.0070     0.9580 C.3   1 <1>  -0.0590 
  8 N       -2.9140    -1.6430    -0.9670 N.3   1 <1>  -0.8100 
  9 C       -4.1800    -2.2370    -1.4700 C.3   1 <1>   0.2900 
 10 C       -2.7150    -1.8630     0.4760 C.3   1 <1>   0.0300 
 11 C       -4.2500    -3.7630    -1.4210 C.2   1 <1>   0.2980 
 12 O       -4.3970    -4.3870    -0.2950 O.3   1 <1>  -0.2800 
 13 N       -4.2220    -4.5680    -2.4160 N.2   1 <1>  -0.3380 
 14 C       -4.4420    -5.6350    -0.6350 C.2   1 <1>   0.2980 
 15 N       -4.3440    -5.7920    -1.9010 N.2   1 <1>  -0.3380 
 16 C       -4.5950    -6.7010     0.4500 C.3   1 <1>   0.1000 
 17 C       -4.3590    -8.1210    -0.0890 C.3   1 <1>  -0.2400 
 18 C       -5.9810    -6.6160     1.1030 C.3   1 <1>  -0.2400 
 19 H        2.0220     0.8410    -1.3510 H     1 <1>   0.1500 
 20 H       -2.9940    -0.0980    -2.3800 H     1 <1>   0.0800 
 21 H       -3.6120     0.3270    -0.8080 H     1 <1>   0.0800 
 22 H        0.7850     2.2660     0.5570 H     1 <1>   0.1500 
 23 H       -2.9560     1.6810     0.9020 H     1 <1>   0.0800 
 24 H       -1.9010     3.0680     0.7860 H     1 <1>   0.0800 
 25 H       -1.5650     1.8040     1.9470 H     1 <1>   0.0800 
 26 H       -4.3050    -1.9550    -2.5010 H     1 <1>   0.0800 
 27 H       -5.0110    -1.8380    -0.9170 H     1 <1>   0.0800 
 28 H       -1.7820    -1.4300     0.7940 H     1 <1>   0.0800 
 29 H       -2.6640    -2.9150     0.6890 H     1 <1>   0.0800 
 30 H       -3.5180    -1.4230     1.0420 H     1 <1>   0.0800 
 31 H       -3.8500    -6.5030     1.2010 H     1 <1>   0.0800 
 32 H       -5.0890    -8.3630    -0.8410 H     1 <1>   0.0800 
 33 H       -4.4270    -8.8430     0.7060 H     1 <1>   0.0800 
 34 H       -3.3810    -8.1890    -0.5310 H     1 <1>   0.0800 
 35 H       -6.7490    -6.7940     0.3700 H     1 <1>   0.0800 
 36 H       -6.1320    -5.6380     1.5260 H     1 <1>   0.0800 
 37 H       -6.0740    -7.3450     1.8880 H     1 <1>   0.0800 
@<TRIPOS>BOND
  1   1   2  1   
  2   1   3  1   
  3   2   4  2   
  4   2   5  1   
  5   3   6  2   
  6   3  19  1   
  7   4   6  1   
  8   4   7  1   
  9   5   8  1   
 10   5  20  1   
 11   5  21  1   
 12   6  22  1   
 13   7  23  1   
 14   7  24  1   
 15   7  25  1   
 16   8   9  1   
 17   8  10  1   
 18   9  11  1   
 19   9  26  1   
 20   9  27  1   
 21  10  28  1   
 22  10  29  1   
 23  10  30  1   
 24  11  12  1   
 25  11  13  2   
 26  12  14  1   
 27  13  15  1   
 28  14  15  2   
 29  14  16  1   
 30  16  17  1   
 31  16  18  1   
 32  16  31  1   
 33  17  32  1   
 34  17  33  1   
 35  17  34  1   
 36  18  35  1   
 37  18  36  1   
 38  18  37  1   
@<TRIPOS>SUBSTRUCTURE
  1 ****   8 GROUP 4 **** **** 0

# MOE 2024.06 (io_trps.svl 2023.06)
