@<TRIPOS>MOLECULE
NONAME
51 55 1 0 0 
SMALL
USER_CHARGES


@<TRIPOS>ATOM
  1 O       -0.6700    -0.8030     1.3160 O.2   1 <1>  -0.5700 
  2 C       -1.3490    -1.0830     0.3470 C.2   1 <1>   0.5440 
  3 N       -0.9170    -2.0870    -0.4760 N.am  1 <1>  -0.7300 
  4 C       -2.5810    -0.3680     0.0650 C.ar  1 <1>   0.0860 
  5 C        0.3360    -2.8560    -0.2870 C.3   1 <1>   0.1400 
  6 C       -2.7590     0.9450     0.5150 C.ar  1 <1>  -0.1500 
  7 C       -3.6290    -0.9590    -0.6580 C.ar  1 <1>  -0.1500 
  8 C        0.1140    -3.9860     0.7290 C.3   1 <1>  -0.0800 
  9 C       -3.9270     1.6240     0.2350 C.ar  1 <1>  -0.1440 
 10 C       -4.8000    -0.2730    -0.9370 C.ar  1 <1>  -0.1500 
 11 C       -0.8330    -5.0640     0.1810 C.3   1 <1>   0.2000 
 12 C        1.3570    -4.8450     1.0530 C.3   1 <1>  -0.0800 
 13 C       -4.9270     1.0240    -0.4800 C.ar  1 <1>   0.0830 
 14 C       -4.3630     3.0140     0.5910 C.3   1 <1>  -0.0170 
 15 O        0.0630    -5.9050    -0.4440 O.3   1 <1>  -0.5600 
 16 C       -1.3550    -5.9700     1.3050 C.3   1 <1>  -0.1600 
 17 C        0.8830    -6.2300     0.6220 C.3   1 <1>   0.2800 
 18 C        2.6600    -4.6430     0.2640 C.3   1 <1>   0.1400 
 19 O       -5.9880     1.8170    -0.6650 O.3   1 <1>  -0.3630 
 20 C       -5.7640     3.0770    -0.0460 C.3   1 <1>   0.1200 
 21 C       -0.1220    -6.8280     1.6060 C.3   1 <1>  -0.1600 
 22 C        2.1240    -7.0230     0.2120 C.3   1 <1>   0.1400 
 23 N        3.2000    -6.0090     0.0530 N.am  1 <1>  -0.6600 
 24 C        4.5160    -6.3450    -0.1080 C.2   1 <1>   0.5690 
 25 O        4.8750    -7.5000    -0.1120 O.2   1 <1>  -0.5700 
 26 C        5.5850    -5.2620    -0.2840 C.3   1 <1>   0.1810 
 27 O        5.9300    -4.6570     0.9310 O.3   1 <1>  -0.6800 
 28 H       -1.4090    -2.2520    -1.3550 H     1 <1>   0.3700 
 29 H        0.6430    -3.2580    -1.2370 H     1 <1>   0.0800 
 30 H        1.1040    -2.1920     0.0730 H     1 <1>   0.0800 
 31 H       -1.9760     1.4210     1.0810 H     1 <1>   0.1500 
 32 H       -3.5340    -1.9730    -1.0000 H     1 <1>   0.1500 
 33 H       -0.2830    -3.5570     1.6330 H     1 <1>   0.0800 
 34 H       -5.6040    -0.7230    -1.4910 H     1 <1>   0.1500 
 35 H       -1.5900    -4.7160    -0.5020 H     1 <1>   0.0800 
 36 H        1.5800    -4.8340     2.1050 H     1 <1>   0.0800 
 37 H       -3.7100     3.7520     0.1600 H     1 <1>   0.0800 
 38 H       -4.4170     3.1470     1.6560 H     1 <1>   0.0800 
 39 H       -1.6870    -5.4010     2.1560 H     1 <1>   0.0800 
 40 H       -2.1660    -6.5770     0.9410 H     1 <1>   0.0800 
 41 H        3.3510    -4.0260     0.8130 H     1 <1>   0.0800 
 42 H        2.4820    -4.2120    -0.7040 H     1 <1>   0.0800 
 43 H       -5.8220     3.8380    -0.8040 H     1 <1>   0.0800 
 44 H       -6.5300     3.2270     0.6950 H     1 <1>   0.0800 
 45 H       -0.3030    -7.8620     1.3700 H     1 <1>   0.0800 
 46 H        0.2110    -6.7400     2.6250 H     1 <1>   0.0800 
 47 H        1.9580    -7.5580    -0.7060 H     1 <1>   0.0800 
 48 H        2.4050    -7.7110     0.9900 H     1 <1>   0.0800 
 49 H        5.2290    -4.4970    -0.9500 H     1 <1>   0.0800 
 50 H        6.4730    -5.7010    -0.7010 H     1 <1>   0.0800 
 51 H        6.2010    -5.3470     1.5700 H     1 <1>   0.4000 
@<TRIPOS>BOND
  1   1   2  2   
  2   2   3  am  
  3   2   4  1   
  4   3   5  1   
  5   3  28  1   
  6   4   6  ar  
  7   4   7  ar  
  8   5   8  1   
  9   5  29  1   
 10   5  30  1   
 11   6   9  ar  
 12   6  31  1   
 13   7  10  ar  
 14   7  32  1   
 15   8  11  1   
 16   8  12  1   
 17   8  33  1   
 18   9  13  ar  
 19   9  14  1   
 20  10  13  ar  
 21  10  34  1   
 22  11  15  1   
 23  11  16  1   
 24  11  35  1   
 25  12  17  1   
 26  12  18  1   
 27  12  36  1   
 28  13  19  1   
 29  14  20  1   
 30  14  37  1   
 31  14  38  1   
 32  15  17  1   
 33  16  21  1   
 34  16  39  1   
 35  16  40  1   
 36  17  21  1   
 37  17  22  1   
 38  18  23  1   
 39  18  41  1   
 40  18  42  1   
 41  19  20  1   
 42  20  43  1   
 43  20  44  1   
 44  21  45  1   
 45  21  46  1   
 46  22  23  1   
 47  22  47  1   
 48  22  48  1   
 49  23  24  am  
 50  24  25  2   
 51  24  26  1   
 52  26  27  1   
 53  26  49  1   
 54  26  50  1   
 55  27  51  1   
@<TRIPOS>SUBSTRUCTURE
  1 ****   5 GROUP 4 **** **** 0

# MOE 2024.06 (io_trps.svl 2023.06)
