@<TRIPOS>MOLECULE
NONAME
40 42 1 0 0 
SMALL
USER_CHARGES


@<TRIPOS>ATOM
  1 O        3.4700    -0.7720    -1.5750 O.2   1 <1>  -0.5700 
  2 C        2.6730    -1.0270    -0.6880 C.2   1 <1>   0.7160 
  3 N        2.1200    -0.0250     0.0690 N.am  1 <1>  -0.4940 
  4 C        2.2740    -2.3930    -0.3990 C.2   1 <1>   0.1410 
  5 C        2.1530     1.3860    -0.0530 C.2   1 <1>  -0.0880 
  6 N        1.3640    -2.6980     0.5670 N.2   1 <1>  -0.5650 
  7 C        2.7020    -3.5410    -1.0030 C.2   1 <1>  -0.3020 
  8 N        3.2250     2.1740    -0.3600 N.pl3 1 <1>   0.3140 
  9 C        1.1030     2.2220     0.1310 C.2   1 <1>  -0.1810 
 10 C        1.2640    -3.9960     0.5290 C.2   1 <1>   0.3120 
 11 N        2.0730    -4.5720    -0.4280 N.pl3 1 <1>   0.3340 
 12 N        2.8700     3.4850    -0.3920 N.2   1 <1>  -0.7070 
 13 C        4.6290     1.7410    -0.5790 C.3   1 <1>   0.0960 
 14 C        1.6090     3.4950    -0.0960 C.2   1 <1>   0.1390 
 15 C       -0.3340     1.8940     0.4930 C.3   1 <1>  -0.0590 
 16 N        0.4460    -4.7420     1.3440 N.2   1 <1>  -0.5760 
 17 C        2.0840    -5.9440    -0.5970 C.2   1 <1>  -0.1810 
 18 C        5.6600     2.7430    -0.0330 C.3   1 <1>  -0.1600 
 19 C        0.4660    -6.0200     1.1770 C.2   1 <1>   0.3760 
 20 C        1.2770    -6.6780     0.2090 C.2   1 <1>  -0.1360 
 21 C        7.0910     2.2130    -0.2000 C.3   1 <1>  -0.1600 
 22 C        8.1140     3.2130     0.3450 C.3   1 <1>  -0.2400 
 23 H        1.4240    -0.4020     0.7180 H     1 <1>   0.3700 
 24 H        3.4140    -3.6500    -1.8010 H     1 <1>   0.1500 
 25 H        4.7710     1.6000    -1.6350 H     1 <1>   0.0800 
 26 H        4.7680     0.7970    -0.0870 H     1 <1>   0.0800 
 27 H        1.0280     4.4000    -0.0370 H     1 <1>   0.1500 
 28 H       -0.4890     0.8310     0.5180 H     1 <1>   0.0800 
 29 H       -0.9990     2.3200    -0.2360 H     1 <1>   0.0800 
 30 H       -0.5690     2.3010     1.4600 H     1 <1>   0.0800 
 31 H        2.7310    -6.3450    -1.3560 H     1 <1>   0.1500 
 32 H        5.4610     2.9200     1.0100 H     1 <1>   0.0800 
 33 H        5.5620     3.6750    -0.5620 H     1 <1>   0.0800 
 34 H       -0.1610    -6.6360     1.7980 H     1 <1>   0.0600 
 35 H        1.2200    -7.7500     0.1480 H     1 <1>   0.1500 
 36 H        7.2910     2.0360    -1.2440 H     1 <1>   0.0800 
 37 H        7.1960     1.2780     0.3240 H     1 <1>   0.0800 
 38 H        8.0390     4.1500    -0.1800 H     1 <1>   0.0800 
 39 H        9.1100     2.8280     0.2180 H     1 <1>   0.0800 
 40 H        7.9460     3.3900     1.3930 H     1 <1>   0.0800 
@<TRIPOS>BOND
  1   1   2  2   
  2   2   3  am  
  3   2   4  1   
  4   3   5  1   
  5   3  23  1   
  6   4   6  1   
  7   4   7  2   
  8   5   8  1   
  9   5   9  2   
 10   6  10  2   
 11   7  11  1   
 12   7  24  1   
 13   8  12  1   
 14   8  13  1   
 15   9  14  1   
 16   9  15  1   
 17  10  11  1   
 18  10  16  1   
 19  11  17  1   
 20  12  14  2   
 21  13  18  1   
 22  13  25  1   
 23  13  26  1   
 24  14  27  1   
 25  15  28  1   
 26  15  29  1   
 27  15  30  1   
 28  16  19  2   
 29  17  20  2   
 30  17  31  1   
 31  18  21  1   
 32  18  32  1   
 33  18  33  1   
 34  19  20  1   
 35  19  34  1   
 36  20  35  1   
 37  21  22  1   
 38  21  36  1   
 39  21  37  1   
 40  22  38  1   
 41  22  39  1   
 42  22  40  1   
@<TRIPOS>SUBSTRUCTURE
  1 ****   2 GROUP 4 **** **** 0

# MOE 2024.06 (io_trps.svl 2023.06)
