@<TRIPOS>MOLECULE
NONAME
53 56 1 0 0 
SMALL
USER_CHARGES


@<TRIPOS>ATOM
  1 O       -0.3910     2.5560     3.2120 O.2   1 <1>  -0.5700 
  2 C       -0.0130     3.0240     2.1550 C.2   1 <1>   0.5440 
  3 N       -0.9540     3.4490     1.2390 N.am  1 <1>  -0.6600 
  4 C        1.4120     3.1260     1.9020 C.ar  1 <1>   0.0860 
  5 C       -2.3860     3.0360     1.3420 C.3   1 <1>   0.1400 
  6 C       -0.6870     4.4250     0.1480 C.3   1 <1>   0.1400 
  7 C        1.9870     2.6890     0.7260 C.ar  1 <1>  -0.1500 
  8 C        2.2660     3.6710     2.8790 C.ar  1 <1>  -0.1500 
  9 C       -2.8890     2.4110     0.0180 C.3   1 <1>   0.0000 
 10 C       -1.1400     3.8380    -1.1910 C.3   1 <1>  -0.1600 
 11 C        3.3590     2.7980     0.4720 C.ar  1 <1>   0.3100 
 12 C        3.6140     3.7850     2.6640 C.ar  1 <1>  -0.1500 
 13 C       -4.3830     2.0550     0.1760 C.3   1 <1>   0.2000 
 14 C       -2.6110     3.3940    -1.1460 C.3   1 <1>  -0.1600 
 15 C       -2.2360     1.0360    -0.2120 C.3   1 <1>  -0.1600 
 16 N        3.8460     2.3670    -0.7190 N.ar  1 <1>  -0.6200 
 17 C        4.1980     3.3600     1.4620 C.ar  1 <1>   0.3100 
 18 O       -4.9620     1.8770    -1.0850 O.3   1 <1>  -0.5600 
 19 C       -4.3950     0.7090     0.9110 C.3   1 <1>  -0.1600 
 20 C       -3.0460     0.0360     0.6190 C.3   1 <1>  -0.1600 
 21 C        5.1260     2.5100    -0.8620 C.ar  1 <1>   0.1670 
 22 N        5.5340     3.4990     1.2820 N.ar  1 <1>  -0.6200 
 23 C       -6.3430     2.0540    -1.1320 C.3   1 <1>   0.0400 
 24 C        5.9690     3.0740     0.1370 C.ar  1 <1>   0.1670 
 25 C        5.7070     2.0330    -2.1820 C.3   1 <1>  -0.0970 
 26 C        7.4630     3.2110    -0.1010 C.3   1 <1>  -0.0970 
 27 H       -2.5110     2.3330     2.1480 H     1 <1>   0.0800 
 28 H       -2.9730     3.9060     1.5770 H     1 <1>   0.0800 
 29 H       -1.2400     5.3260     0.3500 H     1 <1>   0.0800 
 30 H        0.3560     4.6850     0.1040 H     1 <1>   0.0800 
 31 H        1.3760     2.2440    -0.0370 H     1 <1>   0.1500 
 32 H        1.8290     3.9960     3.8090 H     1 <1>   0.1500 
 33 H       -1.0140     4.5780    -1.9620 H     1 <1>   0.0800 
 34 H       -0.5130     3.0010    -1.4420 H     1 <1>   0.0800 
 35 H        4.2640     4.2030     3.4130 H     1 <1>   0.1500 
 36 H       -4.9200     2.8240     0.7060 H     1 <1>   0.0800 
 37 H       -2.8720     2.9380    -2.0860 H     1 <1>   0.0800 
 38 H       -3.2370     4.2620    -1.0260 H     1 <1>   0.0800 
 39 H       -2.3320     0.7700    -1.2500 H     1 <1>   0.0800 
 40 H       -1.1930     1.0200     0.0510 H     1 <1>   0.0800 
 41 H       -4.4740     0.8860     1.9690 H     1 <1>   0.0800 
 42 H       -5.2190     0.0890     0.6060 H     1 <1>   0.0800 
 43 H       -2.5350    -0.1770     1.5430 H     1 <1>   0.0800 
 44 H       -3.1810    -0.8820     0.0740 H     1 <1>   0.0800 
 45 H       -6.6690     1.8610    -2.1390 H     1 <1>   0.0800 
 46 H       -6.5780     3.0690    -0.8640 H     1 <1>   0.0800 
 47 H       -6.8190     1.3640    -0.4590 H     1 <1>   0.0800 
 48 H        6.4270     1.2550    -2.0100 H     1 <1>   0.0800 
 49 H        6.1760     2.8510    -2.6970 H     1 <1>   0.0800 
 50 H        4.9300     1.6390    -2.8130 H     1 <1>   0.0800 
 51 H        7.6480     3.8400    -0.9520 H     1 <1>   0.0800 
 52 H        7.9020     2.2440    -0.2660 H     1 <1>   0.0800 
 53 H        7.9390     3.6540     0.7560 H     1 <1>   0.0800 
@<TRIPOS>BOND
  1   1   2  2   
  2   2   3  am  
  3   2   4  1   
  4   3   5  1   
  5   3   6  1   
  6   4   7  ar  
  7   4   8  ar  
  8   5   9  1   
  9   5  27  1   
 10   5  28  1   
 11   6  10  1   
 12   6  29  1   
 13   6  30  1   
 14   7  11  ar  
 15   7  31  1   
 16   8  12  ar  
 17   8  32  1   
 18   9  13  1   
 19   9  14  1   
 20   9  15  1   
 21  10  14  1   
 22  10  33  1   
 23  10  34  1   
 24  11  16  ar  
 25  11  17  ar  
 26  12  17  ar  
 27  12  35  1   
 28  13  18  1   
 29  13  19  1   
 30  13  36  1   
 31  14  37  1   
 32  14  38  1   
 33  15  20  1   
 34  15  39  1   
 35  15  40  1   
 36  16  21  ar  
 37  17  22  ar  
 38  18  23  1   
 39  19  20  1   
 40  19  41  1   
 41  19  42  1   
 42  20  43  1   
 43  20  44  1   
 44  21  24  ar  
 45  21  25  1   
 46  22  24  ar  
 47  23  45  1   
 48  23  46  1   
 49  23  47  1   
 50  24  26  1   
 51  25  48  1   
 52  25  49  1   
 53  25  50  1   
 54  26  51  1   
 55  26  52  1   
 56  26  53  1   
@<TRIPOS>SUBSTRUCTURE
  1 ****   7 GROUP 4 **** **** 0

# MOE 2024.06 (io_trps.svl 2023.06)
