@<TRIPOS>MOLECULE
NONAME
50 52 1 0 0 
SMALL
USER_CHARGES


@<TRIPOS>ATOM
  1 S       -1.3560    -0.7390     1.4270 S.3   1 <1>  -0.0800 
  2 C       -2.8940    -0.4550     0.6310 C.2   1 <1>  -0.1400 
  3 C       -0.5060     0.2860     0.2870 C.2   1 <1>  -0.1400 
  4 C       -2.7220     0.3700    -0.4230 C.2   1 <1>  -0.1500 
  5 C       -4.0660    -1.1760     1.2750 C.3   1 <1>   0.5230 
  6 C       -1.3670     0.7890    -0.6160 C.2   1 <1>  -0.1500 
  7 C        0.9920     0.4320     0.4960 C.3   1 <1>   0.0200 
  8 N       -5.3160    -1.0650     0.4760 N.4   1 <1>  -0.9590 
  9 C        1.6380     1.3440    -0.5510 C.3   1 <1>  -0.2400 
 10 C       -5.1970    -1.7400    -0.8580 C.3   1 <1>   0.3430 
 11 C       -5.8710     0.3130     0.4120 C.3   1 <1>   0.3430 
 12 C       -6.5800    -2.0600    -1.4690 C.3   1 <1>   0.1400 
 13 C       -7.3790     0.2840     0.6790 C.3   1 <1>  -0.1600 
 14 N       -7.6840    -1.8950    -0.4680 N.am  1 <1>  -0.6600 
 15 C       -8.2070    -0.5060    -0.3440 C.3   1 <1>   0.1400 
 16 C       -8.0660    -2.8920     0.4200 C.2   1 <1>   0.5440 
 17 O       -8.9100    -2.6090     1.2500 O.2   1 <1>  -0.5700 
 18 C       -7.4350    -4.2150     0.4400 C.ar  1 <1>   0.3960 
 19 N       -6.1040    -4.2650     0.6600 N.ar  1 <1>  -0.6200 
 20 C       -8.2010    -5.3730     0.2360 C.ar  1 <1>  -0.1430 
 21 C       -5.5550    -5.4660     0.6960 C.ar  1 <1>   0.1600 
 22 C       -7.5950    -6.6110     0.2710 C.ar  1 <1>  -0.1500 
 23 C       -9.7040    -5.3050    -0.0210 C.3   1 <1>  -0.0970 
 24 C       -6.2410    -6.6500     0.5090 C.ar  1 <1>  -0.1500 
 25 H       -3.4770     0.7270    -1.0980 H     1 <1>   0.1500 
 26 H       -4.2280    -0.7720     2.2610 H     1 <1>   0.0800 
 27 H       -3.8110    -2.2180     1.3880 H     1 <1>   0.0800 
 28 H       -1.1040     1.4490    -1.4250 H     1 <1>   0.1500 
 29 H        1.4490    -0.5410     0.4490 H     1 <1>   0.0800 
 30 H        1.1710     0.8360     1.4770 H     1 <1>   0.0800 
 31 H       -6.0340    -1.6280     0.9630 H     1 <1>   0.4500 
 32 H        1.4890     0.9440    -1.5380 H     1 <1>   0.0800 
 33 H        2.6950     1.4220    -0.3690 H     1 <1>   0.0800 
 34 H        1.2090     2.3290    -0.5030 H     1 <1>   0.0800 
 35 H       -4.6720    -2.6730    -0.7330 H     1 <1>   0.0800 
 36 H       -4.6230    -1.1380    -1.5420 H     1 <1>   0.0800 
 37 H       -5.6730     0.7500    -0.5530 H     1 <1>   0.0800 
 38 H       -5.3990     0.9290     1.1610 H     1 <1>   0.0800 
 39 H       -6.5740    -3.0680    -1.8490 H     1 <1>   0.0800 
 40 H       -6.7560    -1.4130    -2.3110 H     1 <1>   0.0800 
 41 H       -7.7390     1.2980     0.6810 H     1 <1>   0.0800 
 42 H       -7.5670    -0.1080     1.6630 H     1 <1>   0.0800 
 43 H       -8.1840    -0.0180    -1.3040 H     1 <1>   0.0800 
 44 H       -9.2380    -0.5350    -0.0260 H     1 <1>   0.0800 
 45 H       -4.4960    -5.5230     0.8850 H     1 <1>   0.1500 
 46 H       -8.1520    -7.5220     0.1230 H     1 <1>   0.1500 
 47 H       -9.9210    -4.6170    -0.8190 H     1 <1>   0.0800 
 48 H      -10.2140    -4.9740     0.8670 H     1 <1>   0.0800 
 49 H      -10.0960    -6.2690    -0.2940 H     1 <1>   0.0800 
 50 H       -5.7220    -7.5920     0.5520 H     1 <1>   0.1500 
@<TRIPOS>BOND
  1   1   2  1   
  2   1   3  1   
  3   2   4  2   
  4   2   5  1   
  5   3   6  2   
  6   3   7  1   
  7   4   6  1   
  8   4  25  1   
  9   5   8  1   
 10   5  26  1   
 11   5  27  1   
 12   6  28  1   
 13   7   9  1   
 14   7  29  1   
 15   7  30  1   
 16   8  10  1   
 17   8  11  1   
 18   8  31  1   
 19   9  32  1   
 20   9  33  1   
 21   9  34  1   
 22  10  12  1   
 23  10  35  1   
 24  10  36  1   
 25  11  13  1   
 26  11  37  1   
 27  11  38  1   
 28  12  14  1   
 29  12  39  1   
 30  12  40  1   
 31  13  15  1   
 32  13  41  1   
 33  13  42  1   
 34  14  15  1   
 35  14  16  am  
 36  15  43  1   
 37  15  44  1   
 38  16  17  2   
 39  16  18  1   
 40  18  19  ar  
 41  18  20  ar  
 42  19  21  ar  
 43  20  22  ar  
 44  20  23  1   
 45  21  24  ar  
 46  21  45  1   
 47  22  24  ar  
 48  22  46  1   
 49  23  47  1   
 50  23  48  1   
 51  23  49  1   
 52  24  50  1   
@<TRIPOS>SUBSTRUCTURE
  1 ****   8 GROUP 4 **** **** 0

# MOE 2024.06 (io_trps.svl 2023.06)
