@<TRIPOS>MOLECULE
NONAME
52 54 1 0 0 
SMALL
USER_CHARGES


@<TRIPOS>ATOM
  1 O        4.8140    -0.2910     1.2470 O.2   1 <1>  -0.5700 
  2 C        3.6820    -0.5700     0.8950 C.2   1 <1>   0.5440 
  3 N        3.1200     0.2640    -0.0390 N.am  1 <1>  -0.6600 
  4 C        3.0470    -1.8020     1.3270 C.ar  1 <1>   0.0860 
  5 C        3.1720    -0.1300    -1.4800 C.3   1 <1>   0.1400 
  6 C        2.9520     1.7230     0.2320 C.3   1 <1>   0.1400 
  7 C        1.6750    -1.9740     1.5330 C.ar  1 <1>  -0.1440 
  8 C        3.8610    -2.9160     1.5420 C.ar  1 <1>   0.1600 
  9 C        4.6230    -0.1240    -2.0160 C.3   1 <1>   0.3430 
 10 C        4.2310     2.5400    -0.0120 C.3   1 <1>  -0.1600 
 11 C        1.2440    -3.2340     1.8970 C.ar  1 <1>  -0.1500 
 12 C        0.6510    -0.8530     1.3970 C.3   1 <1>  -0.0960 
 13 N        3.4590    -4.1280     1.8830 N.ar  1 <1>  -0.6200 
 14 N        5.4820     0.8580    -1.2880 N.4   1 <1>  -0.9590 
 15 C        4.9600     2.2560    -1.3260 C.3   1 <1>   0.3430 
 16 C        2.1560    -4.2610     2.0530 C.ar  1 <1>   0.1600 
 17 C        6.9370     0.7310    -1.5870 C.3   1 <1>   0.4860 
 18 C        7.6870     1.7590    -0.7670 C.ar  1 <1>  -0.1440 
 19 C        8.2800     2.8410    -1.4000 C.ar  1 <1>  -0.1500 
 20 C        7.7210     1.6690     0.6170 C.ar  1 <1>  -0.1500 
 21 C        8.8490     3.8520    -0.6500 C.ar  1 <1>  -0.1500 
 22 C        8.2920     2.6840     1.3620 C.ar  1 <1>  -0.1500 
 23 C        8.8400     3.7880     0.7320 C.ar  1 <1>  -0.1440 
 24 C        9.3980     4.9580     1.5350 C.3   1 <1>  -0.1230 
 25 C        8.6280     6.2380     1.2800 C.2   1 <1>   0.9060 
 26 O        9.0440     7.0170     0.4140 O.co2 1 <1>  -0.9000 
 27 O        7.6100     6.4650     1.9440 O.co2 1 <1>  -0.9000 
 28 H        2.5720     0.5490    -2.0600 H     1 <1>   0.0800 
 29 H        2.7500    -1.1140    -1.6020 H     1 <1>   0.0800 
 30 H        2.6510     1.8540     1.2590 H     1 <1>   0.0800 
 31 H        2.1560     2.1040    -0.3850 H     1 <1>   0.0800 
 32 H        4.9230    -2.7940     1.4190 H     1 <1>   0.1500 
 33 H        4.6180     0.0880    -3.0720 H     1 <1>   0.0800 
 34 H        5.0310    -1.1130    -1.8820 H     1 <1>   0.0800 
 35 H        4.9110     2.3980     0.8100 H     1 <1>   0.0800 
 36 H        3.9670     3.5820     0.0040 H     1 <1>   0.0800 
 37 H        0.2010    -3.4340     2.0670 H     1 <1>   0.1500 
 38 H        0.9890     0.0240     1.9180 H     1 <1>   0.0800 
 39 H       -0.2940    -1.1440     1.8200 H     1 <1>   0.0800 
 40 H        0.4980    -0.6130     0.3610 H     1 <1>   0.0800 
 41 H        5.3860     0.6000    -0.2810 H     1 <1>   0.4500 
 42 H        5.7680     2.9630    -1.4240 H     1 <1>   0.0800 
 43 H        4.2950     2.3920    -2.1620 H     1 <1>   0.0800 
 44 H        1.7980    -5.2380     2.3350 H     1 <1>   0.1500 
 45 H        7.1180     0.9040    -2.6340 H     1 <1>   0.0800 
 46 H        7.2860    -0.2560    -1.3310 H     1 <1>   0.0800 
 47 H        8.2890     2.9320    -2.4720 H     1 <1>   0.1500 
 48 H        7.2850     0.8300     1.1340 H     1 <1>   0.1500 
 49 H        9.2840     4.7140    -1.1310 H     1 <1>   0.1500 
 50 H        8.2930     2.6290     2.4370 H     1 <1>   0.1500 
 51 H       10.4230     5.1270     1.2670 H     1 <1>   0.0800 
 52 H        9.3530     4.7550     2.5860 H     1 <1>   0.0800 
@<TRIPOS>BOND
  1   1   2  2   
  2   2   3  am  
  3   2   4  1   
  4   3   5  1   
  5   3   6  1   
  6   4   7  ar  
  7   4   8  ar  
  8   5   9  1   
  9   5  28  1   
 10   5  29  1   
 11   6  10  1   
 12   6  30  1   
 13   6  31  1   
 14   7  11  ar  
 15   7  12  1   
 16   8  13  ar  
 17   8  32  1   
 18   9  14  1   
 19   9  33  1   
 20   9  34  1   
 21  10  15  1   
 22  10  35  1   
 23  10  36  1   
 24  11  16  ar  
 25  11  37  1   
 26  12  38  1   
 27  12  39  1   
 28  12  40  1   
 29  13  16  ar  
 30  14  15  1   
 31  14  17  1   
 32  14  41  1   
 33  15  42  1   
 34  15  43  1   
 35  16  44  1   
 36  17  18  1   
 37  17  45  1   
 38  17  46  1   
 39  18  19  ar  
 40  18  20  ar  
 41  19  21  ar  
 42  19  47  1   
 43  20  22  ar  
 44  20  48  1   
 45  21  23  ar  
 46  21  49  1   
 47  22  23  ar  
 48  22  50  1   
 49  23  24  1   
 50  24  25  1   
 51  24  51  1   
 52  24  52  1   
 53  25  26  ar  
 54  25  27  ar  
@<TRIPOS>SUBSTRUCTURE
  1 ****   1 GROUP 4 **** **** 0

# MOE 2024.06 (io_trps.svl 2023.06)
