@<TRIPOS>MOLECULE
NONAME
41 42 1 0 0 
SMALL
USER_CHARGES


@<TRIPOS>ATOM
  1 S        0.4140    -0.2130    -1.1440 S.o2  1 <1>   1.3330 
  2 O        1.7270    -0.8190    -1.1670 O.2   1 <1>  -0.6500 
  3 O       -0.3590    -0.1430    -2.3640 O.2   1 <1>  -0.6500 
  4 N       -0.5320    -1.0620    -0.0150 N.am  1 <1>  -0.8490 
  5 C        0.5330     1.4360    -0.4310 C.3   1 <1>  -0.0550 
  6 C       -1.9750    -0.8550    -0.1870 C.3   1 <1>   0.1160 
  7 C       -0.2370    -2.4990    -0.0130 C.3   1 <1>   0.1160 
  8 C        1.5710     1.6590     0.6930 C.3   1 <1>  -0.0800 
  9 C        3.0210     1.5530     0.2120 C.3   1 <1>   0.2200 
 10 C        1.5110     0.7100     1.8960 C.3   1 <1>   0.1200 
 11 N        3.6970     2.8550     0.4020 N.am  1 <1>  -0.7300 
 12 C        3.6190     0.5010     1.1410 C.3   1 <1>   0.1200 
 13 O        2.8330     0.5420     2.2890 O.3   1 <1>  -0.5600 
 14 C        3.6060     3.9100    -0.4690 C.2   1 <1>   0.5440 
 15 O        2.9000     3.7530    -1.4550 O.2   1 <1>  -0.5700 
 16 C        4.2840     5.1530    -0.2100 C.ar  1 <1>   0.0860 
 17 C        3.9390     6.3260    -0.9010 C.ar  1 <1>  -0.1500 
 18 C        5.3140     5.2610     0.7430 C.ar  1 <1>  -0.1500 
 19 C        4.5710     7.5120    -0.6310 C.ar  1 <1>   0.1900 
 20 C        5.9440     6.4540     1.0110 C.ar  1 <1>  -0.1500 
 21 F        4.1990     8.5780    -1.3080 F     1 <1>  -0.1900 
 22 C        5.5910     7.6260     0.3360 C.ar  1 <1>  -0.1710 
 23 O        6.1860     8.6940     0.6170 O.3   1 <1>  -0.8290 
 24 H        0.7770     2.1200    -1.2220 H     1 <1>   0.0800 
 25 H       -0.4320     1.7230    -0.0660 H     1 <1>   0.0800 
 26 H       -2.5150    -1.3350     0.6100 H     1 <1>   0.0800 
 27 H       -2.3040    -1.2630    -1.1290 H     1 <1>   0.0800 
 28 H       -2.2060     0.1960    -0.1690 H     1 <1>   0.0800 
 29 H       -0.8460    -3.0050     0.7160 H     1 <1>   0.0800 
 30 H        0.7960    -2.6640     0.2420 H     1 <1>   0.0800 
 31 H       -0.4250    -2.9200    -0.9870 H     1 <1>   0.0800 
 32 H        1.4010     2.6510     1.0730 H     1 <1>   0.0800 
 33 H        3.1110     1.2500    -0.8180 H     1 <1>   0.0800 
 34 H        1.1310    -0.2630     1.6470 H     1 <1>   0.0800 
 35 H        0.9500     1.1200     2.7180 H     1 <1>   0.0800 
 36 H        4.0210     3.0340     1.3540 H     1 <1>   0.3700 
 37 H        4.6460     0.6970     1.3940 H     1 <1>   0.0800 
 38 H        3.5270    -0.4820     0.7110 H     1 <1>   0.0800 
 39 H        3.1690     6.2960    -1.6480 H     1 <1>   0.1500 
 40 H        5.6310     4.3900     1.2810 H     1 <1>   0.1500 
 41 H        6.7280     6.5360     1.7410 H     1 <1>   0.1500 
@<TRIPOS>BOND
  1   1   2  2   
  2   1   3  2   
  3   1   4  am  
  4   1   5  1   
  5   4   6  1   
  6   4   7  1   
  7   5   8  1   
  8   5  24  1   
  9   5  25  1   
 10   6  26  1   
 11   6  27  1   
 12   6  28  1   
 13   7  29  1   
 14   7  30  1   
 15   7  31  1   
 16   8   9  1   
 17   8  10  1   
 18   8  32  1   
 19   9  11  1   
 20   9  12  1   
 21   9  33  1   
 22  10  13  1   
 23  10  34  1   
 24  10  35  1   
 25  11  14  am  
 26  11  36  1   
 27  12  13  1   
 28  12  37  1   
 29  12  38  1   
 30  14  15  2   
 31  14  16  1   
 32  16  17  ar  
 33  16  18  ar  
 34  17  19  ar  
 35  17  39  1   
 36  18  20  ar  
 37  18  40  1   
 38  19  21  1   
 39  19  22  ar  
 40  20  22  ar  
 41  20  41  1   
 42  22  23  1   
@<TRIPOS>SUBSTRUCTURE
  1 ****  11 GROUP 4 **** **** 0

# MOE 2024.06 (io_trps.svl 2023.06)
