@<TRIPOS>MOLECULE
NONAME
52 54 1 0 0 
SMALL
USER_CHARGES


@<TRIPOS>ATOM
  1 F       -1.8020    -4.4740    -0.7220 F     1 <1>  -0.1900 
  2 C       -2.8580    -3.7060    -0.7260 C.ar  1 <1>   0.1900 
  3 C       -3.7560    -3.8140    -1.7700 C.ar  1 <1>  -0.1500 
  4 C       -3.0390    -2.8160     0.3140 C.ar  1 <1>  -0.1500 
  5 C       -4.8780    -3.0020    -1.7660 C.ar  1 <1>  -0.1500 
  6 C       -4.1640    -2.0090     0.3060 C.ar  1 <1>  -0.1500 
  7 C       -5.0910    -2.1010    -0.7280 C.ar  1 <1>  -0.1430 
  8 C       -6.3390    -1.2250    -0.7410 C.3   1 <1>   0.2840 
  9 N       -6.9650    -1.0870     0.6070 N.am  1 <1>  -0.6600 
 10 C       -7.4220    -2.1370     1.3780 C.2   1 <1>   0.5690 
 11 C       -7.1140     0.3240     1.0810 C.3   1 <1>   0.1400 
 12 O       -7.9940    -1.9320     2.4270 O.2   1 <1>  -0.5700 
 13 C       -7.2680    -3.6040     0.9390 C.3   1 <1>   0.2610 
 14 C       -8.1890     1.0980     0.2910 C.3   1 <1>  -0.0800 
 15 O       -6.1500    -4.2130     1.5600 O.3   1 <1>  -0.5600 
 16 C       -8.5530    -4.4070     1.2480 C.3   1 <1>   0.3640 
 17 C       -8.3100     2.5240     0.8430 C.3   1 <1>  -0.2400 
 18 C       -9.5610     0.4110     0.3450 C.3   1 <1>  -0.2400 
 19 C       -5.8540    -5.5080     1.0840 C.3   1 <1>   0.1810 
 20 N       -8.3230    -5.8630     1.0710 N.am  1 <1>  -0.7300 
 21 C       -9.6930    -3.9630     0.3390 C.ar  1 <1>  -0.1430 
 22 C       -7.0890    -6.4160     1.0140 C.2   1 <1>   0.5690 
 23 C      -10.6360    -3.0620     0.8150 C.ar  1 <1>   0.1600 
 24 C       -9.8130    -4.4210    -0.9610 C.ar  1 <1>  -0.1500 
 25 O       -6.9600    -7.6060     0.8830 O.2   1 <1>  -0.5700 
 26 N      -11.6610    -2.5990     0.1170 N.ar  1 <1>  -0.6200 
 27 C      -10.8760    -3.9480    -1.6990 C.ar  1 <1>  -0.1500 
 28 C      -11.7590    -3.0530    -1.1210 C.ar  1 <1>   0.1600 
 29 H       -3.5750    -4.5170    -2.5630 H     1 <1>   0.1500 
 30 H       -2.3190    -2.7600     1.1100 H     1 <1>   0.1500 
 31 H       -5.5810    -3.0780    -2.5780 H     1 <1>   0.1500 
 32 H       -4.3210    -1.3160     1.1150 H     1 <1>   0.1500 
 33 H       -7.0710    -1.6310    -1.4180 H     1 <1>   0.0800 
 34 H       -6.0600    -0.2550    -1.1140 H     1 <1>   0.0800 
 35 H       -7.3730     0.3370     2.1260 H     1 <1>   0.0800 
 36 H       -6.1650     0.8250     0.9880 H     1 <1>   0.0800 
 37 H       -7.1090    -3.6390    -0.1200 H     1 <1>   0.0800 
 38 H       -7.8830     1.1740    -0.7380 H     1 <1>   0.0800 
 39 H       -8.8310    -4.2410     2.2760 H     1 <1>   0.0800 
 40 H       -8.6320     2.5050     1.8700 H     1 <1>   0.0800 
 41 H       -9.0280     3.0860     0.2720 H     1 <1>   0.0800 
 42 H       -7.3640     3.0320     0.7880 H     1 <1>   0.0800 
 43 H       -9.8680     0.2570     1.3650 H     1 <1>   0.0800 
 44 H       -9.5260    -0.5450    -0.1450 H     1 <1>   0.0800 
 45 H      -10.3060     1.0080    -0.1510 H     1 <1>   0.0800 
 46 H       -5.4180    -5.4170     0.1070 H     1 <1>   0.0800 
 47 H       -5.1280    -5.9420     1.7470 H     1 <1>   0.0800 
 48 H       -9.1400    -6.4750     1.0660 H     1 <1>   0.3700 
 49 H      -10.5430    -2.6930     1.8250 H     1 <1>   0.1500 
 50 H       -9.1140    -5.1210    -1.3880 H     1 <1>   0.1500 
 51 H      -11.0260    -4.2700    -2.7140 H     1 <1>   0.1500 
 52 H      -12.5870    -2.6910    -1.7060 H     1 <1>   0.1500 
@<TRIPOS>BOND
  1   1   2  1   
  2   2   3  ar  
  3   2   4  ar  
  4   3   5  ar  
  5   3  29  1   
  6   4   6  ar  
  7   4  30  1   
  8   5   7  ar  
  9   5  31  1   
 10   6   7  ar  
 11   6  32  1   
 12   7   8  1   
 13   8   9  1   
 14   8  33  1   
 15   8  34  1   
 16   9  10  am  
 17   9  11  1   
 18  10  12  2   
 19  10  13  1   
 20  11  14  1   
 21  11  35  1   
 22  11  36  1   
 23  13  15  1   
 24  13  16  1   
 25  13  37  1   
 26  14  17  1   
 27  14  18  1   
 28  14  38  1   
 29  15  19  1   
 30  16  20  1   
 31  16  21  1   
 32  16  39  1   
 33  17  40  1   
 34  17  41  1   
 35  17  42  1   
 36  18  43  1   
 37  18  44  1   
 38  18  45  1   
 39  19  22  1   
 40  19  46  1   
 41  19  47  1   
 42  20  22  am  
 43  20  48  1   
 44  21  23  ar  
 45  21  24  ar  
 46  22  25  2   
 47  23  26  ar  
 48  23  49  1   
 49  24  27  ar  
 50  24  50  1   
 51  26  28  ar  
 52  27  28  ar  
 53  27  51  1   
 54  28  52  1   
@<TRIPOS>SUBSTRUCTURE
  1 ****  13 GROUP 4 **** **** 0

# MOE 2024.06 (io_trps.svl 2023.06)
