@<TRIPOS>MOLECULE
NONAME
42 44 1 0 0 
SMALL
USER_CHARGES


@<TRIPOS>ATOM
  1 O        0.4640    -0.3000    -0.6280 O.3   1 <1>  -0.5600 
  2 C        0.9640    -1.0900     0.4080 C.3   1 <1>   0.2000 
  3 C        0.3330     1.0590    -0.3290 C.3   1 <1>   0.1200 
  4 C        2.3800    -0.6220     0.7780 C.3   1 <1>  -0.1600 
  5 C        0.9510    -2.5480    -0.0640 C.3   1 <1>  -0.1600 
  6 C        1.7090     1.6550    -0.0100 C.3   1 <1>  -0.1600 
  7 C        2.3940     0.8730     1.1150 C.3   1 <1>  -0.1600 
  8 C       -0.3830    -2.9160    -0.7190 C.3   1 <1>   0.2090 
  9 N       -0.4950    -4.4050    -0.9010 N.pl3 1 <1>  -0.8380 
 10 C       -1.4730    -5.1800    -0.3760 C.ar  1 <1>   0.4610 
 11 C        0.5260    -4.9300    -1.8720 C.3   1 <1>   0.1290 
 12 N       -2.6720    -4.6100    -0.1980 N.ar  1 <1>  -0.1790 
 13 C       -1.3470    -6.5780    -0.0520 C.ar  1 <1>   0.0000 
 14 C       -3.8100    -5.3030     0.1460 C.ar  1 <1>   0.2110 
 15 C       -2.5030    -7.3150     0.2550 C.ar  1 <1>   0.0000 
 16 C       -0.1250    -7.2700     0.0350 C.ar  1 <1>   0.1600 
 17 C       -3.7460    -6.6390     0.3530 C.ar  1 <1>  -0.1500 
 18 C       -2.3490    -8.6810     0.4920 C.ar  1 <1>  -0.1500 
 19 N        0.0200    -8.5470     0.2720 N.ar  1 <1>  -0.6200 
 20 C       -1.0990    -9.2420     0.4820 C.ar  1 <1>   0.1600 
 21 H        0.3060    -0.9760     1.2540 H     1 <1>   0.0800 
 22 H       -0.3370     1.1670     0.5070 H     1 <1>   0.0800 
 23 H       -0.0950     1.5460    -1.1870 H     1 <1>   0.0800 
 24 H        3.0430    -0.8050    -0.0500 H     1 <1>   0.0800 
 25 H        2.7420    -1.1850     1.6200 H     1 <1>   0.0800 
 26 H        1.1310    -3.1830     0.7850 H     1 <1>   0.0800 
 27 H        1.7500    -2.6890    -0.7690 H     1 <1>   0.0800 
 28 H        1.5990     2.6860     0.2750 H     1 <1>   0.0800 
 29 H        2.3140     1.6230    -0.9000 H     1 <1>   0.0800 
 30 H        3.4070     1.2160     1.2420 H     1 <1>   0.0800 
 31 H        1.8660     1.0380     2.0390 H     1 <1>   0.0800 
 32 H       -0.4620    -2.4230    -1.6750 H     1 <1>   0.0800 
 33 H       -1.1710    -2.5450    -0.0880 H     1 <1>   0.0800 
 34 H        0.6110    -4.2660    -2.7160 H     1 <1>   0.0800 
 35 H        0.2430    -5.9000    -2.2460 H     1 <1>   0.0800 
 36 H        1.4910    -5.0050    -1.3990 H     1 <1>   0.0800 
 37 H       -2.7310    -3.6240    -0.4420 H     1 <1>   0.4570 
 38 H       -4.7340    -4.7510     0.2260 H     1 <1>   0.1500 
 39 H        0.7860    -6.7140    -0.0890 H     1 <1>   0.1500 
 40 H       -4.6210    -7.2140     0.6060 H     1 <1>   0.1500 
 41 H       -3.2090    -9.2950     0.6900 H     1 <1>   0.1500 
 42 H       -0.9810   -10.2990     0.6630 H     1 <1>   0.1500 
@<TRIPOS>BOND
  1   1   2  1   
  2   1   3  1   
  3   2   4  1   
  4   2   5  1   
  5   2  21  1   
  6   3   6  1   
  7   3  22  1   
  8   3  23  1   
  9   4   7  1   
 10   4  24  1   
 11   4  25  1   
 12   5   8  1   
 13   5  26  1   
 14   5  27  1   
 15   6   7  1   
 16   6  28  1   
 17   6  29  1   
 18   7  30  1   
 19   7  31  1   
 20   8   9  1   
 21   8  32  1   
 22   8  33  1   
 23   9  10  1   
 24   9  11  1   
 25  10  12  ar  
 26  10  13  ar  
 27  11  34  1   
 28  11  35  1   
 29  11  36  1   
 30  12  14  ar  
 31  12  37  1   
 32  13  15  ar  
 33  13  16  ar  
 34  14  17  ar  
 35  14  38  1   
 36  15  17  ar  
 37  15  18  ar  
 38  16  19  ar  
 39  16  39  1   
 40  17  40  1   
 41  18  20  ar  
 42  18  41  1   
 43  19  20  ar  
 44  20  42  1   
@<TRIPOS>SUBSTRUCTURE
  1 ****   9 GROUP 4 **** **** 0

# MOE 2024.06 (io_trps.svl 2023.06)
