@<TRIPOS>MOLECULE
NONAME
49 51 1 0 0 
SMALL
USER_CHARGES


@<TRIPOS>ATOM
  1 O       -0.2930    -1.5170    -0.8680 O.co2 1 <1>  -0.9000 
  2 C       -1.3330    -0.8940    -0.6350 C.2   1 <1>   0.9060 
  3 O       -1.4240    -0.0090     0.2190 O.co2 1 <1>  -0.9000 
  4 C       -2.6270    -1.3910    -1.2830 C.3   1 <1>   0.2370 
  5 N       -3.2750    -2.5800    -0.5850 N.4   1 <1>  -0.9590 
  6 C       -3.6540    -2.2340     0.8340 C.3   1 <1>   0.4230 
  7 C       -2.4200    -3.8010    -0.7390 C.3   1 <1>   0.3430 
  8 C       -2.5550    -2.4510     1.9080 C.3   1 <1>   0.1200 
  9 C       -4.9420    -3.0230     1.1840 C.3   1 <1>   0.1400 
 10 C       -2.6710    -4.9380     0.2750 C.3   1 <1>  -0.0800 
 11 O       -2.5320    -3.7690     2.3820 O.3   1 <1>  -0.5600 
 12 N       -5.1270    -4.2530     0.3280 N.am  1 <1>  -0.6600 
 13 C       -1.8830    -4.6830     1.5680 C.3   1 <1>   0.1200 
 14 C       -4.1420    -5.3560     0.5400 C.3   1 <1>   0.1400 
 15 C       -5.9610    -4.2160    -0.7600 C.2   1 <1>   0.5690 
 16 O       -6.1380    -3.1610    -1.3250 O.2   1 <1>  -0.5700 
 17 C       -6.6050    -5.4680    -1.3570 C.3   1 <1>   0.1810 
 18 O       -6.8720    -6.4440    -0.3640 O.3   1 <1>  -0.3630 
 19 C       -7.2520    -7.7060    -0.6910 C.ar  1 <1>   0.0830 
 20 C       -7.2600    -8.6590     0.3240 C.ar  1 <1>  -0.1430 
 21 C       -7.6210    -8.0710    -1.9850 C.ar  1 <1>  -0.1500 
 22 C       -7.6230    -9.9650     0.0330 C.ar  1 <1>  -0.1500 
 23 C       -6.8780    -8.2820     1.7490 C.3   1 <1>  -0.0970 
 24 C       -7.9810    -9.3770    -2.2620 C.ar  1 <1>  -0.1500 
 25 C       -7.9800   -10.3240    -1.2540 C.ar  1 <1>  -0.1500 
 26 H       -2.3960    -1.6470    -2.3000 H     1 <1>   0.0800 
 27 H       -3.3100    -0.5610    -1.2910 H     1 <1>   0.0800 
 28 H       -4.1890    -2.7810    -1.0300 H     1 <1>   0.4500 
 29 H       -3.8950    -1.1840     0.8630 H     1 <1>   0.0800 
 30 H       -2.5630    -4.1870    -1.7340 H     1 <1>   0.0800 
 31 H       -1.3830    -3.5140    -0.6610 H     1 <1>   0.0800 
 32 H       -2.7860    -1.8300     2.7550 H     1 <1>   0.0800 
 33 H       -1.5740    -2.1720     1.5670 H     1 <1>   0.0800 
 34 H       -5.7820    -2.3670     1.0390 H     1 <1>   0.0800 
 35 H       -4.9490    -3.3000     2.2240 H     1 <1>   0.0800 
 36 H       -2.1930    -5.8010    -0.1520 H     1 <1>   0.0800 
 37 H       -0.8860    -4.3240     1.3650 H     1 <1>   0.0800 
 38 H       -1.8010    -5.5970     2.1320 H     1 <1>   0.0800 
 39 H       -4.2440    -5.7250     1.5470 H     1 <1>   0.0800 
 40 H       -4.3790    -6.1760    -0.1160 H     1 <1>   0.0800 
 41 H       -5.9400    -5.8940    -2.0850 H     1 <1>   0.0800 
 42 H       -7.5370    -5.2030    -1.8220 H     1 <1>   0.0800 
 43 H       -7.6420    -7.3590    -2.7870 H     1 <1>   0.1500 
 44 H       -7.6310   -10.7110     0.8080 H     1 <1>   0.1500 
 45 H       -7.0040    -9.1140     2.4170 H     1 <1>   0.0800 
 46 H       -7.4990    -7.4740     2.0900 H     1 <1>   0.0800 
 47 H       -5.8510    -7.9680     1.7800 H     1 <1>   0.0800 
 48 H       -8.2650    -9.6590    -3.2610 H     1 <1>   0.1500 
 49 H       -8.2600   -11.3410    -1.4700 H     1 <1>   0.1500 
@<TRIPOS>BOND
  1   1   2  ar  
  2   2   3  ar  
  3   2   4  1   
  4   4   5  1   
  5   4  26  1   
  6   4  27  1   
  7   5   6  1   
  8   5   7  1   
  9   5  28  1   
 10   6   8  1   
 11   6   9  1   
 12   6  29  1   
 13   7  10  1   
 14   7  30  1   
 15   7  31  1   
 16   8  11  1   
 17   8  32  1   
 18   8  33  1   
 19   9  12  1   
 20   9  34  1   
 21   9  35  1   
 22  10  13  1   
 23  10  14  1   
 24  10  36  1   
 25  11  13  1   
 26  12  14  1   
 27  12  15  am  
 28  13  37  1   
 29  13  38  1   
 30  14  39  1   
 31  14  40  1   
 32  15  16  2   
 33  15  17  1   
 34  17  18  1   
 35  17  41  1   
 36  17  42  1   
 37  18  19  1   
 38  19  20  ar  
 39  19  21  ar  
 40  20  22  ar  
 41  20  23  1   
 42  21  24  ar  
 43  21  43  1   
 44  22  25  ar  
 45  22  44  1   
 46  23  45  1   
 47  23  46  1   
 48  23  47  1   
 49  24  25  ar  
 50  24  48  1   
 51  25  49  1   
@<TRIPOS>SUBSTRUCTURE
  1 ****  12 GROUP 4 **** **** 0

# MOE 2024.06 (io_trps.svl 2023.06)
