@<TRIPOS>MOLECULE
NONAME
38 40 1 0 0 
SMALL
USER_CHARGES


@<TRIPOS>ATOM
  1 O        0.5650    -0.1690     1.0330 O.3   1 <1>  -0.6800 
  2 C        1.5530    -0.2700     0.0610 C.3   1 <1>   0.2000 
  3 C        2.3840    -1.5320     0.2700 C.3   1 <1>  -0.0800 
  4 C        2.5680     0.8660     0.1620 C.3   1 <1>   0.2090 
  5 C        3.7220    -1.2000    -0.3970 C.3   1 <1>   0.2090 
  6 C        1.7210    -2.8070    -0.2770 C.3   1 <1>  -0.0170 
  7 N        3.8410     0.2820    -0.3520 N.pl3 1 <1>  -0.8380 
  8 C        2.6100    -4.0250    -0.0850 C.ar  1 <1>   0.1660 
  9 C        5.0630     0.9090    -0.1170 C.ar  1 <1>   0.4100 
 10 N        3.4920    -4.2660    -1.0430 N.ar  1 <1>  -0.6200 
 11 C        2.4660    -4.8060     1.0520 C.ar  1 <1>  -0.1500 
 12 N        5.0730     2.0420     0.5990 N.ar  1 <1>  -0.3100 
 13 C        6.2340     0.3750    -0.6280 C.ar  1 <1>  -0.1500 
 14 C        4.2570    -5.3320    -0.8630 C.ar  1 <1>   0.1600 
 15 C        3.2710    -5.9110     1.2270 C.ar  1 <1>  -0.1500 
 16 N        6.1980     2.6690     0.8520 N.ar  1 <1>  -0.3100 
 17 C        7.4130     1.0280    -0.3670 C.ar  1 <1>  -0.1500 
 18 C        4.1890    -6.1730     0.2340 C.ar  1 <1>  -0.1500 
 19 C        7.3400     2.1800     0.3850 C.ar  1 <1>   0.1670 
 20 C        8.5930     2.9630     0.7210 C.3   1 <1>  -0.0970 
 21 H       -0.1060    -0.8670     0.9160 H     1 <1>   0.4000 
 22 H        1.0930    -0.2540    -0.9120 H     1 <1>   0.0800 
 23 H        2.5790    -1.6500     1.3230 H     1 <1>   0.0800 
 24 H        2.6930     1.1600     1.1910 H     1 <1>   0.0800 
 25 H        2.2750     1.7110    -0.4340 H     1 <1>   0.0800 
 26 H        3.7220    -1.5160    -1.4270 H     1 <1>   0.0800 
 27 H        4.5360    -1.6780     0.1220 H     1 <1>   0.0800 
 28 H        1.5120    -2.6910    -1.3270 H     1 <1>   0.0800 
 29 H        0.7860    -2.9690     0.2250 H     1 <1>   0.0800 
 30 H        1.7330    -4.5540     1.7970 H     1 <1>   0.1500 
 31 H        6.2150    -0.5210    -1.2180 H     1 <1>   0.1500 
 32 H        4.9780    -5.5470    -1.6340 H     1 <1>   0.1500 
 33 H        3.1870    -6.5390     2.0970 H     1 <1>   0.1500 
 34 H        8.3490     0.6540    -0.7390 H     1 <1>   0.1500 
 35 H        4.8470    -7.0200     0.3060 H     1 <1>   0.1500 
 36 H        9.4660     2.4950     0.3050 H     1 <1>   0.0800 
 37 H        8.7040     3.0210     1.7880 H     1 <1>   0.0800 
 38 H        8.5100     3.9590     0.3270 H     1 <1>   0.0800 
@<TRIPOS>BOND
  1   1   2  1   
  2   1  21  1   
  3   2   3  1   
  4   2   4  1   
  5   2  22  1   
  6   3   5  1   
  7   3   6  1   
  8   3  23  1   
  9   4   7  1   
 10   4  24  1   
 11   4  25  1   
 12   5   7  1   
 13   5  26  1   
 14   5  27  1   
 15   6   8  1   
 16   6  28  1   
 17   6  29  1   
 18   7   9  1   
 19   8  10  ar  
 20   8  11  ar  
 21   9  12  ar  
 22   9  13  ar  
 23  10  14  ar  
 24  11  15  ar  
 25  11  30  1   
 26  12  16  ar  
 27  13  17  ar  
 28  13  31  1   
 29  14  18  ar  
 30  14  32  1   
 31  15  18  ar  
 32  15  33  1   
 33  16  19  ar  
 34  17  19  ar  
 35  17  34  1   
 36  18  35  1   
 37  19  20  1   
 38  20  36  1   
 39  20  37  1   
 40  20  38  1   
@<TRIPOS>SUBSTRUCTURE
  1 ****   5 GROUP 4 **** **** 0

# MOE 2024.06 (io_trps.svl 2023.06)
