@<TRIPOS>MOLECULE
NONAME
52 54 1 0 0 
SMALL
USER_CHARGES


@<TRIPOS>ATOM
  1 O       -0.1410    -0.9900    -1.1850 O.2   1 <1>  -0.5700 
  2 C        0.7860    -1.7450    -1.3230 C.2   1 <1>   0.5690 
  3 N        1.0870    -2.2840    -2.5220 N.am  1 <1>  -0.7300 
  4 C        1.6530    -2.1320    -0.1450 C.3   1 <1>  -0.0990 
  5 C        2.2190    -3.2100    -2.7290 C.3   1 <1>   0.1400 
  6 C        3.1440    -2.1140    -0.5390 C.3   1 <1>  -0.0800 
  7 C        3.4440    -2.7090    -1.9390 C.3   1 <1>  -0.0800 
  8 C        4.0380    -2.8670     0.4560 C.3   1 <1>  -0.1600 
  9 C        4.4990    -3.8030    -1.7190 C.3   1 <1>  -0.1600 
 10 C        5.1710    -3.4220    -0.4050 C.3   1 <1>   0.2200 
 11 N        5.9220    -4.5630     0.2050 N.am  1 <1>  -0.6600 
 12 C        7.2970    -4.6720     0.2100 C.2   1 <1>   0.5690 
 13 C        5.1140    -5.6490     0.8480 C.3   1 <1>   0.0600 
 14 O        7.8460    -5.6040     0.7500 O.2   1 <1>  -0.5700 
 15 C        8.2110    -3.6680    -0.4830 C.3   1 <1>  -0.0990 
 16 C        8.8790    -2.6200     0.4440 C.3   1 <1>   0.1430 
 17 C        9.6460    -1.6180    -0.4520 C.ar  1 <1>  -0.1440 
 18 C        9.8790    -3.2940     1.4010 C.3   1 <1>  -0.2400 
 19 C        7.8270    -1.9220     1.3310 C.3   1 <1>  -0.2400 
 20 C       10.7000    -2.0770    -1.2380 C.ar  1 <1>  -0.1500 
 21 C        9.3330    -0.2620    -0.5250 C.ar  1 <1>  -0.1500 
 22 C       11.4110    -1.2230    -2.0640 C.ar  1 <1>  -0.1500 
 23 C       10.0410     0.5950    -1.3490 C.ar  1 <1>  -0.1500 
 24 C       11.0820     0.1170    -2.1210 C.ar  1 <1>  -0.1500 
 25 H        0.4800    -2.0530    -3.3120 H     1 <1>   0.3700 
 26 H        1.4760    -1.4550     0.6710 H     1 <1>   0.0800 
 27 H        1.3540    -3.1160     0.1630 H     1 <1>   0.0800 
 28 H        1.9240    -4.1870    -2.3840 H     1 <1>   0.0800 
 29 H        2.4550    -3.2730    -3.7770 H     1 <1>   0.0800 
 30 H        3.4590    -1.0830    -0.5610 H     1 <1>   0.0800 
 31 H        3.9020    -1.9290    -2.5240 H     1 <1>   0.0800 
 32 H        3.4730    -3.6590     0.9100 H     1 <1>   0.0800 
 33 H        4.4140    -2.2130     1.2230 H     1 <1>   0.0800 
 34 H        5.2090    -3.8370    -2.5260 H     1 <1>   0.0800 
 35 H        4.0210    -4.7610    -1.6240 H     1 <1>   0.0800 
 36 H        5.8300    -2.6010    -0.6060 H     1 <1>   0.0800 
 37 H        4.1940    -5.8090     0.3160 H     1 <1>   0.0800 
 38 H        4.8940    -5.3780     1.8650 H     1 <1>   0.0800 
 39 H        5.6590    -6.5770     0.8520 H     1 <1>   0.0800 
 40 H        8.9810    -4.2430    -0.9600 H     1 <1>   0.0800 
 41 H        7.6950    -3.1700    -1.2780 H     1 <1>   0.0800 
 42 H        9.3690    -3.9200     2.1120 H     1 <1>   0.0800 
 43 H       10.4320    -2.5480     1.9430 H     1 <1>   0.0800 
 44 H       10.5780    -3.9110     0.8680 H     1 <1>   0.0800 
 45 H        7.3240    -2.6320     1.9640 H     1 <1>   0.0800 
 46 H        7.0900    -1.4190     0.7350 H     1 <1>   0.0800 
 47 H        8.3030    -1.1980     1.9690 H     1 <1>   0.0800 
 48 H       10.9850    -3.1130    -1.2190 H     1 <1>   0.1500 
 49 H        8.5360     0.1640     0.0540 H     1 <1>   0.1500 
 50 H       12.2210    -1.6040    -2.6610 H     1 <1>   0.1500 
 51 H        9.7820     1.6390    -1.3880 H     1 <1>   0.1500 
 52 H       11.6330     0.7830    -2.7610 H     1 <1>   0.1500 
@<TRIPOS>BOND
  1   1   2  2   
  2   2   3  am  
  3   2   4  1   
  4   3   5  1   
  5   3  25  1   
  6   4   6  1   
  7   4  26  1   
  8   4  27  1   
  9   5   7  1   
 10   5  28  1   
 11   5  29  1   
 12   6   7  1   
 13   6   8  1   
 14   6  30  1   
 15   7   9  1   
 16   7  31  1   
 17   8  10  1   
 18   8  32  1   
 19   8  33  1   
 20   9  10  1   
 21   9  34  1   
 22   9  35  1   
 23  10  11  1   
 24  10  36  1   
 25  11  12  am  
 26  11  13  1   
 27  12  14  2   
 28  12  15  1   
 29  13  37  1   
 30  13  38  1   
 31  13  39  1   
 32  15  16  1   
 33  15  40  1   
 34  15  41  1   
 35  16  17  1   
 36  16  18  1   
 37  16  19  1   
 38  17  20  ar  
 39  17  21  ar  
 40  18  42  1   
 41  18  43  1   
 42  18  44  1   
 43  19  45  1   
 44  19  46  1   
 45  19  47  1   
 46  20  22  ar  
 47  20  48  1   
 48  21  23  ar  
 49  21  49  1   
 50  22  24  ar  
 51  22  50  1   
 52  23  24  ar  
 53  23  51  1   
 54  24  52  1   
@<TRIPOS>SUBSTRUCTURE
  1 ****  10 GROUP 4 **** **** 0

# MOE 2024.06 (io_trps.svl 2023.06)
