@<TRIPOS>MOLECULE
NONAME
46 47 1 0 0 
SMALL
USER_CHARGES


@<TRIPOS>ATOM
  1 F       -1.3490    -0.1710     2.2280 F     1 <1>  -0.3400 
  2 C       -1.3720    -0.4310     0.9260 C.3   1 <1>   1.1640 
  3 F       -0.3000     0.1600     0.4120 F     1 <1>  -0.3400 
  4 F       -2.4230     0.2110     0.4350 F     1 <1>  -0.3400 
  5 C       -1.4260    -1.9360     0.6160 C.ar  1 <1>  -0.1440 
  6 C       -0.8690    -2.4470    -0.5520 C.ar  1 <1>  -0.1500 
  7 C       -2.0450    -2.8190     1.4940 C.ar  1 <1>  -0.1500 
  8 C       -0.9280    -3.8010    -0.8330 C.ar  1 <1>  -0.1500 
  9 C       -2.1030    -4.1720     1.2160 C.ar  1 <1>  -0.1500 
 10 C       -1.5460    -4.6730     0.0480 C.ar  1 <1>  -0.1430 
 11 C       -1.6210    -6.1590    -0.2650 C.3   1 <1>   0.4870 
 12 N       -3.0320    -6.5840    -0.3040 N.4   1 <1>  -0.9590 
 13 C       -3.2280    -8.0760    -0.4050 C.3   1 <1>   0.3430 
 14 C       -3.9160    -5.8300    -1.2280 C.3   1 <1>   0.3430 
 15 C       -4.7030    -8.4650    -0.6880 C.3   1 <1>   0.2000 
 16 C       -5.3860    -6.0450    -0.8220 C.3   1 <1>  -0.1600 
 17 O       -4.8890    -8.5530    -2.0700 O.3   1 <1>  -0.6800 
 18 C       -5.6610    -7.4050    -0.0950 C.3   1 <1>  -0.1060 
 19 C       -5.2590    -7.3590     1.3920 C.2   1 <1>   0.9060 
 20 C       -7.1470    -7.8290    -0.2580 C.3   1 <1>  -0.1600 
 21 O       -4.6670    -6.3600     1.8270 O.co2 1 <1>  -0.9000 
 22 O       -5.3030    -8.4040     2.0400 O.co2 1 <1>  -0.9000 
 23 C       -8.1400    -6.8560     0.3980 C.3   1 <1>  -0.1600 
 24 C       -9.5810    -7.3450     0.2260 C.3   1 <1>  -0.2400 
 25 H       -0.3850    -1.7880    -1.2550 H     1 <1>   0.1500 
 26 H       -2.4940    -2.4620     2.4080 H     1 <1>   0.1500 
 27 H       -0.4860    -4.1640    -1.7470 H     1 <1>   0.1500 
 28 H       -2.5950    -4.8270     1.9210 H     1 <1>   0.1500 
 29 H       -1.1000    -6.7070     0.5020 H     1 <1>   0.0800 
 30 H       -1.1520    -6.3600    -1.2130 H     1 <1>   0.0800 
 31 H       -3.4340    -6.3370     0.6380 H     1 <1>   0.4500 
 32 H       -2.6060    -8.4930    -1.1790 H     1 <1>   0.0800 
 33 H       -2.9450    -8.5180     0.5370 H     1 <1>   0.0800 
 34 H       -3.6890    -4.7770    -1.1990 H     1 <1>   0.0800 
 35 H       -3.7660    -6.1910    -2.2330 H     1 <1>   0.0800 
 36 H       -4.9000    -9.4390    -0.2700 H     1 <1>   0.0800 
 37 H       -5.6940    -5.2300    -0.1900 H     1 <1>   0.0800 
 38 H       -5.9780    -5.9800    -1.7170 H     1 <1>   0.0800 
 39 H       -5.8120    -8.8240    -2.2500 H     1 <1>   0.4000 
 40 H       -7.3920    -7.9200    -1.3010 H     1 <1>   0.0800 
 41 H       -7.2770    -8.7990     0.1940 H     1 <1>   0.0800 
 42 H       -7.9250    -6.7720     1.4510 H     1 <1>   0.0800 
 43 H       -8.0500    -5.8770    -0.0380 H     1 <1>   0.0800 
 44 H       -9.7040    -8.3110     0.6840 H     1 <1>   0.0800 
 45 H       -9.8340    -7.4190    -0.8170 H     1 <1>   0.0800 
 46 H      -10.2600    -6.6570     0.6960 H     1 <1>   0.0800 
@<TRIPOS>BOND
  1   1   2  1   
  2   2   3  1   
  3   2   4  1   
  4   2   5  1   
  5   5   6  ar  
  6   5   7  ar  
  7   6   8  ar  
  8   6  25  1   
  9   7   9  ar  
 10   7  26  1   
 11   8  10  ar  
 12   8  27  1   
 13   9  10  ar  
 14   9  28  1   
 15  10  11  1   
 16  11  12  1   
 17  11  29  1   
 18  11  30  1   
 19  12  13  1   
 20  12  14  1   
 21  12  31  1   
 22  13  15  1   
 23  13  32  1   
 24  13  33  1   
 25  14  16  1   
 26  14  34  1   
 27  14  35  1   
 28  15  17  1   
 29  15  18  1   
 30  15  36  1   
 31  16  18  1   
 32  16  37  1   
 33  16  38  1   
 34  17  39  1   
 35  18  19  1   
 36  18  20  1   
 37  19  21  ar  
 38  19  22  ar  
 39  20  23  1   
 40  20  40  1   
 41  20  41  1   
 42  23  24  1   
 43  23  42  1   
 44  23  43  1   
 45  24  44  1   
 46  24  45  1   
 47  24  46  1   
@<TRIPOS>SUBSTRUCTURE
  1 ****  14 GROUP 4 **** **** 0

# MOE 2024.06 (io_trps.svl 2023.06)
