@<TRIPOS>MOLECULE
NONAME
52 56 1 0 0 
SMALL
USER_CHARGES


@<TRIPOS>ATOM
  1 O        0.4240    -0.3240    -1.2830 O.3   1 <1>  -0.5600 
  2 C        1.5340    -0.7620    -0.5320 C.3   1 <1>   0.4240 
  3 C       -0.8400    -0.7340    -0.8630 C.3   1 <1>   0.1200 
  4 C        1.3610    -2.2210    -0.0560 C.ar  1 <1>  -0.1440 
  5 C        2.7350    -0.6450    -1.4770 C.3   1 <1>  -0.1600 
  6 C        1.7170     0.1920     0.6570 C.3   1 <1>  -0.1600 
  7 C       -0.9480    -2.2460    -1.0330 C.3   1 <1>  -0.0160 
  8 C        0.1870    -2.9250    -0.2940 C.ar  1 <1>  -0.1440 
  9 C        2.3830    -2.8620     0.6340 C.ar  1 <1>  -0.1500 
 10 C        2.9920     0.8020    -1.9060 C.3   1 <1>   0.2090 
 11 C        1.9360     1.6320     0.1930 C.3   1 <1>   0.2090 
 12 C        0.0460    -4.2340     0.1400 C.ar  1 <1>  -0.1500 
 13 C        2.2590    -4.1700     1.0690 C.ar  1 <1>   0.0830 
 14 N        3.1070     1.7010    -0.7210 N.pl3 1 <1>  -0.8220 
 15 C        1.0700    -4.8730     0.8320 C.ar  1 <1>   0.0830 
 16 O        3.3420    -4.6740     1.7230 O.3   1 <1>  -0.3630 
 17 C        4.3770     1.8470    -0.1320 C.2   1 <1>   0.2700 
 18 O        0.9350    -6.1510     1.2960 O.3   1 <1>  -0.3630 
 19 C        3.7790    -5.9860     1.4470 C.3   1 <1>   0.0400 
 20 N        5.3030     0.9310    -0.1270 N.2   1 <1>  -0.3380 
 21 N        4.7910     2.9570     0.5080 N.pl3 1 <1>   0.3340 
 22 C       -0.2960    -6.8370     1.2480 C.3   1 <1>   0.0400 
 23 N        6.3530     1.4130     0.5370 N.2   1 <1>  -0.3380 
 24 C        6.0440     2.6220     0.9150 C.2   1 <1>   0.1410 
 25 C        4.2560     4.2190     0.7710 C.2   1 <1>  -0.1810 
 26 C        6.8040     3.5700     1.6500 C.2   1 <1>  -0.1050 
 27 C        4.9790     5.1330     1.4690 C.2   1 <1>  -0.1500 
 28 C        6.2850     4.8000     1.9250 C.2   1 <1>  -0.1500 
 29 H       -1.5690    -0.2320    -1.4740 H     1 <1>   0.0800 
 30 H       -0.9830    -0.4480     0.1640 H     1 <1>   0.0800 
 31 H        2.5640    -1.2560    -2.3430 H     1 <1>   0.0800 
 32 H        3.6210    -1.0150    -0.9970 H     1 <1>   0.0800 
 33 H        2.5740    -0.1090     1.2310 H     1 <1>   0.0800 
 34 H        0.8660     0.1380     1.3080 H     1 <1>   0.0800 
 35 H       -0.9000    -2.4920    -2.0790 H     1 <1>   0.0800 
 36 H       -1.8960    -2.5770    -0.6490 H     1 <1>   0.0800 
 37 H        3.3050    -2.3510     0.8450 H     1 <1>   0.1500 
 38 H        2.1820     1.1460    -2.5260 H     1 <1>   0.0800 
 39 H        3.8980     0.8510    -2.4860 H     1 <1>   0.0800 
 40 H        2.0980     2.2640     1.0490 H     1 <1>   0.0800 
 41 H        1.0630     1.9890    -0.3270 H     1 <1>   0.0800 
 42 H       -0.8750    -4.7400    -0.0710 H     1 <1>   0.1500 
 43 H        4.8230    -6.0500     1.6950 H     1 <1>   0.0800 
 44 H        3.6330    -6.1930     0.4010 H     1 <1>   0.0800 
 45 H        3.2180    -6.6730     2.0530 H     1 <1>   0.0800 
 46 H       -0.1680    -7.7860     1.7380 H     1 <1>   0.0800 
 47 H       -0.5710    -6.9930     0.2200 H     1 <1>   0.0800 
 48 H       -1.0400    -6.2570     1.7660 H     1 <1>   0.0800 
 49 H        3.2690     4.4010     0.3850 H     1 <1>   0.1500 
 50 H        7.7870     3.2740     1.9690 H     1 <1>   0.1500 
 51 H        4.5960     6.1160     1.6900 H     1 <1>   0.1500 
 52 H        6.8410     5.5370     2.4800 H     1 <1>   0.1500 
@<TRIPOS>BOND
  1   1   2  1   
  2   1   3  1   
  3   2   4  1   
  4   2   5  1   
  5   2   6  1   
  6   3   7  1   
  7   3  29  1   
  8   3  30  1   
  9   4   8  ar  
 10   4   9  ar  
 11   5  10  1   
 12   5  31  1   
 13   5  32  1   
 14   6  11  1   
 15   6  33  1   
 16   6  34  1   
 17   7   8  1   
 18   7  35  1   
 19   7  36  1   
 20   8  12  ar  
 21   9  13  ar  
 22   9  37  1   
 23  10  14  1   
 24  10  38  1   
 25  10  39  1   
 26  11  14  1   
 27  11  40  1   
 28  11  41  1   
 29  12  15  ar  
 30  12  42  1   
 31  13  15  ar  
 32  13  16  1   
 33  14  17  1   
 34  15  18  1   
 35  16  19  1   
 36  17  20  2   
 37  17  21  1   
 38  18  22  1   
 39  19  43  1   
 40  19  44  1   
 41  19  45  1   
 42  20  23  1   
 43  21  24  1   
 44  21  25  1   
 45  22  46  1   
 46  22  47  1   
 47  22  48  1   
 48  23  24  2   
 49  24  26  1   
 50  25  27  2   
 51  25  49  1   
 52  26  28  2   
 53  26  50  1   
 54  27  28  1   
 55  27  51  1   
 56  28  52  1   
@<TRIPOS>SUBSTRUCTURE
  1 ****   6 GROUP 4 **** **** 0

# MOE 2024.06 (io_trps.svl 2023.06)
