@<TRIPOS>MOLECULE
NONAME
45 47 1 0 0 
SMALL
USER_CHARGES


@<TRIPOS>ATOM
  1 CL      -2.0500    -2.8620    -5.9080 Cl    1 <1>  -0.1770 
  2 C       -2.3940    -3.7110    -4.4240 C.ar  1 <1>   0.1770 
  3 C       -3.6470    -3.6040    -3.8520 C.ar  1 <1>  -0.1500 
  4 C       -1.4100    -4.4810    -3.8360 C.ar  1 <1>  -0.1500 
  5 C       -3.9130    -4.2790    -2.6750 C.ar  1 <1>  -0.1500 
  6 C       -1.6890    -5.1530    -2.6590 C.ar  1 <1>  -0.1500 
  7 C       -2.9460    -5.0730    -2.0510 C.ar  1 <1>   0.0530 
  8 C       -3.2140    -5.7780    -0.8190 C.2   1 <1>   0.0870 
  9 O       -2.2170    -6.0920    -0.0220 O.3   1 <1>  -0.0190 
 10 C       -4.3450    -6.2520    -0.2300 C.2   1 <1>  -0.2330 
 11 N       -2.6030    -6.7250     1.0550 N.2   1 <1>  -0.4100 
 12 C       -3.8790    -6.8020     0.9610 C.2   1 <1>   0.3720 
 13 C       -5.7000    -6.3500    -0.6690 C.2   1 <1>   1.0330 
 14 N       -4.6990    -7.3740     1.9200 N.pl3 1 <1>  -0.8520 
 15 O       -5.9810    -6.4030    -1.8730 O.co2 1 <1>  -0.9000 
 16 O       -6.6270    -6.6310     0.1190 O.co2 1 <1>  -0.9000 
 17 C       -4.5220    -8.8060     2.2090 C.3   1 <1>   0.2090 
 18 C       -5.7010    -9.5890     1.6240 C.3   1 <1>  -0.1600 
 19 C       -5.6230    -9.6880     0.0940 C.3   1 <1>   0.3430 
 20 N       -6.8750    -9.2380    -0.5680 N.4   1 <1>  -0.9590 
 21 C       -8.1470    -9.9020    -0.1490 C.3   1 <1>   0.3430 
 22 C       -6.7440    -9.2070    -2.0620 C.3   1 <1>   0.3430 
 23 C       -9.3520    -9.3130    -0.9070 C.3   1 <1>   0.1200 
 24 C       -8.0240    -8.6580    -2.7190 C.3   1 <1>   0.1200 
 25 O       -9.1420    -9.3900    -2.2880 O.3   1 <1>  -0.5600 
 26 H       -4.4030    -3.0030    -4.3230 H     1 <1>   0.1500 
 27 H       -0.4400    -4.5490    -4.2960 H     1 <1>   0.1500 
 28 H       -4.8900    -4.1910    -2.2340 H     1 <1>   0.1500 
 29 H       -0.9220    -5.7530    -2.2030 H     1 <1>   0.1500 
 30 H       -5.6800    -7.1440     1.6630 H     1 <1>   0.4000 
 31 H       -4.4970    -8.9310     3.2790 H     1 <1>   0.0800 
 32 H       -3.5840    -9.1590     1.8110 H     1 <1>   0.0800 
 33 H       -6.6090    -9.1200     1.9560 H     1 <1>   0.0800 
 34 H       -5.6720   -10.5850     2.0260 H     1 <1>   0.0800 
 35 H       -5.4050   -10.7040    -0.1910 H     1 <1>   0.0800 
 36 H       -4.8110    -9.0660    -0.2510 H     1 <1>   0.0800 
 37 H       -6.9750    -8.2180    -0.3170 H     1 <1>   0.4500 
 38 H       -8.3020    -9.7680     0.9080 H     1 <1>   0.0800 
 39 H       -8.0920   -10.9580    -0.3520 H     1 <1>   0.0800 
 40 H       -6.5610   -10.1990    -2.4370 H     1 <1>   0.0800 
 41 H       -5.9120    -8.5830    -2.3460 H     1 <1>   0.0800 
 42 H       -9.5050    -8.2810    -0.6370 H     1 <1>   0.0800 
 43 H      -10.2450    -9.8670    -0.6790 H     1 <1>   0.0800 
 44 H       -7.9590    -8.7450    -3.7890 H     1 <1>   0.0800 
 45 H       -8.1620    -7.6190    -2.4690 H     1 <1>   0.0800 
@<TRIPOS>BOND
  1   1   2  1   
  2   2   3  ar  
  3   2   4  ar  
  4   3   5  ar  
  5   3  26  1   
  6   4   6  ar  
  7   4  27  1   
  8   5   7  ar  
  9   5  28  1   
 10   6   7  ar  
 11   6  29  1   
 12   7   8  1   
 13   8   9  1   
 14   8  10  2   
 15   9  11  1   
 16  10  12  1   
 17  10  13  1   
 18  11  12  2   
 19  12  14  1   
 20  13  15  ar  
 21  13  16  ar  
 22  14  17  1   
 23  14  30  1   
 24  17  18  1   
 25  17  31  1   
 26  17  32  1   
 27  18  19  1   
 28  18  33  1   
 29  18  34  1   
 30  19  20  1   
 31  19  35  1   
 32  19  36  1   
 33  20  21  1   
 34  20  22  1   
 35  20  37  1   
 36  21  23  1   
 37  21  38  1   
 38  21  39  1   
 39  22  24  1   
 40  22  40  1   
 41  22  41  1   
 42  23  25  1   
 43  23  42  1   
 44  23  43  1   
 45  24  25  1   
 46  24  44  1   
 47  24  45  1   
@<TRIPOS>SUBSTRUCTURE
  1 ****  13 GROUP 4 **** **** 0

# MOE 2024.06 (io_trps.svl 2023.06)
