@<TRIPOS>MOLECULE
NONAME
46 49 1 0 0 
SMALL
USER_CHARGES


@<TRIPOS>ATOM
  1 O        0.9240     1.5730    -0.1570 O.2   1 <1>  -0.5700 
  2 C        0.6000     2.7160    -0.3550 C.2   1 <1>   0.5690 
  3 N       -0.3800     3.2930     0.3710 N.am  1 <1>  -0.7300 
  4 C        1.2670     3.5270    -1.4640 C.3   1 <1>   0.1810 
  5 C       -0.9150     4.6530     0.1100 C.3   1 <1>   0.3640 
  6 O        1.1350     4.9150    -1.2610 O.3   1 <1>  -0.5600 
  7 C       -2.4160     4.5210    -0.1460 C.ar  1 <1>  -0.1440 
  8 C       -0.2010     5.3740    -1.0700 C.3   1 <1>   0.2610 
  9 C       -3.3040     5.3840     0.4810 C.ar  1 <1>  -0.1500 
 10 C       -2.9190     3.5480    -1.0030 C.ar  1 <1>  -0.1500 
 11 C       -0.2010     6.8910    -0.8320 C.2   1 <1>   0.5690 
 12 C       -4.6660     5.2770     0.2600 C.ar  1 <1>  -0.1500 
 13 C       -4.2810     3.4400    -1.2250 C.ar  1 <1>  -0.1500 
 14 O       -1.2320     7.4670    -0.5800 O.2   1 <1>  -0.5700 
 15 N        0.9680     7.5730    -0.8990 N.am  1 <1>  -0.7300 
 16 C       -5.1560     4.3050    -0.5920 C.ar  1 <1>  -0.1500 
 17 C        1.1430     9.0180    -0.6050 C.3   1 <1>   0.3210 
 18 C        2.5760     9.3510    -0.1900 C.2   1 <1>   0.3350 
 19 N        3.5760     8.5620    -0.2670 N.2   1 <1>  -0.4100 
 20 N        2.8870    10.5450     0.2970 N.2   1 <1>  -0.5650 
 21 O        4.6110     9.2090     0.1760 O.3   1 <1>  -0.0190 
 22 C        4.1370    10.3880     0.4960 C.2   1 <1>   0.3170 
 23 C        5.1070    11.4140     1.0620 C.3   1 <1>   0.1610 
 24 C        4.6320    12.8940     1.0450 C.3   1 <1>   0.0000 
 25 C        6.2240    11.8460     0.0760 C.3   1 <1>   0.0000 
 26 C        6.0890    13.2710     0.6720 C.3   1 <1>   0.0000 
 27 H       -0.8670     2.7310     1.0700 H     1 <1>   0.3700 
 28 H        0.8290     3.2750    -2.4130 H     1 <1>   0.0800 
 29 H        2.3170     3.2970    -1.4920 H     1 <1>   0.0800 
 30 H       -0.7650     5.2370     1.0020 H     1 <1>   0.0800 
 31 H       -0.7390     5.1840    -1.9810 H     1 <1>   0.0800 
 32 H       -2.9420     6.1540     1.1410 H     1 <1>   0.1500 
 33 H       -2.2560     2.8630    -1.5030 H     1 <1>   0.1500 
 34 H       -5.3440     5.9540     0.7500 H     1 <1>   0.1500 
 35 H       -4.6610     2.6830    -1.8880 H     1 <1>   0.1500 
 36 H        1.8370     7.0470    -1.0570 H     1 <1>   0.3700 
 37 H       -6.2150     4.2220    -0.7640 H     1 <1>   0.1500 
 38 H        0.8930     9.5880    -1.4810 H     1 <1>   0.0800 
 39 H        0.4730     9.3050     0.1870 H     1 <1>   0.0800 
 40 H        5.5070    11.1290     2.0210 H     1 <1>   0.0000 
 41 H        3.9400    13.1160     0.2500 H     1 <1>   0.0000 
 42 H        4.3190    13.2620     2.0050 H     1 <1>   0.0000 
 43 H        7.1760    11.3830     0.2660 H     1 <1>   0.0000 
 44 H        5.9190    11.7990    -0.9550 H     1 <1>   0.0000 
 45 H        6.7130    13.4220     1.5360 H     1 <1>   0.0000 
 46 H        6.1620    14.0580    -0.0570 H     1 <1>   0.0000 
@<TRIPOS>BOND
  1   1   2  2   
  2   2   3  am  
  3   2   4  1   
  4   3   5  1   
  5   3  27  1   
  6   4   6  1   
  7   4  28  1   
  8   4  29  1   
  9   5   7  1   
 10   5   8  1   
 11   5  30  1   
 12   6   8  1   
 13   7   9  ar  
 14   7  10  ar  
 15   8  11  1   
 16   8  31  1   
 17   9  12  ar  
 18   9  32  1   
 19  10  13  ar  
 20  10  33  1   
 21  11  14  2   
 22  11  15  am  
 23  12  16  ar  
 24  12  34  1   
 25  13  16  ar  
 26  13  35  1   
 27  15  17  1   
 28  15  36  1   
 29  16  37  1   
 30  17  18  1   
 31  17  38  1   
 32  17  39  1   
 33  18  19  2   
 34  18  20  1   
 35  19  21  1   
 36  20  22  2   
 37  21  22  1   
 38  22  23  1   
 39  23  24  1   
 40  23  25  1   
 41  23  40  1   
 42  24  26  1   
 43  24  41  1   
 44  24  42  1   
 45  25  26  1   
 46  25  43  1   
 47  25  44  1   
 48  26  45  1   
 49  26  46  1   
@<TRIPOS>SUBSTRUCTURE
  1 ****  15 GROUP 4 **** **** 0

# MOE 2024.06 (io_trps.svl 2023.06)
