@<TRIPOS>MOLECULE
NONAME
42 43 1 0 0 
SMALL
USER_CHARGES


@<TRIPOS>ATOM
  1 S       -0.7940     1.9480     1.2000 S.3   1 <1>  -0.0800 
  2 C       -1.5870     3.2940     0.4100 C.2   1 <1>   0.1980 
  3 C        0.5400     2.1180     0.1000 C.2   1 <1>  -0.1100 
  4 N       -0.9150     3.8130    -0.5400 N.2   1 <1>  -0.5650 
  5 C       -2.9580     3.6950     0.9250 C.3   1 <1>   0.0200 
  6 C        0.2890     3.1410    -0.7320 C.2   1 <1>   0.0460 
  7 C       -4.0350     2.6820     0.5220 C.3   1 <1>  -0.2400 
  8 C        1.1950     3.6200    -1.8630 C.3   1 <1>   0.5240 
  9 N        2.1200     4.7210    -1.4430 N.4   1 <1>  -0.9590 
 10 C        1.4380     5.7860    -0.6500 C.3   1 <1>   0.5230 
 11 C        2.9200     5.2770    -2.5670 C.3   1 <1>   0.2630 
 12 C        1.6870     5.4750     0.8160 C.2   1 <1>   0.0060 
 13 N        2.7130     4.8130     1.2390 N.2   1 <1>  -0.3380 
 14 N        0.8770     5.8280     1.8210 N.pl3 1 <1>   0.0480 
 15 N        2.5920     4.7120     2.5580 N.2   1 <1>  -0.3380 
 16 C        1.5030     5.3160     2.8830 C.2   1 <1>   0.0360 
 17 C       -0.4100     6.5610     1.8080 C.3   1 <1>   0.0960 
 18 C       -0.2140     8.0550     1.5350 C.3   1 <1>   0.1200 
 19 O        0.3250     8.2290     0.2600 O.3   1 <1>  -0.5600 
 20 C        0.5210     9.5680    -0.0780 C.3   1 <1>   0.0400 
 21 H        1.3600     1.4290     0.2060 H     1 <1>   0.1500 
 22 H       -3.2130     4.6580     0.5180 H     1 <1>   0.0800 
 23 H       -2.9230     3.7820     1.9960 H     1 <1>   0.0800 
 24 H       -4.0720     2.5870    -0.5490 H     1 <1>   0.0800 
 25 H       -4.9990     3.0050     0.8730 H     1 <1>   0.0800 
 26 H       -3.8220     1.7160     0.9470 H     1 <1>   0.0800 
 27 H        0.5700     3.9530    -2.6750 H     1 <1>   0.0800 
 28 H        1.7770     2.7840    -2.2120 H     1 <1>   0.0800 
 29 H        2.7540     4.3170    -0.7280 H     1 <1>   0.4500 
 30 H        0.3830     5.8170    -0.8610 H     1 <1>   0.0800 
 31 H        1.8600     6.7520    -0.8700 H     1 <1>   0.0800 
 32 H        2.2760     5.7470    -3.2920 H     1 <1>   0.0800 
 33 H        3.4780     4.4930    -3.0530 H     1 <1>   0.0800 
 34 H        3.6180     6.0120    -2.1970 H     1 <1>   0.0800 
 35 H        1.1310     5.4020     3.8890 H     1 <1>   0.1500 
 36 H       -0.8840     6.4360     2.7650 H     1 <1>   0.0800 
 37 H       -1.0540     6.1380     1.0600 H     1 <1>   0.0800 
 38 H        0.4520     8.4880     2.2630 H     1 <1>   0.0800 
 39 H       -1.1640     8.5620     1.5750 H     1 <1>   0.0800 
 40 H        0.9310     9.6120    -1.0720 H     1 <1>   0.0800 
 41 H        1.2110    10.0160     0.6170 H     1 <1>   0.0800 
 42 H       -0.4240    10.0850    -0.0570 H     1 <1>   0.0800 
@<TRIPOS>BOND
  1   1   2  1   
  2   1   3  1   
  3   2   4  2   
  4   2   5  1   
  5   3   6  2   
  6   3  21  1   
  7   4   6  1   
  8   5   7  1   
  9   5  22  1   
 10   5  23  1   
 11   6   8  1   
 12   7  24  1   
 13   7  25  1   
 14   7  26  1   
 15   8   9  1   
 16   8  27  1   
 17   8  28  1   
 18   9  10  1   
 19   9  11  1   
 20   9  29  1   
 21  10  12  1   
 22  10  30  1   
 23  10  31  1   
 24  11  32  1   
 25  11  33  1   
 26  11  34  1   
 27  12  13  2   
 28  12  14  1   
 29  13  15  1   
 30  14  16  1   
 31  14  17  1   
 32  15  16  2   
 33  16  35  1   
 34  17  18  1   
 35  17  36  1   
 36  17  37  1   
 37  18  19  1   
 38  18  38  1   
 39  18  39  1   
 40  19  20  1   
 41  20  40  1   
 42  20  41  1   
 43  20  42  1   
@<TRIPOS>SUBSTRUCTURE
  1 ****  12 GROUP 4 **** **** 0

# MOE 2024.06 (io_trps.svl 2023.06)
