@<TRIPOS>MOLECULE
NONAME
42 44 1 0 0 
SMALL
USER_CHARGES


@<TRIPOS>ATOM
  1 O       -0.5600     0.4500     1.1590 O.2   1 <1>  -0.5700 
  2 C       -1.4620     0.9050     0.4820 C.2   1 <1>   0.7150 
  3 N       -2.6000     0.1570     0.2920 N.am  1 <1>  -0.6600 
  4 C       -1.3200     2.2080    -0.1120 C.2   1 <1>  -0.2370 
  5 C       -3.9480     0.7320     0.0790 C.3   1 <1>   0.1400 
  6 C       -2.7010    -1.2450     0.7550 C.3   1 <1>   0.1400 
  7 N       -1.8840     2.5610    -1.3050 N.pl3 1 <1>   0.0330 
  8 C       -0.6140     3.2930     0.3380 C.2   1 <1>  -0.1500 
  9 C       -4.9290    -0.2630     0.7160 C.3   1 <1>  -0.0800 
 10 C       -4.1850    -1.6110     0.6730 C.3   1 <1>  -0.0800 
 11 C       -1.5480     3.8410    -1.5800 C.2   1 <1>  -0.3020 
 12 C       -0.7560     4.3370    -0.5820 C.2   1 <1>   0.0190 
 13 C       -6.3690    -0.2840     0.1150 C.3   1 <1>   0.2800 
 14 C       -4.5320    -2.3890    -0.6060 C.3   1 <1>  -0.1600 
 15 C       -0.1730     5.6440    -0.4650 C.1   1 <1>   0.5380 
 16 O       -6.3480     0.1380    -1.2020 O.3   1 <1>  -0.6800 
 17 C       -6.9190    -1.7220     0.1040 C.3   1 <1>  -0.1600 
 18 C       -7.3430     0.6480     0.8700 C.3   1 <1>  -0.1600 
 19 C       -6.0350    -2.7160    -0.6810 C.3   1 <1>  -0.1600 
 20 N        0.2870     6.6840    -0.3740 N.1   1 <1>  -0.5570 
 21 C       -6.9630     2.1390     0.8850 C.3   1 <1>  -0.2400 
 22 H       -4.0300     1.7050     0.5310 H     1 <1>   0.0800 
 23 H       -4.1040     0.8150    -0.9810 H     1 <1>   0.0800 
 24 H       -2.0920    -1.8880     0.1430 H     1 <1>   0.0800 
 25 H       -2.3610    -1.3040     1.7750 H     1 <1>   0.0800 
 26 H       -2.4560     1.9320    -1.8840 H     1 <1>   0.2700 
 27 H       -0.0380     3.3410     1.2470 H     1 <1>   0.1500 
 28 H       -5.0070    -0.0040     1.7560 H     1 <1>   0.0800 
 29 H       -4.4480    -2.2170     1.5220 H     1 <1>   0.0800 
 30 H       -1.8780     4.3480    -2.4710 H     1 <1>   0.1500 
 31 H       -4.2630    -1.7900    -1.4600 H     1 <1>   0.0800 
 32 H       -3.9620    -3.3000    -0.6570 H     1 <1>   0.0800 
 33 H       -7.2360     0.0280    -1.5860 H     1 <1>   0.4000 
 34 H       -6.9790    -2.0600     1.1230 H     1 <1>   0.0800 
 35 H       -7.9210    -1.7420    -0.2880 H     1 <1>   0.0800 
 36 H       -8.3240     0.5500     0.4370 H     1 <1>   0.0800 
 37 H       -7.4220     0.3110     1.8880 H     1 <1>   0.0800 
 38 H       -6.2070    -3.7070    -0.2960 H     1 <1>   0.0800 
 39 H       -6.3300    -2.7180    -1.7170 H     1 <1>   0.0800 
 40 H       -6.8270     2.5100    -0.1160 H     1 <1>   0.0800 
 41 H       -6.0580     2.2990     1.4430 H     1 <1>   0.0800 
 42 H       -7.7460     2.7090     1.3520 H     1 <1>   0.0800 
@<TRIPOS>BOND
  1   1   2  2   
  2   2   3  am  
  3   2   4  1   
  4   3   5  1   
  5   3   6  1   
  6   4   7  1   
  7   4   8  2   
  8   5   9  1   
  9   5  22  1   
 10   5  23  1   
 11   6  10  1   
 12   6  24  1   
 13   6  25  1   
 14   7  11  1   
 15   7  26  1   
 16   8  12  1   
 17   8  27  1   
 18   9  10  1   
 19   9  13  1   
 20   9  28  1   
 21  10  14  1   
 22  10  29  1   
 23  11  12  2   
 24  11  30  1   
 25  12  15  1   
 26  13  16  1   
 27  13  17  1   
 28  13  18  1   
 29  14  19  1   
 30  14  31  1   
 31  14  32  1   
 32  15  20  3   
 33  16  33  1   
 34  17  19  1   
 35  17  34  1   
 36  17  35  1   
 37  18  21  1   
 38  18  36  1   
 39  18  37  1   
 40  19  38  1   
 41  19  39  1   
 42  21  40  1   
 43  21  41  1   
 44  21  42  1   
@<TRIPOS>SUBSTRUCTURE
  1 ****   5 GROUP 4 **** **** 0

# MOE 2024.06 (io_trps.svl 2023.06)
