@<TRIPOS>MOLECULE
NONAME
40 42 1 0 0 
SMALL
USER_CHARGES


@<TRIPOS>ATOM
  1 O        0.6380    -1.0460     1.5340 O.3   1 <1>  -0.0190 
  2 N        0.7080    -2.2900     1.9000 N.2   1 <1>  -0.4100 
  3 C        0.8120    -1.0860     0.2360 C.2   1 <1>   0.2980 
  4 C        0.9040    -2.9820     0.8470 C.2   1 <1>   0.3350 
  5 N        0.9970    -2.2470    -0.2560 N.2   1 <1>  -0.5650 
  6 C        0.8060     0.2180    -0.5480 C.3   1 <1>   0.3000 
  7 C        1.0390    -4.5080     0.8280 C.3   1 <1>   0.2910 
  8 O       -0.3700     0.9400    -0.3090 O.3   1 <1>  -0.5600 
  9 N       -0.1510    -5.2350     0.3070 N.3   1 <1>  -0.8100 
 10 C       -0.4690     2.1260    -1.0300 C.3   1 <1>   0.0400 
 11 C        0.1180    -6.6940     0.2350 C.3   1 <1>   0.2900 
 12 C       -1.3630    -4.9160     1.0820 C.3   1 <1>   0.0300 
 13 C       -0.9050    -7.4980    -0.5680 C.2   1 <1>   0.2980 
 14 O       -2.0690    -7.7620    -0.0470 O.3   1 <1>  -0.2800 
 15 N       -0.7130    -7.9920    -1.7280 N.2   1 <1>  -0.3380 
 16 C       -2.6100    -8.4610    -1.0180 C.2   1 <1>   0.4250 
 17 N       -1.8250    -8.6200    -2.0280 N.2   1 <1>  -0.3380 
 18 C       -3.9610    -8.9680    -0.8780 C.ar  1 <1>   0.0530 
 19 C       -4.7220    -8.7330     0.2700 C.ar  1 <1>  -0.1500 
 20 C       -4.5580    -9.7180    -1.8940 C.ar  1 <1>  -0.1500 
 21 C       -6.0090    -9.2200     0.3980 C.ar  1 <1>  -0.1500 
 22 C       -5.8460   -10.2080    -1.7720 C.ar  1 <1>  -0.1500 
 23 C       -6.5750    -9.9600    -0.6240 C.ar  1 <1>  -0.1500 
 24 H        0.8700     0.0010    -1.5990 H     1 <1>   0.0800 
 25 H        1.6440     0.8200    -0.2480 H     1 <1>   0.0800 
 26 H        1.2480    -4.8390     1.8300 H     1 <1>   0.0800 
 27 H        1.8910    -4.7450     0.2150 H     1 <1>   0.0800 
 28 H       -1.4000     2.5970    -0.7700 H     1 <1>   0.0800 
 29 H       -0.4590     1.9040    -2.0840 H     1 <1>   0.0800 
 30 H        0.3500     2.7730    -0.7680 H     1 <1>   0.0800 
 31 H        0.1780    -7.1020     1.2280 H     1 <1>   0.0800 
 32 H        1.0720    -6.8430    -0.2400 H     1 <1>   0.0800 
 33 H       -1.5360    -3.8530     1.0830 H     1 <1>   0.0800 
 34 H       -1.2670    -5.2550     2.0990 H     1 <1>   0.0800 
 35 H       -2.2260    -5.3760     0.6330 H     1 <1>   0.0800 
 36 H       -4.3020    -8.1590     1.0770 H     1 <1>   0.1500 
 37 H       -4.0040    -9.9200    -2.7950 H     1 <1>   0.1500 
 38 H       -6.5740    -9.0250     1.2940 H     1 <1>   0.1500 
 39 H       -6.2810   -10.7830    -2.5710 H     1 <1>   0.1500 
 40 H       -7.5770   -10.3410    -0.5270 H     1 <1>   0.1500 
@<TRIPOS>BOND
  1   1   2  1   
  2   1   3  1   
  3   2   4  2   
  4   3   5  2   
  5   3   6  1   
  6   4   5  1   
  7   4   7  1   
  8   6   8  1   
  9   6  24  1   
 10   6  25  1   
 11   7   9  1   
 12   7  26  1   
 13   7  27  1   
 14   8  10  1   
 15   9  11  1   
 16   9  12  1   
 17  10  28  1   
 18  10  29  1   
 19  10  30  1   
 20  11  13  1   
 21  11  31  1   
 22  11  32  1   
 23  12  33  1   
 24  12  34  1   
 25  12  35  1   
 26  13  14  1   
 27  13  15  2   
 28  14  16  1   
 29  15  17  1   
 30  16  17  2   
 31  16  18  1   
 32  18  19  ar  
 33  18  20  ar  
 34  19  21  ar  
 35  19  36  1   
 36  20  22  ar  
 37  20  37  1   
 38  21  23  ar  
 39  21  38  1   
 40  22  23  ar  
 41  22  39  1   
 42  23  40  1   
@<TRIPOS>SUBSTRUCTURE
  1 ****  12 GROUP 4 **** **** 0

# MOE 2024.06 (io_trps.svl 2023.06)
