@<TRIPOS>MOLECULE
NONAME
48 51 1 0 0 
SMALL
USER_CHARGES


@<TRIPOS>ATOM
  1 O        1.0560     0.4720    -0.6250 O.3   1 <1>  -0.6800 
  2 C        1.5940    -0.1470     0.4890 C.3   1 <1>   0.2800 
  3 C        3.1490    -0.0550     0.4620 C.3   1 <1>  -0.0800 
  4 C        1.1490    -1.6200     0.4290 C.3   1 <1>  -0.1600 
  5 C        0.9760     0.5380     1.7280 C.3   1 <1>  -0.1600 
  6 C        3.8690    -1.2770    -0.1350 C.3   1 <1>  -0.0800 
  7 C        3.7410     1.1300    -0.3050 C.3   1 <1>   0.2090 
  8 C        1.6730    -2.3750    -0.8130 C.3   1 <1>  -0.1600 
  9 C        1.2730     2.0410     1.8760 C.3   1 <1>  -0.2400 
 10 C        3.0550    -1.8890    -1.2870 C.3   1 <1>  -0.1600 
 11 C        5.2350    -0.7530    -0.5900 C.3   1 <1>   0.2090 
 12 N        5.1320     0.7310    -0.6180 N.pl3 1 <1>  -0.8380 
 13 C        6.1600     1.5430    -0.1600 C.ar  1 <1>   0.4100 
 14 N        6.8670     1.1190     0.8710 N.ar  1 <1>  -0.3100 
 15 C        6.3920     2.7980    -0.7780 C.ar  1 <1>   0.0000 
 16 N        7.8190     1.8820     1.3930 N.ar  1 <1>  -0.3100 
 17 C        7.3840     3.6090    -0.2080 C.ar  1 <1>   0.0000 
 18 C        5.7040     3.2720    -1.9170 C.ar  1 <1>  -0.1500 
 19 C        8.0670     3.0610     0.8950 C.ar  1 <1>   0.1670 
 20 C        7.6250     4.8840    -0.7730 C.ar  1 <1>  -0.1500 
 21 C        5.9600     4.5060    -2.4490 C.ar  1 <1>  -0.1500 
 22 C        9.1700     3.8540     1.5750 C.3   1 <1>  -0.0970 
 23 C        6.9300     5.3240    -1.8660 C.ar  1 <1>  -0.1500 
 24 H        0.0890     0.3550    -0.6210 H     1 <1>   0.4000 
 25 H        3.4970     0.0270     1.4760 H     1 <1>   0.0800 
 26 H        1.5300    -2.1140     1.3050 H     1 <1>   0.0800 
 27 H        0.0770    -1.6950     0.4720 H     1 <1>   0.0800 
 28 H       -0.0910     0.4010     1.7070 H     1 <1>   0.0800 
 29 H        1.3340     0.0380     2.6110 H     1 <1>   0.0800 
 30 H        4.0150    -2.0310     0.6180 H     1 <1>   0.0800 
 31 H        3.7150     2.0330     0.2790 H     1 <1>   0.0800 
 32 H        3.2250     1.2950    -1.2350 H     1 <1>   0.0800 
 33 H        1.7210    -3.4250    -0.5820 H     1 <1>   0.0800 
 34 H        0.9760    -2.2560    -1.6250 H     1 <1>   0.0800 
 35 H        0.9870     2.5780     0.9890 H     1 <1>   0.0800 
 36 H        2.3180     2.2080     2.0640 H     1 <1>   0.0800 
 37 H        0.7190     2.4420     2.7070 H     1 <1>   0.0800 
 38 H        2.9170    -1.1370    -2.0470 H     1 <1>   0.0800 
 39 H        3.5920    -2.7070    -1.7340 H     1 <1>   0.0800 
 40 H        5.4890    -1.1170    -1.5710 H     1 <1>   0.0800 
 41 H        5.9970    -1.0700     0.1010 H     1 <1>   0.0800 
 42 H        4.9650     2.6360    -2.3700 H     1 <1>   0.1500 
 43 H        8.3720     5.5210    -0.3370 H     1 <1>   0.1500 
 44 H        5.4250     4.8550    -3.3150 H     1 <1>   0.1500 
 45 H        9.9520     4.0720     0.8720 H     1 <1>   0.0800 
 46 H        9.5930     3.2910     2.3880 H     1 <1>   0.0800 
 47 H        8.7720     4.7720     1.9690 H     1 <1>   0.0800 
 48 H        7.1200     6.2940    -2.2910 H     1 <1>   0.1500 
@<TRIPOS>BOND
  1   1   2  1   
  2   1  24  1   
  3   2   3  1   
  4   2   4  1   
  5   2   5  1   
  6   3   6  1   
  7   3   7  1   
  8   3  25  1   
  9   4   8  1   
 10   4  26  1   
 11   4  27  1   
 12   5   9  1   
 13   5  28  1   
 14   5  29  1   
 15   6  10  1   
 16   6  11  1   
 17   6  30  1   
 18   7  12  1   
 19   7  31  1   
 20   7  32  1   
 21   8  10  1   
 22   8  33  1   
 23   8  34  1   
 24   9  35  1   
 25   9  36  1   
 26   9  37  1   
 27  10  38  1   
 28  10  39  1   
 29  11  12  1   
 30  11  40  1   
 31  11  41  1   
 32  12  13  1   
 33  13  14  ar  
 34  13  15  ar  
 35  14  16  ar  
 36  15  17  ar  
 37  15  18  ar  
 38  16  19  ar  
 39  17  19  ar  
 40  17  20  ar  
 41  18  21  ar  
 42  18  42  1   
 43  19  22  1   
 44  20  23  ar  
 45  20  43  1   
 46  21  23  ar  
 47  21  44  1   
 48  22  45  1   
 49  22  46  1   
 50  22  47  1   
 51  23  48  1   
@<TRIPOS>SUBSTRUCTURE
  1 ****  12 GROUP 4 **** **** 0

# MOE 2024.06 (io_trps.svl 2023.06)
