@<TRIPOS>MOLECULE
NONAME
49 51 1 0 0 
SMALL
USER_CHARGES


@<TRIPOS>ATOM
  1 F       -0.0860    -0.9050     1.1770 F     1 <1>  -0.1900 
  2 C       -0.7430    -1.9540     0.7500 C.ar  1 <1>   0.1900 
  3 C       -0.1050    -3.0150     0.0980 C.ar  1 <1>   0.0830 
  4 C       -2.1060    -1.9580     0.9740 C.ar  1 <1>  -0.1500 
  5 O        1.2270    -3.1260    -0.1800 O.3   1 <1>  -0.3630 
  6 C       -0.8910    -4.0780    -0.3190 C.ar  1 <1>  -0.1500 
  7 C       -2.8590    -3.0340     0.5430 C.ar  1 <1>  -0.1500 
  8 C        2.1790    -2.1690     0.2260 C.3   1 <1>   0.0400 
  9 C       -2.2720    -4.1200    -0.1100 C.ar  1 <1>   0.0530 
 10 C       -3.0520    -5.2490    -0.5610 C.2   1 <1>   0.0870 
 11 O       -2.6060    -6.0240    -1.5230 O.3   1 <1>  -0.0190 
 12 C       -4.2590    -5.7480    -0.1920 C.2   1 <1>  -0.2330 
 13 N       -3.4330    -6.9930    -1.8210 N.2   1 <1>  -0.4100 
 14 C       -4.4380    -6.8450    -1.0330 C.2   1 <1>   0.3720 
 15 C       -5.1710    -5.3130     0.8090 C.2   1 <1>   1.0330 
 16 N       -5.5410    -7.7010    -1.0660 N.pl3 1 <1>  -0.8210 
 17 O       -6.0280    -4.4510     0.5450 O.co2 1 <1>  -0.9000 
 18 O       -5.1190    -5.7770     1.9610 O.co2 1 <1>  -0.9000 
 19 C       -6.8000    -7.0270    -1.4670 C.3   1 <1>   0.2090 
 20 C       -5.7240    -8.4800     0.1810 C.3   1 <1>   0.2090 
 21 C       -7.8430    -8.0990    -1.7890 C.3   1 <1>  -0.1600 
 22 C       -6.7350    -9.5990    -0.0820 C.3   1 <1>  -0.1600 
 23 C       -8.0810    -9.0360    -0.5890 C.3   1 <1>  -0.0800 
 24 C       -9.0630   -10.1470    -0.9810 C.3   1 <1>   0.1400 
 25 N       -9.3990   -10.9820     0.1950 N.am  1 <1>  -0.7300 
 26 C      -10.6480   -11.3780     0.5330 C.2   1 <1>   0.5690 
 27 O      -11.6200   -11.1100    -0.1290 O.2   1 <1>  -0.5700 
 28 C      -10.8160   -12.1900     1.7890 C.3   1 <1>  -0.1790 
 29 H       -2.5750    -1.1330     1.4780 H     1 <1>   0.1500 
 30 H       -0.4120    -4.9000    -0.8180 H     1 <1>   0.1500 
 31 H       -3.9220    -3.0260     0.7170 H     1 <1>   0.1500 
 32 H        3.1500    -2.5090    -0.0870 H     1 <1>   0.0800 
 33 H        2.1520    -2.0810     1.2980 H     1 <1>   0.0800 
 34 H        1.9530    -1.2290    -0.2450 H     1 <1>   0.0800 
 35 H       -6.6180    -6.4110    -2.3310 H     1 <1>   0.0800 
 36 H       -7.1550    -6.3960    -0.6690 H     1 <1>   0.0800 
 37 H       -6.0880    -7.8420     0.9690 H     1 <1>   0.0800 
 38 H       -4.7780    -8.8930     0.4890 H     1 <1>   0.0800 
 39 H       -7.4960    -8.6620    -2.6380 H     1 <1>   0.0800 
 40 H       -8.7630    -7.6140    -2.0620 H     1 <1>   0.0800 
 41 H       -6.8770   -10.1440     0.8310 H     1 <1>   0.0800 
 42 H       -6.3140   -10.2670    -0.8130 H     1 <1>   0.0800 
 43 H       -8.5270    -8.4500     0.1980 H     1 <1>   0.0800 
 44 H       -8.6280   -10.7700    -1.7440 H     1 <1>   0.0800 
 45 H       -9.9640    -9.7100    -1.3790 H     1 <1>   0.0800 
 46 H       -8.6090   -11.2340     0.7880 H     1 <1>   0.3700 
 47 H      -10.2290   -13.0860     1.7240 H     1 <1>   0.0800 
 48 H      -11.8490   -12.4590     1.9110 H     1 <1>   0.0800 
 49 H      -10.5030   -11.6120     2.6380 H     1 <1>   0.0800 
@<TRIPOS>BOND
  1   1   2  1   
  2   2   3  ar  
  3   2   4  ar  
  4   3   5  1   
  5   3   6  ar  
  6   4   7  ar  
  7   4  29  1   
  8   5   8  1   
  9   6   9  ar  
 10   6  30  1   
 11   7   9  ar  
 12   7  31  1   
 13   8  32  1   
 14   8  33  1   
 15   8  34  1   
 16   9  10  1   
 17  10  11  1   
 18  10  12  2   
 19  11  13  1   
 20  12  14  1   
 21  12  15  1   
 22  13  14  2   
 23  14  16  1   
 24  15  17  ar  
 25  15  18  ar  
 26  16  19  1   
 27  16  20  1   
 28  19  21  1   
 29  19  35  1   
 30  19  36  1   
 31  20  22  1   
 32  20  37  1   
 33  20  38  1   
 34  21  23  1   
 35  21  39  1   
 36  21  40  1   
 37  22  23  1   
 38  22  41  1   
 39  22  42  1   
 40  23  24  1   
 41  23  43  1   
 42  24  25  1   
 43  24  44  1   
 44  24  45  1   
 45  25  26  am  
 46  25  46  1   
 47  26  27  2   
 48  26  28  1   
 49  28  47  1   
 50  28  48  1   
 51  28  49  1   
@<TRIPOS>SUBSTRUCTURE
  1 ****  12 GROUP 4 **** **** 0

# MOE 2024.06 (io_trps.svl 2023.06)
