@<TRIPOS>MOLECULE
NONAME
21 22 1 0 0 
SMALL
USER_CHARGES


@<TRIPOS>ATOM
  1 CL      -0.3400     0.2210    -0.2180 Cl    1 <1>  -0.1770 
  2 C       -0.0650    -1.5040    -0.2500 C.ar  1 <1>   0.1770 
  3 C        1.1500    -2.0440     0.1590 C.ar  1 <1>  -0.0320 
  4 C       -1.1020    -2.3070    -0.6870 C.ar  1 <1>  -0.1500 
  5 C        1.3070    -3.4240     0.1370 C.ar  1 <1>  -0.1500 
  6 C        2.2970    -1.1640     0.6370 C.3   1 <1>  -0.0680 
  7 C       -0.9160    -3.6750    -0.7070 C.ar  1 <1>   0.1770 
  8 C        0.2760    -4.2430    -0.2970 C.ar  1 <1>  -0.1500 
  9 C        3.0140    -0.2460    -0.3110 C.3   1 <1>  -0.2470 
 10 C        3.7010    -1.4750     0.2090 C.3   1 <1>  -0.2000 
 11 CL      -2.2110    -4.7070    -1.2550 Cl    1 <1>  -0.1770 
 12 C        3.4830     1.1390     0.1120 C.2   1 <1>   0.9470 
 13 O        3.6800     1.3710     1.3110 O.co2 1 <1>  -0.9000 
 14 O        3.6750     1.9840    -0.7680 O.co2 1 <1>  -0.9000 
 15 H       -2.0320    -1.8730    -1.0030 H     1 <1>   0.1500 
 16 H        2.2360    -3.8590     0.4610 H     1 <1>   0.1500 
 17 H        2.1480    -0.7900     1.6380 H     1 <1>   0.1000 
 18 H        0.3950    -5.3120    -0.3180 H     1 <1>   0.1500 
 19 H        2.6940    -0.2420    -1.3350 H     1 <1>   0.1000 
 20 H        3.9050    -2.2570    -0.5000 H     1 <1>   0.1000 
 21 H        4.4980    -1.3350     0.9190 H     1 <1>   0.1000 
@<TRIPOS>BOND
  1   1   2  1   
  2   2   3  ar  
  3   2   4  ar  
  4   3   5  ar  
  5   3   6  1   
  6   4   7  ar  
  7   4  15  1   
  8   5   8  ar  
  9   5  16  1   
 10   6   9  1   
 11   6  10  1   
 12   6  17  1   
 13   7   8  ar  
 14   7  11  1   
 15   8  18  1   
 16   9  10  1   
 17   9  12  1   
 18   9  19  1   
 19  10  20  1   
 20  10  21  1   
 21  12  13  ar  
 22  12  14  ar  
@<TRIPOS>SUBSTRUCTURE
  1 ****   3 GROUP 4 **** **** 0

# MOE 2024.06 (io_trps.svl 2023.06)
