@<TRIPOS>MOLECULE
NONAME
44 46 1 0 0 
SMALL
USER_CHARGES


@<TRIPOS>ATOM
  1 CL       1.0640    -3.6840    -2.1810 Cl    1 <1>  -0.1230 
  2 C       -0.4020    -4.0660    -1.2970 C.2   1 <1>   0.1230 
  3 C       -0.4700    -4.7440    -0.0900 C.2   1 <1>   0.1390 
  4 C       -1.6680    -3.7690    -1.6410 C.2   1 <1>  -0.3020 
  5 N       -1.7050    -4.8720     0.3070 N.2   1 <1>  -0.7070 
  6 N       -2.4420    -4.2660    -0.6530 N.pl3 1 <1>   0.3140 
  7 C       -3.9060    -4.2060    -0.5520 C.3   1 <1>   0.0960 
  8 C       -4.4090    -5.5970    -0.1560 C.3   1 <1>   0.3430 
  9 N       -5.8050    -5.6140     0.4010 N.4   1 <1>  -0.9590 
 10 C       -6.2160    -6.9700     0.9070 C.3   1 <1>   0.4230 
 11 C       -6.7820    -5.1420    -0.6260 C.3   1 <1>   0.3430 
 12 C       -7.5830    -6.8250     1.5960 C.3   1 <1>  -0.1600 
 13 C       -5.2110    -7.6090     1.8970 C.3   1 <1>  -0.1600 
 14 C       -8.1580    -4.9570     0.0110 C.3   1 <1>  -0.1600 
 15 C       -8.6500    -6.2570     0.6540 C.3   1 <1>  -0.1600 
 16 C       -4.0130    -8.3750     1.2840 C.3   1 <1>   0.0960 
 17 N       -4.3980    -9.1510     0.0870 N.pl3 1 <1>   0.3140 
 18 N       -4.5860    -8.5610    -1.1120 N.2   1 <1>  -0.7070 
 19 C       -4.6230   -10.4760     0.0200 C.2   1 <1>  -0.3020 
 20 C       -4.9060    -9.5340    -1.9130 C.2   1 <1>   0.1390 
 21 C       -4.9500   -10.7580    -1.2580 C.2   1 <1>  -0.1500 
 22 H        0.3860    -5.1160     0.4470 H     1 <1>   0.1500 
 23 H       -2.0350    -3.2490    -2.5060 H     1 <1>   0.1500 
 24 H       -4.3100    -3.9030    -1.4990 H     1 <1>   0.0800 
 25 H       -4.1490    -3.4850     0.2060 H     1 <1>   0.0800 
 26 H       -3.7420    -5.9630     0.6030 H     1 <1>   0.0800 
 27 H       -4.3410    -6.2520    -1.0080 H     1 <1>   0.0800 
 28 H       -5.8520    -4.9800     1.2060 H     1 <1>   0.4500 
 29 H       -6.3530    -7.6330     0.0680 H     1 <1>   0.0800 
 30 H       -6.8470    -5.8650    -1.4240 H     1 <1>   0.0800 
 31 H       -6.4630    -4.2020    -1.0460 H     1 <1>   0.0800 
 32 H       -7.4890    -6.1960     2.4650 H     1 <1>   0.0800 
 33 H       -7.9170    -7.7910     1.9340 H     1 <1>   0.0800 
 34 H       -5.7430    -8.3420     2.4780 H     1 <1>   0.0800 
 35 H       -4.8560    -6.8740     2.5960 H     1 <1>   0.0800 
 36 H       -8.8590    -4.6480    -0.7450 H     1 <1>   0.0800 
 37 H       -8.1130    -4.1740     0.7480 H     1 <1>   0.0800 
 38 H       -9.5640    -6.0760     1.1960 H     1 <1>   0.0800 
 39 H       -8.8650    -6.9780    -0.1180 H     1 <1>   0.0800 
 40 H       -3.6100    -9.0550     2.0120 H     1 <1>   0.0800 
 41 H       -3.2170    -7.7120     1.0030 H     1 <1>   0.0800 
 42 H       -4.5350   -11.1380     0.8620 H     1 <1>   0.1500 
 43 H       -5.1120    -9.4040    -2.9630 H     1 <1>   0.1500 
 44 H       -5.1930   -11.7080    -1.7030 H     1 <1>   0.1500 
@<TRIPOS>BOND
  1   1   2  1   
  2   2   3  1   
  3   2   4  2   
  4   3   5  2   
  5   3  22  1   
  6   4   6  1   
  7   4  23  1   
  8   5   6  1   
  9   6   7  1   
 10   7   8  1   
 11   7  24  1   
 12   7  25  1   
 13   8   9  1   
 14   8  26  1   
 15   8  27  1   
 16   9  10  1   
 17   9  11  1   
 18   9  28  1   
 19  10  12  1   
 20  10  13  1   
 21  10  29  1   
 22  11  14  1   
 23  11  30  1   
 24  11  31  1   
 25  12  15  1   
 26  12  32  1   
 27  12  33  1   
 28  13  16  1   
 29  13  34  1   
 30  13  35  1   
 31  14  15  1   
 32  14  36  1   
 33  14  37  1   
 34  15  38  1   
 35  15  39  1   
 36  16  17  1   
 37  16  40  1   
 38  16  41  1   
 39  17  18  1   
 40  17  19  1   
 41  18  20  2   
 42  19  21  2   
 43  19  42  1   
 44  20  21  1   
 45  20  43  1   
 46  21  44  1   
@<TRIPOS>SUBSTRUCTURE
  1 ****   8 GROUP 4 **** **** 0

# MOE 2024.06 (io_trps.svl 2023.06)
