@<TRIPOS>MOLECULE
NONAME
57 59 1 0 0 
SMALL
USER_CHARGES


@<TRIPOS>ATOM
  1 O       -0.2420     0.5560    -1.7880 O.2   1 <1>  -0.5700 
  2 C        0.7230    -0.0570    -1.4010 C.2   1 <1>   0.5690 
  3 N        1.7790     0.5110    -0.7430 N.am  1 <1>  -0.4940 
  4 C        0.7450    -1.5570    -1.6290 C.3   1 <1>  -0.0990 
  5 C        1.9620     1.8630    -0.3570 C.2   1 <1>  -0.0880 
  6 C        0.0590    -2.3460    -0.4920 C.3   1 <1>  -0.0800 
  7 N        3.0180     2.3370     0.3610 N.pl3 1 <1>   0.3140 
  8 C        1.1720     2.9340    -0.6020 C.2   1 <1>  -0.1500 
  9 C        0.1360    -3.8580    -0.7670 C.3   1 <1>  -0.1600 
 10 C       -1.4130    -1.9260    -0.3110 C.3   1 <1>  -0.1600 
 11 N        2.9160     3.6660     0.5780 N.2   1 <1>  -0.7070 
 12 C        4.1590     1.5700     0.8980 C.3   1 <1>   0.0960 
 13 C        1.8120     4.0100    -0.0020 C.2   1 <1>   0.1080 
 14 C       -0.6180    -4.6770     0.2820 C.3   1 <1>   0.3430 
 15 C       -2.1410    -2.7780     0.7260 C.3   1 <1>   0.3430 
 16 C        5.1800     1.2490    -0.2040 C.3   1 <1>  -0.1600 
 17 C        1.3090     5.4340    -0.0060 C.3   1 <1>  -0.0590 
 18 N       -2.0340    -4.2140     0.3550 N.4   1 <1>  -0.9590 
 19 C        6.3310     0.3930     0.3350 C.3   1 <1>  -0.2400 
 20 C       -2.8490    -5.0730     1.2570 C.3   1 <1>   0.4860 
 21 C       -2.8940    -6.4720     0.6770 C.ar  1 <1>  -0.1440 
 22 C       -2.1630    -7.4960     1.2640 C.ar  1 <1>  -0.1500 
 23 C       -3.6610    -6.7390    -0.4490 C.ar  1 <1>  -0.1500 
 24 C       -2.1880    -8.7680     0.7220 C.ar  1 <1>  -0.1500 
 25 C       -3.6830    -8.0120    -0.9900 C.ar  1 <1>  -0.1500 
 26 C       -2.9460    -9.0260    -0.4060 C.ar  1 <1>  -0.1500 
 27 H        2.5500    -0.1160    -0.5260 H     1 <1>   0.3700 
 28 H        1.7650    -1.8790    -1.7370 H     1 <1>   0.0800 
 29 H        0.2480    -1.7550    -2.5620 H     1 <1>   0.0800 
 30 H        0.5840    -2.1390     0.4270 H     1 <1>   0.0800 
 31 H        0.2440     2.9680    -1.1440 H     1 <1>   0.1500 
 32 H        1.1660    -4.1720    -0.7710 H     1 <1>   0.0800 
 33 H       -0.2690    -4.0810    -1.7390 H     1 <1>   0.0800 
 34 H       -1.9360    -1.9850    -1.2510 H     1 <1>   0.0800 
 35 H       -1.4640    -0.9010     0.0130 H     1 <1>   0.0800 
 36 H        3.7840     0.6690     1.3440 H     1 <1>   0.0800 
 37 H        4.6260     2.1600     1.6660 H     1 <1>   0.0800 
 38 H       -0.1440    -4.5600     1.2430 H     1 <1>   0.0800 
 39 H       -0.5820    -5.7210     0.0100 H     1 <1>   0.0800 
 40 H       -3.1770    -2.4790     0.7690 H     1 <1>   0.0800 
 41 H       -1.7000    -2.6150     1.6970 H     1 <1>   0.0800 
 42 H        5.5770     2.1730    -0.5910 H     1 <1>   0.0800 
 43 H        4.7000     0.7250    -1.0120 H     1 <1>   0.0800 
 44 H        0.3860     5.5050    -0.5490 H     1 <1>   0.0800 
 45 H        2.0410     6.0700    -0.4680 H     1 <1>   0.0800 
 46 H        1.1520     5.7600     1.0060 H     1 <1>   0.0800 
 47 H       -2.4290    -4.3340    -0.5860 H     1 <1>   0.4500 
 48 H        6.8450     0.9110     1.1270 H     1 <1>   0.0800 
 49 H        7.0390     0.1920    -0.4510 H     1 <1>   0.0800 
 50 H        5.9670    -0.5450     0.7140 H     1 <1>   0.0800 
 51 H       -3.8530    -4.6880     1.3310 H     1 <1>   0.0800 
 52 H       -2.4180    -5.0950     2.2450 H     1 <1>   0.0800 
 53 H       -1.5700    -7.3220     2.1470 H     1 <1>   0.1500 
 54 H       -4.2510    -5.9700    -0.9170 H     1 <1>   0.1500 
 55 H       -1.6210    -9.5640     1.1770 H     1 <1>   0.1500 
 56 H       -4.2780    -8.2210    -1.8640 H     1 <1>   0.1500 
 57 H       -2.9650   -10.0180    -0.8270 H     1 <1>   0.1500 
@<TRIPOS>BOND
  1   1   2  2   
  2   2   3  am  
  3   2   4  1   
  4   3   5  1   
  5   3  27  1   
  6   4   6  1   
  7   4  28  1   
  8   4  29  1   
  9   5   7  1   
 10   5   8  2   
 11   6   9  1   
 12   6  10  1   
 13   6  30  1   
 14   7  11  1   
 15   7  12  1   
 16   8  13  1   
 17   8  31  1   
 18   9  14  1   
 19   9  32  1   
 20   9  33  1   
 21  10  15  1   
 22  10  34  1   
 23  10  35  1   
 24  11  13  2   
 25  12  16  1   
 26  12  36  1   
 27  12  37  1   
 28  13  17  1   
 29  14  18  1   
 30  14  38  1   
 31  14  39  1   
 32  15  18  1   
 33  15  40  1   
 34  15  41  1   
 35  16  19  1   
 36  16  42  1   
 37  16  43  1   
 38  17  44  1   
 39  17  45  1   
 40  17  46  1   
 41  18  20  1   
 42  18  47  1   
 43  19  48  1   
 44  19  49  1   
 45  19  50  1   
 46  20  21  1   
 47  20  51  1   
 48  20  52  1   
 49  21  22  ar  
 50  21  23  ar  
 51  22  24  ar  
 52  22  53  1   
 53  23  25  ar  
 54  23  54  1   
 55  24  26  ar  
 56  24  55  1   
 57  25  26  ar  
 58  25  56  1   
 59  26  57  1   
@<TRIPOS>SUBSTRUCTURE
  1 ****   6 GROUP 4 **** **** 0

# MOE 2024.06 (io_trps.svl 2023.06)
