@<TRIPOS>MOLECULE
NONAME
50 53 1 0 0 
SMALL
USER_CHARGES


@<TRIPOS>ATOM
  1 O       -0.3930     0.7120    -0.0470 O.2   1 <1>  -0.5700 
  2 C       -0.2950     1.8890     0.1920 C.2   1 <1>   0.5690 
  3 N       -1.3940     2.6290     0.4570 N.am  1 <1>  -0.7300 
  4 C        1.0780     2.5690     0.1660 C.3   1 <1>   0.1810 
  5 C       -1.3480     4.0750     0.7860 C.3   1 <1>   0.3640 
  6 O        1.0880     3.8220     0.8180 O.3   1 <1>  -0.5600 
  7 C       -2.4630     4.7880     0.0290 C.ar  1 <1>  -0.1440 
  8 C        0.0330     4.6930     0.4450 C.3   1 <1>   0.2610 
  9 C       -3.2290     5.7490     0.6750 C.ar  1 <1>   0.1600 
 10 C       -2.7350     4.5120    -1.3000 C.ar  1 <1>  -0.1500 
 11 C        0.2030     6.0670     1.1040 C.2   1 <1>   0.5690 
 12 N       -4.2190     6.4300     0.1200 N.ar  1 <1>  -0.6200 
 13 C       -3.7610     5.2150    -1.8930 C.ar  1 <1>  -0.1500 
 14 O       -0.4340     6.3560     2.0930 O.2   1 <1>  -0.5700 
 15 N        1.0590     6.9600     0.5530 N.am  1 <1>  -0.7300 
 16 C       -4.4610     6.1480    -1.1490 C.ar  1 <1>   0.1600 
 17 C        1.3050     8.3260     1.0430 C.3   1 <1>   0.3210 
 18 C        2.2970     9.0250     0.1150 C.2   1 <1>   0.1080 
 19 N        2.8190     8.4610    -0.9400 N.2   1 <1>  -0.7070 
 20 C        2.7560    10.3320     0.2860 C.2   1 <1>  -0.1810 
 21 N        3.6230     9.4020    -1.4660 N.pl3 1 <1>   0.3000 
 22 C        3.6020    10.5400    -0.7430 C.2   1 <1>  -0.3320 
 23 C        2.3990    11.3170     1.3840 C.3   1 <1>   0.0210 
 24 C        4.4070    11.7800    -1.0820 C.3   1 <1>   0.0200 
 25 C        1.8920    12.6500     0.8150 C.3   1 <1>  -0.1600 
 26 C        3.5150    13.0240    -1.1720 C.3   1 <1>  -0.1600 
 27 C        2.9870    13.5270     0.1830 C.3   1 <1>  -0.1600 
 28 H       -2.3030     2.1670     0.4900 H     1 <1>   0.3700 
 29 H        1.3860     2.7150    -0.8530 H     1 <1>   0.0800 
 30 H        1.7970     1.9400     0.6580 H     1 <1>   0.0800 
 31 H       -1.5200     4.1710     1.8450 H     1 <1>   0.0800 
 32 H        0.0960     4.8340    -0.6180 H     1 <1>   0.0800 
 33 H       -3.0170     5.9780     1.7070 H     1 <1>   0.1500 
 34 H       -2.1770     3.7780    -1.8570 H     1 <1>   0.1500 
 35 H       -4.0190     5.0430    -2.9220 H     1 <1>   0.1500 
 36 H        1.6620     6.7540    -0.2530 H     1 <1>   0.3700 
 37 H       -5.2620     6.6910    -1.6220 H     1 <1>   0.1500 
 38 H        0.3770     8.8700     1.0620 H     1 <1>   0.0800 
 39 H        1.7080     8.2800     2.0390 H     1 <1>   0.0800 
 40 H        4.1730     9.2410    -2.3170 H     1 <1>   0.2700 
 41 H        1.6300    10.8970     2.0060 H     1 <1>   0.0800 
 42 H        3.2620    11.4860     2.0030 H     1 <1>   0.0800 
 43 H        5.1710    11.9270    -0.3390 H     1 <1>   0.0800 
 44 H        4.8960    11.6380    -2.0300 H     1 <1>   0.0800 
 45 H        1.1150    12.4590     0.0950 H     1 <1>   0.0800 
 46 H        1.4500    13.2050     1.6240 H     1 <1>   0.0800 
 47 H        4.0970    13.8140    -1.6130 H     1 <1>   0.0800 
 48 H        2.6890    12.8260    -1.8340 H     1 <1>   0.0800 
 49 H        3.8040    13.6470     0.8730 H     1 <1>   0.0800 
 50 H        2.5650    14.5050     0.0230 H     1 <1>   0.0800 
@<TRIPOS>BOND
  1   1   2  2   
  2   2   3  am  
  3   2   4  1   
  4   3   5  1   
  5   3  28  1   
  6   4   6  1   
  7   4  29  1   
  8   4  30  1   
  9   5   7  1   
 10   5   8  1   
 11   5  31  1   
 12   6   8  1   
 13   7   9  ar  
 14   7  10  ar  
 15   8  11  1   
 16   8  32  1   
 17   9  12  ar  
 18   9  33  1   
 19  10  13  ar  
 20  10  34  1   
 21  11  14  2   
 22  11  15  am  
 23  12  16  ar  
 24  13  16  ar  
 25  13  35  1   
 26  15  17  1   
 27  15  36  1   
 28  16  37  1   
 29  17  18  1   
 30  17  38  1   
 31  17  39  1   
 32  18  19  2   
 33  18  20  1   
 34  19  21  1   
 35  20  22  2   
 36  20  23  1   
 37  21  22  1   
 38  21  40  1   
 39  22  24  1   
 40  23  25  1   
 41  23  41  1   
 42  23  42  1   
 43  24  26  1   
 44  24  43  1   
 45  24  44  1   
 46  25  27  1   
 47  25  45  1   
 48  25  46  1   
 49  26  27  1   
 50  26  47  1   
 51  26  48  1   
 52  27  49  1   
 53  27  50  1   
@<TRIPOS>SUBSTRUCTURE
  1 ****  15 GROUP 4 **** **** 0

# MOE 2024.06 (io_trps.svl 2023.06)
