@<TRIPOS>MOLECULE
NONAME
43 44 1 0 0 
SMALL
USER_CHARGES


@<TRIPOS>ATOM
  1 O       -0.4990     0.3890    -0.5290 O.2   1 <1>  -0.5700 
  2 C       -1.5300     0.5840     0.0580 C.2   1 <1>   0.4230 
  3 C       -2.7470    -0.1050    -0.2700 C.ar  1 <1>   0.0860 
  4 C       -1.4730     1.5520     1.2240 C.3   1 <1>  -0.1790 
  5 C       -4.0200     0.4580    -0.3520 C.ar  1 <1>   0.1660 
  6 C       -2.6960    -1.4640    -0.5370 C.ar  1 <1>   0.1600 
  7 N       -5.0890    -0.2560    -0.5970 N.ar  1 <1>  -0.6200 
  8 C       -4.2720     1.9490    -0.1930 C.3   1 <1>  -0.0960 
  9 N       -3.7480    -2.1980    -0.7930 N.ar  1 <1>  -0.6200 
 10 C       -4.9080    -1.5530    -0.7990 C.ar  1 <1>   0.7200 
 11 N       -6.0350    -2.2450    -1.0400 N.pl3 1 <1>  -0.8690 
 12 C       -6.1680    -3.6920    -1.2800 C.3   1 <1>   0.2090 
 13 C       -7.3980    -4.1990    -0.5300 C.3   1 <1>  -0.1600 
 14 C       -7.5900    -5.7090    -0.7230 C.3   1 <1>  -0.1600 
 15 C       -8.8330    -6.2030     0.0320 C.3   1 <1>  -0.1600 
 16 C       -9.0830    -7.7000    -0.1690 C.3   1 <1>   0.2000 
 17 O      -10.2400    -8.0480     0.5080 O.3   1 <1>  -0.5600 
 18 C       -8.0170    -8.6160     0.4140 C.3   1 <1>  -0.1600 
 19 C      -10.2490    -9.4100     0.7980 C.3   1 <1>   0.1200 
 20 C       -8.7970    -9.8800     0.7300 C.3   1 <1>  -0.1600 
 21 H       -2.2950     1.3930     1.8970 H     1 <1>   0.0800 
 22 H       -1.4900     2.5630     0.8610 H     1 <1>   0.0800 
 23 H       -0.5560     1.4010     1.7650 H     1 <1>   0.0800 
 24 H       -1.7350    -1.9530    -0.5280 H     1 <1>   0.1500 
 25 H       -3.4600     2.5230    -0.5990 H     1 <1>   0.0800 
 26 H       -4.4080     2.1910     0.8450 H     1 <1>   0.0800 
 27 H       -5.1660     2.2280    -0.7230 H     1 <1>   0.0800 
 28 H       -6.8840    -1.6840    -1.0720 H     1 <1>   0.4000 
 29 H       -5.2890    -4.2100    -0.9340 H     1 <1>   0.0800 
 30 H       -6.2760    -3.8670    -2.3370 H     1 <1>   0.0800 
 31 H       -8.2700    -3.6800    -0.8890 H     1 <1>   0.0800 
 32 H       -7.2780    -3.9870     0.5190 H     1 <1>   0.0800 
 33 H       -6.7160    -6.2250    -0.3610 H     1 <1>   0.0800 
 34 H       -7.7000    -5.9260    -1.7720 H     1 <1>   0.0800 
 35 H       -9.6960    -5.6680    -0.3210 H     1 <1>   0.0800 
 36 H       -8.7210    -6.0040     1.0840 H     1 <1>   0.0800 
 37 H       -9.2420    -7.9240    -1.2110 H     1 <1>   0.0800 
 38 H       -7.6250    -8.1870     1.3200 H     1 <1>   0.0800 
 39 H       -7.2120    -8.7880    -0.2780 H     1 <1>   0.0800 
 40 H      -10.8590    -9.9080     0.0650 H     1 <1>   0.0800 
 41 H      -10.6690    -9.5420     1.7800 H     1 <1>   0.0800 
 42 H       -8.4840   -10.3230     1.6580 H     1 <1>   0.0800 
 43 H       -8.6920   -10.6030    -0.0590 H     1 <1>   0.0800 
@<TRIPOS>BOND
  1   1   2  2   
  2   2   3  1   
  3   2   4  1   
  4   3   5  ar  
  5   3   6  ar  
  6   4  21  1   
  7   4  22  1   
  8   4  23  1   
  9   5   7  ar  
 10   5   8  1   
 11   6   9  ar  
 12   6  24  1   
 13   7  10  ar  
 14   8  25  1   
 15   8  26  1   
 16   8  27  1   
 17   9  10  ar  
 18  10  11  1   
 19  11  12  1   
 20  11  28  1   
 21  12  13  1   
 22  12  29  1   
 23  12  30  1   
 24  13  14  1   
 25  13  31  1   
 26  13  32  1   
 27  14  15  1   
 28  14  33  1   
 29  14  34  1   
 30  15  16  1   
 31  15  35  1   
 32  15  36  1   
 33  16  17  1   
 34  16  18  1   
 35  16  37  1   
 36  17  19  1   
 37  18  20  1   
 38  18  38  1   
 39  18  39  1   
 40  19  20  1   
 41  19  40  1   
 42  19  41  1   
 43  20  42  1   
 44  20  43  1   
@<TRIPOS>SUBSTRUCTURE
  1 ****  12 GROUP 4 **** **** 0

# MOE 2024.06 (io_trps.svl 2023.06)
