@<TRIPOS>MOLECULE
NONAME
53 55 1 0 0 
SMALL
USER_CHARGES


@<TRIPOS>ATOM
  1 O       -0.5620     0.1250     0.8410 O.2   1 <1>  -0.5700 
  2 C       -1.3870     1.0150     0.7600 C.2   1 <1>   0.5440 
  3 N       -2.7310     0.6960     0.8340 N.am  1 <1>  -0.6600 
  4 C       -0.9350     2.3760     0.5830 C.ar  1 <1>   0.0860 
  5 C       -3.7900     1.6200     0.3220 C.3   1 <1>   0.2200 
  6 C       -3.1310    -0.6750     1.2790 C.3   1 <1>   0.0600 
  7 C       -1.2790     3.3610     1.5010 C.ar  1 <1>   0.1600 
  8 C       -0.1590     2.7630    -0.4970 C.ar  1 <1>  -0.1500 
  9 C       -4.7030     2.1470     1.4270 C.3   1 <1>  -0.1600 
 10 C       -4.7420     0.9850    -0.6920 C.3   1 <1>  -0.1600 
 11 N       -0.9690     4.6420     1.4110 N.ar  1 <1>  -0.6200 
 12 C        0.1960     4.0920    -0.6120 C.ar  1 <1>  -0.1440 
 13 C       -5.9670     2.6100     0.6890 C.3   1 <1>  -0.0800 
 14 C       -5.9810     1.8910    -0.6640 C.3   1 <1>  -0.0800 
 15 C       -0.2420     4.9900     0.3610 C.ar  1 <1>   0.1670 
 16 C        1.0560     4.5220    -1.7940 C.3   1 <1>  -0.0970 
 17 C       -7.2960     2.2480     1.3680 C.3   1 <1>  -0.1600 
 18 C       -7.3320     1.1620    -0.7400 C.3   1 <1>  -0.1600 
 19 C        0.1040     6.4660     0.2900 C.3   1 <1>  -0.0970 
 20 C       -8.2590     1.9120     0.2240 C.3   1 <1>   0.4230 
 21 N       -8.7920     3.1590    -0.4150 N.4   1 <1>  -0.9590 
 22 C       -9.5730     4.0140     0.5380 C.3   1 <1>   0.2630 
 23 C       -9.6560     2.8710    -1.6060 C.3   1 <1>   0.2630 
 24 H       -3.3350     2.4680    -0.1640 H     1 <1>   0.0800 
 25 H       -4.0950    -0.6600     1.7540 H     1 <1>   0.0800 
 26 H       -2.4130    -1.0580     1.9840 H     1 <1>   0.0800 
 27 H       -3.1600    -1.3350     0.4300 H     1 <1>   0.0800 
 28 H       -1.8500     3.0610     2.3610 H     1 <1>   0.1500 
 29 H        0.1510     2.0260    -1.2170 H     1 <1>   0.1500 
 30 H       -4.9310     1.3600     2.1210 H     1 <1>   0.0800 
 31 H       -4.2430     2.9620     1.9570 H     1 <1>   0.0800 
 32 H       -4.2970     0.9530    -1.6710 H     1 <1>   0.0800 
 33 H       -5.0060    -0.0110    -0.3920 H     1 <1>   0.0800 
 34 H       -5.9120     3.6730     0.5180 H     1 <1>   0.0800 
 35 H       -5.9060     2.6250    -1.4500 H     1 <1>   0.0800 
 36 H        1.4200     3.6670    -2.3350 H     1 <1>   0.0800 
 37 H        1.9050     5.0850    -1.4510 H     1 <1>   0.0800 
 38 H        0.4800     5.1300    -2.4690 H     1 <1>   0.0800 
 39 H       -7.6350     3.0140     2.0400 H     1 <1>   0.0800 
 40 H       -7.1670     1.3510     1.9480 H     1 <1>   0.0800 
 41 H       -7.2230     0.1610    -0.3580 H     1 <1>   0.0800 
 42 H       -7.6950     1.0790    -1.7460 H     1 <1>   0.0800 
 43 H        0.0780     6.8230    -0.7220 H     1 <1>   0.0800 
 44 H        1.0850     6.6240     0.6990 H     1 <1>   0.0800 
 45 H       -0.6020     7.0390     0.8640 H     1 <1>   0.0800 
 46 H       -9.0690     1.2850     0.5620 H     1 <1>   0.0800 
 47 H       -7.9680     3.6910    -0.7290 H     1 <1>   0.4500 
 48 H      -10.3900     3.4530     0.9610 H     1 <1>   0.0800 
 49 H       -9.9750     4.8720     0.0240 H     1 <1>   0.0800 
 50 H       -8.9450     4.3680     1.3370 H     1 <1>   0.0800 
 51 H      -10.4830     2.2390    -1.3260 H     1 <1>   0.0800 
 52 H       -9.0910     2.3790    -2.3800 H     1 <1>   0.0800 
 53 H      -10.0480     3.7900    -2.0130 H     1 <1>   0.0800 
@<TRIPOS>BOND
  1   1   2  2   
  2   2   3  am  
  3   2   4  1   
  4   3   5  1   
  5   3   6  1   
  6   4   7  ar  
  7   4   8  ar  
  8   5   9  1   
  9   5  10  1   
 10   5  24  1   
 11   6  25  1   
 12   6  26  1   
 13   6  27  1   
 14   7  11  ar  
 15   7  28  1   
 16   8  12  ar  
 17   8  29  1   
 18   9  13  1   
 19   9  30  1   
 20   9  31  1   
 21  10  14  1   
 22  10  32  1   
 23  10  33  1   
 24  11  15  ar  
 25  12  15  ar  
 26  12  16  1   
 27  13  14  1   
 28  13  17  1   
 29  13  34  1   
 30  14  18  1   
 31  14  35  1   
 32  15  19  1   
 33  16  36  1   
 34  16  37  1   
 35  16  38  1   
 36  17  20  1   
 37  17  39  1   
 38  17  40  1   
 39  18  20  1   
 40  18  41  1   
 41  18  42  1   
 42  19  43  1   
 43  19  44  1   
 44  19  45  1   
 45  20  21  1   
 46  20  46  1   
 47  21  22  1   
 48  21  23  1   
 49  21  47  1   
 50  22  48  1   
 51  22  49  1   
 52  22  50  1   
 53  23  51  1   
 54  23  52  1   
 55  23  53  1   
@<TRIPOS>SUBSTRUCTURE
  1 ****   5 GROUP 4 **** **** 0

# MOE 2024.06 (io_trps.svl 2023.06)
