@<TRIPOS>MOLECULE
NONAME
49 51 1 0 0 
SMALL
USER_CHARGES


@<TRIPOS>ATOM
  1 S       -0.1190     0.0720    -0.4280 S.3   1 <1>  -0.2860 
  2 C        0.4680     0.6620     1.1700 C.2   1 <1>  -0.0960 
  3 C       -0.5290    -1.7040    -0.1300 C.3   1 <1>   0.0700 
  4 N        0.8550     1.9180     1.3630 N.pl3 1 <1>   0.3000 
  5 C        0.6200     0.0440     2.3490 C.2   1 <1>   0.0770 
  6 C       -1.0700    -2.2910    -1.4330 C.3   1 <1>   0.1400 
  7 N        1.2410     2.0640     2.6390 N.2   1 <1>  -0.4180 
  8 N        1.0980     0.9270     3.2380 N.2   1 <1>  -0.2270 
  9 N       -1.3370    -3.7430    -1.2700 N.am  1 <1>  -0.7300 
 10 C       -2.5160    -4.2660    -0.8590 C.2   1 <1>   0.5690 
 11 O       -3.4480    -3.5690    -0.5380 O.2   1 <1>  -0.5700 
 12 C       -2.6620    -5.7730    -0.8150 C.3   1 <1>  -0.0990 
 13 C       -3.9280    -6.2280    -0.0780 C.3   1 <1>   0.2000 
 14 O       -3.8710    -7.6240     0.0060 O.3   1 <1>  -0.5600 
 15 C       -5.2410    -5.8040    -0.7880 C.3   1 <1>   0.3430 
 16 C       -4.9210    -8.2200     0.7140 C.3   1 <1>   0.1200 
 17 N       -6.4520    -6.4190    -0.1460 N.4   1 <1>  -0.9590 
 18 C       -6.2710    -7.9000     0.0440 C.3   1 <1>   0.3430 
 19 C       -7.6960    -6.0960    -0.8930 C.3   1 <1>   0.4860 
 20 C       -8.8810    -6.6050    -0.0950 C.ar  1 <1>  -0.1430 
 21 C       -9.5510    -7.7530    -0.4950 C.ar  1 <1>  -0.1500 
 22 C       -9.3000    -5.9310     1.0440 C.ar  1 <1>  -0.1500 
 23 C      -10.6180    -8.2300     0.2460 C.ar  1 <1>  -0.1500 
 24 C      -10.3670    -6.4100     1.7820 C.ar  1 <1>  -0.1500 
 25 C      -11.0250    -7.5600     1.3850 C.ar  1 <1>  -0.1500 
 26 H       -1.2690    -1.7360     0.6490 H     1 <1>   0.0800 
 27 H        0.3790    -2.1910     0.1790 H     1 <1>   0.0800 
 28 H        0.8680     2.6730     0.6700 H     1 <1>   0.2700 
 29 H        0.4180    -0.9770     2.6160 H     1 <1>   0.1500 
 30 H       -0.3550    -2.1460    -2.2250 H     1 <1>   0.0800 
 31 H       -1.9820    -1.7830    -1.6990 H     1 <1>   0.0800 
 32 H       -0.5610    -4.3620    -1.5230 H     1 <1>   0.3700 
 33 H       -1.8050    -6.1770    -0.3070 H     1 <1>   0.0800 
 34 H       -2.6730    -6.1470    -1.8220 H     1 <1>   0.0800 
 35 H       -3.9090    -5.8300     0.9240 H     1 <1>   0.0800 
 36 H       -5.1790    -6.1110    -1.8190 H     1 <1>   0.0800 
 37 H       -5.3290    -4.7310    -0.7700 H     1 <1>   0.0800 
 38 H       -4.9000    -7.8700     1.7320 H     1 <1>   0.0800 
 39 H       -4.7530    -9.2830     0.7150 H     1 <1>   0.0800 
 40 H       -6.5620    -6.0080     0.7890 H     1 <1>   0.4500 
 41 H       -7.0720    -8.2960     0.6490 H     1 <1>   0.0800 
 42 H       -6.3030    -8.3980    -0.9110 H     1 <1>   0.0800 
 43 H       -7.6800    -6.5600    -1.8660 H     1 <1>   0.0800 
 44 H       -7.7860    -5.0300    -1.0240 H     1 <1>   0.0800 
 45 H       -9.2570    -8.2890    -1.3820 H     1 <1>   0.1500 
 46 H       -8.8110    -5.0280     1.3690 H     1 <1>   0.1500 
 47 H      -11.1390    -9.1210    -0.0640 H     1 <1>   0.1500 
 48 H      -10.6930    -5.8870     2.6670 H     1 <1>   0.1500 
 49 H      -11.8570    -7.9310     1.9600 H     1 <1>   0.1500 
@<TRIPOS>BOND
  1   1   2  1   
  2   1   3  1   
  3   2   4  1   
  4   2   5  2   
  5   3   6  1   
  6   3  26  1   
  7   3  27  1   
  8   4   7  1   
  9   4  28  1   
 10   5   8  1   
 11   5  29  1   
 12   6   9  1   
 13   6  30  1   
 14   6  31  1   
 15   7   8  2   
 16   9  10  am  
 17   9  32  1   
 18  10  11  2   
 19  10  12  1   
 20  12  13  1   
 21  12  33  1   
 22  12  34  1   
 23  13  14  1   
 24  13  15  1   
 25  13  35  1   
 26  14  16  1   
 27  15  17  1   
 28  15  36  1   
 29  15  37  1   
 30  16  18  1   
 31  16  38  1   
 32  16  39  1   
 33  17  18  1   
 34  17  19  1   
 35  17  40  1   
 36  18  41  1   
 37  18  42  1   
 38  19  20  1   
 39  19  43  1   
 40  19  44  1   
 41  20  21  ar  
 42  20  22  ar  
 43  21  23  ar  
 44  21  45  1   
 45  22  24  ar  
 46  22  46  1   
 47  23  25  ar  
 48  23  47  1   
 49  24  25  ar  
 50  24  48  1   
 51  25  49  1   
@<TRIPOS>SUBSTRUCTURE
  1 ****  11 GROUP 4 **** **** 0

# MOE 2024.06 (io_trps.svl 2023.06)
