@<TRIPOS>MOLECULE
NONAME
38 39 1 0 0 
SMALL
USER_CHARGES


@<TRIPOS>ATOM
  1 O        0.0350     0.1550     0.0190 O.2   1 <1>  -0.5700 
  2 C       -0.0210     1.3900     0.0480 C.2   1 <1>   0.3890 
  3 C       -1.2320     2.0780    -0.1270 C.3   1 <1>  -0.7150 
  4 C        1.2100     2.1180     0.2310 C.ar  1 <1>   0.0860 
  5 C       -1.1800     3.4560    -0.4040 C.2   1 <1>   0.5350 
  6 C       -2.4570     1.4020    -0.0090 C.2   1 <1>   0.5350 
  7 C        1.2210     3.5050     0.0290 C.ar  1 <1>   0.1170 
  8 C        2.3940     1.4810     0.6140 C.ar  1 <1>  -0.1500 
  9 O       -2.1940     4.0990    -0.6920 O.2   1 <1>  -0.5700 
 10 N        0.0350     4.1420    -0.3810 N.am  1 <1>  -0.4770 
 11 O       -2.7210     0.6440     0.9200 O.2   1 <1>  -0.5700 
 12 N       -3.4290     1.6660    -0.9240 N.am  1 <1>  -0.7300 
 13 C        2.4160     4.2020     0.2460 C.ar  1 <1>  -0.1500 
 14 C        3.5640     2.1820     0.8090 C.ar  1 <1>  -0.1500 
 15 C        0.0590     5.5400    -0.9010 C.3   1 <1>   0.1400 
 16 C       -4.8520     1.4040    -0.6690 C.3   1 <1>   0.1400 
 17 C        3.5730     3.5540     0.6270 C.ar  1 <1>  -0.1500 
 18 C       -0.1930     6.5280     0.2390 C.3   1 <1>  -0.2400 
 19 C       -5.4440     2.5990     0.0770 C.3   1 <1>  -0.1600 
 20 C       -6.8750     2.3020     0.5150 C.3   1 <1>   0.1200 
 21 O       -7.3720     3.4180     1.1590 O.3   1 <1>  -0.6800 
 22 H        2.3760     0.4150     0.7600 H     1 <1>   0.1500 
 23 H       -3.2240     2.5780    -1.3480 H     1 <1>   0.3700 
 24 H        2.4530     5.2650     0.1260 H     1 <1>   0.1500 
 25 H        4.4620     1.6680     1.1040 H     1 <1>   0.1500 
 26 H       -0.6990     5.6600    -1.6560 H     1 <1>   0.0800 
 27 H        1.0010     5.7380    -1.3780 H     1 <1>   0.0800 
 28 H       -4.9480     0.5070    -0.0810 H     1 <1>   0.0800 
 29 H       -5.3570     1.2550    -1.6070 H     1 <1>   0.0800 
 30 H        4.4800     4.1090     0.7850 H     1 <1>   0.1500 
 31 H       -1.1660     6.3490     0.6600 H     1 <1>   0.0800 
 32 H       -0.1630     7.5340    -0.1360 H     1 <1>   0.0800 
 33 H        0.5480     6.4190     1.0090 H     1 <1>   0.0800 
 34 H       -5.4260     3.4590    -0.5670 H     1 <1>   0.0800 
 35 H       -4.8370     2.7900     0.9450 H     1 <1>   0.0800 
 36 H       -6.9000     1.4740     1.2030 H     1 <1>   0.0800 
 37 H       -7.5090     2.0920    -0.3300 H     1 <1>   0.0800 
 38 H       -6.7180     3.7320     1.8140 H     1 <1>   0.4000 
@<TRIPOS>BOND
  1   1   2  2   
  2   2   3  1   
  3   2   4  1   
  4   3   5  1   
  5   3   6  1   
  6   4   7  ar  
  7   4   8  ar  
  8   5   9  2   
  9   5  10  am  
 10   6  11  2   
 11   6  12  am  
 12   7  10  1   
 13   7  13  ar  
 14   8  14  ar  
 15   8  22  1   
 16  10  15  1   
 17  12  16  1   
 18  12  23  1   
 19  13  17  ar  
 20  13  24  1   
 21  14  17  ar  
 22  14  25  1   
 23  15  18  1   
 24  15  26  1   
 25  15  27  1   
 26  16  19  1   
 27  16  28  1   
 28  16  29  1   
 29  17  30  1   
 30  18  31  1   
 31  18  32  1   
 32  18  33  1   
 33  19  20  1   
 34  19  34  1   
 35  19  35  1   
 36  20  21  1   
 37  20  36  1   
 38  20  37  1   
 39  21  38  1   
@<TRIPOS>SUBSTRUCTURE
  1 ****   3 GROUP 4 **** **** 0

# MOE 2024.06 (io_trps.svl 2023.06)
