@<TRIPOS>MOLECULE
NONAME
47 48 1 0 0 
SMALL
USER_CHARGES


@<TRIPOS>ATOM
  1 CL      -5.7120     0.0400     0.8800 Cl    1 <1>  -0.1770 
  2 C       -4.2080     0.8710     0.5520 C.ar  1 <1>   0.1770 
  3 C       -3.0450     0.1540     0.2970 C.ar  1 <1>  -0.1440 
  4 C       -4.2190     2.2540     0.5510 C.ar  1 <1>  -0.1500 
  5 C       -1.8800     0.8590     0.0330 C.ar  1 <1>  -0.1500 
  6 C       -3.0220    -1.3690     0.2960 C.3   1 <1>  -0.0160 
  7 C       -3.0480     2.9440     0.2880 C.ar  1 <1>  -0.1500 
  8 C       -1.8820     2.2450     0.0290 C.ar  1 <1>  -0.1500 
  9 C       -3.4850    -1.9160    -1.0590 C.3   1 <1>  -0.0990 
 10 C       -3.5830    -3.4280    -1.0250 C.2   1 <1>   0.5690 
 11 O       -2.6130    -4.0600    -1.3640 O.2   1 <1>  -0.5700 
 12 N       -4.7310    -4.0420    -0.6060 N.am  1 <1>  -0.6600 
 13 C       -5.9850    -3.3810    -0.1620 C.3   1 <1>   0.1400 
 14 C       -4.8440    -5.5160    -0.4930 C.3   1 <1>   0.1400 
 15 C       -6.9620    -4.5290     0.0820 C.3   1 <1>   0.2000 
 16 C       -6.0910    -5.7500     0.3630 C.3   1 <1>  -0.0800 
 17 O       -7.7950    -4.2820     1.1590 O.3   1 <1>  -0.6800 
 18 C       -6.8260    -7.0690     0.0730 C.3   1 <1>  -0.0550 
 19 S       -5.8640    -8.5210     0.4920 S.o2  1 <1>   1.3330 
 20 O       -5.5860    -8.4700     1.9090 O.2   1 <1>  -0.6500 
 21 O       -4.7750    -8.6510    -0.4500 O.2   1 <1>  -0.6500 
 22 N       -6.9540    -9.7910     0.2050 N.am  1 <1>  -0.8490 
 23 C       -6.9970   -10.2170    -1.1980 C.3   1 <1>   0.1160 
 24 C       -6.6990   -10.9470     1.0700 C.3   1 <1>   0.1160 
 25 H       -5.1340     2.7800     0.7530 H     1 <1>   0.1500 
 26 H       -0.9630     0.3330    -0.1720 H     1 <1>   0.1500 
 27 H       -2.0250    -1.7220     0.4950 H     1 <1>   0.0800 
 28 H       -3.6520    -1.7440     1.0830 H     1 <1>   0.0800 
 29 H       -3.0450     4.0210     0.2850 H     1 <1>   0.1500 
 30 H       -0.9710     2.7800    -0.1770 H     1 <1>   0.1500 
 31 H       -2.7750    -1.6350    -1.8150 H     1 <1>   0.0800 
 32 H       -4.4320    -1.4910    -1.3330 H     1 <1>   0.0800 
 33 H       -5.8000    -2.8380     0.7480 H     1 <1>   0.0800 
 34 H       -6.3590    -2.7200    -0.9250 H     1 <1>   0.0800 
 35 H       -4.9620    -5.9330    -1.4800 H     1 <1>   0.0800 
 36 H       -3.9620    -5.9350    -0.0370 H     1 <1>   0.0800 
 37 H       -7.5730    -4.6760    -0.7930 H     1 <1>   0.0800 
 38 H       -5.7770    -5.7340     1.3940 H     1 <1>   0.0800 
 39 H       -7.2740    -4.1580     1.9770 H     1 <1>   0.4000 
 40 H       -7.0980    -7.1070    -0.9630 H     1 <1>   0.0800 
 41 H       -7.7310    -7.0850     0.6490 H     1 <1>   0.0800 
 42 H       -7.7660   -10.9580    -1.3360 H     1 <1>   0.0800 
 43 H       -6.0490   -10.6360    -1.4940 H     1 <1>   0.0800 
 44 H       -7.2160    -9.3780    -1.8350 H     1 <1>   0.0800 
 45 H       -7.4160   -11.7260     0.8730 H     1 <1>   0.0800 
 46 H       -6.7900   -10.6610     2.1040 H     1 <1>   0.0800 
 47 H       -5.7050   -11.3280     0.9020 H     1 <1>   0.0800 
@<TRIPOS>BOND
  1   1   2  1   
  2   2   3  ar  
  3   2   4  ar  
  4   3   5  ar  
  5   3   6  1   
  6   4   7  ar  
  7   4  25  1   
  8   5   8  ar  
  9   5  26  1   
 10   6   9  1   
 11   6  27  1   
 12   6  28  1   
 13   7   8  ar  
 14   7  29  1   
 15   8  30  1   
 16   9  10  1   
 17   9  31  1   
 18   9  32  1   
 19  10  11  2   
 20  10  12  am  
 21  12  13  1   
 22  12  14  1   
 23  13  15  1   
 24  13  33  1   
 25  13  34  1   
 26  14  16  1   
 27  14  35  1   
 28  14  36  1   
 29  15  16  1   
 30  15  17  1   
 31  15  37  1   
 32  16  18  1   
 33  16  38  1   
 34  17  39  1   
 35  18  19  1   
 36  18  40  1   
 37  18  41  1   
 38  19  20  2   
 39  19  21  2   
 40  19  22  am  
 41  22  23  1   
 42  22  24  1   
 43  23  42  1   
 44  23  43  1   
 45  23  44  1   
 46  24  45  1   
 47  24  46  1   
 48  24  47  1   
@<TRIPOS>SUBSTRUCTURE
  1 ****  12 GROUP 4 **** **** 0

# MOE 2024.06 (io_trps.svl 2023.06)
