@<TRIPOS>MOLECULE
NONAME
52 56 1 0 0 
SMALL
USER_CHARGES


@<TRIPOS>ATOM
  1 O       -2.8550     0.3720    -2.5690 O.2   1 <1>  -0.5700 
  2 C       -2.7510    -0.2920    -1.5650 C.2   1 <1>   0.5690 
  3 N       -2.4460     0.2570    -0.3560 N.am  1 <1>  -0.6600 
  4 C       -2.9800    -1.7820    -1.6780 C.3   1 <1>  -0.0190 
  5 C       -2.3570    -0.5740     0.8750 C.3   1 <1>   0.2200 
  6 C       -2.1850     1.7160    -0.1930 C.3   1 <1>   0.0600 
  7 C       -1.6980    -2.5730    -1.3430 C.3   1 <1>   0.1200 
  8 C       -4.2850    -2.1900    -0.9670 C.3   1 <1>   0.1100 
  9 C       -1.1930    -1.5940     0.7810 C.3   1 <1>   0.1200 
 10 C       -3.7440    -1.1580     1.2520 C.3   1 <1>   0.1100 
 11 O       -1.4620    -2.7450     0.0240 O.3   1 <1>  -0.5600 
 12 N       -4.1860    -2.3600     0.5000 N.3   1 <1>  -0.8100 
 13 C       -5.3860    -2.9800     1.0940 C.3   1 <1>   0.2780 
 14 C       -5.5410    -4.4360     0.6470 C.2   1 <1>   0.1820 
 15 N       -4.5090    -5.3560     0.6790 N.pl3 1 <1>  -0.6290 
 16 C       -6.6490    -5.0530     0.1620 C.2   1 <1>   0.3090 
 17 C       -5.0120    -6.5090     0.2110 C.cat 1 <1>   0.9620 
 18 C       -3.1800    -5.2690     0.9960 C.2   1 <1>   0.2290 
 19 N       -6.2890    -6.3530    -0.0920 N.pl3 1 <1>  -0.7000 
 20 C       -7.9780    -4.5470    -0.0860 C.ar  1 <1>   0.0410 
 21 N       -4.3150    -7.6370     0.0540 N.2   1 <1>  -0.6120 
 22 C       -2.4330    -6.3890     0.8380 C.2   1 <1>  -0.1360 
 23 C       -9.0910    -5.1420     0.5040 C.ar  1 <1>  -0.1500 
 24 C       -8.1860    -3.4510    -0.9210 C.ar  1 <1>  -0.1500 
 25 C       -3.0570    -7.5580     0.3630 C.2   1 <1>   0.3760 
 26 C      -10.3650    -4.6560     0.2740 C.ar  1 <1>  -0.1500 
 27 C       -9.4580    -2.9620    -1.1520 C.ar  1 <1>  -0.1500 
 28 C      -10.5500    -3.5640    -0.5540 C.ar  1 <1>  -0.1500 
 29 H       -3.1550    -1.9540    -2.7240 H     1 <1>   0.0800 
 30 H       -2.0930     0.0960     1.6740 H     1 <1>   0.0800 
 31 H       -2.9030     2.1430     0.4850 H     1 <1>   0.0800 
 32 H       -2.2630     2.2270    -1.1380 H     1 <1>   0.0800 
 33 H       -1.1930     1.8690     0.1940 H     1 <1>   0.0800 
 34 H       -0.8370    -2.0950    -1.7790 H     1 <1>   0.0800 
 35 H       -1.7790    -3.5600    -1.7640 H     1 <1>   0.0800 
 36 H       -4.5930    -3.1250    -1.4010 H     1 <1>   0.0800 
 37 H       -5.0460    -1.4610    -1.1920 H     1 <1>   0.0800 
 38 H       -0.9600    -1.9360     1.7730 H     1 <1>   0.0800 
 39 H       -0.3140    -1.1190     0.3800 H     1 <1>   0.0800 
 40 H       -4.4820    -0.3800     1.1580 H     1 <1>   0.0800 
 41 H       -3.6890    -1.4240     2.2930 H     1 <1>   0.0800 
 42 H       -5.2890    -2.9790     2.1660 H     1 <1>   0.0800 
 43 H       -6.2600    -2.4050     0.8410 H     1 <1>   0.0800 
 44 H       -2.7800    -4.3310     1.3500 H     1 <1>   0.1500 
 45 H       -6.8590    -7.0970    -0.4880 H     1 <1>   0.4500 
 46 H       -1.3820    -6.4040     1.0620 H     1 <1>   0.1500 
 47 H       -8.9670    -5.9910     1.1550 H     1 <1>   0.1500 
 48 H       -7.3520    -2.9740    -1.4060 H     1 <1>   0.1500 
 49 H       -2.4460    -8.4380     0.2510 H     1 <1>   0.0600 
 50 H      -11.2170    -5.1250     0.7380 H     1 <1>   0.1500 
 51 H       -9.6060    -2.1140    -1.8010 H     1 <1>   0.1500 
 52 H      -11.5430    -3.1850    -0.7340 H     1 <1>   0.1500 
@<TRIPOS>BOND
  1   1   2  2   
  2   2   3  am  
  3   2   4  1   
  4   3   5  1   
  5   3   6  1   
  6   4   7  1   
  7   4   8  1   
  8   4  29  1   
  9   5   9  1   
 10   5  10  1   
 11   5  30  1   
 12   6  31  1   
 13   6  32  1   
 14   6  33  1   
 15   7  11  1   
 16   7  34  1   
 17   7  35  1   
 18   8  12  1   
 19   8  36  1   
 20   8  37  1   
 21   9  11  1   
 22   9  38  1   
 23   9  39  1   
 24  10  12  1   
 25  10  40  1   
 26  10  41  1   
 27  12  13  1   
 28  13  14  1   
 29  13  42  1   
 30  13  43  1   
 31  14  15  1   
 32  14  16  2   
 33  15  17  ar  
 34  15  18  1   
 35  16  19  1   
 36  16  20  1   
 37  17  19  ar  
 38  17  21  1   
 39  18  22  2   
 40  18  44  1   
 41  19  45  1   
 42  20  23  ar  
 43  20  24  ar  
 44  21  25  2   
 45  22  25  1   
 46  22  46  1   
 47  23  26  ar  
 48  23  47  1   
 49  24  27  ar  
 50  24  48  1   
 51  25  49  1   
 52  26  28  ar  
 53  26  50  1   
 54  27  28  ar  
 55  27  51  1   
 56  28  52  1   
@<TRIPOS>SUBSTRUCTURE
  1 ****  12 GROUP 4 **** **** 0

# MOE 2024.06 (io_trps.svl 2023.06)
