@<TRIPOS>MOLECULE
NONAME
57 61 1 0 0 
SMALL
USER_CHARGES


@<TRIPOS>ATOM
  1 N        0.1350     0.5920    -0.1970 N.ar  1 <1>  -0.6200 
  2 C       -0.7200     1.5720    -0.5300 C.ar  1 <1>   0.4100 
  3 C        1.3980     0.7360    -0.4520 C.ar  1 <1>   0.5280 
  4 N       -2.0340     1.3790    -0.2410 N.pl3 1 <1>  -0.8380 
  5 C       -0.2220     2.7280    -1.1510 C.ar  1 <1>  -0.1500 
  6 N        1.9130     1.8300    -1.0430 N.ar  1 <1>  -0.1790 
  7 C        2.3400    -0.3850    -0.0630 C.3   1 <1>  -0.0970 
  8 C       -3.1430     2.3830    -0.4250 C.3   1 <1>   0.2090 
  9 C       -2.5740     0.0840     0.2990 C.3   1 <1>   0.2090 
 10 C        1.1120     2.8510    -1.4060 C.ar  1 <1>   0.2180 
 11 C       -3.8570     2.6860     0.9090 C.3   1 <1>   0.1430 
 12 C       -3.2680     0.3240     1.6440 C.3   1 <1>  -0.1600 
 13 C        1.7210     4.0760    -2.0780 C.3   1 <1>  -0.0170 
 14 C       -4.9690     3.6810     0.6390 C.ar  1 <1>   0.1670 
 15 C       -4.3850     1.3740     1.5270 C.3   1 <1>  -0.1600 
 16 C       -2.9400     3.4600     1.8970 C.3   1 <1>  -0.1600 
 17 C        2.6650     4.8390    -1.1390 C.3   1 <1>  -0.2400 
 18 N       -6.0730     3.4210    -0.0180 N.ar  1 <1>  -0.6200 
 19 C       -4.6830     4.9100     1.1450 C.ar  1 <1>  -0.1430 
 20 C       -3.3400     4.9450     1.8280 C.3   1 <1>  -0.0170 
 21 C       -6.9310     4.4410    -0.1530 C.ar  1 <1>   0.6200 
 22 C       -5.6080     5.9050     0.9640 C.ar  1 <1>   0.1600 
 23 N       -6.7300     5.6810     0.3190 N.ar  1 <1>  -0.6200 
 24 C       -8.1740     4.1840    -0.8700 C.ar  1 <1>   0.0000 
 25 C       -8.8720     5.2050    -1.5230 C.ar  1 <1>  -0.1500 
 26 C       -8.7300     2.9020    -0.9390 C.ar  1 <1>  -0.1500 
 27 C      -10.0510     4.9630    -2.2050 C.ar  1 <1>  -0.1500 
 28 C       -9.9080     2.6520    -1.6190 C.ar  1 <1>  -0.1500 
 29 C      -10.5720     3.6840    -2.2550 C.ar  1 <1>  -0.1500 
 30 H       -0.8870     3.5170    -1.4320 H     1 <1>   0.1500 
 31 H        2.9180     1.8790    -1.2110 H     1 <1>   0.4570 
 32 H        1.7880    -1.1850     0.4000 H     1 <1>   0.0800 
 33 H        3.0730    -0.0340     0.6390 H     1 <1>   0.0800 
 34 H        2.8340    -0.7790    -0.9330 H     1 <1>   0.0800 
 35 H       -3.8630     1.9780    -1.1170 H     1 <1>   0.0800 
 36 H       -2.7940     3.3060    -0.8400 H     1 <1>   0.0800 
 37 H       -1.8040    -0.6560     0.4280 H     1 <1>   0.0800 
 38 H       -3.2850    -0.3160    -0.4050 H     1 <1>   0.0800 
 39 H       -2.5310     0.6390     2.3620 H     1 <1>   0.0800 
 40 H       -3.6860    -0.6040     1.9930 H     1 <1>   0.0800 
 41 H        0.9340     4.7430    -2.3890 H     1 <1>   0.0800 
 42 H        2.2530     3.7780    -2.9650 H     1 <1>   0.0800 
 43 H       -5.1630     0.9800     0.8950 H     1 <1>   0.0800 
 44 H       -4.8230     1.5640     2.4910 H     1 <1>   0.0800 
 45 H       -1.8960     3.3200     1.6810 H     1 <1>   0.0800 
 46 H       -3.1190     3.1150     2.9000 H     1 <1>   0.0800 
 47 H        2.1440     5.1490    -0.2490 H     1 <1>   0.0800 
 48 H        3.0330     5.7230    -1.6330 H     1 <1>   0.0800 
 49 H        3.5120     4.2410    -0.8550 H     1 <1>   0.0800 
 50 H       -2.6410     5.5030     1.2300 H     1 <1>   0.0800 
 51 H       -3.4080     5.3800     2.8110 H     1 <1>   0.0800 
 52 H       -5.4280     6.8940     1.3490 H     1 <1>   0.1500 
 53 H       -8.4830     6.2080    -1.4970 H     1 <1>   0.1500 
 54 H       -8.2290     2.0840    -0.4490 H     1 <1>   0.1500 
 55 H      -10.5630     5.7720    -2.6970 H     1 <1>   0.1500 
 56 H      -10.3070     1.6540    -1.6530 H     1 <1>   0.1500 
 57 H      -11.4900     3.4930    -2.7840 H     1 <1>   0.1500 
@<TRIPOS>BOND
  1   1   2  ar  
  2   1   3  ar  
  3   2   4  1   
  4   2   5  ar  
  5   3   6  ar  
  6   3   7  1   
  7   4   8  1   
  8   4   9  1   
  9   5  10  ar  
 10   5  30  1   
 11   6  10  ar  
 12   6  31  1   
 13   7  32  1   
 14   7  33  1   
 15   7  34  1   
 16   8  11  1   
 17   8  35  1   
 18   8  36  1   
 19   9  12  1   
 20   9  37  1   
 21   9  38  1   
 22  10  13  1   
 23  11  14  1   
 24  11  15  1   
 25  11  16  1   
 26  12  15  1   
 27  12  39  1   
 28  12  40  1   
 29  13  17  1   
 30  13  41  1   
 31  13  42  1   
 32  14  18  ar  
 33  14  19  ar  
 34  15  43  1   
 35  15  44  1   
 36  16  20  1   
 37  16  45  1   
 38  16  46  1   
 39  17  47  1   
 40  17  48  1   
 41  17  49  1   
 42  18  21  ar  
 43  19  20  1   
 44  19  22  ar  
 45  20  50  1   
 46  20  51  1   
 47  21  23  ar  
 48  21  24  1   
 49  22  23  ar  
 50  22  52  1   
 51  24  25  ar  
 52  24  26  ar  
 53  25  27  ar  
 54  25  53  1   
 55  26  28  ar  
 56  26  54  1   
 57  27  29  ar  
 58  27  55  1   
 59  28  29  ar  
 60  28  56  1   
 61  29  57  1   
@<TRIPOS>SUBSTRUCTURE
  1 ****   8 GROUP 4 **** **** 0

# MOE 2024.06 (io_trps.svl 2023.06)
