@<TRIPOS>MOLECULE
NONAME
40 43 1 0 0 
SMALL
USER_CHARGES


@<TRIPOS>ATOM
  1 S        0.2470     0.8190    -2.4930 S.3   1 <1>  -0.0800 
  2 C       -0.1890     2.0270    -1.2830 C.ar  1 <1>   0.2970 
  3 C        1.8560     1.5190    -2.6830 C.2   1 <1>  -0.1100 
  4 N       -1.3520     2.0410    -0.6690 N.ar  1 <1>  -0.5670 
  5 C        0.8460     2.9070    -1.0870 C.ar  1 <1>   0.0000 
  6 C        2.0060     2.5880    -1.8810 C.2   1 <1>  -0.1500 
  7 C       -1.4480     3.0190     0.2100 C.ar  1 <1>   0.4770 
  8 C        0.5890     3.9160    -0.1570 C.ar  1 <1>   0.4100 
  9 N       -0.5510     3.9470     0.5100 N.ar  1 <1>  -0.6200 
 10 C       -2.7430     3.1040     0.9800 C.3   1 <1>  -0.0960 
 11 N        1.4850     4.9190     0.1210 N.pl3 1 <1>  -0.8380 
 12 C        2.0140     5.8100    -0.9720 C.3   1 <1>   0.5280 
 13 C        1.9670     5.1130     1.5170 C.3   1 <1>   0.1290 
 14 C        3.5080     6.1510    -0.7850 C.ar  1 <1>   0.1660 
 15 C        1.1510     7.0840    -1.1710 C.3   1 <1>  -0.1950 
 16 N        4.3870     5.3820    -1.4250 N.ar  1 <1>  -0.6200 
 17 C        3.8850     7.2250     0.0160 C.ar  1 <1>  -0.1500 
 18 C        0.2980     7.7270    -0.1150 C.3   1 <1>  -0.2000 
 19 C       -0.3440     7.0520    -1.2920 C.3   1 <1>  -0.2000 
 20 C        5.6630     5.6880    -1.2560 C.ar  1 <1>   0.1600 
 21 C        5.2180     7.5320     0.1810 C.ar  1 <1>  -0.1500 
 22 C        6.1250     6.7340    -0.4780 C.ar  1 <1>  -0.1500 
 23 H        2.5210     1.0410    -3.3800 H     1 <1>   0.1500 
 24 H        2.9010     3.1790    -1.7970 H     1 <1>   0.1500 
 25 H       -3.4470     2.3750     0.6210 H     1 <1>   0.0800 
 26 H       -3.1650     4.0840     0.8640 H     1 <1>   0.0800 
 27 H       -2.5510     2.9240     2.0210 H     1 <1>   0.0800 
 28 H        1.9440     5.2740    -1.9010 H     1 <1>   0.0800 
 29 H        1.4150     4.4820     2.1920 H     1 <1>   0.0800 
 30 H        1.8350     6.1360     1.8200 H     1 <1>   0.0800 
 31 H        3.0090     4.8540     1.5820 H     1 <1>   0.0800 
 32 H        1.6380     7.7450    -1.8660 H     1 <1>   0.1000 
 33 H        3.1400     7.8190     0.5130 H     1 <1>   0.1500 
 34 H        0.2650     8.8010    -0.0560 H     1 <1>   0.1000 
 35 H        0.1440     7.2590     0.8410 H     1 <1>   0.1000 
 36 H       -0.8740     6.1320    -1.1180 H     1 <1>   0.1000 
 37 H       -0.8180     7.6610    -2.0420 H     1 <1>   0.1000 
 38 H        6.3820     5.0700    -1.7680 H     1 <1>   0.1500 
 39 H        5.5350     8.3570     0.7960 H     1 <1>   0.1500 
 40 H        7.1810     6.9180    -0.3920 H     1 <1>   0.1500 
@<TRIPOS>BOND
  1   1   2  1   
  2   1   3  1   
  3   2   4  ar  
  4   2   5  ar  
  5   3   6  2   
  6   3  23  1   
  7   4   7  ar  
  8   5   6  1   
  9   5   8  ar  
 10   6  24  1   
 11   7   9  ar  
 12   7  10  1   
 13   8   9  ar  
 14   8  11  1   
 15  10  25  1   
 16  10  26  1   
 17  10  27  1   
 18  11  12  1   
 19  11  13  1   
 20  12  14  1   
 21  12  15  1   
 22  12  28  1   
 23  13  29  1   
 24  13  30  1   
 25  13  31  1   
 26  14  16  ar  
 27  14  17  ar  
 28  15  18  1   
 29  15  19  1   
 30  15  32  1   
 31  16  20  ar  
 32  17  21  ar  
 33  17  33  1   
 34  18  19  1   
 35  18  34  1   
 36  18  35  1   
 37  19  36  1   
 38  19  37  1   
 39  20  22  ar  
 40  20  38  1   
 41  21  22  ar  
 42  21  39  1   
 43  22  40  1   
@<TRIPOS>SUBSTRUCTURE
  1 ****  11 GROUP 4 **** **** 0

# MOE 2024.06 (io_trps.svl 2023.06)
