@<TRIPOS>MOLECULE
NONAME
53 57 1 0 0 
SMALL
USER_CHARGES


@<TRIPOS>ATOM
  1 O       -1.0750     1.2610    -1.9890 O.2   1 <1>  -0.5700 
  2 C       -1.6120     1.0590    -0.9160 C.2   1 <1>   0.6900 
  3 N       -2.6350     0.1450    -0.8180 N.am  1 <1>  -0.6600 
  4 N       -1.2130     1.7320     0.2050 N.am  1 <1>  -0.5470 
  5 C       -2.9640    -0.7130    -1.9990 C.3   1 <1>   0.1400 
  6 C       -3.4570    -0.0550     0.4130 C.3   1 <1>   0.1400 
  7 C       -0.1940     2.6750     0.4150 C.ar  1 <1>   0.1170 
  8 C       -3.5330    -2.0510    -1.5320 C.3   1 <1>  -0.1600 
  9 C       -4.8600    -0.5610     0.0670 C.3   1 <1>  -0.1600 
 10 C       -0.3350     3.5760     1.4690 C.ar  1 <1>  -0.1500 
 11 C        0.9600     2.7300    -0.3770 C.ar  1 <1>  -0.1500 
 12 C       -4.8590    -1.8520    -0.7810 C.3   1 <1>   0.4240 
 13 C        0.6680     4.4950     1.6930 C.ar  1 <1>   0.0830 
 14 C        1.9600     3.6630    -0.1380 C.ar  1 <1>  -0.1500 
 15 O       -5.8110    -1.6680    -1.7990 O.3   1 <1>  -0.5600 
 16 C       -5.1850    -3.0940     0.0810 C.ar  1 <1>  -0.1430 
 17 O        0.7300     5.4380     2.6400 O.3   1 <1>  -0.3630 
 18 C        1.7850     4.5400     0.9120 C.ar  1 <1>   0.0830 
 19 C       -7.1480    -1.8760    -1.4650 C.3   1 <1>   0.1200 
 20 C       -6.3670    -3.8050    -0.1010 C.ar  1 <1>  -0.1430 
 21 C       -4.3050    -3.5160     1.0730 C.ar  1 <1>  -0.1500 
 22 C        1.9610     6.1320     2.4450 C.3   1 <1>   0.4000 
 23 O        2.6030     5.5150     1.3300 O.3   1 <1>  -0.3620 
 24 C       -7.3510    -3.3570    -1.1640 C.3   1 <1>  -0.0170 
 25 C       -6.6540    -4.9150     0.6790 C.ar  1 <1>  -0.1500 
 26 C       -4.5920    -4.6210     1.8540 C.ar  1 <1>  -0.1500 
 27 C       -5.7640    -5.3290     1.6640 C.ar  1 <1>   0.0830 
 28 O       -5.9690    -6.4010     2.4690 O.3   1 <1>  -0.3630 
 29 C       -7.1190    -7.2070     2.3390 C.3   1 <1>   0.0400 
 30 H       -1.7970     1.5450     1.0090 H     1 <1>   0.3700 
 31 H       -2.0770    -0.8890    -2.5850 H     1 <1>   0.0800 
 32 H       -3.6810    -0.2020    -2.6200 H     1 <1>   0.0800 
 33 H       -3.5550     0.8750     0.9450 H     1 <1>   0.0800 
 34 H       -2.9590    -0.7620     1.0530 H     1 <1>   0.0800 
 35 H       -2.7970    -2.5230    -0.9100 H     1 <1>   0.0800 
 36 H       -3.6960    -2.6990    -2.3740 H     1 <1>   0.0800 
 37 H       -5.3590     0.2260    -0.4700 H     1 <1>   0.0800 
 38 H       -5.4060    -0.7300     0.9770 H     1 <1>   0.0800 
 39 H       -1.2030     3.5700     2.1000 H     1 <1>   0.1500 
 40 H        1.0830     2.0350    -1.1880 H     1 <1>   0.1500 
 41 H        2.8450     3.7090    -0.7460 H     1 <1>   0.1500 
 42 H       -7.7490    -1.5760    -2.3050 H     1 <1>   0.0800 
 43 H       -7.4000    -1.2670    -0.6140 H     1 <1>   0.0800 
 44 H       -3.3850    -2.9920     1.2500 H     1 <1>   0.1500 
 45 H        2.5770     6.0260     3.3200 H     1 <1>   0.0800 
 46 H        1.7620     7.1640     2.2190 H     1 <1>   0.0800 
 47 H       -7.1980    -3.9280    -2.0620 H     1 <1>   0.0800 
 48 H       -8.3600    -3.5150    -0.8290 H     1 <1>   0.0800 
 49 H       -7.5710    -5.4450     0.5100 H     1 <1>   0.1500 
 50 H       -3.9070    -4.9430     2.6170 H     1 <1>   0.1500 
 51 H       -7.0580    -7.9940     3.0690 H     1 <1>   0.0800 
 52 H       -7.1400    -7.6260     1.3490 H     1 <1>   0.0800 
 53 H       -7.9900    -6.6040     2.5240 H     1 <1>   0.0800 
@<TRIPOS>BOND
  1   1   2  2   
  2   2   3  am  
  3   2   4  am  
  4   3   5  1   
  5   3   6  1   
  6   4   7  1   
  7   4  30  1   
  8   5   8  1   
  9   5  31  1   
 10   5  32  1   
 11   6   9  1   
 12   6  33  1   
 13   6  34  1   
 14   7  10  ar  
 15   7  11  ar  
 16   8  12  1   
 17   8  35  1   
 18   8  36  1   
 19   9  12  1   
 20   9  37  1   
 21   9  38  1   
 22  10  13  ar  
 23  10  39  1   
 24  11  14  ar  
 25  11  40  1   
 26  12  15  1   
 27  12  16  1   
 28  13  17  1   
 29  13  18  ar  
 30  14  18  ar  
 31  14  41  1   
 32  15  19  1   
 33  16  20  ar  
 34  16  21  ar  
 35  17  22  1   
 36  18  23  1   
 37  19  24  1   
 38  19  42  1   
 39  19  43  1   
 40  20  24  1   
 41  20  25  ar  
 42  21  26  ar  
 43  21  44  1   
 44  22  23  1   
 45  22  45  1   
 46  22  46  1   
 47  24  47  1   
 48  24  48  1   
 49  25  27  ar  
 50  25  49  1   
 51  26  27  ar  
 52  26  50  1   
 53  27  28  1   
 54  28  29  1   
 55  29  51  1   
 56  29  52  1   
 57  29  53  1   
@<TRIPOS>SUBSTRUCTURE
  1 ****   6 GROUP 4 **** **** 0

# MOE 2024.06 (io_trps.svl 2023.06)
