@<TRIPOS>MOLECULE
NONAME
42 43 1 0 0 
SMALL
USER_CHARGES


@<TRIPOS>ATOM
  1 S       -0.0610     0.3660    -0.9020 S.o2  1 <1>   1.3330 
  2 O        0.4500     1.2400    -1.9340 O.2   1 <1>  -0.6500 
  3 O       -0.7630    -0.8420    -1.2720 O.2   1 <1>  -0.6500 
  4 N        1.2380    -0.0940     0.0930 N.am  1 <1>  -0.8490 
  5 C       -1.1040     1.3180     0.2140 C.3   1 <1>  -0.0550 
  6 C        0.9860    -1.3190     0.8600 C.3   1 <1>   0.1160 
  7 C        2.4980    -0.2200    -0.6470 C.3   1 <1>   0.1160 
  8 C       -0.6650     2.7630     0.5440 C.3   1 <1>  -0.0800 
  9 C       -0.8920     3.7630    -0.5940 C.3   1 <1>   0.2000 
 10 C        0.7950     2.9760     0.9430 C.3   1 <1>   0.1400 
 11 O       -2.2070     4.2030    -0.5560 O.3   1 <1>  -0.6800 
 12 C        0.0860     4.9140    -0.3400 C.3   1 <1>   0.1400 
 13 N        1.0410     4.4100     0.6810 N.am  1 <1>  -0.6600 
 14 C        2.2380     5.0100     1.0000 C.2   1 <1>   0.5440 
 15 O        3.0960     4.3430     1.5450 O.2   1 <1>  -0.5700 
 16 C        2.5040     6.4010     0.6820 C.ar  1 <1>   0.0860 
 17 C        3.6700     6.7590     0.0090 C.ar  1 <1>  -0.1500 
 18 C        1.6200     7.4210     1.0400 C.ar  1 <1>  -0.1500 
 19 C        3.9270     8.0810    -0.3080 C.ar  1 <1>   0.0820 
 20 C        1.8760     8.7440     0.7210 C.ar  1 <1>  -0.1500 
 21 O        5.0520     8.4110    -0.9580 O.3   1 <1>  -0.5330 
 22 C        3.0330     9.0770     0.0420 C.ar  1 <1>  -0.1500 
 23 H       -2.0880     1.3710    -0.2120 H     1 <1>   0.0800 
 24 H       -1.1940     0.7750     1.1330 H     1 <1>   0.0800 
 25 H        1.7990    -1.5000     1.5430 H     1 <1>   0.0800 
 26 H        0.8890    -2.1650     0.1990 H     1 <1>   0.0800 
 27 H        0.0780    -1.2220     1.4300 H     1 <1>   0.0800 
 28 H        3.2970    -0.4980     0.0190 H     1 <1>   0.0800 
 29 H        2.7550     0.7220    -1.1020 H     1 <1>   0.0800 
 30 H        2.4050    -0.9640    -1.4210 H     1 <1>   0.0800 
 31 H       -1.2470     3.0880     1.3890 H     1 <1>   0.0800 
 32 H       -0.7090     3.3360    -1.5640 H     1 <1>   0.0800 
 33 H        1.4720     2.4110     0.3280 H     1 <1>   0.0800 
 34 H        0.9710     2.7380     1.9790 H     1 <1>   0.0800 
 35 H       -2.4000     4.6290     0.3000 H     1 <1>   0.4000 
 36 H       -0.4280     5.7810     0.0350 H     1 <1>   0.0800 
 37 H        0.6130     5.1620    -1.2450 H     1 <1>   0.0800 
 38 H        4.3690     5.9870    -0.2570 H     1 <1>   0.1500 
 39 H        0.7260     7.1690     1.5820 H     1 <1>   0.1500 
 40 H        1.1790     9.5140     1.0040 H     1 <1>   0.1500 
 41 H        5.6280     7.6470    -1.1370 H     1 <1>   0.4500 
 42 H        3.2500    10.0990    -0.2140 H     1 <1>   0.1500 
@<TRIPOS>BOND
  1   1   2  2   
  2   1   3  2   
  3   1   4  am  
  4   1   5  1   
  5   4   6  1   
  6   4   7  1   
  7   5   8  1   
  8   5  23  1   
  9   5  24  1   
 10   6  25  1   
 11   6  26  1   
 12   6  27  1   
 13   7  28  1   
 14   7  29  1   
 15   7  30  1   
 16   8   9  1   
 17   8  10  1   
 18   8  31  1   
 19   9  11  1   
 20   9  12  1   
 21   9  32  1   
 22  10  13  1   
 23  10  33  1   
 24  10  34  1   
 25  11  35  1   
 26  12  13  1   
 27  12  36  1   
 28  12  37  1   
 29  13  14  am  
 30  14  15  2   
 31  14  16  1   
 32  16  17  ar  
 33  16  18  ar  
 34  17  19  ar  
 35  17  38  1   
 36  18  20  ar  
 37  18  39  1   
 38  19  21  1   
 39  19  22  ar  
 40  20  22  ar  
 41  20  40  1   
 42  21  41  1   
 43  22  42  1   
@<TRIPOS>SUBSTRUCTURE
  1 ****  13 GROUP 4 **** **** 0

# MOE 2024.06 (io_trps.svl 2023.06)
