@<TRIPOS>MOLECULE
NONAME
47 50 1 0 0 
SMALL
USER_CHARGES


@<TRIPOS>ATOM
  1 O       -0.8820    -3.5550     1.7870 O.2   1 <1>  -0.5700 
  2 C        0.1240    -3.1420     1.2520 C.2   1 <1>   0.6900 
  3 N        0.1680    -2.5340     0.0380 N.am  1 <1>  -0.6600 
  4 N        1.3650    -3.3100     1.7560 N.am  1 <1>  -0.4900 
  5 C        1.5960    -2.3680    -0.3620 C.3   1 <1>   0.2010 
  6 C       -0.9420    -2.5500    -0.9670 C.3   1 <1>   0.2010 
  7 C        2.3020    -2.8980     0.8770 C.2   1 <1>   0.5690 
  8 C       -1.2350    -3.9480    -1.5140 C.2   1 <1>   0.5690 
  9 O        3.4930    -2.9530     1.0440 O.2   1 <1>  -0.5700 
 10 O       -1.1020    -4.1600    -2.6950 O.2   1 <1>  -0.5700 
 11 N       -1.6180    -4.9200    -0.6490 N.am  1 <1>  -0.7300 
 12 C       -1.8330    -6.3430    -0.9880 C.3   1 <1>   0.2200 
 13 C       -3.0740    -6.8460    -0.2700 C.3   1 <1>  -0.0800 
 14 C       -0.7250    -7.1960    -0.3680 C.3   1 <1>   0.1200 
 15 C       -2.4990    -7.2030     1.1010 C.3   1 <1>   0.1200 
 16 C       -3.6760    -8.0720    -0.9860 C.3   1 <1>  -0.0170 
 17 O       -1.1970    -7.6480     0.8700 O.3   1 <1>  -0.5600 
 18 C       -4.9330    -8.5830    -0.2870 C.ar  1 <1>  -0.1440 
 19 C       -6.1890    -7.9440    -0.4150 C.ar  1 <1>   0.0000 
 20 C       -4.8700    -9.6980     0.4970 C.ar  1 <1>  -0.1500 
 21 C       -7.2850    -8.5030     0.2870 C.ar  1 <1>   0.3100 
 22 C       -6.4250    -6.7900    -1.1990 C.ar  1 <1>  -0.1500 
 23 C       -6.0160   -10.1700     1.1460 C.ar  1 <1>   0.1600 
 24 N       -7.1830    -9.6130     1.0610 N.ar  1 <1>  -0.6200 
 25 C       -8.5440    -7.8890     0.1830 C.ar  1 <1>  -0.1500 
 26 C       -7.6650    -6.2170    -1.2800 C.ar  1 <1>  -0.1500 
 27 C       -8.7390    -6.7710    -0.5800 C.ar  1 <1>  -0.1500 
 28 H        1.5540    -3.7610     2.6440 H     1 <1>   0.3700 
 29 H        1.8330    -2.9690    -1.2230 H     1 <1>   0.0800 
 30 H        1.8360    -1.3340    -0.5290 H     1 <1>   0.0800 
 31 H       -1.8370    -2.1750    -0.5030 H     1 <1>   0.0800 
 32 H       -0.6940    -1.8990    -1.7860 H     1 <1>   0.0800 
 33 H       -1.6030    -4.7040     0.3600 H     1 <1>   0.3700 
 34 H       -1.8830    -6.4650    -2.0580 H     1 <1>   0.0800 
 35 H       -3.8200    -6.0770    -0.1850 H     1 <1>   0.0800 
 36 H        0.1860    -6.6420    -0.2240 H     1 <1>   0.0800 
 37 H       -0.5310    -8.0630    -0.9740 H     1 <1>   0.0800 
 38 H       -3.0520    -7.9700     1.6130 H     1 <1>   0.0800 
 39 H       -2.4370    -6.3300     1.7270 H     1 <1>   0.0800 
 40 H       -2.9460    -8.8630    -1.0210 H     1 <1>   0.0800 
 41 H       -3.9130    -7.8260    -2.0060 H     1 <1>   0.0800 
 42 H       -3.9500   -10.2360     0.6380 H     1 <1>   0.1500 
 43 H       -5.6140    -6.3490    -1.7470 H     1 <1>   0.1500 
 44 H       -5.9210   -11.0520     1.7560 H     1 <1>   0.1500 
 45 H       -9.3560    -8.3340     0.7280 H     1 <1>   0.1500 
 46 H       -7.8290    -5.3380    -1.8790 H     1 <1>   0.1500 
 47 H       -9.7100    -6.3110    -0.6510 H     1 <1>   0.1500 
@<TRIPOS>BOND
  1   1   2  2   
  2   2   3  am  
  3   2   4  am  
  4   3   5  1   
  5   3   6  1   
  6   4   7  am  
  7   4  28  1   
  8   5   7  1   
  9   5  29  1   
 10   5  30  1   
 11   6   8  1   
 12   6  31  1   
 13   6  32  1   
 14   7   9  2   
 15   8  10  2   
 16   8  11  am  
 17  11  12  1   
 18  11  33  1   
 19  12  13  1   
 20  12  14  1   
 21  12  34  1   
 22  13  15  1   
 23  13  16  1   
 24  13  35  1   
 25  14  17  1   
 26  14  36  1   
 27  14  37  1   
 28  15  17  1   
 29  15  38  1   
 30  15  39  1   
 31  16  18  1   
 32  16  40  1   
 33  16  41  1   
 34  18  19  ar  
 35  18  20  ar  
 36  19  21  ar  
 37  19  22  ar  
 38  20  23  ar  
 39  20  42  1   
 40  21  24  ar  
 41  21  25  ar  
 42  22  26  ar  
 43  22  43  1   
 44  23  24  ar  
 45  23  44  1   
 46  25  27  ar  
 47  25  45  1   
 48  26  27  ar  
 49  26  46  1   
 50  27  47  1   
@<TRIPOS>SUBSTRUCTURE
  1 ****  13 GROUP 4 **** **** 0

# MOE 2024.06 (io_trps.svl 2023.06)
