@<TRIPOS>MOLECULE
NONAME
21 22 1 0 0 
SMALL
USER_CHARGES


@<TRIPOS>ATOM
  1 N        3.4440    -0.0210     0.0310 N.2   1 <1>  -0.4180 
  2 N        4.2030     1.0200     0.0800 N.2   1 <1>  -0.2270 
  3 N        4.2170    -1.1090    -0.0580 N.pl3 1 <1>   0.3000 
  4 C        5.4630     0.5950     0.0180 C.2   1 <1>   0.0460 
  5 C        5.5030    -0.7370    -0.0650 C.2   1 <1>  -0.3320 
  6 C        6.6760     1.4880     0.0410 C.3   1 <1>   0.0210 
  7 C        6.7490    -1.5940    -0.1510 C.3   1 <1>   0.0200 
  8 C        7.8880     0.6770    -0.4580 C.3   1 <1>   0.4230 
  9 C        7.9760    -0.7220     0.1880 C.3   1 <1>  -0.1600 
 10 N        9.1460     1.4090    -0.1880 N.4   1 <1>  -0.8530 
 11 H        3.8280    -2.0570    -0.1060 H     1 <1>   0.2700 
 12 H        6.8180     1.8290     1.0510 H     1 <1>   0.0800 
 13 H        6.4990     2.3310    -0.6020 H     1 <1>   0.0800 
 14 H        6.8350    -1.9920    -1.1480 H     1 <1>   0.0800 
 15 H        6.6840    -2.4200     0.5380 H     1 <1>   0.0800 
 16 H        7.7760     0.5420    -1.5230 H     1 <1>   0.0800 
 17 H        8.8590    -1.2390    -0.1440 H     1 <1>   0.0800 
 18 H        8.0220    -0.6160     1.2580 H     1 <1>   0.0800 
 19 H        9.2830     1.5350     0.8210 H     1 <1>   0.4500 
 20 H        9.1340     2.3360    -0.6300 H     1 <1>   0.4500 
 21 H        9.9520     0.8930    -0.5570 H     1 <1>   0.4500 
@<TRIPOS>BOND
  1   1   2  2   
  2   1   3  1   
  3   2   4  1   
  4   3   5  1   
  5   3  11  1   
  6   4   5  2   
  7   4   6  1   
  8   5   7  1   
  9   6   8  1   
 10   6  12  1   
 11   6  13  1   
 12   7   9  1   
 13   7  14  1   
 14   7  15  1   
 15   8   9  1   
 16   8  10  1   
 17   8  16  1   
 18   9  17  1   
 19   9  18  1   
 20  10  19  1   
 21  10  20  1   
 22  10  21  1   
@<TRIPOS>SUBSTRUCTURE
  1 ****   4 GROUP 4 **** **** 0

# MOE 2024.06 (io_trps.svl 2023.06)
