@<TRIPOS>MOLECULE
NONAME
46 47 1 0 0 
SMALL
USER_CHARGES


@<TRIPOS>ATOM
  1 CL      -1.6110     1.9420    -2.4550 Cl    1 <1>  -0.1770 
  2 C       -0.6020     3.1520    -1.7030 C.ar  1 <1>   0.1770 
  3 C       -1.1060     4.4250    -1.5050 C.ar  1 <1>  -0.1500 
  4 C        0.6840     2.8180    -1.3220 C.ar  1 <1>  -0.1500 
  5 C       -0.3170     5.3970    -0.9080 C.ar  1 <1>  -0.1440 
  6 C        1.4770     3.7810    -0.7230 C.ar  1 <1>  -0.1500 
  7 C        0.9770     5.0570    -0.5080 C.ar  1 <1>   0.0820 
  8 C       -0.8820     6.7990    -0.7210 C.3   1 <1>  -0.0960 
  9 O        1.7860     5.9590     0.0870 O.3   1 <1>  -0.3630 
 10 C        1.5220     6.2560     1.4520 C.3   1 <1>   0.2610 
 11 C        1.4840     7.7750     1.6460 C.2   1 <1>   0.5690 
 12 C        2.6140     5.5830     2.2910 C.3   1 <1>  -0.2400 
 13 O        0.8600     8.2260     2.5730 O.2   1 <1>  -0.5700 
 14 N        2.1550     8.5480     0.7390 N.am  1 <1>  -0.4940 
 15 C        2.3000     9.9160     0.6770 C.2   1 <1>   0.4420 
 16 S        3.2000    10.5480    -0.6650 S.3   1 <1>  -0.0800 
 17 N        1.8790    10.8460     1.4550 N.2   1 <1>  -0.3380 
 18 C        2.9110    12.1250    -0.0170 C.2   1 <1>   0.1980 
 19 N        2.2300    12.1030     1.0530 N.2   1 <1>  -0.3380 
 20 C        3.4680    13.3270    -0.7480 C.3   1 <1>   0.0200 
 21 C        3.0560    14.5970     0.0070 C.3   1 <1>   0.3430 
 22 N        3.5070    15.8590    -0.6720 N.4   1 <1>  -0.9590 
 23 C        4.9950    16.0340    -0.6310 C.3   1 <1>   0.2630 
 24 C        2.8380    17.0350    -0.0320 C.3   1 <1>   0.2630 
 25 H       -2.1100     4.6420    -1.8220 H     1 <1>   0.1500 
 26 H        1.0520     1.8230    -1.4950 H     1 <1>   0.1500 
 27 H        2.4820     3.5460    -0.4220 H     1 <1>   0.1500 
 28 H       -1.7450     6.9490    -1.3450 H     1 <1>   0.0800 
 29 H       -0.1480     7.5370    -0.9870 H     1 <1>   0.0800 
 30 H       -1.1750     6.9490     0.3030 H     1 <1>   0.0800 
 31 H        0.5600     5.8540     1.7190 H     1 <1>   0.0800 
 32 H        3.5840     5.9560     2.0180 H     1 <1>   0.0800 
 33 H        2.5840     4.5170     2.1530 H     1 <1>   0.0800 
 34 H        2.4470     5.7940     3.3330 H     1 <1>   0.0800 
 35 H        2.5780     8.0150    -0.0210 H     1 <1>   0.3700 
 36 H        3.0670    13.3400    -1.7450 H     1 <1>   0.0800 
 37 H        4.5370    13.2360    -0.7870 H     1 <1>   0.0800 
 38 H        3.4560    14.5570     1.0080 H     1 <1>   0.0800 
 39 H        1.9810    14.6010     0.0910 H     1 <1>   0.0800 
 40 H        3.2030    15.8280    -1.6590 H     1 <1>   0.4500 
 41 H        5.3420    16.0560     0.3900 H     1 <1>   0.0800 
 42 H        5.2750    16.9590    -1.1090 H     1 <1>   0.0800 
 43 H        5.4870    15.2250    -1.1450 H     1 <1>   0.0800 
 44 H        3.1200    17.1090     1.0060 H     1 <1>   0.0800 
 45 H        1.7660    16.9350    -0.0890 H     1 <1>   0.0800 
 46 H        3.1230    17.9470    -0.5320 H     1 <1>   0.0800 
@<TRIPOS>BOND
  1   1   2  1   
  2   2   3  ar  
  3   2   4  ar  
  4   3   5  ar  
  5   3  25  1   
  6   4   6  ar  
  7   4  26  1   
  8   5   7  ar  
  9   5   8  1   
 10   6   7  ar  
 11   6  27  1   
 12   7   9  1   
 13   8  28  1   
 14   8  29  1   
 15   8  30  1   
 16   9  10  1   
 17  10  11  1   
 18  10  12  1   
 19  10  31  1   
 20  11  13  2   
 21  11  14  am  
 22  12  32  1   
 23  12  33  1   
 24  12  34  1   
 25  14  15  1   
 26  14  35  1   
 27  15  16  1   
 28  15  17  2   
 29  16  18  1   
 30  17  19  1   
 31  18  19  2   
 32  18  20  1   
 33  20  21  1   
 34  20  36  1   
 35  20  37  1   
 36  21  22  1   
 37  21  38  1   
 38  21  39  1   
 39  22  23  1   
 40  22  24  1   
 41  22  40  1   
 42  23  41  1   
 43  23  42  1   
 44  23  43  1   
 45  24  44  1   
 46  24  45  1   
 47  24  46  1   
@<TRIPOS>SUBSTRUCTURE
  1 ****  14 GROUP 4 **** **** 0

# MOE 2024.06 (io_trps.svl 2023.06)
