@<TRIPOS>MOLECULE
NONAME
39 40 1 0 0 
SMALL
USER_CHARGES


@<TRIPOS>ATOM
  1 S       -0.1980    -0.1800     0.5750 S.3   1 <1>  -0.0800 
  2 C       -1.5450    -0.8510    -0.2860 C.2   1 <1>   0.4420 
  3 C       -0.6940     1.3740     0.0000 C.2   1 <1>   0.1980 
  4 N       -2.2230     0.0500    -0.8980 N.2   1 <1>  -0.3380 
  5 N       -1.7040    -2.2190    -0.2040 N.am  1 <1>  -0.4940 
  6 N       -1.7330     1.3160    -0.7300 N.2   1 <1>  -0.3380 
  7 C        0.1330     2.5750     0.4160 C.3   1 <1>   0.0200 
  8 C       -2.6760    -3.0290    -0.7370 C.2   1 <1>   0.5440 
  9 C       -0.4300     3.8700    -0.1660 C.3   1 <1>   0.1200 
 10 O       -3.6000    -2.5590    -1.3610 O.2   1 <1>  -0.5700 
 11 C       -2.5730    -4.4550    -0.5280 C.ar  1 <1>   0.0860 
 12 O        0.3780     4.9200     0.2580 O.3   1 <1>  -0.5600 
 13 C       -3.5730    -5.1990     0.1110 C.ar  1 <1>   0.1670 
 14 C       -1.4440    -5.1430    -0.9550 C.ar  1 <1>  -0.1500 
 15 C       -0.0300     6.1620    -0.2070 C.3   1 <1>   0.1200 
 16 N       -3.5070    -6.4990     0.3480 N.ar  1 <1>  -0.6200 
 17 C       -4.8490    -4.5290     0.5970 C.3   1 <1>  -0.0970 
 18 C       -1.3750    -6.4970    -0.7150 C.ar  1 <1>  -0.1500 
 19 C        0.9460     7.1980     0.3380 C.3   1 <1>  -0.2400 
 20 C       -2.4210    -7.1260    -0.0640 C.ar  1 <1>   0.1670 
 21 C       -2.3710    -8.6130     0.2120 C.3   1 <1>  -0.0970 
 22 H       -1.0050    -2.6950     0.3590 H     1 <1>   0.3700 
 23 H        1.1410     2.4420     0.0700 H     1 <1>   0.0800 
 24 H        0.1350     2.6430     1.4890 H     1 <1>   0.0800 
 25 H       -1.4340     4.0370     0.1870 H     1 <1>   0.0800 
 26 H       -0.4220     3.8340    -1.2420 H     1 <1>   0.0800 
 27 H       -0.6480    -4.6340    -1.4700 H     1 <1>   0.1500 
 28 H       -1.0280     6.3570     0.1470 H     1 <1>   0.0800 
 29 H       -0.0140     6.1550    -1.2840 H     1 <1>   0.0800 
 30 H       -4.6290    -3.6110     1.1090 H     1 <1>   0.0800 
 31 H       -5.3800    -5.1750     1.2730 H     1 <1>   0.0800 
 32 H       -5.4850    -4.3170    -0.2440 H     1 <1>   0.0800 
 33 H       -0.5170    -7.0600    -1.0350 H     1 <1>   0.1500 
 34 H        0.9320     7.1870     1.4130 H     1 <1>   0.0800 
 35 H        0.6640     8.1780    -0.0010 H     1 <1>   0.0800 
 36 H        1.9410     6.9850    -0.0110 H     1 <1>   0.0800 
 37 H       -3.2040    -9.0940    -0.2690 H     1 <1>   0.0800 
 38 H       -2.4400    -8.7840     1.2700 H     1 <1>   0.0800 
 39 H       -1.4600    -9.0480    -0.1530 H     1 <1>   0.0800 
@<TRIPOS>BOND
  1   1   2  1   
  2   1   3  1   
  3   2   4  2   
  4   2   5  1   
  5   3   6  2   
  6   3   7  1   
  7   4   6  1   
  8   5   8  am  
  9   5  22  1   
 10   7   9  1   
 11   7  23  1   
 12   7  24  1   
 13   8  10  2   
 14   8  11  1   
 15   9  12  1   
 16   9  25  1   
 17   9  26  1   
 18  11  13  ar  
 19  11  14  ar  
 20  12  15  1   
 21  13  16  ar  
 22  13  17  1   
 23  14  18  ar  
 24  14  27  1   
 25  15  19  1   
 26  15  28  1   
 27  15  29  1   
 28  16  20  ar  
 29  17  30  1   
 30  17  31  1   
 31  17  32  1   
 32  18  20  ar  
 33  18  33  1   
 34  19  34  1   
 35  19  35  1   
 36  19  36  1   
 37  20  21  1   
 38  21  37  1   
 39  21  38  1   
 40  21  39  1   
@<TRIPOS>SUBSTRUCTURE
  1 ****   2 GROUP 4 **** **** 0

# MOE 2024.06 (io_trps.svl 2023.06)
