@<TRIPOS>MOLECULE
NONAME
51 52 1 0 0 
SMALL
USER_CHARGES


@<TRIPOS>ATOM
  1 O        0.0620     0.4130     1.3130 O.co2 1 <1>  -0.9000 
  2 C        0.8370    -0.0080     0.4460 C.2   1 <1>   0.9060 
  3 O        0.4690    -0.7550    -0.4680 O.co2 1 <1>  -0.9000 
  4 C        2.3030     0.3680     0.5360 C.3   1 <1>  -0.1220 
  5 C        2.6270     1.7710     0.0210 C.ar  1 <1>  -0.1440 
  6 C        3.5960     1.9630    -0.9480 C.ar  1 <1>  -0.1500 
  7 C        1.9430     2.8640     0.5230 C.ar  1 <1>  -0.1500 
  8 C        3.8900     3.2370    -1.4020 C.ar  1 <1>  -0.1500 
  9 C        2.2280     4.1390     0.0720 C.ar  1 <1>  -0.1500 
 10 C        3.2150     4.3330    -0.8840 C.ar  1 <1>  -0.1440 
 11 C        3.5630     5.7300    -1.3400 C.3   1 <1>   0.4870 
 12 N        4.2470     6.4180    -0.1980 N.4   1 <1>  -0.9590 
 13 C        4.3020     7.9080    -0.4300 C.3   1 <1>   0.3430 
 14 C        5.5370     5.7310     0.1250 C.3   1 <1>   0.3430 
 15 C        5.0630     8.7470     0.6370 C.3   1 <1>   0.3430 
 16 C        5.9890     6.0960     1.5380 C.3   1 <1>  -0.1600 
 17 N        6.5410     8.4420     0.7220 N.4   1 <1>  -0.9590 
 18 C        6.8970     7.3240     1.6510 C.3   1 <1>   0.3430 
 19 C        7.3170     9.6560     1.1390 C.3   1 <1>   0.3430 
 20 C        7.4010    10.6980     0.0070 C.3   1 <1>  -0.0800 
 21 C        7.9400    10.1080    -1.3090 C.3   1 <1>  -0.2400 
 22 C        8.3110    11.8510     0.4500 C.3   1 <1>  -0.2400 
 23 H        2.8550    -0.3700    -0.0130 H     1 <1>   0.0800 
 24 H        2.5870     0.2940     1.5670 H     1 <1>   0.0800 
 25 H        4.1150     1.1110    -1.3530 H     1 <1>   0.1500 
 26 H        1.1720     2.7060     1.2620 H     1 <1>   0.1500 
 27 H        4.6430     3.3470    -2.1630 H     1 <1>   0.1500 
 28 H        1.6550     4.9540     0.4770 H     1 <1>   0.1500 
 29 H        2.6540     6.2460    -1.6060 H     1 <1>   0.0800 
 30 H        4.2040     5.6890    -2.2060 H     1 <1>   0.0800 
 31 H        3.6170     6.2090     0.5930 H     1 <1>   0.4500 
 32 H        3.2910     8.2820    -0.4820 H     1 <1>   0.0800 
 33 H        4.7530     8.1020    -1.3890 H     1 <1>   0.0800 
 34 H        6.2980     5.9680    -0.6020 H     1 <1>   0.0800 
 35 H        5.3840     4.6620     0.1010 H     1 <1>   0.0800 
 36 H        4.6020     8.6120     1.6020 H     1 <1>   0.0800 
 37 H        4.9350     9.7840     0.3730 H     1 <1>   0.0800 
 38 H        6.5540     5.2640     1.9210 H     1 <1>   0.0800 
 39 H        5.1420     6.1970     2.1920 H     1 <1>   0.0800 
 40 H        6.9080     8.2220    -0.2140 H     1 <1>   0.4500 
 41 H        7.9140     7.0220     1.4520 H     1 <1>   0.0800 
 42 H        6.8660     7.6750     2.6710 H     1 <1>   0.0800 
 43 H        8.3240     9.3670     1.3960 H     1 <1>   0.0800 
 44 H        6.8730    10.1050     2.0140 H     1 <1>   0.0800 
 45 H        6.4270    11.1190    -0.1710 H     1 <1>   0.0800 
 46 H        8.9010     9.6450    -1.1580 H     1 <1>   0.0800 
 47 H        8.0670    10.8940    -2.0350 H     1 <1>   0.0800 
 48 H        7.2640     9.3900    -1.7360 H     1 <1>   0.0800 
 49 H        9.3180    11.5080     0.6240 H     1 <1>   0.0800 
 50 H        7.9440    12.3060     1.3540 H     1 <1>   0.0800 
 51 H        8.3460    12.6140    -0.3100 H     1 <1>   0.0800 
@<TRIPOS>BOND
  1   1   2  ar  
  2   2   3  ar  
  3   2   4  1   
  4   4   5  1   
  5   4  23  1   
  6   4  24  1   
  7   5   6  ar  
  8   5   7  ar  
  9   6   8  ar  
 10   6  25  1   
 11   7   9  ar  
 12   7  26  1   
 13   8  10  ar  
 14   8  27  1   
 15   9  10  ar  
 16   9  28  1   
 17  10  11  1   
 18  11  12  1   
 19  11  29  1   
 20  11  30  1   
 21  12  13  1   
 22  12  14  1   
 23  12  31  1   
 24  13  15  1   
 25  13  32  1   
 26  13  33  1   
 27  14  16  1   
 28  14  34  1   
 29  14  35  1   
 30  15  17  1   
 31  15  36  1   
 32  15  37  1   
 33  16  18  1   
 34  16  38  1   
 35  16  39  1   
 36  17  18  1   
 37  17  19  1   
 38  17  40  1   
 39  18  41  1   
 40  18  42  1   
 41  19  20  1   
 42  19  43  1   
 43  19  44  1   
 44  20  21  1   
 45  20  22  1   
 46  20  45  1   
 47  21  46  1   
 48  21  47  1   
 49  21  48  1   
 50  22  49  1   
 51  22  50  1   
 52  22  51  1   
@<TRIPOS>SUBSTRUCTURE
  1 ****  12 GROUP 4 **** **** 0

# MOE 2024.06 (io_trps.svl 2023.06)
