@<TRIPOS>MOLECULE
NONAME
32 33 1 0 0 
SMALL
USER_CHARGES


@<TRIPOS>ATOM
  1 S        1.8310    -0.1130     1.7370 S.3   1 <1>  -0.0800 
  2 C        1.9610    -0.2640    -0.0110 C.2   1 <1>  -0.1400 
  3 C        0.0920    -0.3290     1.6700 C.2   1 <1>  -0.1100 
  4 C        0.7480    -0.4680    -0.5560 C.2   1 <1>  -0.1500 
  5 C        3.3490    -0.1500    -0.6300 C.3   1 <1>   0.0810 
  6 C       -0.3160    -0.5030     0.4000 C.2   1 <1>  -0.1500 
  7 C        3.8580     1.2810    -0.7280 C.2   1 <1>   0.5690 
  8 O        4.8500     1.4820    -1.3870 O.2   1 <1>  -0.5700 
  9 N        3.1680     2.2720    -0.0850 N.am  1 <1>  -0.4940 
 10 C        3.3090     3.6800    -0.0950 C.2   1 <1>  -0.0880 
 11 N        4.4610     4.4140    -0.1280 N.pl3 1 <1>   0.3140 
 12 C        2.2890     4.5710    -0.0600 C.2   1 <1>  -0.1810 
 13 N        4.1870     5.7440    -0.1320 N.2   1 <1>  -0.7070 
 14 C        5.8580     3.9060    -0.0960 C.3   1 <1>   0.0960 
 15 C        2.8950     5.8200    -0.0890 C.2   1 <1>   0.1390 
 16 C        0.7920     4.3200    -0.0100 C.3   1 <1>  -0.0590 
 17 C        6.8270     4.8340     0.6530 C.3   1 <1>  -0.2400 
 18 H       -0.4470    -0.3060     2.6020 H     1 <1>   0.1500 
 19 H        0.5440    -0.5970    -1.6060 H     1 <1>   0.1500 
 20 H        3.3220    -0.5570    -1.6240 H     1 <1>   0.0800 
 21 H        4.0500    -0.7290    -0.0580 H     1 <1>   0.0800 
 22 H       -1.3350    -0.6590     0.0880 H     1 <1>   0.1500 
 23 H        2.3210     1.9390     0.3840 H     1 <1>   0.3700 
 24 H        6.1850     3.7740    -1.1110 H     1 <1>   0.0800 
 25 H        5.8550     2.9480     0.3870 H     1 <1>   0.0800 
 26 H        2.3630     6.7560    -0.0790 H     1 <1>   0.1500 
 27 H        0.5770     3.2700    -0.0900 H     1 <1>   0.0800 
 28 H        0.3110     4.8310    -0.8240 H     1 <1>   0.0800 
 29 H        0.3920     4.6870     0.9180 H     1 <1>   0.0800 
 30 H        6.8970     5.7830     0.1510 H     1 <1>   0.0800 
 31 H        7.8060     4.3920     0.6830 H     1 <1>   0.0800 
 32 H        6.4850     4.9910     1.6610 H     1 <1>   0.0800 
@<TRIPOS>BOND
  1   1   2  1   
  2   1   3  1   
  3   2   4  2   
  4   2   5  1   
  5   3   6  2   
  6   3  18  1   
  7   4   6  1   
  8   4  19  1   
  9   5   7  1   
 10   5  20  1   
 11   5  21  1   
 12   6  22  1   
 13   7   8  2   
 14   7   9  am  
 15   9  10  1   
 16   9  23  1   
 17  10  11  1   
 18  10  12  2   
 19  11  13  1   
 20  11  14  1   
 21  12  15  1   
 22  12  16  1   
 23  13  15  2   
 24  14  17  1   
 25  14  24  1   
 26  14  25  1   
 27  15  26  1   
 28  16  27  1   
 29  16  28  1   
 30  16  29  1   
 31  17  30  1   
 32  17  31  1   
 33  17  32  1   
@<TRIPOS>SUBSTRUCTURE
  1 ****   9 GROUP 4 **** **** 0

# MOE 2024.06 (io_trps.svl 2023.06)
