@<TRIPOS>MOLECULE
NONAME
49 51 1 0 0 
SMALL
USER_CHARGES


@<TRIPOS>ATOM
  1 S       -4.1220    -1.2000    -0.1380 S.o2  1 <1>   1.3330 
  2 O       -5.3510    -1.9520    -0.2190 O.2   1 <1>  -0.6500 
  3 O       -4.0070    -0.0220     0.6820 O.2   1 <1>  -0.6500 
  4 N       -2.9230    -2.2490     0.3900 N.am  1 <1>  -0.9140 
  5 C       -3.6150    -0.7700    -1.7910 C.3   1 <1>  -0.1350 
  6 C       -2.8270    -3.5090    -0.3250 C.3   1 <1>   0.1960 
  7 C       -1.9090    -4.4600     0.4320 C.3   1 <1>  -0.0990 
  8 C       -2.0270    -5.8230    -0.1980 C.2   1 <1>   0.5690 
  9 O       -1.6790    -5.9640    -1.3440 O.2   1 <1>  -0.5700 
 10 N       -2.5740    -6.8310     0.5190 N.am  1 <1>  -0.7300 
 11 C       -2.9090    -8.1700    -0.0180 C.3   1 <1>   0.2200 
 12 C       -4.4210    -8.3730    -0.0990 C.3   1 <1>  -0.0800 
 13 C       -2.5330    -9.2200     1.0170 C.3   1 <1>   0.1200 
 14 C       -4.7790    -8.8960     1.2990 C.3   1 <1>   0.1200 
 15 C       -5.2480    -7.1370    -0.5220 C.3   1 <1>  -0.0170 
 16 O       -3.5750    -9.1950     1.9420 O.3   1 <1>  -0.5600 
 17 C       -6.7610    -7.3540    -0.6580 C.ar  1 <1>  -0.1440 
 18 C       -7.6480    -6.2470    -0.6390 C.ar  1 <1>   0.0000 
 19 C       -7.3240    -8.5910    -0.8120 C.ar  1 <1>  -0.1500 
 20 C       -9.0380    -6.5060    -0.7440 C.ar  1 <1>   0.3100 
 21 C       -7.2440    -4.8940    -0.5260 C.ar  1 <1>  -0.1500 
 22 C       -8.7120    -8.7350    -0.9180 C.ar  1 <1>   0.1600 
 23 N       -9.5520    -7.7520    -0.8830 N.ar  1 <1>  -0.6200 
 24 C       -9.9410    -5.4310    -0.7080 C.ar  1 <1>  -0.1500 
 25 C       -8.1500    -3.8690    -0.4950 C.ar  1 <1>  -0.1500 
 26 C       -9.5170    -4.1370    -0.5840 C.ar  1 <1>  -0.1500 
 27 H       -2.0440    -1.7370     0.4280 H     1 <1>   0.4200 
 28 H       -3.6140    -1.6350    -2.4230 H     1 <1>   0.0800 
 29 H       -2.6340    -0.3370    -1.7810 H     1 <1>   0.0800 
 30 H       -4.2980    -0.0520    -2.2020 H     1 <1>   0.0800 
 31 H       -3.8070    -3.9550    -0.3910 H     1 <1>   0.0800 
 32 H       -2.4540    -3.3560    -1.3250 H     1 <1>   0.0800 
 33 H       -2.2020    -4.5090     1.4640 H     1 <1>   0.0800 
 34 H       -0.8890    -4.1290     0.3650 H     1 <1>   0.0800 
 35 H       -2.8390    -6.7050     1.5000 H     1 <1>   0.3700 
 36 H       -2.4160    -8.3360    -0.9610 H     1 <1>   0.0800 
 37 H       -4.5860    -9.1630    -0.8080 H     1 <1>   0.0800 
 38 H       -1.6010    -9.0100     1.5090 H     1 <1>   0.0800 
 39 H       -2.5050   -10.2010     0.5750 H     1 <1>   0.0800 
 40 H       -5.3740    -9.7920     1.2500 H     1 <1>   0.0800 
 41 H       -5.2910    -8.1550     1.8890 H     1 <1>   0.0800 
 42 H       -4.8700    -6.7650    -1.4590 H     1 <1>   0.0800 
 43 H       -5.0910    -6.3760     0.2200 H     1 <1>   0.0800 
 44 H       -6.7460    -9.4930    -0.8590 H     1 <1>   0.1500 
 45 H       -6.2030    -4.6430    -0.4640 H     1 <1>   0.1500 
 46 H       -9.1060    -9.7300    -1.0350 H     1 <1>   0.1500 
 47 H      -10.9870    -5.6630    -0.7810 H     1 <1>   0.1500 
 48 H       -7.8180    -2.8480    -0.4010 H     1 <1>   0.1500 
 49 H      -10.2180    -3.3210    -0.5560 H     1 <1>   0.1500 
@<TRIPOS>BOND
  1   1   2  2   
  2   1   3  2   
  3   1   4  am  
  4   1   5  1   
  5   4   6  1   
  6   4  27  1   
  7   5  28  1   
  8   5  29  1   
  9   5  30  1   
 10   6   7  1   
 11   6  31  1   
 12   6  32  1   
 13   7   8  1   
 14   7  33  1   
 15   7  34  1   
 16   8   9  2   
 17   8  10  am  
 18  10  11  1   
 19  10  35  1   
 20  11  12  1   
 21  11  13  1   
 22  11  36  1   
 23  12  14  1   
 24  12  15  1   
 25  12  37  1   
 26  13  16  1   
 27  13  38  1   
 28  13  39  1   
 29  14  16  1   
 30  14  40  1   
 31  14  41  1   
 32  15  17  1   
 33  15  42  1   
 34  15  43  1   
 35  17  18  ar  
 36  17  19  ar  
 37  18  20  ar  
 38  18  21  ar  
 39  19  22  ar  
 40  19  44  1   
 41  20  23  ar  
 42  20  24  ar  
 43  21  25  ar  
 44  21  45  1   
 45  22  23  ar  
 46  22  46  1   
 47  24  26  ar  
 48  24  47  1   
 49  25  26  ar  
 50  25  48  1   
 51  26  49  1   
@<TRIPOS>SUBSTRUCTURE
  1 ****  15 GROUP 4 **** **** 0

# MOE 2024.06 (io_trps.svl 2023.06)
