@<TRIPOS>MOLECULE
NONAME
46 48 1 0 0 
SMALL
USER_CHARGES


@<TRIPOS>ATOM
  1 F        1.4350    -0.1130    -0.8080 F     1 <1>  -0.1900 
  2 C        2.6810     0.2310    -0.6020 C.ar  1 <1>   0.1900 
  3 C        2.9490     1.4280     0.0170 C.ar  1 <1>  -0.1500 
  4 C        3.6800    -0.6500    -1.0300 C.ar  1 <1>  -0.1500 
  5 C        4.2860     1.7610     0.2190 C.ar  1 <1>   0.2270 
  6 C        5.0020    -0.3170    -0.8280 C.ar  1 <1>  -0.1500 
  7 N        4.8220     2.8710     0.7990 N.2   1 <1>  -0.5650 
  8 C        5.2880     0.8990    -0.1980 C.ar  1 <1>  -0.1520 
  9 C        6.0960     2.6840     0.7330 C.2   1 <1>   0.0060 
 10 N        6.4480     1.5140     0.1440 N.pl3 1 <1>   0.0330 
 11 C        7.1440     3.6530     1.2520 C.3   1 <1>   0.3000 
 12 O        8.4160     3.2360     0.8240 O.3   1 <1>  -0.5600 
 13 C        9.4770     4.0110     1.3320 C.3   1 <1>   0.1810 
 14 C        9.4200     5.4890     0.9250 C.2   1 <1>   0.5690 
 15 O        9.3550     6.2990     1.8210 O.2   1 <1>  -0.5700 
 16 N        9.4320     5.8800    -0.3940 N.am  1 <1>  -0.6600 
 17 C        9.2820     7.3260    -0.7580 C.3   1 <1>   0.1400 
 18 C        9.4630     4.9420    -1.5520 C.3   1 <1>   0.0600 
 19 C       10.5540     8.1440    -0.4840 C.3   1 <1>   0.2000 
 20 O       10.3290     9.4410    -0.9600 O.3   1 <1>  -0.5600 
 21 C       11.8110     7.5820    -1.1750 C.3   1 <1>  -0.1600 
 22 C       11.3310    10.3600    -0.6500 C.3   1 <1>   0.1200 
 23 C       13.0150     8.5080    -0.9660 C.3   1 <1>  -0.1600 
 24 C       12.6340     9.9440    -1.3420 C.3   1 <1>  -0.1600 
 25 H        2.1750     2.0950     0.3400 H     1 <1>   0.1500 
 26 H        3.3990    -1.5710    -1.5080 H     1 <1>   0.1500 
 27 H        5.7990    -0.9690    -1.1430 H     1 <1>   0.1500 
 28 H        7.4090     1.1990    -0.0090 H     1 <1>   0.2700 
 29 H        7.1220     3.6720     2.3280 H     1 <1>   0.0800 
 30 H        6.9430     4.6390     0.8680 H     1 <1>   0.0800 
 31 H       10.3950     3.5850     0.9730 H     1 <1>   0.0800 
 32 H        9.4690     3.9340     2.4050 H     1 <1>   0.0800 
 33 H        8.4760     7.7470    -0.1820 H     1 <1>   0.0800 
 34 H        9.0280     7.4130    -1.8000 H     1 <1>   0.0800 
 35 H        9.8210     3.9720    -1.2610 H     1 <1>   0.0800 
 36 H       10.1140     5.3270    -2.3180 H     1 <1>   0.0800 
 37 H        8.4700     4.8390    -1.9560 H     1 <1>   0.0800 
 38 H       10.7060     8.2050     0.5810 H     1 <1>   0.0800 
 39 H       11.6120     7.4740    -2.2260 H     1 <1>   0.0800 
 40 H       12.0380     6.6090    -0.7770 H     1 <1>   0.0800 
 41 H       11.4490    10.3940     0.4200 H     1 <1>   0.0800 
 42 H       11.0100    11.3260    -0.9990 H     1 <1>   0.0800 
 43 H       13.8480     8.1760    -1.5620 H     1 <1>   0.0800 
 44 H       13.3090     8.4780     0.0690 H     1 <1>   0.0800 
 45 H       13.4230    10.6180    -1.0610 H     1 <1>   0.0800 
 46 H       12.4970    10.0190    -2.4070 H     1 <1>   0.0800 
@<TRIPOS>BOND
  1   1   2  1   
  2   2   3  ar  
  3   2   4  ar  
  4   3   5  ar  
  5   3  25  1   
  6   4   6  ar  
  7   4  26  1   
  8   5   7  1   
  9   5   8  ar  
 10   6   8  ar  
 11   6  27  1   
 12   7   9  2   
 13   8  10  1   
 14   9  10  1   
 15   9  11  1   
 16  10  28  1   
 17  11  12  1   
 18  11  29  1   
 19  11  30  1   
 20  12  13  1   
 21  13  14  1   
 22  13  31  1   
 23  13  32  1   
 24  14  15  2   
 25  14  16  am  
 26  16  17  1   
 27  16  18  1   
 28  17  19  1   
 29  17  33  1   
 30  17  34  1   
 31  18  35  1   
 32  18  36  1   
 33  18  37  1   
 34  19  20  1   
 35  19  21  1   
 36  19  38  1   
 37  20  22  1   
 38  21  23  1   
 39  21  39  1   
 40  21  40  1   
 41  22  24  1   
 42  22  41  1   
 43  22  42  1   
 44  23  24  1   
 45  23  43  1   
 46  23  44  1   
 47  24  45  1   
 48  24  46  1   
@<TRIPOS>SUBSTRUCTURE
  1 ****  11 GROUP 4 **** **** 0

# MOE 2024.06 (io_trps.svl 2023.06)
