@<TRIPOS>MOLECULE
NONAME
43 46 1 0 0 
SMALL
USER_CHARGES


@<TRIPOS>ATOM
  1 O       -1.9880    -1.1660     0.8950 O.3   1 <1>  -0.5600 
  2 C       -2.1630    -0.0140     1.6710 C.3   1 <1>   0.1200 
  3 C       -1.5210    -1.0690    -0.4120 C.3   1 <1>   0.1200 
  4 C       -3.0340     1.0960     1.0330 C.3   1 <1>   0.4230 
  5 C       -2.5750    -0.4780    -1.3730 C.3   1 <1>  -0.0800 
  6 N       -2.3210     1.7200    -0.1450 N.4   1 <1>  -0.9590 
  7 C       -4.4960     0.6590     0.7400 C.3   1 <1>   0.2090 
  8 C       -4.0000    -1.0320    -1.2050 C.3   1 <1>   0.2090 
  9 C       -2.5940     1.0480    -1.4480 C.3   1 <1>   0.3430 
 10 C       -2.6100     3.1840    -0.2500 C.3   1 <1>   0.2630 
 11 N       -4.6900    -0.6770     0.0760 N.pl3 1 <1>  -0.8220 
 12 C       -5.9150    -1.3230     0.3460 C.2   1 <1>   0.2700 
 13 N       -6.9960    -0.6750     0.6070 N.2   1 <1>  -0.3380 
 14 N       -6.1760    -2.6500     0.3710 N.pl3 1 <1>   0.5930 
 15 N       -7.9420    -1.5910     0.7790 N.2   1 <1>   0.0000 
 16 N       -7.4750    -2.7730     0.6380 N.2   1 <1>  -0.4180 
 17 C       -5.3050    -3.7610     0.1800 C.ar  1 <1>  -0.0230 
 18 C       -5.6760    -4.8190    -0.6450 C.ar  1 <1>  -0.1500 
 19 C       -4.0600    -3.8090     0.8030 C.ar  1 <1>  -0.1500 
 20 C       -4.8230    -5.8880    -0.8510 C.ar  1 <1>  -0.1500 
 21 C       -3.2060    -4.8760     0.5970 C.ar  1 <1>  -0.1500 
 22 C       -3.5860    -5.9170    -0.2320 C.ar  1 <1>  -0.1500 
 23 H       -2.6310    -0.3360     2.5850 H     1 <1>   0.0800 
 24 H       -1.1900     0.3690     1.9220 H     1 <1>   0.0800 
 25 H       -0.6000    -0.5120    -0.4190 H     1 <1>   0.0800 
 26 H       -1.2980    -2.0780    -0.7210 H     1 <1>   0.0800 
 27 H       -3.1100     1.8630     1.7850 H     1 <1>   0.0800 
 28 H       -2.2730    -0.7950    -2.3560 H     1 <1>   0.0800 
 29 H       -1.3160     1.6020     0.0450 H     1 <1>   0.4500 
 30 H       -4.9980     1.4160     0.1650 H     1 <1>   0.0800 
 31 H       -4.9960     0.6160     1.6940 H     1 <1>   0.0800 
 32 H       -3.9460    -2.1030    -1.2930 H     1 <1>   0.0800 
 33 H       -4.6120    -0.6840    -2.0210 H     1 <1>   0.0800 
 34 H       -3.5570     1.3590    -1.8210 H     1 <1>   0.0800 
 35 H       -1.8530     1.3670    -2.1620 H     1 <1>   0.0800 
 36 H       -3.6580     3.3470    -0.4470 H     1 <1>   0.0800 
 37 H       -2.0380     3.6230    -1.0510 H     1 <1>   0.0800 
 38 H       -2.3500     3.6860     0.6690 H     1 <1>   0.0800 
 39 H       -6.6400    -4.8100    -1.1270 H     1 <1>   0.1500 
 40 H       -3.7520    -3.0070     1.4530 H     1 <1>   0.1500 
 41 H       -5.1210    -6.7010    -1.4910 H     1 <1>   0.1500 
 42 H       -2.2460    -4.8990     1.0840 H     1 <1>   0.1500 
 43 H       -2.9220    -6.7490    -0.3920 H     1 <1>   0.1500 
@<TRIPOS>BOND
  1   1   2  1   
  2   1   3  1   
  3   2   4  1   
  4   2  23  1   
  5   2  24  1   
  6   3   5  1   
  7   3  25  1   
  8   3  26  1   
  9   4   6  1   
 10   4   7  1   
 11   4  27  1   
 12   5   8  1   
 13   5   9  1   
 14   5  28  1   
 15   6   9  1   
 16   6  10  1   
 17   6  29  1   
 18   7  11  1   
 19   7  30  1   
 20   7  31  1   
 21   8  11  1   
 22   8  32  1   
 23   8  33  1   
 24   9  34  1   
 25   9  35  1   
 26  10  36  1   
 27  10  37  1   
 28  10  38  1   
 29  11  12  1   
 30  12  13  2   
 31  12  14  1   
 32  13  15  1   
 33  14  16  1   
 34  14  17  1   
 35  15  16  2   
 36  17  18  ar  
 37  17  19  ar  
 38  18  20  ar  
 39  18  39  1   
 40  19  21  ar  
 41  19  40  1   
 42  20  22  ar  
 43  20  41  1   
 44  21  22  ar  
 45  21  42  1   
 46  22  43  1   
@<TRIPOS>SUBSTRUCTURE
  1 ****  11 GROUP 4 **** **** 0

# MOE 2024.06 (io_trps.svl 2023.06)
