@<TRIPOS>MOLECULE
NONAME
40 42 1 0 0 
SMALL
USER_CHARGES


@<TRIPOS>ATOM
  1 O       -1.7400     0.1680     2.6610 O.2   1 <1>  -0.5700 
  2 C       -2.0710     0.6590     1.5930 C.2   1 <1>   0.5440 
  3 N       -2.9120    -0.1030     0.8000 N.am  1 <1>  -0.6600 
  4 C       -1.5910     2.0040     1.2340 C.ar  1 <1>   0.3960 
  5 C       -3.6540     0.3620    -0.3970 C.3   1 <1>   0.1400 
  6 C       -3.2720    -1.5090     1.1160 C.3   1 <1>   0.1400 
  7 N       -1.5250     2.3920    -0.0540 N.ar  1 <1>  -0.6200 
  8 C       -1.1980     2.8710     2.2570 C.ar  1 <1>  -0.1500 
  9 C       -4.8020    -0.6340    -0.5420 C.3   1 <1>   0.2000 
 10 C       -4.2430    -1.9500     0.0070 C.3   1 <1>  -0.0800 
 11 C       -1.0810     3.6060    -0.3110 C.ar  1 <1>   0.1660 
 12 C       -0.7390     4.1390     1.9850 C.ar  1 <1>  -0.1500 
 13 O       -5.8350    -0.2340     0.2890 O.3   1 <1>  -0.6800 
 14 C       -3.5300    -2.7490    -1.1020 C.3   1 <1>  -0.0170 
 15 C       -0.6820     4.5080     0.6610 C.ar  1 <1>  -0.1500 
 16 C       -1.0220     3.9930    -1.7730 C.3   1 <1>  -0.0970 
 17 C       -3.1310    -4.1400    -0.6330 C.ar  1 <1>   0.1670 
 18 N       -1.8860    -4.2940    -0.2130 N.ar  1 <1>  -0.6200 
 19 C       -4.0640    -5.1750    -0.6620 C.ar  1 <1>   0.1600 
 20 C       -1.6400    -5.5340     0.1740 C.ar  1 <1>   0.1600 
 21 N       -3.8220    -6.4160    -0.2760 N.ar  1 <1>  -0.6200 
 22 C       -2.5760    -6.5610     0.1440 C.ar  1 <1>   0.1600 
 23 H       -4.0130     1.3700    -0.2830 H     1 <1>   0.0800 
 24 H       -3.0020     0.3070    -1.2510 H     1 <1>   0.0800 
 25 H       -2.3860    -2.1190     1.1590 H     1 <1>   0.0800 
 26 H       -3.7590    -1.5380     2.0750 H     1 <1>   0.0800 
 27 H       -1.2570     2.5350     3.2770 H     1 <1>   0.1500 
 28 H       -5.1830    -0.7000    -1.5460 H     1 <1>   0.0800 
 29 H       -5.0330    -2.5580     0.4130 H     1 <1>   0.0800 
 30 H       -0.4360     4.8100     2.7710 H     1 <1>   0.1500 
 31 H       -5.4610    -0.0250     1.1700 H     1 <1>   0.4000 
 32 H       -2.6530    -2.2210    -1.4370 H     1 <1>   0.0800 
 33 H       -4.1860    -2.8520    -1.9470 H     1 <1>   0.0800 
 34 H       -0.3300     5.4870     0.3900 H     1 <1>   0.1500 
 35 H       -0.6510     4.9930    -1.8970 H     1 <1>   0.0800 
 36 H       -2.0060     3.9320    -2.2010 H     1 <1>   0.0800 
 37 H       -0.3740     3.3140    -2.2970 H     1 <1>   0.0800 
 38 H       -5.0570    -4.9660    -1.0190 H     1 <1>   0.1500 
 39 H       -0.6490    -5.7490     0.5330 H     1 <1>   0.1500 
 40 H       -2.2810    -7.5390     0.4800 H     1 <1>   0.1500 
@<TRIPOS>BOND
  1   1   2  2   
  2   2   3  am  
  3   2   4  1   
  4   3   5  1   
  5   3   6  1   
  6   4   7  ar  
  7   4   8  ar  
  8   5   9  1   
  9   5  23  1   
 10   5  24  1   
 11   6  10  1   
 12   6  25  1   
 13   6  26  1   
 14   7  11  ar  
 15   8  12  ar  
 16   8  27  1   
 17   9  10  1   
 18   9  13  1   
 19   9  28  1   
 20  10  14  1   
 21  10  29  1   
 22  11  15  ar  
 23  11  16  1   
 24  12  15  ar  
 25  12  30  1   
 26  13  31  1   
 27  14  17  1   
 28  14  32  1   
 29  14  33  1   
 30  15  34  1   
 31  16  35  1   
 32  16  36  1   
 33  16  37  1   
 34  17  18  ar  
 35  17  19  ar  
 36  18  20  ar  
 37  19  21  ar  
 38  19  38  1   
 39  20  22  ar  
 40  20  39  1   
 41  21  22  ar  
 42  22  40  1   
@<TRIPOS>SUBSTRUCTURE
  1 ****   3 GROUP 4 **** **** 0

# MOE 2024.06 (io_trps.svl 2023.06)
