@<TRIPOS>MOLECULE
NONAME
55 58 1 0 0 
SMALL
USER_CHARGES


@<TRIPOS>ATOM
  1 F       -4.4090     0.6200    -3.3800 F     1 <1>  -0.1900 
  2 C       -4.0050     0.8520    -2.1620 C.ar  1 <1>   0.1900 
  3 C       -4.9030     0.6860    -1.1250 C.ar  1 <1>  -0.1500 
  4 C       -2.7010     1.2570    -1.9550 C.ar  1 <1>  -0.1500 
  5 C       -4.4810     0.9380     0.1750 C.ar  1 <1>  -0.1440 
  6 C       -2.2840     1.5000    -0.6580 C.ar  1 <1>  -0.1500 
  7 C       -3.1690     1.3410     0.3990 C.ar  1 <1>  -0.1500 
  8 C       -5.4450     0.7860     1.3370 C.3   1 <1>   0.4870 
  9 N       -6.5070     1.8170     1.2170 N.4   1 <1>  -0.9590 
 10 C       -6.0010     3.2140     1.2130 C.3   1 <1>   0.3430 
 11 C       -7.6420     1.6250     2.1620 C.3   1 <1>   0.3430 
 12 C       -7.0940     4.1510     0.6870 C.3   1 <1>  -0.1600 
 13 C       -8.6880     2.7390     2.0010 C.3   1 <1>  -0.1600 
 14 C       -8.5150     3.5520     0.7070 C.3   1 <1>   0.2800 
 15 O       -8.5640     2.6360    -0.3650 O.3   1 <1>  -0.5600 
 16 C       -9.5710     4.6830     0.6020 C.3   1 <1>   0.1400 
 17 C       -9.7830     2.4270    -1.0140 C.3   1 <1>   0.1200 
 18 N       -9.5120     5.4330    -0.6850 N.am  1 <1>  -0.6600 
 19 C       -9.9250     3.4040    -2.1820 C.3   1 <1>  -0.0990 
 20 C       -9.7530     4.8920    -1.9210 C.2   1 <1>   0.5690 
 21 C       -9.3690     6.9180    -0.5300 C.3   1 <1>   0.2840 
 22 O       -9.8470     5.6000    -2.8940 O.2   1 <1>  -0.5700 
 23 C      -10.5760     7.5120     0.1870 C.ar  1 <1>   0.1670 
 24 N      -10.4640     7.7190     1.4940 N.ar  1 <1>  -0.6200 
 25 C      -11.7170     7.7920    -0.5500 C.ar  1 <1>  -0.1500 
 26 C      -11.5310     8.2370     2.0820 C.ar  1 <1>   0.1600 
 27 C      -12.8210     8.3260     0.0790 C.ar  1 <1>  -0.1500 
 28 C      -12.7130     8.5520     1.4340 C.ar  1 <1>  -0.1500 
 29 H       -5.9030     0.3640    -1.3530 H     1 <1>   0.1500 
 30 H       -2.0330     1.3740    -2.7890 H     1 <1>   0.1500 
 31 H       -1.2690     1.8120    -0.4730 H     1 <1>   0.1500 
 32 H       -2.8140     1.5340     1.3980 H     1 <1>   0.1500 
 33 H       -4.9180     0.9020     2.2700 H     1 <1>   0.0800 
 34 H       -5.8810    -0.1990     1.3090 H     1 <1>   0.0800 
 35 H       -6.9340     1.7210     0.2760 H     1 <1>   0.4500 
 36 H       -5.1300     3.3000     0.5820 H     1 <1>   0.0800 
 37 H       -5.7240     3.5000     2.2140 H     1 <1>   0.0800 
 38 H       -7.2830     1.6110     3.1790 H     1 <1>   0.0800 
 39 H       -8.1100     0.6750     1.9580 H     1 <1>   0.0800 
 40 H       -6.8540     4.4520    -0.3190 H     1 <1>   0.0800 
 41 H       -7.0670     5.0430     1.2860 H     1 <1>   0.0800 
 42 H       -8.6060     3.4030     2.8430 H     1 <1>   0.0800 
 43 H       -9.6740     2.3110     2.0430 H     1 <1>   0.0800 
 44 H       -9.4010     5.3630     1.4180 H     1 <1>   0.0800 
 45 H      -10.5670     4.3020     0.7430 H     1 <1>   0.0800 
 46 H      -10.6020     2.4950    -0.3190 H     1 <1>   0.0800 
 47 H       -9.7690     1.4230    -1.4030 H     1 <1>   0.0800 
 48 H      -10.8960     3.2670    -2.6180 H     1 <1>   0.0800 
 49 H       -9.2090     3.1290    -2.9340 H     1 <1>   0.0800 
 50 H       -9.2590     7.3970    -1.4870 H     1 <1>   0.0800 
 51 H       -8.4800     7.1330     0.0360 H     1 <1>   0.0800 
 52 H      -11.7380     7.5890    -1.6070 H     1 <1>   0.1500 
 53 H      -11.4620     8.4210     3.1410 H     1 <1>   0.1500 
 54 H      -13.7220     8.5560    -0.4640 H     1 <1>   0.1500 
 55 H      -13.5370     8.9690     1.9850 H     1 <1>   0.1500 
@<TRIPOS>BOND
  1   1   2  1   
  2   2   3  ar  
  3   2   4  ar  
  4   3   5  ar  
  5   3  29  1   
  6   4   6  ar  
  7   4  30  1   
  8   5   7  ar  
  9   5   8  1   
 10   6   7  ar  
 11   6  31  1   
 12   7  32  1   
 13   8   9  1   
 14   8  33  1   
 15   8  34  1   
 16   9  10  1   
 17   9  11  1   
 18   9  35  1   
 19  10  12  1   
 20  10  36  1   
 21  10  37  1   
 22  11  13  1   
 23  11  38  1   
 24  11  39  1   
 25  12  14  1   
 26  12  40  1   
 27  12  41  1   
 28  13  14  1   
 29  13  42  1   
 30  13  43  1   
 31  14  15  1   
 32  14  16  1   
 33  15  17  1   
 34  16  18  1   
 35  16  44  1   
 36  16  45  1   
 37  17  19  1   
 38  17  46  1   
 39  17  47  1   
 40  18  20  am  
 41  18  21  1   
 42  19  20  1   
 43  19  48  1   
 44  19  49  1   
 45  20  22  2   
 46  21  23  1   
 47  21  50  1   
 48  21  51  1   
 49  23  24  ar  
 50  23  25  ar  
 51  24  26  ar  
 52  25  27  ar  
 53  25  52  1   
 54  26  28  ar  
 55  26  53  1   
 56  27  28  ar  
 57  27  54  1   
 58  28  55  1   
@<TRIPOS>SUBSTRUCTURE
  1 ****  14 GROUP 4 **** **** 0

# MOE 2024.06 (io_trps.svl 2023.06)
