@<TRIPOS>MOLECULE
NONAME
38 39 1 0 0 
SMALL
USER_CHARGES


@<TRIPOS>ATOM
  1 CL       0.9500    -0.3570     0.3530 Cl    1 <1>  -0.1770 
  2 C        0.4170    -2.0190     0.2950 C.ar  1 <1>   0.1770 
  3 C       -0.7500    -2.3320    -0.3760 C.ar  1 <1>  -0.1500 
  4 C        1.1700    -2.9950     0.9200 C.ar  1 <1>  -0.1500 
  5 C       -1.1760    -3.6500    -0.4250 C.ar  1 <1>  -0.1500 
  6 C        0.7430    -4.3110     0.8710 C.ar  1 <1>  -0.1500 
  7 C       -0.4260    -4.6460     0.2020 C.ar  1 <1>   0.0830 
  8 O       -0.7690    -5.9580     0.2050 O.3   1 <1>  -0.3630 
  9 C       -1.9380    -6.4170    -0.4290 C.3   1 <1>   0.1200 
 10 C       -1.9990    -7.9360    -0.2360 C.3   1 <1>   0.3430 
 11 N       -3.1640    -8.5680    -0.9350 N.4   1 <1>  -0.9590 
 12 C       -2.9800   -10.0660    -0.9100 C.3   1 <1>   0.3430 
 13 C       -4.4750    -8.1130    -0.3430 C.3   1 <1>   0.3430 
 14 C       -3.7070   -10.6760     0.2720 C.3   1 <1>  -0.1860 
 15 C       -5.5650    -9.1510    -0.5830 C.3   1 <1>  -0.1600 
 16 C       -3.4400   -12.1460     0.3010 C.2   1 <1>   0.9060 
 17 C       -5.2140   -10.4410     0.1620 C.3   1 <1>   0.2000 
 18 O       -2.7060   -12.6190    -0.5680 O.co2 1 <1>  -0.9000 
 19 O       -3.9830   -12.8030     1.1880 O.co2 1 <1>  -0.9000 
 20 O       -5.6810   -10.3330     1.4490 O.3   1 <1>  -0.6800 
 21 H       -1.3130    -1.5490    -0.8530 H     1 <1>   0.1500 
 22 H        2.0740    -2.7250     1.4360 H     1 <1>   0.1500 
 23 H       -2.0840    -3.8700    -0.9520 H     1 <1>   0.1500 
 24 H        1.3170    -5.0820     1.3520 H     1 <1>   0.1500 
 25 H       -2.7780    -5.9320     0.0340 H     1 <1>   0.0800 
 26 H       -1.8700    -6.1670    -1.4730 H     1 <1>   0.0800 
 27 H       -2.0540    -8.1550     0.8180 H     1 <1>   0.0800 
 28 H       -1.0850    -8.3610    -0.6200 H     1 <1>   0.0800 
 29 H       -3.1410    -8.3040    -1.9280 H     1 <1>   0.4500 
 30 H       -3.3810   -10.5050    -1.8090 H     1 <1>   0.0800 
 31 H       -1.9350   -10.3280    -0.8640 H     1 <1>   0.0800 
 32 H       -4.3690    -7.9920     0.7240 H     1 <1>   0.0800 
 33 H       -4.7670    -7.1660    -0.7650 H     1 <1>   0.0800 
 34 H       -3.3050   -10.2640     1.1780 H     1 <1>   0.0800 
 35 H       -5.6460    -9.3460    -1.6370 H     1 <1>   0.0800 
 36 H       -6.5180    -8.7830    -0.2450 H     1 <1>   0.0800 
 37 H       -5.7120   -11.2820    -0.2970 H     1 <1>   0.0800 
 38 H       -5.4620   -11.1860     1.9020 H     1 <1>   0.4000 
@<TRIPOS>BOND
  1   1   2  1   
  2   2   3  ar  
  3   2   4  ar  
  4   3   5  ar  
  5   3  21  1   
  6   4   6  ar  
  7   4  22  1   
  8   5   7  ar  
  9   5  23  1   
 10   6   7  ar  
 11   6  24  1   
 12   7   8  1   
 13   8   9  1   
 14   9  10  1   
 15   9  25  1   
 16   9  26  1   
 17  10  11  1   
 18  10  27  1   
 19  10  28  1   
 20  11  12  1   
 21  11  13  1   
 22  11  29  1   
 23  12  14  1   
 24  12  30  1   
 25  12  31  1   
 26  13  15  1   
 27  13  32  1   
 28  13  33  1   
 29  14  16  1   
 30  14  17  1   
 31  14  34  1   
 32  15  17  1   
 33  15  35  1   
 34  15  36  1   
 35  16  18  ar  
 36  16  19  ar  
 37  17  20  1   
 38  17  37  1   
 39  20  38  1   
@<TRIPOS>SUBSTRUCTURE
  1 ****  10 GROUP 4 **** **** 0

# MOE 2024.06 (io_trps.svl 2023.06)
