@<TRIPOS>MOLECULE
NONAME
54 56 1 0 0 
SMALL
USER_CHARGES


@<TRIPOS>ATOM
  1 O        3.2170    -2.0620    -1.8420 O.2   1 <1>  -0.5700 
  2 C        2.9050    -2.0530    -0.6730 C.2   1 <1>   0.5770 
  3 N        3.8710    -1.7940     0.2720 N.am  1 <1>  -0.6600 
  4 C        1.4330    -2.2670    -0.3140 C.3   1 <1>   0.0530 
  5 C        5.3010    -2.0290    -0.0810 C.3   1 <1>   0.1400 
  6 C        3.6140    -1.1770     1.5990 C.3   1 <1>   0.1400 
  7 C        0.7880    -3.4460    -1.1090 C.3   1 <1>   0.0000 
  8 C        1.1930    -3.1150     0.9780 C.3   1 <1>   0.0000 
  9 C        0.6560    -0.9410    -0.4600 C.3   1 <1>   0.1200 
 10 C        5.8470    -0.8650    -0.9250 C.3   1 <1>   0.3430 
 11 C        4.4610     0.0880     1.7890 C.3   1 <1>  -0.1600 
 12 C        0.1250    -3.9290     0.2040 C.3   1 <1>   0.0000 
 13 O       -0.5520    -0.9700     0.2310 O.3   1 <1>  -0.5600 
 14 N        5.9470     0.4510    -0.1930 N.4   1 <1>  -0.9590 
 15 C        4.6870     0.8840     0.4980 C.3   1 <1>   0.3430 
 16 C       -1.3940     0.1050    -0.0320 C.3   1 <1>   0.0400 
 17 C        6.4280     1.4980    -1.1380 C.3   1 <1>   0.5240 
 18 C        6.7390     2.7490    -0.3550 C.2   1 <1>  -0.1810 
 19 C        7.7390     3.0100     0.5040 C.2   1 <1>  -0.0400 
 20 C        6.0010     3.9340    -0.3650 C.2   1 <1>   0.1080 
 21 O        7.5650     4.2210     0.9570 O.3   1 <1>  -0.0190 
 22 C        8.9340     2.2170     0.9970 C.3   1 <1>  -0.0600 
 23 N        6.5150     4.7870     0.4420 N.2   1 <1>  -0.4100 
 24 C        4.7690     4.2320    -1.1960 C.3   1 <1>  -0.0590 
 25 H        5.3640    -2.9330    -0.6650 H     1 <1>   0.0800 
 26 H        5.8940    -2.1760     0.8050 H     1 <1>   0.0800 
 27 H        3.8280    -1.8910     2.3780 H     1 <1>   0.0800 
 28 H        2.5750    -0.9080     1.6810 H     1 <1>   0.0800 
 29 H        1.5100    -4.1570    -1.4730 H     1 <1>   0.0000 
 30 H        0.0810    -3.1430    -1.8610 H     1 <1>   0.0000 
 31 H        0.7960    -2.5670     1.8140 H     1 <1>   0.0000 
 32 H        2.0370    -3.7290     1.2430 H     1 <1>   0.0000 
 33 H        0.4580    -0.7550    -1.5030 H     1 <1>   0.0800 
 34 H        1.2330    -0.1260    -0.0620 H     1 <1>   0.0800 
 35 H        5.2060    -0.7560    -1.7850 H     1 <1>   0.0800 
 36 H        6.8240    -1.1440    -1.2860 H     1 <1>   0.0800 
 37 H        5.3990    -0.1550     2.2540 H     1 <1>   0.0800 
 38 H        3.9340     0.7180     2.4840 H     1 <1>   0.0800 
 39 H        0.1990    -4.9910     0.3580 H     1 <1>   0.0000 
 40 H       -0.8730    -3.5500     0.3350 H     1 <1>   0.0000 
 41 H        6.6640     0.3760     0.5350 H     1 <1>   0.4500 
 42 H        4.7690     1.9250     0.7700 H     1 <1>   0.0800 
 43 H        3.8390     0.7780    -0.1590 H     1 <1>   0.0800 
 44 H       -2.2810    -0.0110     0.5660 H     1 <1>   0.0800 
 45 H       -1.6610     0.1020    -1.0750 H     1 <1>   0.0800 
 46 H       -0.8970     1.0230     0.2320 H     1 <1>   0.0800 
 47 H        5.6780     1.7030    -1.8850 H     1 <1>   0.0800 
 48 H        7.3240     1.1640    -1.6360 H     1 <1>   0.0800 
 49 H        8.9850     1.2550     0.5240 H     1 <1>   0.0800 
 50 H        8.8710     2.0870     2.0630 H     1 <1>   0.0800 
 51 H        9.8370     2.7580     0.7750 H     1 <1>   0.0800 
 52 H        3.9690     3.5630    -0.9430 H     1 <1>   0.0800 
 53 H        4.9980     4.1440    -2.2420 H     1 <1>   0.0800 
 54 H        4.4410     5.2400    -1.0070 H     1 <1>   0.0800 
@<TRIPOS>BOND
  1   1   2  2   
  2   2   3  am  
  3   2   4  1   
  4   3   5  1   
  5   3   6  1   
  6   4   7  1   
  7   4   8  1   
  8   4   9  1   
  9   5  10  1   
 10   5  25  1   
 11   5  26  1   
 12   6  11  1   
 13   6  27  1   
 14   6  28  1   
 15   7  12  1   
 16   7  29  1   
 17   7  30  1   
 18   8  12  1   
 19   8  31  1   
 20   8  32  1   
 21   9  13  1   
 22   9  33  1   
 23   9  34  1   
 24  10  14  1   
 25  10  35  1   
 26  10  36  1   
 27  11  15  1   
 28  11  37  1   
 29  11  38  1   
 30  12  39  1   
 31  12  40  1   
 32  13  16  1   
 33  14  15  1   
 34  14  17  1   
 35  14  41  1   
 36  15  42  1   
 37  15  43  1   
 38  16  44  1   
 39  16  45  1   
 40  16  46  1   
 41  17  18  1   
 42  17  47  1   
 43  17  48  1   
 44  18  19  2   
 45  18  20  1   
 46  19  21  1   
 47  19  22  1   
 48  20  23  2   
 49  20  24  1   
 50  21  23  1   
 51  22  49  1   
 52  22  50  1   
 53  22  51  1   
 54  24  52  1   
 55  24  53  1   
 56  24  54  1   
@<TRIPOS>SUBSTRUCTURE
  1 ****  15 GROUP 4 **** **** 0

# MOE 2024.06 (io_trps.svl 2023.06)
