@<TRIPOS>MOLECULE
NONAME
49 51 1 0 0 
SMALL
USER_CHARGES


@<TRIPOS>ATOM
  1 O       -0.5590     0.2720     1.4540 O.2   1 <1>  -0.5700 
  2 C       -1.5210     0.8210     0.9430 C.2   1 <1>   0.6160 
  3 N       -2.6510     0.0730     0.7030 N.am  1 <1>  -0.6600 
  4 C       -1.4260     2.1960     0.5470 C.2   1 <1>   0.0290 
  5 C       -3.9270     0.5920     0.1630 C.3   1 <1>   0.1400 
  6 C       -2.8210    -1.3010     1.2180 C.3   1 <1>   0.1400 
  7 C       -2.0830     3.1530     1.3820 C.2   1 <1>   0.6160 
  8 C       -0.7440     2.6390    -0.5670 C.2   1 <1>  -0.1380 
  9 C       -5.0060    -0.3010     0.7850 C.3   1 <1>  -0.0800 
 10 C       -4.2980    -1.6520     1.0060 C.3   1 <1>  -0.0800 
 11 O       -2.7520     2.8780     2.3690 O.2   1 <1>  -0.5700 
 12 N       -1.9970     4.4790     1.0540 N.am  1 <1>  -0.5390 
 13 C       -0.6990     4.0220    -0.8550 C.2   1 <1>  -0.1500 
 14 C       -0.0150     1.7070    -1.5280 C.3   1 <1>  -0.1020 
 15 C       -6.3600    -0.3790     0.0160 C.3   1 <1>   0.2800 
 16 C       -4.5160    -2.5880    -0.1930 C.3   1 <1>  -0.1600 
 17 C       -1.3210     4.9230    -0.0460 C.2   1 <1>  -0.0290 
 18 O       -6.1630    -0.1400    -1.3320 O.3   1 <1>  -0.6800 
 19 C       -6.9490    -1.7980     0.1260 C.3   1 <1>  -0.1600 
 20 C       -7.3890     0.6600     0.5130 C.3   1 <1>  -0.1600 
 21 C       -6.0090    -2.9020    -0.4060 C.3   1 <1>  -0.1600 
 22 C       -1.3100     6.4180    -0.2950 C.3   1 <1>  -0.1020 
 23 C       -6.9580     2.1330     0.3950 C.3   1 <1>  -0.2400 
 24 H       -4.0820     1.6230     0.4200 H     1 <1>   0.0800 
 25 H       -3.8970     0.4930    -0.9080 H     1 <1>   0.0800 
 26 H       -2.1660    -1.9770     0.6980 H     1 <1>   0.0800 
 27 H       -2.5800    -1.3110     2.2680 H     1 <1>   0.0800 
 28 H       -5.2040     0.0910     1.7670 H     1 <1>   0.0800 
 29 H       -4.6760    -2.1360     1.8900 H     1 <1>   0.0800 
 30 H       -2.4790     5.1060     1.6970 H     1 <1>   0.3700 
 31 H       -0.1600     4.3460    -1.7280 H     1 <1>   0.1500 
 32 H       -0.3710     1.8620    -2.5310 H     1 <1>   0.0800 
 33 H       -0.1620     0.6720    -1.2780 H     1 <1>   0.0800 
 34 H        1.0410     1.9110    -1.5000 H     1 <1>   0.0800 
 35 H       -4.1310    -2.1090    -1.0780 H     1 <1>   0.0800 
 36 H       -3.9690    -3.5050    -0.0570 H     1 <1>   0.0800 
 37 H       -7.0070    -0.2510    -1.8030 H     1 <1>   0.4000 
 38 H       -7.1420    -1.9940     1.1660 H     1 <1>   0.0800 
 39 H       -7.8960    -1.8550    -0.3810 H     1 <1>   0.0800 
 40 H       -8.3080     0.5280    -0.0310 H     1 <1>   0.0800 
 41 H       -7.6090     0.4580     1.5460 H     1 <1>   0.0800 
 42 H       -6.2550    -3.8280     0.0830 H     1 <1>   0.0800 
 43 H       -6.1780    -3.0390    -1.4600 H     1 <1>   0.0800 
 44 H       -0.8530     6.9240     0.5360 H     1 <1>   0.0800 
 45 H       -2.3150     6.7780    -0.4160 H     1 <1>   0.0800 
 46 H       -0.7540     6.6490    -1.1850 H     1 <1>   0.0800 
 47 H       -6.6650     2.3670    -0.6130 H     1 <1>   0.0800 
 48 H       -6.1380     2.3470     1.0560 H     1 <1>   0.0800 
 49 H       -7.7780     2.7750     0.6660 H     1 <1>   0.0800 
@<TRIPOS>BOND
  1   1   2  2   
  2   2   3  am  
  3   2   4  1   
  4   3   5  1   
  5   3   6  1   
  6   4   7  1   
  7   4   8  2   
  8   5   9  1   
  9   5  24  1   
 10   5  25  1   
 11   6  10  1   
 12   6  26  1   
 13   6  27  1   
 14   7  11  2   
 15   7  12  am  
 16   8  13  1   
 17   8  14  1   
 18   9  10  1   
 19   9  15  1   
 20   9  28  1   
 21  10  16  1   
 22  10  29  1   
 23  12  17  1   
 24  12  30  1   
 25  13  17  2   
 26  13  31  1   
 27  14  32  1   
 28  14  33  1   
 29  14  34  1   
 30  15  18  1   
 31  15  19  1   
 32  15  20  1   
 33  16  21  1   
 34  16  35  1   
 35  16  36  1   
 36  17  22  1   
 37  18  37  1   
 38  19  21  1   
 39  19  38  1   
 40  19  39  1   
 41  20  23  1   
 42  20  40  1   
 43  20  41  1   
 44  21  42  1   
 45  21  43  1   
 46  22  44  1   
 47  22  45  1   
 48  22  46  1   
 49  23  47  1   
 50  23  48  1   
 51  23  49  1   
@<TRIPOS>SUBSTRUCTURE
  1 ****   5 GROUP 4 **** **** 0

# MOE 2024.06 (io_trps.svl 2023.06)
