@<TRIPOS>MOLECULE
NONAME
48 50 1 0 0 
SMALL
USER_CHARGES


@<TRIPOS>ATOM
  1 O        0.2580    -2.4300    -0.3910 O.3   1 <1>  -0.5600 
  2 C        1.3140    -1.8240     0.2920 C.3   1 <1>   0.1200 
  3 C       -0.1490    -1.7100    -1.5140 C.3   1 <1>   0.0400 
  4 C        1.7370    -2.6970     1.4770 C.3   1 <1>   0.0960 
  5 N        2.3570    -3.9700     1.0410 N.pl3 1 <1>   0.0480 
  6 C        1.8230    -5.0850     0.5230 C.2   1 <1>   0.0060 
  7 C        3.6520    -4.2840     1.1250 C.2   1 <1>   0.0360 
  8 N        2.7230    -5.9870     0.3160 N.2   1 <1>  -0.3380 
  9 C        0.3490    -5.2740     0.2070 C.3   1 <1>   0.3890 
 10 N        3.8900    -5.4750     0.7000 N.2   1 <1>  -0.3380 
 11 N       -0.0050    -6.7060     0.3490 N.pl3 1 <1>  -0.8690 
 12 C       -1.1050    -7.4190     0.1120 C.ar  1 <1>   0.7710 
 13 N       -1.0180    -8.7170     0.3050 N.ar  1 <1>  -0.6200 
 14 N       -2.2320    -6.8160    -0.3040 N.ar  1 <1>  -0.1790 
 15 C       -2.0900    -9.4580     0.0860 C.ar  1 <1>   0.4100 
 16 C       -3.3490    -7.5380    -0.5610 C.ar  1 <1>   0.2110 
 17 N       -1.9930   -10.7950     0.3140 N.pl3 1 <1>  -0.8380 
 18 C       -3.2900    -8.8780    -0.3720 C.ar  1 <1>  -0.1500 
 19 C       -3.1290   -11.6760     0.7430 C.3   1 <1>   0.2090 
 20 C       -0.6850   -11.5230     0.2680 C.3   1 <1>   0.2090 
 21 C       -3.2650   -12.8750    -0.2100 C.3   1 <1>   0.2000 
 22 C       -0.7950   -12.7160    -0.6900 C.3   1 <1>  -0.1600 
 23 O       -4.2480   -13.7310     0.2550 O.3   1 <1>  -0.6800 
 24 C       -1.9540   -13.6600    -0.3230 C.3   1 <1>  -0.1600 
 25 H        0.9790    -0.8640     0.6470 H     1 <1>   0.0800 
 26 H        2.1420    -1.6840    -0.3850 H     1 <1>   0.0800 
 27 H       -0.9650    -2.2340    -1.9800 H     1 <1>   0.0800 
 28 H        0.6720    -1.6330    -2.2080 H     1 <1>   0.0800 
 29 H       -0.4780    -0.7290    -1.2120 H     1 <1>   0.0800 
 30 H        0.8870    -2.9060     2.1010 H     1 <1>   0.0800 
 31 H        2.4550    -2.1570     2.0680 H     1 <1>   0.0800 
 32 H        4.4010    -3.6150     1.5080 H     1 <1>   0.1500 
 33 H        0.1700    -4.9500    -0.8040 H     1 <1>   0.0800 
 34 H       -0.2460    -4.6850     0.8840 H     1 <1>   0.0800 
 35 H        0.8340    -7.2550     0.5940 H     1 <1>   0.4000 
 36 H       -2.1900    -5.8100    -0.4210 H     1 <1>   0.4570 
 37 H       -4.2380    -7.0350    -0.9090 H     1 <1>   0.1500 
 38 H       -4.1350    -9.5060    -0.5790 H     1 <1>   0.1500 
 39 H       -4.0560   -11.1350     0.7760 H     1 <1>   0.0800 
 40 H       -2.9210   -12.0360     1.7360 H     1 <1>   0.0800 
 41 H       -0.4340   -11.8640     1.2580 H     1 <1>   0.0800 
 42 H        0.1070   -10.8760    -0.0700 H     1 <1>   0.0800 
 43 H       -3.5770   -12.5240    -1.1780 H     1 <1>   0.0800 
 44 H        0.1310   -13.2630    -0.6780 H     1 <1>   0.0800 
 45 H       -0.9360   -12.3410    -1.6890 H     1 <1>   0.0800 
 46 H       -3.9170   -14.2540     1.0110 H     1 <1>   0.4000 
 47 H       -2.0520   -14.4190    -1.0790 H     1 <1>   0.0800 
 48 H       -1.7290   -14.1320     0.6170 H     1 <1>   0.0800 
@<TRIPOS>BOND
  1   1   2  1   
  2   1   3  1   
  3   2   4  1   
  4   2  25  1   
  5   2  26  1   
  6   3  27  1   
  7   3  28  1   
  8   3  29  1   
  9   4   5  1   
 10   4  30  1   
 11   4  31  1   
 12   5   6  1   
 13   5   7  1   
 14   6   8  2   
 15   6   9  1   
 16   7  10  2   
 17   7  32  1   
 18   8  10  1   
 19   9  11  1   
 20   9  33  1   
 21   9  34  1   
 22  11  12  1   
 23  11  35  1   
 24  12  13  ar  
 25  12  14  ar  
 26  13  15  ar  
 27  14  16  ar  
 28  14  36  1   
 29  15  17  1   
 30  15  18  ar  
 31  16  18  ar  
 32  16  37  1   
 33  17  19  1   
 34  17  20  1   
 35  18  38  1   
 36  19  21  1   
 37  19  39  1   
 38  19  40  1   
 39  20  22  1   
 40  20  41  1   
 41  20  42  1   
 42  21  23  1   
 43  21  24  1   
 44  21  43  1   
 45  22  24  1   
 46  22  44  1   
 47  22  45  1   
 48  23  46  1   
 49  24  47  1   
 50  24  48  1   
@<TRIPOS>SUBSTRUCTURE
  1 ****  12 GROUP 4 **** **** 0

# MOE 2024.06 (io_trps.svl 2023.06)
