@<TRIPOS>MOLECULE
NONAME
61 64 1 0 0 
SMALL
USER_CHARGES


@<TRIPOS>ATOM
  1 O       -1.3680    -0.7410     0.3350 O.2   1 <1>  -0.5700 
  2 C       -0.9700    -1.8750     0.1570 C.2   1 <1>   0.7800 
  3 O        0.0850    -2.3300     0.8340 O.3   1 <1>  -0.4300 
  4 N       -1.5840    -2.7350    -0.7230 N.am  1 <1>  -0.6600 
  5 C        0.8090    -1.5210     1.7320 C.3   1 <1>   0.2000 
  6 C       -1.1530    -4.1410    -0.9160 C.3   1 <1>   0.1400 
  7 C       -2.7170    -2.2920    -1.5680 C.3   1 <1>   0.1400 
  8 C        1.8380    -0.7160     0.9380 C.3   1 <1>  -0.2400 
  9 C        1.4850    -2.4520     2.7340 C.3   1 <1>  -0.2400 
 10 C       -2.3410    -5.0540    -0.6080 C.3   1 <1>  -0.1600 
 11 C       -3.9250    -3.1800    -1.2670 C.3   1 <1>  -0.1600 
 12 C       -3.5670    -4.6620    -1.4380 C.3   1 <1>   0.4230 
 13 N       -4.7010    -5.5020    -0.9990 N.4   1 <1>  -0.9060 
 14 C       -5.9020    -5.4910    -1.8820 C.3   1 <1>   0.4230 
 15 C       -7.0360    -6.2970    -1.2450 C.3   1 <1>  -0.0800 
 16 C       -5.6100    -6.3760    -3.0880 C.3   1 <1>   0.1200 
 17 C       -6.7140    -7.7430    -1.6590 C.3   1 <1>   0.1200 
 18 C       -7.2710    -6.1160     0.2700 C.3   1 <1>  -0.0170 
 19 O       -5.6280    -7.6500    -2.5340 O.3   1 <1>  -0.5600 
 20 C       -8.4910    -6.9110     0.7200 C.ar  1 <1>  -0.1440 
 21 C       -9.8160    -6.4730     0.4790 C.ar  1 <1>   0.0000 
 22 C       -8.3290    -8.0980     1.3750 C.ar  1 <1>  -0.1500 
 23 C      -10.8740    -7.3150     0.9030 C.ar  1 <1>   0.3100 
 24 C      -10.1580    -5.2530    -0.1520 C.ar  1 <1>  -0.1500 
 25 C       -9.4460    -8.8480     1.7650 C.ar  1 <1>   0.1600 
 26 N      -10.6700    -8.4940     1.5420 N.ar  1 <1>  -0.6200 
 27 C      -12.1990    -6.9220     0.6590 C.ar  1 <1>  -0.1500 
 28 C      -11.4620    -4.8970    -0.3710 C.ar  1 <1>  -0.1500 
 29 C      -12.4960    -5.7420     0.0350 C.ar  1 <1>  -0.1500 
 30 H        0.1260    -0.8650     2.2490 H     1 <1>   0.0800 
 31 H       -0.8250    -4.2720    -1.9340 H     1 <1>   0.0800 
 32 H       -0.3280    -4.3880    -0.2700 H     1 <1>   0.0800 
 33 H       -2.9640    -1.2610    -1.3690 H     1 <1>   0.0800 
 34 H       -2.4340    -2.3670    -2.6050 H     1 <1>   0.0800 
 35 H        2.4940    -1.3730     0.3950 H     1 <1>   0.0800 
 36 H        2.4280    -0.1160     1.6070 H     1 <1>   0.0800 
 37 H        1.3410    -0.0560     0.2490 H     1 <1>   0.0800 
 38 H        2.1500    -3.1300     2.2290 H     1 <1>   0.0800 
 39 H        0.7420    -3.0130     3.2730 H     1 <1>   0.0800 
 40 H        2.0530    -1.8770     3.4420 H     1 <1>   0.0800 
 41 H       -2.5550    -4.9750     0.4440 H     1 <1>   0.0800 
 42 H       -2.0560    -6.0670    -0.8250 H     1 <1>   0.0800 
 43 H       -4.7170    -2.9010    -1.9360 H     1 <1>   0.0800 
 44 H       -4.2390    -2.9800    -0.2570 H     1 <1>   0.0800 
 45 H       -3.3470    -4.8520    -2.4770 H     1 <1>   0.0800 
 46 H       -4.9510    -5.2470    -0.0400 H     1 <1>   0.4500 
 47 H       -4.3970    -6.4880    -0.9910 H     1 <1>   0.4500 
 48 H       -6.2010    -4.4900    -2.1490 H     1 <1>   0.0800 
 49 H       -7.9450    -6.0290    -1.7560 H     1 <1>   0.0800 
 50 H       -4.6570    -6.1930    -3.5510 H     1 <1>   0.0800 
 51 H       -6.3940    -6.3150    -3.8260 H     1 <1>   0.0800 
 52 H       -7.5410    -8.2010    -2.1790 H     1 <1>   0.0800 
 53 H       -6.4240    -8.3660    -0.8290 H     1 <1>   0.0800 
 54 H       -7.4150    -5.0770     0.5130 H     1 <1>   0.0800 
 55 H       -6.4170    -6.4590     0.8260 H     1 <1>   0.0800 
 56 H       -7.3600    -8.4980     1.6090 H     1 <1>   0.1500 
 57 H       -9.3870    -4.5790    -0.4650 H     1 <1>   0.1500 
 58 H       -9.2760    -9.7790     2.2790 H     1 <1>   0.1500 
 59 H      -12.9790    -7.5850     0.9850 H     1 <1>   0.1500 
 60 H      -11.7120    -3.9670    -0.8530 H     1 <1>   0.1500 
 61 H      -13.5180    -5.4530    -0.1450 H     1 <1>   0.1500 
@<TRIPOS>BOND
  1   1   2  2   
  2   2   3  1   
  3   2   4  am  
  4   3   5  1   
  5   4   6  1   
  6   4   7  1   
  7   5   8  1   
  8   5   9  1   
  9   5  30  1   
 10   6  10  1   
 11   6  31  1   
 12   6  32  1   
 13   7  11  1   
 14   7  33  1   
 15   7  34  1   
 16   8  35  1   
 17   8  36  1   
 18   8  37  1   
 19   9  38  1   
 20   9  39  1   
 21   9  40  1   
 22  10  12  1   
 23  10  41  1   
 24  10  42  1   
 25  11  12  1   
 26  11  43  1   
 27  11  44  1   
 28  12  13  1   
 29  12  45  1   
 30  13  14  1   
 31  13  46  1   
 32  13  47  1   
 33  14  15  1   
 34  14  16  1   
 35  14  48  1   
 36  15  17  1   
 37  15  18  1   
 38  15  49  1   
 39  16  19  1   
 40  16  50  1   
 41  16  51  1   
 42  17  19  1   
 43  17  52  1   
 44  17  53  1   
 45  18  20  1   
 46  18  54  1   
 47  18  55  1   
 48  20  21  ar  
 49  20  22  ar  
 50  21  23  ar  
 51  21  24  ar  
 52  22  25  ar  
 53  22  56  1   
 54  23  26  ar  
 55  23  27  ar  
 56  24  28  ar  
 57  24  57  1   
 58  25  26  ar  
 59  25  58  1   
 60  27  29  ar  
 61  27  59  1   
 62  28  29  ar  
 63  28  60  1   
 64  29  61  1   
@<TRIPOS>SUBSTRUCTURE
  1 ****  13 GROUP 4 **** **** 0

# MOE 2024.06 (io_trps.svl 2023.06)
