@<TRIPOS>MOLECULE
NONAME
21 22 1 0 0 
SMALL
USER_CHARGES


@<TRIPOS>ATOM
  1 O       -0.6580     0.0500     0.7550 O.3   1 <1>  -0.5600 
  2 C       -1.7760     0.6820     0.2170 C.3   1 <1>   0.2950 
  3 C        0.4120     0.9360     0.8510 C.3   1 <1>   0.1200 
  4 C       -2.7500    -0.3350    -0.4110 C.3   1 <1>   0.0100 
  5 C       -1.1920     1.6820    -0.7730 C.3   1 <1>  -0.1600 
  6 C        0.1230     2.0760    -0.1230 C.3   1 <1>  -0.1600 
  7 C       -3.9660     0.3560    -0.9390 C.1   1 <1>   0.4520 
  8 C       -2.2420    -1.5440    -1.1440 C.3   1 <1>  -0.2000 
  9 C       -2.9270    -1.7020     0.1850 C.3   1 <1>  -0.2000 
 10 N       -4.8810     0.9040    -1.3350 N.1   1 <1>  -0.5570 
 11 H       -2.2610     1.2050     1.0250 H     1 <1>   0.0800 
 12 H        1.3120     0.4050     0.5940 H     1 <1>   0.0800 
 13 H        0.4690     1.2900     1.8660 H     1 <1>   0.0800 
 14 H       -1.8450     2.5220    -0.9310 H     1 <1>   0.0800 
 15 H       -1.0070     1.1930    -1.7140 H     1 <1>   0.0800 
 16 H        0.9120     2.1840    -0.8470 H     1 <1>   0.0800 
 17 H        0.0210     2.9970     0.4230 H     1 <1>   0.0800 
 18 H       -1.1800    -1.7140    -1.1930 H     1 <1>   0.1000 
 19 H       -2.7540    -1.8730    -2.0310 H     1 <1>   0.1000 
 20 H       -3.9090    -2.1430     0.2090 H     1 <1>   0.1000 
 21 H       -2.3290    -1.9820     1.0360 H     1 <1>   0.1000 
@<TRIPOS>BOND
  1   1   2  1   
  2   1   3  1   
  3   2   4  1   
  4   2   5  1   
  5   2  11  1   
  6   3   6  1   
  7   3  12  1   
  8   3  13  1   
  9   4   7  1   
 10   4   8  1   
 11   4   9  1   
 12   5   6  1   
 13   5  14  1   
 14   5  15  1   
 15   6  16  1   
 16   6  17  1   
 17   7  10  3   
 18   8   9  1   
 19   8  18  1   
 20   8  19  1   
 21   9  20  1   
 22   9  21  1   
@<TRIPOS>SUBSTRUCTURE
  1 ****   2 GROUP 4 **** **** 0

# MOE 2024.06 (io_trps.svl 2023.06)
