@<TRIPOS>MOLECULE
NONAME
60 63 1 0 0 
SMALL
USER_CHARGES


@<TRIPOS>ATOM
  1 O       -0.3260    -2.1440     1.5300 O.3   1 <1>  -0.5600 
  2 C       -0.6520    -3.5030     1.5150 C.3   1 <1>   0.1200 
  3 C       -0.7090    -1.4330     0.3890 C.3   1 <1>   0.1200 
  4 C       -2.1760    -3.6840     1.3770 C.3   1 <1>   0.3430 
  5 C       -2.2360    -1.5130     0.2010 C.3   1 <1>   0.3430 
  6 N       -2.7210    -2.9390     0.1830 N.4   1 <1>  -0.9590 
  7 C       -4.2080    -2.9940     0.1030 C.3   1 <1>   0.3430 
  8 C       -4.6730    -4.4080    -0.2400 C.3   1 <1>  -0.1600 
  9 C       -6.1900    -4.4500    -0.4290 C.3   1 <1>   0.1200 
 10 O       -6.5360    -5.7780    -0.7410 O.3   1 <1>  -0.3630 
 11 C       -7.8140    -6.1240    -1.0310 C.ar  1 <1>   0.0820 
 12 C       -8.0230    -7.4280    -1.4490 C.ar  1 <1>  -0.1500 
 13 C       -8.8960    -5.2540    -0.9350 C.ar  1 <1>  -0.1500 
 14 C       -9.2960    -7.8750    -1.7700 C.ar  1 <1>  -0.1430 
 15 C      -10.1660    -5.6940    -1.2610 C.ar  1 <1>  -0.1500 
 16 C      -10.3680    -6.9980    -1.6790 C.ar  1 <1>  -0.1500 
 17 C       -9.5140    -9.3080    -2.2140 C.3   1 <1>   0.4860 
 18 N       -9.3870   -10.2020    -1.0290 N.4   1 <1>  -0.9590 
 19 C       -9.3390   -11.6360    -1.4380 C.3   1 <1>   0.3430 
 20 C      -10.4490    -9.9180    -0.0130 C.3   1 <1>   0.3430 
 21 C       -9.0830   -12.5200    -0.2210 C.3   1 <1>  -0.1600 
 22 C      -10.2120   -10.7630     1.2340 C.3   1 <1>  -0.1600 
 23 C      -10.1310   -12.2410     0.8610 C.3   1 <1>   0.2580 
 24 O       -9.8590   -13.0050     2.0160 O.3   1 <1>  -0.5160 
 25 C      -11.4770   -12.9710     0.7260 C.3   1 <1>   0.0000 
 26 C      -10.8370   -13.9880     1.6780 C.3   1 <1>   0.2580 
 27 H       -0.3100    -3.9310     2.4410 H     1 <1>   0.0800 
 28 H       -0.1260    -3.9780     0.7040 H     1 <1>   0.0800 
 29 H       -0.1870    -1.8330    -0.4620 H     1 <1>   0.0800 
 30 H       -0.4050    -0.4090     0.5260 H     1 <1>   0.0800 
 31 H       -2.6420    -3.3190     2.2780 H     1 <1>   0.0800 
 32 H       -2.3980    -4.7350     1.2920 H     1 <1>   0.0800 
 33 H       -2.5060    -1.0190    -0.7180 H     1 <1>   0.0800 
 34 H       -2.7030    -0.9800     1.0130 H     1 <1>   0.0800 
 35 H       -2.3340    -3.3840    -0.6610 H     1 <1>   0.4500 
 36 H       -4.5500    -2.3200    -0.6670 H     1 <1>   0.0800 
 37 H       -4.6400    -2.6800     1.0400 H     1 <1>   0.0800 
 38 H       -4.4170    -5.0870     0.5530 H     1 <1>   0.0800 
 39 H       -4.2090    -4.7300    -1.1560 H     1 <1>   0.0800 
 40 H       -6.5000    -3.8210    -1.2460 H     1 <1>   0.0800 
 41 H       -6.7050    -4.1720     0.4760 H     1 <1>   0.0800 
 42 H       -7.1680    -8.0760    -1.5230 H     1 <1>   0.1500 
 43 H       -8.7750    -4.2370    -0.6130 H     1 <1>   0.1500 
 44 H      -11.0000    -5.0160    -1.1900 H     1 <1>   0.1500 
 45 H      -11.3670    -7.3110    -1.9330 H     1 <1>   0.1500 
 46 H       -8.7710    -9.5640    -2.9520 H     1 <1>   0.0800 
 47 H      -10.4890    -9.4130    -2.6600 H     1 <1>   0.0800 
 48 H       -8.4910    -9.9610    -0.5860 H     1 <1>   0.4500 
 49 H       -8.5520   -11.7890    -2.1600 H     1 <1>   0.0800 
 50 H      -10.2750   -11.9170    -1.8930 H     1 <1>   0.0800 
 51 H      -11.4200   -10.1460    -0.4230 H     1 <1>   0.0800 
 52 H      -10.4330    -8.8740     0.2600 H     1 <1>   0.0800 
 53 H       -8.1010   -12.3150     0.1680 H     1 <1>   0.0800 
 54 H       -9.1140   -13.5520    -0.5210 H     1 <1>   0.0800 
 55 H      -11.0100   -10.5990     1.9360 H     1 <1>   0.0800 
 56 H       -9.2920   -10.4560     1.7010 H     1 <1>   0.0800 
 57 H      -11.6840   -13.3590    -0.2550 H     1 <1>   0.0000 
 58 H      -12.3100   -12.4510     1.1660 H     1 <1>   0.0000 
 59 H      -11.4290   -14.2390     2.5400 H     1 <1>   0.0000 
 60 H      -10.3640   -14.8240     1.1930 H     1 <1>   0.0000 
@<TRIPOS>BOND
  1   1   2  1   
  2   1   3  1   
  3   2   4  1   
  4   2  27  1   
  5   2  28  1   
  6   3   5  1   
  7   3  29  1   
  8   3  30  1   
  9   4   6  1   
 10   4  31  1   
 11   4  32  1   
 12   5   6  1   
 13   5  33  1   
 14   5  34  1   
 15   6   7  1   
 16   6  35  1   
 17   7   8  1   
 18   7  36  1   
 19   7  37  1   
 20   8   9  1   
 21   8  38  1   
 22   8  39  1   
 23   9  10  1   
 24   9  40  1   
 25   9  41  1   
 26  10  11  1   
 27  11  12  ar  
 28  11  13  ar  
 29  12  14  ar  
 30  12  42  1   
 31  13  15  ar  
 32  13  43  1   
 33  14  16  ar  
 34  14  17  1   
 35  15  16  ar  
 36  15  44  1   
 37  16  45  1   
 38  17  18  1   
 39  17  46  1   
 40  17  47  1   
 41  18  19  1   
 42  18  20  1   
 43  18  48  1   
 44  19  21  1   
 45  19  49  1   
 46  19  50  1   
 47  20  22  1   
 48  20  51  1   
 49  20  52  1   
 50  21  23  1   
 51  21  53  1   
 52  21  54  1   
 53  22  23  1   
 54  22  55  1   
 55  22  56  1   
 56  23  24  1   
 57  23  25  1   
 58  24  26  1   
 59  25  26  1   
 60  25  57  1   
 61  25  58  1   
 62  26  59  1   
 63  26  60  1   
@<TRIPOS>SUBSTRUCTURE
  1 ****  11 GROUP 4 **** **** 0

# MOE 2024.06 (io_trps.svl 2023.06)
