@<TRIPOS>MOLECULE
NONAME
46 48 1 0 0 
SMALL
USER_CHARGES


@<TRIPOS>ATOM
  1 O       -0.8730    -0.0560     1.9090 O.2   1 <1>  -0.5700 
  2 C       -1.4660     0.6750     1.1300 C.2   1 <1>   0.7160 
  3 N       -2.4120     0.0760     0.3160 N.am  1 <1>  -0.6600 
  4 C       -1.1560     2.1060     1.1060 C.2   1 <1>   0.2030 
  5 C       -3.3350     0.7670    -0.6200 C.3   1 <1>   0.1400 
  6 C       -2.5990    -1.3950     0.2300 C.3   1 <1>   0.1400 
  7 N       -1.6250     3.0330     0.2830 N.2   1 <1>  -0.7070 
  8 C       -0.2640     2.6970     2.0110 C.2   1 <1>  -0.1500 
  9 C       -4.4030    -0.2780    -0.9400 C.3   1 <1>   0.2000 
 10 C       -3.6380    -1.6030    -0.8760 C.3   1 <1>  -0.0800 
 11 N       -1.0480     4.1870     0.6520 N.pl3 1 <1>   0.3140 
 12 C       -0.2200     4.0050     1.6980 C.2   1 <1>  -0.3020 
 13 O       -5.3530    -0.2420     0.0720 O.3   1 <1>  -0.6800 
 14 C       -4.5050    -2.8610    -0.6860 C.3   1 <1>   0.0210 
 15 C       -1.3340     5.4690    -0.0500 C.3   1 <1>   0.1760 
 16 C       -3.6430    -4.1080    -0.6380 C.2   1 <1>   0.1080 
 17 C       -0.0550     6.0520    -0.6670 C.3   1 <1>  -0.2400 
 18 C       -1.9930     6.4760     0.9030 C.3   1 <1>  -0.2400 
 19 N       -2.9610    -4.5320    -1.6560 N.2   1 <1>  -0.7070 
 20 C       -3.4790    -4.9180     0.4800 C.2   1 <1>  -0.1500 
 21 N       -2.3390    -5.6390    -1.2100 N.pl3 1 <1>   0.3000 
 22 C       -2.6350    -5.8930     0.0820 C.2   1 <1>  -0.3320 
 23 C       -2.0860    -7.0690     0.8690 C.3   1 <1>  -0.0600 
 24 H       -3.7670     1.6510    -0.1840 H     1 <1>   0.0800 
 25 H       -2.7930     1.0330    -1.5110 H     1 <1>   0.0800 
 26 H       -1.6700    -1.8870    -0.0080 H     1 <1>   0.0800 
 27 H       -2.9600    -1.7590     1.1760 H     1 <1>   0.0800 
 28 H        0.2620     2.1690     2.7880 H     1 <1>   0.1500 
 29 H       -4.8950    -0.1100    -1.8820 H     1 <1>   0.0800 
 30 H       -3.0980    -1.7120    -1.8010 H     1 <1>   0.0800 
 31 H        0.3420     4.8010     2.1500 H     1 <1>   0.1500 
 32 H       -4.8850    -0.1930     0.9300 H     1 <1>   0.4000 
 33 H       -5.1940    -2.9500    -1.5060 H     1 <1>   0.0800 
 34 H       -5.0760    -2.7950     0.2220 H     1 <1>   0.0800 
 35 H       -2.0260     5.2470    -0.8440 H     1 <1>   0.0800 
 36 H        0.6570     6.3070     0.0970 H     1 <1>   0.0800 
 37 H       -0.2880     6.9390    -1.2270 H     1 <1>   0.0800 
 38 H        0.3870     5.3360    -1.3380 H     1 <1>   0.0800 
 39 H       -1.3260     6.7380     1.7050 H     1 <1>   0.0800 
 40 H       -2.8930     6.0540     1.3160 H     1 <1>   0.0800 
 41 H       -2.2550     7.3710     0.3690 H     1 <1>   0.0800 
 42 H       -3.9380    -4.7740     1.4420 H     1 <1>   0.1500 
 43 H       -1.7210    -6.1980    -1.8100 H     1 <1>   0.2700 
 44 H       -2.4680    -7.0520     1.8740 H     1 <1>   0.0800 
 45 H       -1.0120    -7.0200     0.9110 H     1 <1>   0.0800 
 46 H       -2.3780    -7.9950     0.4060 H     1 <1>   0.0800 
@<TRIPOS>BOND
  1   1   2  2   
  2   2   3  am  
  3   2   4  1   
  4   3   5  1   
  5   3   6  1   
  6   4   7  2   
  7   4   8  1   
  8   5   9  1   
  9   5  24  1   
 10   5  25  1   
 11   6  10  1   
 12   6  26  1   
 13   6  27  1   
 14   7  11  1   
 15   8  12  2   
 16   8  28  1   
 17   9  10  1   
 18   9  13  1   
 19   9  29  1   
 20  10  14  1   
 21  10  30  1   
 22  11  12  1   
 23  11  15  1   
 24  12  31  1   
 25  13  32  1   
 26  14  16  1   
 27  14  33  1   
 28  14  34  1   
 29  15  17  1   
 30  15  18  1   
 31  15  35  1   
 32  16  19  2   
 33  16  20  1   
 34  17  36  1   
 35  17  37  1   
 36  17  38  1   
 37  18  39  1   
 38  18  40  1   
 39  18  41  1   
 40  19  21  1   
 41  20  22  2   
 42  20  42  1   
 43  21  22  1   
 44  21  43  1   
 45  22  23  1   
 46  23  44  1   
 47  23  45  1   
 48  23  46  1   
@<TRIPOS>SUBSTRUCTURE
  1 ****   3 GROUP 4 **** **** 0

# MOE 2024.06 (io_trps.svl 2023.06)
