@<TRIPOS>MOLECULE
NONAME
45 47 1 0 0 
SMALL
USER_CHARGES


@<TRIPOS>ATOM
  1 S       -1.4950     0.1900     1.7120 S.3   1 <1>  -0.0800 
  2 C       -2.6750    -0.5130     0.6210 C.2   1 <1>  -0.1100 
  3 C       -1.6900     1.7670     0.9680 C.2   1 <1>  -0.1100 
  4 C       -3.1650     0.4150    -0.2250 C.2   1 <1>  -0.1810 
  5 C       -2.5950     1.7150    -0.0260 C.2   1 <1>  -0.1500 
  6 C       -4.2130     0.1910    -1.3130 C.3   1 <1>   0.0820 
  7 C       -4.9580    -1.1370    -1.2090 C.2   1 <1>   0.5690 
  8 O       -4.8450    -1.9060    -2.1370 O.2   1 <1>  -0.5700 
  9 N       -5.7520    -1.4500    -0.1280 N.am  1 <1>  -0.6600 
 10 C       -6.3940    -2.7960    -0.0580 C.3   1 <1>   0.1400 
 11 C       -6.0410    -0.5270     1.0100 C.3   1 <1>   0.1400 
 12 C       -7.7350    -2.7960    -0.8040 C.3   1 <1>   0.1400 
 13 C       -7.5340    -0.4430     1.3630 C.3   1 <1>  -0.1600 
 14 N       -8.7950    -2.0310    -0.0660 N.am  1 <1>  -0.6600 
 15 C       -8.4880    -0.5890     0.1710 C.3   1 <1>   0.1400 
 16 C       -9.9750    -2.5660     0.3880 C.2   1 <1>   0.5690 
 17 O      -10.7550    -1.9210     1.0480 O.2   1 <1>  -0.5700 
 18 C      -10.3410    -4.0070     0.0760 C.3   1 <1>  -0.0990 
 19 C      -11.7500    -4.3740     0.5620 C.3   1 <1>   0.0960 
 20 N      -12.0500    -5.7770     0.2250 N.pl3 1 <1>   0.0480 
 21 C      -12.5240    -6.2750    -0.9170 C.2   1 <1>   0.0370 
 22 C      -11.8830    -6.8680     0.9720 C.2   1 <1>   0.0370 
 23 N      -12.6320    -7.5570    -0.8720 N.2   1 <1>  -0.3380 
 24 N      -12.2210    -7.9380     0.3400 N.2   1 <1>  -0.3380 
 25 H       -2.8790    -1.5640     0.7310 H     1 <1>   0.1500 
 26 H       -1.0960     2.5740     1.3590 H     1 <1>   0.1500 
 27 H       -2.8870     2.5520    -0.6370 H     1 <1>   0.1500 
 28 H       -3.7230     0.2350    -2.2680 H     1 <1>   0.0800 
 29 H       -4.9350     0.9840    -1.2890 H     1 <1>   0.0800 
 30 H       -6.5360    -3.0940     0.9660 H     1 <1>   0.0800 
 31 H       -5.7420    -3.5190    -0.5180 H     1 <1>   0.0800 
 32 H       -5.7030     0.4640     0.7710 H     1 <1>   0.0800 
 33 H       -5.4860    -0.8510     1.8750 H     1 <1>   0.0800 
 34 H       -8.0310    -3.8170    -0.9460 H     1 <1>   0.0800 
 35 H       -7.5970    -2.3660    -1.7820 H     1 <1>   0.0800 
 36 H       -7.7030     0.5170     1.8160 H     1 <1>   0.0800 
 37 H       -7.7790    -1.1780     2.1090 H     1 <1>   0.0800 
 38 H       -8.0640    -0.1500    -0.7170 H     1 <1>   0.0800 
 39 H       -9.4000    -0.0580     0.3860 H     1 <1>   0.0800 
 40 H       -9.6230    -4.6480     0.5530 H     1 <1>   0.0800 
 41 H      -10.2920    -4.1450    -0.9890 H     1 <1>   0.0800 
 42 H      -12.4810    -3.7370     0.0960 H     1 <1>   0.0800 
 43 H      -11.8200    -4.2470     1.6280 H     1 <1>   0.0800 
 44 H      -12.7780    -5.6680    -1.7670 H     1 <1>   0.1500 
 45 H      -11.5080    -6.8440     1.9790 H     1 <1>   0.1500 
@<TRIPOS>BOND
  1   1   2  1   
  2   1   3  1   
  3   2   4  2   
  4   2  25  1   
  5   3   5  2   
  6   3  26  1   
  7   4   5  1   
  8   4   6  1   
  9   5  27  1   
 10   6   7  1   
 11   6  28  1   
 12   6  29  1   
 13   7   8  2   
 14   7   9  am  
 15   9  10  1   
 16   9  11  1   
 17  10  12  1   
 18  10  30  1   
 19  10  31  1   
 20  11  13  1   
 21  11  32  1   
 22  11  33  1   
 23  12  14  1   
 24  12  34  1   
 25  12  35  1   
 26  13  15  1   
 27  13  36  1   
 28  13  37  1   
 29  14  15  1   
 30  14  16  am  
 31  15  38  1   
 32  15  39  1   
 33  16  17  2   
 34  16  18  1   
 35  18  19  1   
 36  18  40  1   
 37  18  41  1   
 38  19  20  1   
 39  19  42  1   
 40  19  43  1   
 41  20  21  1   
 42  20  22  1   
 43  21  23  2   
 44  21  44  1   
 45  22  24  2   
 46  22  45  1   
 47  23  24  1   
@<TRIPOS>SUBSTRUCTURE
  1 ****  12 GROUP 4 **** **** 0

# MOE 2024.06 (io_trps.svl 2023.06)
