@<TRIPOS>MOLECULE
NONAME
56 58 1 0 0 
SMALL
USER_CHARGES


@<TRIPOS>ATOM
  1 O        0.0440    -3.4770    -1.7030 O.3   1 <1>  -0.6800 
  2 C       -1.1400    -3.6460    -1.0030 C.3   1 <1>   0.2000 
  3 C       -2.1790    -4.3430    -1.9020 C.3   1 <1>   0.2090 
  4 C       -1.6150    -2.2620    -0.5510 C.3   1 <1>  -0.1600 
  5 N       -3.5200    -4.3900    -1.2280 N.pl3 1 <1>  -0.8380 
  6 C       -3.0030    -2.3610     0.1020 C.3   1 <1>  -0.1600 
  7 C       -4.1950    -5.5330    -0.9300 C.ar  1 <1>   0.4100 
  8 C       -4.0170    -3.0370    -0.8260 C.3   1 <1>   0.2090 
  9 N       -4.9640    -5.5310     0.1450 N.ar  1 <1>  -0.6200 
 10 C       -4.0810    -6.6780    -1.7460 C.ar  1 <1>  -0.1500 
 11 C       -5.6080    -6.6420     0.4410 C.ar  1 <1>   0.7710 
 12 C       -4.7400    -7.8090    -1.3960 C.ar  1 <1>   0.2110 
 13 N       -5.4890    -7.7660    -0.2740 N.ar  1 <1>  -0.1790 
 14 N       -6.4150    -6.5990     1.5060 N.pl3 1 <1>  -0.8690 
 15 C       -7.5320    -7.5140     1.8980 C.3   1 <1>   0.2090 
 16 C       -7.0620    -8.8660     2.4770 C.3   1 <1>   0.2090 
 17 N       -6.3370    -9.7360     1.4760 N.pl3 1 <1>  -0.8380 
 18 C       -7.0250   -10.3140     0.3930 C.ar  1 <1>   0.1000 
 19 C       -5.3570   -10.6340     2.1640 C.3   1 <1>   0.2090 
 20 C       -6.2900   -10.8860    -0.6450 C.ar  1 <1>  -0.1500 
 21 C       -8.4140   -10.3110     0.2770 C.ar  1 <1>  -0.1500 
 22 C       -3.9840    -9.9730     2.1260 C.3   1 <1>  -0.2400 
 23 C       -6.9030   -11.4070    -1.7700 C.ar  1 <1>  -0.1430 
 24 C       -9.0360   -10.8290    -0.8430 C.ar  1 <1>  -0.1500 
 25 C       -8.2830   -11.3720    -1.8680 C.ar  1 <1>  -0.1500 
 26 C       -6.0920   -12.0330    -2.8910 C.3   1 <1>  -0.0970 
 27 H        0.5480    -4.3120    -1.7450 H     1 <1>   0.4000 
 28 H       -0.9340    -4.2590    -0.1420 H     1 <1>   0.0800 
 29 H       -1.8280    -5.3340    -2.1190 H     1 <1>   0.0800 
 30 H       -2.2740    -3.7950    -2.8240 H     1 <1>   0.0800 
 31 H       -1.6720    -1.6080    -1.4040 H     1 <1>   0.0800 
 32 H       -0.9130    -1.8510     0.1520 H     1 <1>   0.0800 
 33 H       -3.3540    -1.3750     0.3500 H     1 <1>   0.0800 
 34 H       -2.9400    -2.9270     1.0150 H     1 <1>   0.0800 
 35 H       -4.9720    -3.1040    -0.3330 H     1 <1>   0.0800 
 36 H       -4.1510    -2.4370    -1.7110 H     1 <1>   0.0800 
 37 H       -3.4850    -6.6330    -2.6370 H     1 <1>   0.1500 
 38 H       -4.6970    -8.7250    -1.9620 H     1 <1>   0.1500 
 39 H       -5.9460    -8.5920     0.1470 H     1 <1>   0.4570 
 40 H       -6.3940    -5.7020     2.0030 H     1 <1>   0.4000 
 41 H       -8.1740    -7.6840     1.0510 H     1 <1>   0.0800 
 42 H       -8.1250    -7.0180     2.6480 H     1 <1>   0.0800 
 43 H       -7.9110    -9.4050     2.8630 H     1 <1>   0.0800 
 44 H       -6.4190    -8.6580     3.3150 H     1 <1>   0.0800 
 45 H       -5.3150   -11.5970     1.6820 H     1 <1>   0.0800 
 46 H       -5.6550   -10.8030     3.1860 H     1 <1>   0.0800 
 47 H       -5.2200   -10.9330    -0.5690 H     1 <1>   0.1500 
 48 H       -9.0360    -9.9170     1.0560 H     1 <1>   0.1500 
 49 H       -3.6490    -9.8560     1.1130 H     1 <1>   0.0800 
 50 H       -3.2750   -10.5950     2.6440 H     1 <1>   0.0800 
 51 H       -4.0110    -9.0150     2.6130 H     1 <1>   0.0800 
 52 H      -10.1100   -10.8190    -0.9200 H     1 <1>   0.1500 
 53 H       -8.7770   -11.7750    -2.7360 H     1 <1>   0.1500 
 54 H       -5.0460   -12.0640    -2.6460 H     1 <1>   0.0800 
 55 H       -6.2180   -11.4680    -3.7980 H     1 <1>   0.0800 
 56 H       -6.4280   -13.0400    -3.0650 H     1 <1>   0.0800 
@<TRIPOS>BOND
  1   1   2  1   
  2   1  27  1   
  3   2   3  1   
  4   2   4  1   
  5   2  28  1   
  6   3   5  1   
  7   3  29  1   
  8   3  30  1   
  9   4   6  1   
 10   4  31  1   
 11   4  32  1   
 12   5   7  1   
 13   5   8  1   
 14   6   8  1   
 15   6  33  1   
 16   6  34  1   
 17   7   9  ar  
 18   7  10  ar  
 19   8  35  1   
 20   8  36  1   
 21   9  11  ar  
 22  10  12  ar  
 23  10  37  1   
 24  11  13  ar  
 25  11  14  1   
 26  12  13  ar  
 27  12  38  1   
 28  13  39  1   
 29  14  15  1   
 30  14  40  1   
 31  15  16  1   
 32  15  41  1   
 33  15  42  1   
 34  16  17  1   
 35  16  43  1   
 36  16  44  1   
 37  17  18  1   
 38  17  19  1   
 39  18  20  ar  
 40  18  21  ar  
 41  19  22  1   
 42  19  45  1   
 43  19  46  1   
 44  20  23  ar  
 45  20  47  1   
 46  21  24  ar  
 47  21  48  1   
 48  22  49  1   
 49  22  50  1   
 50  22  51  1   
 51  23  25  ar  
 52  23  26  1   
 53  24  25  ar  
 54  24  52  1   
 55  25  53  1   
 56  26  54  1   
 57  26  55  1   
 58  26  56  1   
@<TRIPOS>SUBSTRUCTURE
  1 ****  13 GROUP 4 **** **** 0

# MOE 2024.06 (io_trps.svl 2023.06)
