@<TRIPOS>MOLECULE
NONAME
54 56 1 0 0 
SMALL
USER_CHARGES


@<TRIPOS>ATOM
  1 F       -0.7020    -0.3480     0.5340 F     1 <1>  -0.1900 
  2 C       -1.9260     0.1120     0.4930 C.ar  1 <1>   0.1900 
  3 C       -2.2630     1.2640    -0.2280 C.ar  1 <1>   0.0830 
  4 C       -2.8740    -0.6000     1.2020 C.ar  1 <1>  -0.1500 
  5 O       -1.4230     2.0500    -0.9600 O.3   1 <1>  -0.3630 
  6 C       -3.5890     1.6660    -0.2120 C.ar  1 <1>  -0.1500 
  7 C       -4.1880    -0.1700     1.1980 C.ar  1 <1>  -0.1500 
  8 C       -0.0340     1.8180    -1.0480 C.3   1 <1>   0.0400 
  9 C       -4.5760     0.9680     0.4870 C.ar  1 <1>   0.0530 
 10 C       -5.9460     1.4170     0.4670 C.2   1 <1>   0.0870 
 11 O       -6.2290     2.6920     0.3750 O.3   1 <1>  -0.0190 
 12 C       -7.1320     0.7560     0.5040 C.2   1 <1>  -0.0860 
 13 N       -7.5150     2.9280     0.3570 N.2   1 <1>  -0.4100 
 14 C       -8.0830     1.7760     0.4440 C.2   1 <1>   0.3720 
 15 C       -7.4180    -0.6400     0.5400 C.2   1 <1>   0.7160 
 16 N       -9.4720     1.5820     0.4630 N.pl3 1 <1>  -0.8210 
 17 O       -7.3900    -1.2270     1.6080 O.2   1 <1>  -0.5700 
 18 N       -7.7130    -1.3500    -0.6070 N.am  1 <1>  -0.6600 
 19 C      -10.2790     2.6900    -0.1230 C.3   1 <1>   0.1290 
 20 C      -10.0020     1.1530     1.7860 C.3   1 <1>   0.1290 
 21 C       -8.0990    -2.7910    -0.5620 C.3   1 <1>   0.1400 
 22 C       -7.9590    -0.7050    -1.9270 C.3   1 <1>   0.1400 
 23 C       -9.5970    -2.9270    -0.8720 C.3   1 <1>   0.2200 
 24 C       -9.4460    -0.8320    -2.2850 C.3   1 <1>  -0.1600 
 25 N       -9.9850    -4.3510    -0.9040 N.am  1 <1>  -0.7300 
 26 C       -9.9340    -2.2910    -2.2260 C.3   1 <1>  -0.1600 
 27 C      -10.4880    -5.1060     0.0960 C.2   1 <1>   0.5690 
 28 O      -10.7550    -6.2610    -0.1020 O.2   1 <1>  -0.5700 
 29 C      -10.7190    -4.5220     1.4690 C.3   1 <1>  -0.1790 
 30 H       -2.5850    -1.4780     1.7510 H     1 <1>   0.1500 
 31 H       -3.8590     2.5500    -0.7620 H     1 <1>   0.1500 
 32 H       -4.9180    -0.7230     1.7630 H     1 <1>   0.1500 
 33 H        0.3960     2.5910    -1.6590 H     1 <1>   0.0800 
 34 H        0.1320     0.8590    -1.5060 H     1 <1>   0.0800 
 35 H        0.3910     1.8540    -0.0610 H     1 <1>   0.0800 
 36 H       -9.8730     2.9690    -1.0810 H     1 <1>   0.0800 
 37 H      -10.2570     3.5490     0.5260 H     1 <1>   0.0800 
 38 H      -11.2970     2.3710    -0.2600 H     1 <1>   0.0800 
 39 H       -9.4020     0.3600     2.1950 H     1 <1>   0.0800 
 40 H      -11.0110     0.7970     1.6780 H     1 <1>   0.0800 
 41 H       -9.9910     1.9830     2.4730 H     1 <1>   0.0800 
 42 H       -7.8910    -3.2120     0.4060 H     1 <1>   0.0800 
 43 H       -7.5230    -3.3290    -1.2940 H     1 <1>   0.0800 
 44 H       -7.3600    -1.1970    -2.6740 H     1 <1>   0.0800 
 45 H       -7.6800     0.3350    -1.9150 H     1 <1>   0.0800 
 46 H      -10.1500    -2.4210    -0.0990 H     1 <1>   0.0800 
 47 H       -9.6090    -0.4350    -3.2710 H     1 <1>   0.0800 
 48 H      -10.0170    -0.2320    -1.5970 H     1 <1>   0.0800 
 49 H       -9.8560    -4.8360    -1.7930 H     1 <1>   0.3700 
 50 H      -10.9990    -2.3170    -2.3810 H     1 <1>   0.0800 
 51 H       -9.4590    -2.8480    -3.0140 H     1 <1>   0.0800 
 52 H       -9.8140    -4.0800     1.8400 H     1 <1>   0.0800 
 53 H      -11.0250    -5.3000     2.1440 H     1 <1>   0.0800 
 54 H      -11.4920    -3.7800     1.4220 H     1 <1>   0.0800 
@<TRIPOS>BOND
  1   1   2  1   
  2   2   3  ar  
  3   2   4  ar  
  4   3   5  1   
  5   3   6  ar  
  6   4   7  ar  
  7   4  30  1   
  8   5   8  1   
  9   6   9  ar  
 10   6  31  1   
 11   7   9  ar  
 12   7  32  1   
 13   8  33  1   
 14   8  34  1   
 15   8  35  1   
 16   9  10  1   
 17  10  11  1   
 18  10  12  2   
 19  11  13  1   
 20  12  14  1   
 21  12  15  1   
 22  13  14  2   
 23  14  16  1   
 24  15  17  2   
 25  15  18  am  
 26  16  19  1   
 27  16  20  1   
 28  18  21  1   
 29  18  22  1   
 30  19  36  1   
 31  19  37  1   
 32  19  38  1   
 33  20  39  1   
 34  20  40  1   
 35  20  41  1   
 36  21  23  1   
 37  21  42  1   
 38  21  43  1   
 39  22  24  1   
 40  22  44  1   
 41  22  45  1   
 42  23  25  1   
 43  23  26  1   
 44  23  46  1   
 45  24  26  1   
 46  24  47  1   
 47  24  48  1   
 48  25  27  am  
 49  25  49  1   
 50  26  50  1   
 51  26  51  1   
 52  27  28  2   
 53  27  29  1   
 54  29  52  1   
 55  29  53  1   
 56  29  54  1   
@<TRIPOS>SUBSTRUCTURE
  1 ****  15 GROUP 4 **** **** 0

# MOE 2024.06 (io_trps.svl 2023.06)
