@<TRIPOS>MOLECULE
NONAME
52 55 1 0 0 
SMALL
USER_CHARGES


@<TRIPOS>ATOM
  1 O       -3.5380     0.9630     2.5690 O.2   1 <1>  -0.5700 
  2 C       -3.0830     1.9750     2.0990 C.2   1 <1>   0.4950 
  3 C       -3.4650     2.6610     0.9130 C.2   1 <1>  -0.1240 
  4 C       -1.9650     2.7420     2.7640 C.3   1 <1>  -0.0990 
  5 C       -2.7600     3.7950     0.7340 C.2   1 <1>  -0.1670 
  6 C       -4.5400     2.1100    -0.0200 C.3   1 <1>   0.0390 
  7 C       -1.7480     3.9700     1.8550 C.3   1 <1>  -0.0220 
  8 C       -2.8440     4.7850    -0.3050 C.ar  1 <1>   0.0280 
  9 C       -4.2490     0.6700    -0.4160 C.2   1 <1>   0.5690 
 10 C       -1.7400     5.1040    -1.0910 C.ar  1 <1>  -0.1500 
 11 C       -4.0390     5.4560    -0.5550 C.ar  1 <1>  -0.1500 
 12 O       -3.3710     0.4830    -1.2260 O.2   1 <1>  -0.5700 
 13 N       -4.9430    -0.3820     0.1220 N.am  1 <1>  -0.6600 
 14 C       -1.8240     6.0560    -2.0890 C.ar  1 <1>  -0.1500 
 15 C       -4.1290     6.4090    -1.5520 C.ar  1 <1>  -0.1500 
 16 C       -6.0180    -0.3370     1.1510 C.3   1 <1>   0.1400 
 17 C       -4.4200    -1.7650     0.0020 C.3   1 <1>   0.1400 
 18 C       -3.0200     6.7120    -2.3220 C.ar  1 <1>  -0.1500 
 19 C       -5.8440    -1.6250     1.9550 C.3   1 <1>   0.2000 
 20 C       -5.2800    -2.6210     0.9370 C.3   1 <1>  -0.0800 
 21 O       -4.9230    -1.4000     2.9690 O.3   1 <1>  -0.6800 
 22 C       -4.5280    -3.8160     1.5530 C.3   1 <1>   0.0200 
 23 C       -4.1390    -4.8720     0.5300 C.2   1 <1>  -0.0400 
 24 O       -3.4280    -5.8950     0.9240 O.3   1 <1>  -0.0190 
 25 C       -4.3710    -5.0210    -0.7850 C.2   1 <1>  -0.1500 
 26 N       -3.1710    -6.7170    -0.0530 N.2   1 <1>  -0.4100 
 27 C       -3.7260    -6.2140    -1.0960 C.2   1 <1>   0.1080 
 28 C       -3.6790    -6.8430    -2.4700 C.3   1 <1>  -0.0590 
 29 H       -2.2610     3.0360     3.7550 H     1 <1>   0.0800 
 30 H       -1.0830     2.1300     2.8110 H     1 <1>   0.0800 
 31 H       -4.5670     2.6910    -0.9230 H     1 <1>   0.0800 
 32 H       -5.5020     2.1960     0.4430 H     1 <1>   0.0800 
 33 H       -0.7450     3.9820     1.4660 H     1 <1>   0.0800 
 34 H       -1.9370     4.8840     2.3900 H     1 <1>   0.0800 
 35 H       -0.8100     4.5930    -0.9240 H     1 <1>   0.1500 
 36 H       -4.9020     5.2290     0.0430 H     1 <1>   0.1500 
 37 H       -0.9600     6.2870    -2.6880 H     1 <1>   0.1500 
 38 H       -5.0610     6.9180    -1.7310 H     1 <1>   0.1500 
 39 H       -5.9520     0.5260     1.7900 H     1 <1>   0.0800 
 40 H       -6.9720    -0.3460     0.6540 H     1 <1>   0.0800 
 41 H       -4.4770    -2.1000    -1.0190 H     1 <1>   0.0800 
 42 H       -3.3900    -1.7730     0.3190 H     1 <1>   0.0800 
 43 H       -3.0880     7.4520    -3.1000 H     1 <1>   0.1500 
 44 H       -6.7610    -1.9630     2.4070 H     1 <1>   0.0800 
 45 H       -6.1090    -2.9970     0.3650 H     1 <1>   0.0800 
 46 H       -4.3230    -0.6470     2.7250 H     1 <1>   0.4000 
 47 H       -5.1480    -4.2800     2.2990 H     1 <1>   0.0800 
 48 H       -3.6340    -3.4720     2.0450 H     1 <1>   0.0800 
 49 H       -4.9160    -4.4020    -1.4730 H     1 <1>   0.1500 
 50 H       -3.2650    -6.1460    -3.1760 H     1 <1>   0.0800 
 51 H       -4.6710    -7.1170    -2.7800 H     1 <1>   0.0800 
 52 H       -3.0640    -7.7240    -2.4490 H     1 <1>   0.0800 
@<TRIPOS>BOND
  1   1   2  2   
  2   2   3  1   
  3   2   4  1   
  4   3   5  2   
  5   3   6  1   
  6   4   7  1   
  7   4  29  1   
  8   4  30  1   
  9   5   7  1   
 10   5   8  1   
 11   6   9  1   
 12   6  31  1   
 13   6  32  1   
 14   7  33  1   
 15   7  34  1   
 16   8  10  ar  
 17   8  11  ar  
 18   9  12  2   
 19   9  13  am  
 20  10  14  ar  
 21  10  35  1   
 22  11  15  ar  
 23  11  36  1   
 24  13  16  1   
 25  13  17  1   
 26  14  18  ar  
 27  14  37  1   
 28  15  18  ar  
 29  15  38  1   
 30  16  19  1   
 31  16  39  1   
 32  16  40  1   
 33  17  20  1   
 34  17  41  1   
 35  17  42  1   
 36  18  43  1   
 37  19  20  1   
 38  19  21  1   
 39  19  44  1   
 40  20  22  1   
 41  20  45  1   
 42  21  46  1   
 43  22  23  1   
 44  22  47  1   
 45  22  48  1   
 46  23  24  1   
 47  23  25  2   
 48  24  26  1   
 49  25  27  1   
 50  25  49  1   
 51  26  27  2   
 52  27  28  1   
 53  28  50  1   
 54  28  51  1   
 55  28  52  1   
@<TRIPOS>SUBSTRUCTURE
  1 ****   9 GROUP 4 **** **** 0

# MOE 2024.06 (io_trps.svl 2023.06)
