@<TRIPOS>MOLECULE
NONAME
46 48 1 0 0 
SMALL
USER_CHARGES


@<TRIPOS>ATOM
  1 F       -3.9150    -0.3060     1.0490 F     1 <1>  -0.3400 
  2 C       -4.0740    -1.0280    -0.0540 C.3   1 <1>   1.1640 
  3 F       -5.3770    -1.2700    -0.1530 F     1 <1>  -0.3400 
  4 F       -3.7680    -0.2300    -1.0690 F     1 <1>  -0.3400 
  5 C       -3.2240    -2.3090    -0.0550 C.ar  1 <1>  -0.1440 
  6 C       -3.7020    -3.4930    -0.6110 C.ar  1 <1>  -0.1500 
  7 C       -1.9470    -2.3020     0.4960 C.ar  1 <1>  -0.1500 
  8 C       -2.9300    -4.6460    -0.6170 C.ar  1 <1>  -0.1440 
  9 C       -1.1720    -3.4470     0.4960 C.ar  1 <1>  -0.1500 
 10 C       -1.6620    -4.6140    -0.0590 C.ar  1 <1>  -0.1500 
 11 C       -3.4660    -5.9340    -1.2300 C.3   1 <1>   0.3530 
 12 N       -3.3700    -7.0540    -0.2560 N.pl3 1 <1>  -0.8380 
 13 C       -4.3900    -7.1670     0.6750 C.ar  1 <1>   0.4100 
 14 C       -2.7510    -8.2990    -0.7930 C.3   1 <1>   0.1290 
 15 N       -5.2390    -8.1650     0.4930 N.ar  1 <1>  -0.6200 
 16 C       -4.5080    -6.2580     1.7380 C.ar  1 <1>   0.1600 
 17 C       -6.2080    -8.2320     1.4220 C.ar  1 <1>   0.3960 
 18 N       -5.4510    -6.2890     2.6590 N.ar  1 <1>  -0.6200 
 19 C       -7.2230    -9.2870     1.3780 C.2   1 <1>   0.5440 
 20 C       -6.2800    -7.3060     2.4670 C.ar  1 <1>   0.1600 
 21 O       -7.6430    -9.7370     2.4310 O.2   1 <1>  -0.5700 
 22 N       -7.7620    -9.7980     0.2060 N.am  1 <1>  -0.6600 
 23 C       -8.5720   -11.0560     0.1810 C.3   1 <1>   0.1400 
 24 C       -7.6110    -9.1700    -1.1420 C.3   1 <1>   0.1400 
 25 C       -9.8690   -10.8570    -0.6190 C.3   1 <1>   0.1200 
 26 C       -8.9640    -9.0960    -1.8710 C.3   1 <1>   0.1200 
 27 O       -9.5910   -10.3460    -1.8920 O.3   1 <1>  -0.5600 
 28 H       -4.6880    -3.5200    -1.0440 H     1 <1>   0.1500 
 29 H       -1.5460    -1.4020     0.9320 H     1 <1>   0.1500 
 30 H       -0.1860    -3.4320     0.9280 H     1 <1>   0.1500 
 31 H       -1.0570    -5.5050    -0.0510 H     1 <1>   0.1500 
 32 H       -2.8950    -6.1640    -2.1140 H     1 <1>   0.0800 
 33 H       -4.4940    -5.8080    -1.5230 H     1 <1>   0.0800 
 34 H       -1.7450    -8.1000    -1.1160 H     1 <1>   0.0800 
 35 H       -3.3290    -8.6700    -1.6220 H     1 <1>   0.0800 
 36 H       -2.7230    -9.0540    -0.0250 H     1 <1>   0.0800 
 37 H       -3.7690    -5.4810     1.8080 H     1 <1>   0.1500 
 38 H       -7.0740    -7.4200     3.1850 H     1 <1>   0.1500 
 39 H       -8.8180   -11.3750     1.1780 H     1 <1>   0.0800 
 40 H       -7.9920   -11.8360    -0.2790 H     1 <1>   0.0800 
 41 H       -6.9210    -9.7510    -1.7270 H     1 <1>   0.0800 
 42 H       -7.2220    -8.1720    -1.0580 H     1 <1>   0.0800 
 43 H      -10.5280   -10.1780    -0.1060 H     1 <1>   0.0800 
 44 H      -10.3730   -11.7990    -0.7450 H     1 <1>   0.0800 
 45 H       -8.8190    -8.7850    -2.8900 H     1 <1>   0.0800 
 46 H       -9.6170    -8.3920    -1.3850 H     1 <1>   0.0800 
@<TRIPOS>BOND
  1   1   2  1   
  2   2   3  1   
  3   2   4  1   
  4   2   5  1   
  5   5   6  ar  
  6   5   7  ar  
  7   6   8  ar  
  8   6  28  1   
  9   7   9  ar  
 10   7  29  1   
 11   8  10  ar  
 12   8  11  1   
 13   9  10  ar  
 14   9  30  1   
 15  10  31  1   
 16  11  12  1   
 17  11  32  1   
 18  11  33  1   
 19  12  13  1   
 20  12  14  1   
 21  13  15  ar  
 22  13  16  ar  
 23  14  34  1   
 24  14  35  1   
 25  14  36  1   
 26  15  17  ar  
 27  16  18  ar  
 28  16  37  1   
 29  17  19  1   
 30  17  20  ar  
 31  18  20  ar  
 32  19  21  2   
 33  19  22  am  
 34  20  38  1   
 35  22  23  1   
 36  22  24  1   
 37  23  25  1   
 38  23  39  1   
 39  23  40  1   
 40  24  26  1   
 41  24  41  1   
 42  24  42  1   
 43  25  27  1   
 44  25  43  1   
 45  25  44  1   
 46  26  27  1   
 47  26  45  1   
 48  26  46  1   
@<TRIPOS>SUBSTRUCTURE
  1 ****  13 GROUP 4 **** **** 0

# MOE 2024.06 (io_trps.svl 2023.06)
