@<TRIPOS>MOLECULE
NONAME
44 46 1 0 0 
SMALL
USER_CHARGES


@<TRIPOS>ATOM
  1 S       -1.7550    -0.2060    -1.1700 S.3   1 <1>  -0.4600 
  2 C       -1.6020    -0.4510     0.6360 C.3   1 <1>   0.1310 
  3 C       -0.4910    -1.3170    -1.8460 C.3   1 <1>  -0.0100 
  4 C       -1.7760    -1.9180     1.0180 C.2   1 <1>   0.5690 
  5 O       -0.7770    -2.5660     1.2350 O.2   1 <1>  -0.5700 
  6 N       -3.0230    -2.4740     1.1220 N.am  1 <1>  -0.6600 
  7 C       -4.3010    -1.8060     0.7790 C.3   1 <1>   0.1400 
  8 C       -3.2290    -3.9030     1.4290 C.3   1 <1>   0.1400 
  9 C       -5.3660    -2.9140     0.7940 C.3   1 <1>  -0.0800 
 10 C       -4.6030    -4.2530     0.8590 C.3   1 <1>  -0.0800 
 11 C       -6.4440    -2.8170    -0.3200 C.3   1 <1>   0.4240 
 12 C       -4.5140    -4.9400    -0.5140 C.3   1 <1>  -0.1600 
 13 O       -5.8580    -2.4040    -1.5030 O.3   1 <1>  -0.6800 
 14 C       -7.5450    -1.8120     0.0800 C.ar  1 <1>  -0.1440 
 15 C       -6.9960    -4.2200    -0.6320 C.3   1 <1>  -0.1600 
 16 C       -5.9110    -5.2170    -1.1070 C.3   1 <1>  -0.1600 
 17 C       -7.6410    -0.5510    -0.5030 C.ar  1 <1>  -0.1500 
 18 C       -8.4710    -2.1440     1.0650 C.ar  1 <1>  -0.1500 
 19 C       -8.6290     0.3400    -0.1230 C.ar  1 <1>  -0.1500 
 20 C       -9.4610    -1.2560     1.4480 C.ar  1 <1>  -0.1500 
 21 C       -9.5420    -0.0110     0.8530 C.ar  1 <1>  -0.1500 
 22 H       -0.6240    -0.1100     0.9180 H     1 <1>   0.0800 
 23 H       -2.3470     0.1600     1.1070 H     1 <1>   0.0800 
 24 H       -0.4650    -1.1760    -2.9120 H     1 <1>   0.0800 
 25 H       -0.7670    -2.3280    -1.6010 H     1 <1>   0.0800 
 26 H        0.4540    -1.0600    -1.4010 H     1 <1>   0.0800 
 27 H       -4.5370    -1.0500     1.5090 H     1 <1>   0.0800 
 28 H       -4.2060    -1.3360    -0.1840 H     1 <1>   0.0800 
 29 H       -2.4460    -4.5070     0.9990 H     1 <1>   0.0800 
 30 H       -3.2230    -4.0290     2.4980 H     1 <1>   0.0800 
 31 H       -5.8750    -2.8240     1.7370 H     1 <1>   0.0800 
 32 H       -5.0990    -4.9290     1.5340 H     1 <1>   0.0800 
 33 H       -3.9500    -4.3110    -1.1830 H     1 <1>   0.0800 
 34 H       -3.9750    -5.8680    -0.4260 H     1 <1>   0.0800 
 35 H       -5.2130    -3.0840    -1.7680 H     1 <1>   0.4000 
 36 H       -7.4410    -4.6200     0.2600 H     1 <1>   0.0800 
 37 H       -7.7800    -4.1440    -1.3660 H     1 <1>   0.0800 
 38 H       -6.2230    -6.2110    -0.8360 H     1 <1>   0.0800 
 39 H       -5.8430    -5.1910    -2.1820 H     1 <1>   0.0800 
 40 H       -6.9450    -0.2460    -1.2650 H     1 <1>   0.1500 
 41 H       -8.4330    -3.1010     1.5540 H     1 <1>   0.1500 
 42 H       -8.6850     1.3080    -0.5900 H     1 <1>   0.1500 
 43 H      -10.1700    -1.5330     2.2090 H     1 <1>   0.1500 
 44 H      -10.3110     0.6810     1.1480 H     1 <1>   0.1500 
@<TRIPOS>BOND
  1   1   2  1   
  2   1   3  1   
  3   2   4  1   
  4   2  22  1   
  5   2  23  1   
  6   3  24  1   
  7   3  25  1   
  8   3  26  1   
  9   4   5  2   
 10   4   6  am  
 11   6   7  1   
 12   6   8  1   
 13   7   9  1   
 14   7  27  1   
 15   7  28  1   
 16   8  10  1   
 17   8  29  1   
 18   8  30  1   
 19   9  10  1   
 20   9  11  1   
 21   9  31  1   
 22  10  12  1   
 23  10  32  1   
 24  11  13  1   
 25  11  14  1   
 26  11  15  1   
 27  12  16  1   
 28  12  33  1   
 29  12  34  1   
 30  13  35  1   
 31  14  17  ar  
 32  14  18  ar  
 33  15  16  1   
 34  15  36  1   
 35  15  37  1   
 36  16  38  1   
 37  16  39  1   
 38  17  19  ar  
 39  17  40  1   
 40  18  20  ar  
 41  18  41  1   
 42  19  21  ar  
 43  19  42  1   
 44  20  21  ar  
 45  20  43  1   
 46  21  44  1   
@<TRIPOS>SUBSTRUCTURE
  1 ****   9 GROUP 4 **** **** 0

# MOE 2024.06 (io_trps.svl 2023.06)
