@<TRIPOS>MOLECULE
NONAME
50 52 1 0 0 
SMALL
USER_CHARGES


@<TRIPOS>ATOM
  1 CL      -0.5120    -0.9430    -2.0260 Cl    1 <1>  -0.1770 
  2 C       -1.5100    -1.5040    -0.7030 C.ar  1 <1>   0.1770 
  3 C       -1.7320    -2.8560    -0.4990 C.ar  1 <1>   0.1900 
  4 C       -2.0790    -0.5740     0.1480 C.ar  1 <1>  -0.1500 
  5 F       -1.1720    -3.7170    -1.3100 F     1 <1>  -0.1900 
  6 C       -2.5250    -3.3120     0.5450 C.ar  1 <1>  -0.1440 
  7 C       -2.8690    -1.0130     1.2010 C.ar  1 <1>  -0.1500 
  8 C       -3.0880    -2.3690     1.3970 C.ar  1 <1>  -0.1500 
  9 C       -2.7710    -4.7990     0.7590 C.3   1 <1>   0.2540 
 10 N       -3.7670    -5.3160    -0.2010 N.3   1 <1>  -0.8100 
 11 C       -3.8730    -6.8010    -0.1460 C.3   1 <1>   0.3330 
 12 C       -5.0850    -4.6790    -0.0380 C.3   1 <1>   0.1100 
 13 C       -2.5260    -7.3950    -0.5690 C.ar  1 <1>  -0.1430 
 14 C       -5.0260    -7.3480    -1.0480 C.3   1 <1>   0.2000 
 15 C       -6.0870    -5.2470    -1.0480 C.3   1 <1>   0.1200 
 16 C       -1.8740    -8.3060     0.2500 C.ar  1 <1>  -0.1500 
 17 C       -1.9360    -7.0280    -1.7720 C.ar  1 <1>  -0.1500 
 18 O       -6.2150    -6.6220    -0.8580 O.3   1 <1>  -0.5600 
 19 C       -5.4090    -8.8190    -0.7930 C.3   1 <1>   0.1200 
 20 C       -0.6610    -8.8560    -0.1270 C.ar  1 <1>   0.0830 
 21 C       -0.7170    -7.5630    -2.1520 C.ar  1 <1>  -0.1500 
 22 O       -4.3320    -9.6950    -0.8770 O.3   1 <1>  -0.6800 
 23 O       -0.1020    -9.7680     0.7030 O.3   1 <1>  -0.3630 
 24 C       -0.0670    -8.4690    -1.3320 C.ar  1 <1>   0.0830 
 25 C       -0.1140   -11.1000     0.2420 C.3   1 <1>   0.0400 
 26 O        1.1340    -8.9420    -1.7460 O.3   1 <1>  -0.3630 
 27 C        2.2510    -8.5740    -0.9670 C.3   1 <1>   0.0400 
 28 H       -1.9050     0.4750    -0.0120 H     1 <1>   0.1500 
 29 H       -3.3140    -0.2950     1.8700 H     1 <1>   0.1500 
 30 H       -3.7050    -2.6880     2.2200 H     1 <1>   0.1500 
 31 H       -3.1080    -4.9800     1.7650 H     1 <1>   0.0800 
 32 H       -1.8320    -5.3110     0.6330 H     1 <1>   0.0800 
 33 H       -4.0860    -7.0970     0.8670 H     1 <1>   0.0800 
 34 H       -5.4570    -4.8360     0.9600 H     1 <1>   0.0800 
 35 H       -5.0010    -3.6200    -0.2080 H     1 <1>   0.0800 
 36 H       -4.7490    -7.2360    -2.0810 H     1 <1>   0.0800 
 37 H       -5.7600    -5.0590    -2.0560 H     1 <1>   0.0800 
 38 H       -7.0560    -4.8030    -0.9040 H     1 <1>   0.0800 
 39 H       -2.3090    -8.6130     1.1840 H     1 <1>   0.1500 
 40 H       -2.4210    -6.3070    -2.4090 H     1 <1>   0.1500 
 41 H       -6.1360    -9.1290    -1.5230 H     1 <1>   0.0800 
 42 H       -5.8330    -8.9250     0.1900 H     1 <1>   0.0800 
 43 H       -0.2620    -7.2720    -3.0810 H     1 <1>   0.1500 
 44 H       -3.6980    -9.4150    -1.5700 H     1 <1>   0.4000 
 45 H        0.2960   -11.7270     1.0120 H     1 <1>   0.0800 
 46 H        0.4830   -11.1720    -0.6500 H     1 <1>   0.0800 
 47 H       -1.1310   -11.3850     0.0350 H     1 <1>   0.0800 
 48 H        3.1380    -8.9050    -1.4750 H     1 <1>   0.0800 
 49 H        2.1840    -9.0430    -0.0030 H     1 <1>   0.0800 
 50 H        2.2630    -7.5030    -0.8620 H     1 <1>   0.0800 
@<TRIPOS>BOND
  1   1   2  1   
  2   2   3  ar  
  3   2   4  ar  
  4   3   5  1   
  5   3   6  ar  
  6   4   7  ar  
  7   4  28  1   
  8   6   8  ar  
  9   6   9  1   
 10   7   8  ar  
 11   7  29  1   
 12   8  30  1   
 13   9  10  1   
 14   9  31  1   
 15   9  32  1   
 16  10  11  1   
 17  10  12  1   
 18  11  13  1   
 19  11  14  1   
 20  11  33  1   
 21  12  15  1   
 22  12  34  1   
 23  12  35  1   
 24  13  16  ar  
 25  13  17  ar  
 26  14  18  1   
 27  14  19  1   
 28  14  36  1   
 29  15  18  1   
 30  15  37  1   
 31  15  38  1   
 32  16  20  ar  
 33  16  39  1   
 34  17  21  ar  
 35  17  40  1   
 36  19  22  1   
 37  19  41  1   
 38  19  42  1   
 39  20  23  1   
 40  20  24  ar  
 41  21  24  ar  
 42  21  43  1   
 43  22  44  1   
 44  23  25  1   
 45  24  26  1   
 46  25  45  1   
 47  25  46  1   
 48  25  47  1   
 49  26  27  1   
 50  27  48  1   
 51  27  49  1   
 52  27  50  1   
@<TRIPOS>SUBSTRUCTURE
  1 ****  13 GROUP 4 **** **** 0

# MOE 2024.06 (io_trps.svl 2023.06)
