@<TRIPOS>MOLECULE
NONAME
43 45 1 0 0 
SMALL
USER_CHARGES


@<TRIPOS>ATOM
  1 S        1.5100    -0.3080     1.2080 S.3   1 <1>  -0.0800 
  2 C        1.7190    -1.7780     0.2940 C.2   1 <1>  -0.1400 
  3 C        2.6260     0.4930     0.1230 C.2   1 <1>   0.2280 
  4 C        2.5840    -1.5410    -0.7040 C.2   1 <1>   0.0770 
  5 C        0.9740    -3.0190     0.7330 C.3   1 <1>   0.5230 
  6 N        3.0870    -0.2550    -0.7980 N.2   1 <1>  -0.5650 
  7 N       -0.3280    -3.0940     0.0390 N.4   1 <1>  -0.9590 
  8 C       -0.9110    -4.4710     0.1320 C.3   1 <1>   0.3430 
  9 C       -1.3040    -2.0800     0.5470 C.3   1 <1>   0.3430 
 10 C       -2.1300    -4.5610    -0.8060 C.3   1 <1>   0.2000 
 11 C       -2.6250    -2.1560    -0.2310 C.3   1 <1>  -0.1600 
 12 O       -1.7090    -4.2040    -2.0940 O.3   1 <1>  -0.6800 
 13 C       -3.2200    -3.5960    -0.3000 C.3   1 <1>  -0.1060 
 14 C       -3.5500    -4.1570     1.0880 C.2   1 <1>   0.9060 
 15 C       -4.4810    -3.6330    -1.2060 C.3   1 <1>  -0.0160 
 16 O       -3.1210    -3.5850     2.0950 O.co2 1 <1>  -0.9000 
 17 O       -4.0400    -5.2850     1.1490 O.co2 1 <1>  -0.9000 
 18 C       -5.5350    -2.6000    -0.8230 C.ar  1 <1>  -0.1440 
 19 C       -5.6890    -1.4400    -1.5690 C.ar  1 <1>  -0.1500 
 20 C       -6.3520    -2.8100     0.2770 C.ar  1 <1>  -0.1500 
 21 C       -6.6440    -0.5020    -1.2170 C.ar  1 <1>  -0.1500 
 22 C       -7.3050    -1.8730     0.6320 C.ar  1 <1>  -0.1500 
 23 C       -7.4530    -0.7170    -0.1150 C.ar  1 <1>  -0.1500 
 24 H        2.8370     1.5330     0.3080 H     1 <1>   0.1500 
 25 H        2.9230    -2.2540    -1.4380 H     1 <1>   0.1500 
 26 H        0.8300    -3.0120     1.8020 H     1 <1>   0.0800 
 27 H        1.5630    -3.8830     0.4760 H     1 <1>   0.0800 
 28 H       -0.2170    -2.9280    -0.9710 H     1 <1>   0.4500 
 29 H       -0.1890    -5.2090    -0.1730 H     1 <1>   0.0800 
 30 H       -1.2080    -4.6870     1.1470 H     1 <1>   0.0800 
 31 H       -1.4910    -2.2490     1.5950 H     1 <1>   0.0800 
 32 H       -0.8980    -1.0880     0.4410 H     1 <1>   0.0800 
 33 H       -2.4980    -5.5740    -0.8350 H     1 <1>   0.0800 
 34 H       -3.3290    -1.5080     0.2630 H     1 <1>   0.0800 
 35 H       -2.4730    -1.7680    -1.2220 H     1 <1>   0.0800 
 36 H       -2.4410    -4.3510    -2.7270 H     1 <1>   0.4000 
 37 H       -4.2040    -3.4620    -2.2290 H     1 <1>   0.0800 
 38 H       -4.9290    -4.6120    -1.1630 H     1 <1>   0.0800 
 39 H       -5.0670    -1.2610    -2.4270 H     1 <1>   0.1500 
 40 H       -6.2450    -3.7070     0.8670 H     1 <1>   0.1500 
 41 H       -6.7580     0.3950    -1.7990 H     1 <1>   0.1500 
 42 H       -7.9280    -2.0470     1.4910 H     1 <1>   0.1500 
 43 H       -8.1940     0.0110     0.1630 H     1 <1>   0.1500 
@<TRIPOS>BOND
  1   1   2  1   
  2   1   3  1   
  3   2   4  2   
  4   2   5  1   
  5   3   6  2   
  6   3  24  1   
  7   4   6  1   
  8   4  25  1   
  9   5   7  1   
 10   5  26  1   
 11   5  27  1   
 12   7   8  1   
 13   7   9  1   
 14   7  28  1   
 15   8  10  1   
 16   8  29  1   
 17   8  30  1   
 18   9  11  1   
 19   9  31  1   
 20   9  32  1   
 21  10  12  1   
 22  10  13  1   
 23  10  33  1   
 24  11  13  1   
 25  11  34  1   
 26  11  35  1   
 27  12  36  1   
 28  13  14  1   
 29  13  15  1   
 30  14  16  ar  
 31  14  17  ar  
 32  15  18  1   
 33  15  37  1   
 34  15  38  1   
 35  18  19  ar  
 36  18  20  ar  
 37  19  21  ar  
 38  19  39  1   
 39  20  22  ar  
 40  20  40  1   
 41  21  23  ar  
 42  21  41  1   
 43  22  23  ar  
 44  22  42  1   
 45  23  43  1   
@<TRIPOS>SUBSTRUCTURE
  1 ****  11 GROUP 4 **** **** 0

# MOE 2024.06 (io_trps.svl 2023.06)
