@<TRIPOS>MOLECULE
NONAME
52 53 1 0 0 
SMALL
USER_CHARGES


@<TRIPOS>ATOM
  1 O        0.3540    -0.0040     1.5830 O.2   1 <1>  -0.5700 
  2 C        1.3350    -0.4700     1.0500 C.2   1 <1>   0.5690 
  3 N        2.3150     0.3110     0.4920 N.am  1 <1>  -0.4940 
  4 C        1.5010    -2.0120     0.9630 C.3   1 <1>   0.2510 
  5 C        2.4140     1.7160     0.3340 C.2   1 <1>  -0.0880 
  6 N        0.3340    -2.7650     0.3900 N.3   1 <1>  -0.8100 
  7 C        1.8000    -2.5600     2.3650 C.3   1 <1>  -0.2400 
  8 N        1.9580     2.6950     1.1680 N.pl3 1 <1>   0.3140 
  9 C        3.0290     2.3510    -0.6930 C.2   1 <1>  -0.1810 
 10 C        0.6520    -4.1560    -0.0080 C.3   1 <1>   0.1100 
 11 C       -0.3730    -2.0480    -0.7010 C.3   1 <1>   0.1100 
 12 N        2.2680     3.9220     0.6980 N.2   1 <1>  -0.7070 
 13 C        1.3120     2.5730     2.4820 C.3   1 <1>   0.0160 
 14 C        2.9020     3.7090    -0.4100 C.2   1 <1>   0.1080 
 15 C        3.7110     1.7330    -1.9030 C.3   1 <1>   0.0210 
 16 C       -0.6170    -4.9230    -0.4370 C.3   1 <1>   0.3430 
 17 C       -1.6490    -2.7950    -1.1340 C.3   1 <1>   0.3430 
 18 C        3.4240     4.8560    -1.2590 C.3   1 <1>   0.0210 
 19 C        5.1960     1.5000    -1.6200 C.3   1 <1>  -0.2400 
 20 N       -1.3590    -4.2160    -1.5370 N.4   1 <1>  -0.9590 
 21 C        2.3810     5.3040    -2.2870 C.3   1 <1>  -0.2400 
 22 C       -2.6170    -4.9380    -1.8900 C.3   1 <1>   0.2630 
 23 H        3.0800    -0.1900     0.0430 H     1 <1>   0.3700 
 24 H        2.3570    -2.2000     0.3400 H     1 <1>   0.0800 
 25 H        0.9220    -2.4840     2.9810 H     1 <1>   0.0800 
 26 H        2.5790    -1.9780     2.8240 H     1 <1>   0.0800 
 27 H        2.1330    -3.5790     2.3350 H     1 <1>   0.0800 
 28 H        1.0860    -4.6840     0.8210 H     1 <1>   0.0800 
 29 H        1.3680    -4.1560    -0.8120 H     1 <1>   0.0800 
 30 H        0.2820    -1.9140    -1.5450 H     1 <1>   0.0800 
 31 H       -0.6840    -1.0740    -0.3650 H     1 <1>   0.0800 
 32 H        1.7160     1.7270     3.0030 H     1 <1>   0.0800 
 33 H        0.2550     2.4470     2.3400 H     1 <1>   0.0800 
 34 H        1.4940     3.4660     3.0480 H     1 <1>   0.0800 
 35 H        3.5990     2.3820    -2.7540 H     1 <1>   0.0800 
 36 H        3.2370     0.7990    -2.1450 H     1 <1>   0.0800 
 37 H       -1.2560    -5.0210     0.4250 H     1 <1>   0.0800 
 38 H       -0.3390    -5.9140    -0.7580 H     1 <1>   0.0800 
 39 H       -2.1070    -2.2660    -1.9530 H     1 <1>   0.0800 
 40 H       -2.3380    -2.7860    -0.3060 H     1 <1>   0.0800 
 41 H        4.3280     4.5570    -1.7570 H     1 <1>   0.0800 
 42 H        3.6630     5.6800    -0.6100 H     1 <1>   0.0800 
 43 H        5.6820     2.4330    -1.3960 H     1 <1>   0.0800 
 44 H        5.6740     1.0600    -2.4780 H     1 <1>   0.0800 
 45 H        5.3180     0.8430    -0.7780 H     1 <1>   0.0800 
 46 H       -0.7420    -4.1850    -2.3600 H     1 <1>   0.4500 
 47 H        2.1350     4.4930    -2.9480 H     1 <1>   0.0800 
 48 H        2.7590     6.1270    -2.8660 H     1 <1>   0.0800 
 49 H        1.4850     5.6170    -1.7790 H     1 <1>   0.0800 
 50 H       -3.2760    -4.9780    -1.0380 H     1 <1>   0.0800 
 51 H       -2.3950    -5.9460    -2.2020 H     1 <1>   0.0800 
 52 H       -3.1250    -4.4340    -2.6960 H     1 <1>   0.0800 
@<TRIPOS>BOND
  1   1   2  2   
  2   2   3  am  
  3   2   4  1   
  4   3   5  1   
  5   3  23  1   
  6   4   6  1   
  7   4   7  1   
  8   4  24  1   
  9   5   8  1   
 10   5   9  2   
 11   6  10  1   
 12   6  11  1   
 13   7  25  1   
 14   7  26  1   
 15   7  27  1   
 16   8  12  1   
 17   8  13  1   
 18   9  14  1   
 19   9  15  1   
 20  10  16  1   
 21  10  28  1   
 22  10  29  1   
 23  11  17  1   
 24  11  30  1   
 25  11  31  1   
 26  12  14  2   
 27  13  32  1   
 28  13  33  1   
 29  13  34  1   
 30  14  18  1   
 31  15  19  1   
 32  15  35  1   
 33  15  36  1   
 34  16  20  1   
 35  16  37  1   
 36  16  38  1   
 37  17  20  1   
 38  17  39  1   
 39  17  40  1   
 40  18  21  1   
 41  18  41  1   
 42  18  42  1   
 43  19  43  1   
 44  19  44  1   
 45  19  45  1   
 46  20  22  1   
 47  20  46  1   
 48  21  47  1   
 49  21  48  1   
 50  21  49  1   
 51  22  50  1   
 52  22  51  1   
 53  22  52  1   
@<TRIPOS>SUBSTRUCTURE
  1 ****   3 GROUP 4 **** **** 0

# MOE 2024.06 (io_trps.svl 2023.06)
