@<TRIPOS>MOLECULE
Untitled Document
56 59 1 0 0 
SMALL
USER_CHARGES


@<TRIPOS>ATOM
  1 F       -2.9370    -0.4480    -0.7160 F     1 <1>  -0.3400 
  2 C       -2.4970     0.7500    -0.3520 C.3   1 <1>   1.1640 
  3 F       -1.4820     0.5450     0.4760 F     1 <1>  -0.3400 
  4 F       -1.9820     1.3060    -1.4420 F     1 <1>  -0.3400 
  5 C       -3.5870     1.6210     0.2960 C.ar  1 <1>  -0.1440 
  6 C       -3.5600     3.0070     0.1750 C.ar  1 <1>  -0.1500 
  7 C       -4.6200     1.0370     1.0220 C.ar  1 <1>  -0.1500 
  8 C       -4.5390     3.8160     0.7510 C.ar  1 <1>   0.0410 
  9 C       -5.6000     1.8200     1.6010 C.ar  1 <1>  -0.1500 
 10 C       -4.4910     5.2530     0.6110 C.2   1 <1>   0.3090 
 11 C       -5.5600     3.1940     1.4640 C.ar  1 <1>  -0.1500 
 12 N       -5.5500     6.0260     0.1550 N.pl3 1 <1>  -0.4580 
 13 C       -3.4690     6.1110     0.8670 C.2   1 <1>   0.2000 
 14 N       -6.7840     5.5880    -0.2640 N.2   1 <1>  -0.2420 
 15 C       -5.1440     7.3180     0.1440 C.cat 1 <1>   0.7910 
 16 N       -3.8730     7.3860     0.5830 N.pl3 1 <1>  -0.7000 
 17 C       -7.6170     6.5130    -0.6780 C.2   1 <1>   0.4860 
 18 C       -6.0350     8.2990    -0.2970 C.2   1 <1>  -0.1410 
 19 N       -8.8530     6.0960    -1.1110 N.pl3 1 <1>  -0.8190 
 20 C       -7.2740     7.8880    -0.7100 C.2   1 <1>  -0.1360 
 21 C      -10.0970     6.6940    -0.5960 C.3   1 <1>   0.2890 
 22 C      -10.8180     5.6620     0.2690 C.3   1 <1>  -0.1600 
 23 C      -10.9700     7.1040    -1.7800 C.3   1 <1>  -0.1600 
 24 C      -12.1740     6.1950     0.7570 C.3   1 <1>  -0.1600 
 25 C      -12.3270     7.6530    -1.3110 C.3   1 <1>  -0.1600 
 26 C      -13.0900     6.6500    -0.4080 C.3   1 <1>  -0.0800 
 27 C      -14.4770     7.1820     0.0770 C.3   1 <1>   0.2800 
 28 O      -14.2860     8.3040     0.8460 O.3   1 <1>  -0.6800 
 29 C      -15.3930     7.6050    -1.0760 C.3   1 <1>  -0.2400 
 30 C      -15.2260     6.1840     0.9650 C.3   1 <1>  -0.2400 
 31 H       -2.7660     3.4710    -0.3860 H     1 <1>   0.1500 
 32 H       -4.6700    -0.0340     1.1410 H     1 <1>   0.1500 
 33 H       -6.3970     1.3560     2.1590 H     1 <1>   0.1500 
 34 H       -6.3330     3.7900     1.9170 H     1 <1>   0.1500 
 35 H       -2.4850     5.8680     1.2380 H     1 <1>   0.1500 
 36 H       -3.3240     8.2460     0.6720 H     1 <1>   0.4500 
 37 H       -5.7330     9.3290    -0.3090 H     1 <1>   0.1500 
 38 H       -8.9290     5.0760    -1.1660 H     1 <1>   0.4000 
 39 H       -8.0060     8.5850    -1.0760 H     1 <1>   0.1500 
 40 H       -9.8770     7.5630     0.0040 H     1 <1>   0.0800 
 41 H      -10.2100     5.4180     1.1220 H     1 <1>   0.0800 
 42 H      -10.9860     4.7650    -0.3010 H     1 <1>   0.0800 
 43 H      -11.1380     6.2510    -2.4150 H     1 <1>   0.0800 
 44 H      -10.4630     7.8570    -2.3560 H     1 <1>   0.0800 
 45 H      -12.0110     7.0220     1.4280 H     1 <1>   0.0800 
 46 H      -12.6490     5.4110     1.3180 H     1 <1>   0.0800 
 47 H      -12.9060     7.8800    -2.1880 H     1 <1>   0.0800 
 48 H      -12.1630     8.5710    -0.7750 H     1 <1>   0.0800 
 49 H      -13.2910     5.7780    -1.0060 H     1 <1>   0.0800 
 50 H      -13.9400     9.0200     0.2860 H     1 <1>   0.4000 
 51 H      -14.9840     8.4280    -1.6320 H     1 <1>   0.0800 
 52 H      -16.3560     7.9030    -0.7000 H     1 <1>   0.0800 
 53 H      -15.5400     6.7790    -1.7470 H     1 <1>   0.0800 
 54 H      -14.7050     6.0180     1.8890 H     1 <1>   0.0800 
 55 H      -15.3370     5.2440     0.4550 H     1 <1>   0.0800 
 56 H      -16.2070     6.5550     1.2020 H     1 <1>   0.0800 
@<TRIPOS>BOND
  1   1   2  1   
  2   2   3  1   
  3   2   4  1   
  4   2   5  1   
  5   5   6  ar  
  6   5   7  ar  
  7   6   8  ar  
  8   6  31  1   
  9   7   9  ar  
 10   7  32  1   
 11   8  10  1   
 12   8  11  ar  
 13   9  11  ar  
 14   9  33  1   
 15  10  12  1   
 16  10  13  2   
 17  11  34  1   
 18  12  14  1   
 19  12  15  ar  
 20  13  16  1   
 21  13  35  1   
 22  14  17  2   
 23  15  16  ar  
 24  15  18  1   
 25  16  36  1   
 26  17  19  1   
 27  17  20  1   
 28  18  20  2   
 29  18  37  1   
 30  19  21  1   
 31  19  38  1   
 32  20  39  1   
 33  21  22  1   
 34  21  23  1   
 35  21  40  1   
 36  22  24  1   
 37  22  41  1   
 38  22  42  1   
 39  23  25  1   
 40  23  43  1   
 41  23  44  1   
 42  24  26  1   
 43  24  45  1   
 44  24  46  1   
 45  25  26  1   
 46  25  47  1   
 47  25  48  1   
 48  26  27  1   
 49  26  49  1   
 50  27  28  1   
 51  27  29  1   
 52  27  30  1   
 53  28  50  1   
 54  29  51  1   
 55  29  52  1   
 56  29  53  1   
 57  30  54  1   
 58  30  55  1   
 59  30  56  1   
@<TRIPOS>SUBSTRUCTURE
  1 ****  14 GROUP 4 **** **** 0

# MOE 2024.06 (io_trps.svl 2023.06)
