@<TRIPOS>MOLECULE
NONAME
43 46 1 0 0 
SMALL
USER_CHARGES


@<TRIPOS>ATOM
  1 O       -0.3860     0.2190     0.9750 O.2   1 <1>  -0.5700 
  2 C       -1.4170     0.8580     0.8430 C.2   1 <1>   0.6300 
  3 N       -2.6140     0.1570     0.8310 N.am  1 <1>  -0.6600 
  4 C       -1.3600     2.2990     0.7110 C.2   1 <1>   0.4500 
  5 C       -2.6790    -1.3360     0.9450 C.3   1 <1>   0.1400 
  6 C       -3.9580     0.7770     0.6130 C.3   1 <1>   0.1400 
  7 N       -1.8340     3.1080     1.6390 N.2   1 <1>  -0.6210 
  8 C       -0.7760     2.7820    -0.5190 C.2   1 <1>   0.6300 
  9 C       -3.5110    -1.9430    -0.2010 C.3   1 <1>   0.3440 
 10 C       -4.7180     0.0600    -0.5270 C.3   1 <1>   0.2950 
 11 C       -1.6870     4.4470     1.4200 C.2   1 <1>   0.0210 
 12 O       -0.4470     2.0880    -1.4720 O.2   1 <1>  -0.5700 
 13 N       -0.6360     4.1340    -0.6720 N.am  1 <1>  -0.5390 
 14 O       -4.7650    -1.3150    -0.2760 O.3   1 <1>  -0.5600 
 15 C       -3.7010    -3.4420     0.0100 C.ar  1 <1>  -0.1440 
 16 C       -6.1700     0.5270    -0.7250 C.3   1 <1>  -0.1950 
 17 C       -1.1030     4.9720     0.3080 C.2   1 <1>  -0.0410 
 18 C       -4.7650    -3.9410     0.7490 C.ar  1 <1>  -0.1500 
 19 C       -2.7840    -4.3310    -0.5340 C.ar  1 <1>  -0.1500 
 20 C       -6.6380     1.9270    -0.4560 C.3   1 <1>  -0.2000 
 21 C       -7.1230     0.7900     0.4010 C.3   1 <1>  -0.2000 
 22 C       -4.9110    -5.3040     0.9410 C.ar  1 <1>  -0.1500 
 23 C       -2.9280    -5.6940    -0.3430 C.ar  1 <1>  -0.1500 
 24 C       -3.9920    -6.1820     0.3960 C.ar  1 <1>  -0.1500 
 25 H       -1.6940    -1.7680     0.9230 H     1 <1>   0.0800 
 26 H       -3.1300    -1.6010     1.8840 H     1 <1>   0.0800 
 27 H       -4.5240     0.7040     1.5240 H     1 <1>   0.0800 
 28 H       -3.8630     1.8190     0.3680 H     1 <1>   0.0800 
 29 H       -3.0050    -1.7800    -1.1370 H     1 <1>   0.0800 
 30 H       -4.1850     0.2120    -1.4500 H     1 <1>   0.0800 
 31 H       -2.0630     5.0930     2.1970 H     1 <1>   0.1500 
 32 H       -0.1970     4.4500    -1.5400 H     1 <1>   0.3700 
 33 H       -6.5900     0.0540    -1.5960 H     1 <1>   0.1000 
 34 H       -0.9930     6.0350     0.1630 H     1 <1>   0.1500 
 35 H       -5.4880    -3.2650     1.1740 H     1 <1>   0.1500 
 36 H       -1.9500    -3.9680    -1.1100 H     1 <1>   0.1500 
 37 H       -5.9910     2.6550     0.0000 H     1 <1>   0.1000 
 38 H       -7.3300     2.3780    -1.1470 H     1 <1>   0.1000 
 39 H       -8.1390     0.4510     0.2930 H     1 <1>   0.1000 
 40 H       -6.7800     0.7160     1.4180 H     1 <1>   0.1000 
 41 H       -5.7410    -5.6790     1.5140 H     1 <1>   0.1500 
 42 H       -2.2130    -6.3760    -0.7680 H     1 <1>   0.1500 
 43 H       -4.1050    -7.2410     0.5450 H     1 <1>   0.1500 
@<TRIPOS>BOND
  1   1   2  2   
  2   2   3  am  
  3   2   4  1   
  4   3   5  1   
  5   3   6  1   
  6   4   7  2   
  7   4   8  1   
  8   5   9  1   
  9   5  25  1   
 10   5  26  1   
 11   6  10  1   
 12   6  27  1   
 13   6  28  1   
 14   7  11  1   
 15   8  12  2   
 16   8  13  am  
 17   9  14  1   
 18   9  15  1   
 19   9  29  1   
 20  10  14  1   
 21  10  16  1   
 22  10  30  1   
 23  11  17  2   
 24  11  31  1   
 25  13  17  1   
 26  13  32  1   
 27  15  18  ar  
 28  15  19  ar  
 29  16  20  1   
 30  16  21  1   
 31  16  33  1   
 32  17  34  1   
 33  18  22  ar  
 34  18  35  1   
 35  19  23  ar  
 36  19  36  1   
 37  20  21  1   
 38  20  37  1   
 39  20  38  1   
 40  21  39  1   
 41  21  40  1   
 42  22  24  ar  
 43  22  41  1   
 44  23  24  ar  
 45  23  42  1   
 46  24  43  1   
@<TRIPOS>SUBSTRUCTURE
  1 ****   3 GROUP 4 **** **** 0

# MOE 2024.06 (io_trps.svl 2023.06)
