@<TRIPOS>MOLECULE
NONAME
48 50 1 0 0 
SMALL
USER_CHARGES


@<TRIPOS>ATOM
  1 O       -0.6840     0.4180    -0.5190 O.2   1 <1>  -0.5700 
  2 C       -1.7130     0.6380     0.0810 C.2   1 <1>   0.5690 
  3 N       -2.4980    -0.3960     0.5530 N.am  1 <1>  -0.5090 
  4 C       -2.1020     2.1140     0.2740 C.3   1 <1>  -0.0190 
  5 C       -2.0520    -1.8010     0.3690 C.3   1 <1>   0.0490 
  6 C       -3.6810    -0.2330     1.4480 C.3   1 <1>   0.2840 
  7 C       -2.7570     2.6880    -0.9960 C.3   1 <1>  -0.1600 
  8 C       -0.9260     3.0270     0.7070 C.3   1 <1>  -0.1600 
  9 C       -2.0350    -2.3420    -1.0270 C.3   1 <1>  -0.2000 
 10 C       -3.0180    -2.8750    -0.0370 C.3   1 <1>  -0.2000 
 11 C       -4.8260     0.5140     0.7660 C.ar  1 <1>  -0.1440 
 12 C       -3.4360     4.0380    -0.6990 C.3   1 <1>   0.2000 
 13 C       -1.1910     4.5270     0.4450 C.3   1 <1>  -0.1600 
 14 C       -5.2200     0.1970    -0.5270 C.ar  1 <1>  -0.1500 
 15 C       -5.4790     1.5390     1.4410 C.ar  1 <1>  -0.1500 
 16 O       -3.4930     4.7830    -1.8910 O.3   1 <1>  -0.5600 
 17 C       -2.6900     4.8500     0.3960 C.3   1 <1>   0.2000 
 18 C       -6.2310     0.9090    -1.1470 C.ar  1 <1>  -0.1500 
 19 C       -6.4920     2.2530     0.8270 C.ar  1 <1>  -0.1500 
 20 C       -4.5000     4.3940    -2.7750 C.3   1 <1>   0.0400 
 21 O       -2.8320     6.1980     0.1400 O.3   1 <1>  -0.6800 
 22 C       -6.8580     1.9400    -0.4710 C.ar  1 <1>   0.0820 
 23 O       -7.8250     2.6340    -1.0890 O.3   1 <1>  -0.5330 
 24 H       -2.8190     2.1730     1.0650 H     1 <1>   0.0800 
 25 H       -1.2240    -2.0560     1.0110 H     1 <1>   0.1000 
 26 H       -4.0390    -1.1970     1.7630 H     1 <1>   0.0800 
 27 H       -3.3700     0.2940     2.3320 H     1 <1>   0.0800 
 28 H       -3.4850     2.0010    -1.3790 H     1 <1>   0.0800 
 29 H       -1.9950     2.8170    -1.7460 H     1 <1>   0.0800 
 30 H       -0.7370     2.8690     1.7550 H     1 <1>   0.0800 
 31 H       -0.0290     2.7520     0.1780 H     1 <1>   0.0800 
 32 H       -2.3700    -1.6990    -1.8210 H     1 <1>   0.1000 
 33 H       -1.2060    -2.9610    -1.3210 H     1 <1>   0.1000 
 34 H       -2.8660    -3.8740     0.3300 H     1 <1>   0.1000 
 35 H       -4.0570    -2.6460    -0.1840 H     1 <1>   0.1000 
 36 H       -4.4410     3.8710    -0.3510 H     1 <1>   0.0800 
 37 H       -0.7590     4.7910    -0.5050 H     1 <1>   0.0800 
 38 H       -0.7130     5.1180     1.2070 H     1 <1>   0.0800 
 39 H       -4.7310    -0.5960    -1.0660 H     1 <1>   0.1500 
 40 H       -5.1990     1.7910     2.4500 H     1 <1>   0.1500 
 41 H       -3.1230     4.6510     1.3610 H     1 <1>   0.0800 
 42 H       -6.5350     0.6720    -2.1510 H     1 <1>   0.1500 
 43 H       -6.9870     3.0470     1.3570 H     1 <1>   0.1500 
 44 H       -4.4820     5.0620    -3.6170 H     1 <1>   0.0800 
 45 H       -5.4560     4.4580    -2.2820 H     1 <1>   0.0800 
 46 H       -4.3180     3.3880    -3.1100 H     1 <1>   0.0800 
 47 H       -2.9620     6.2660    -0.8340 H     1 <1>   0.4000 
 48 H       -8.2530     3.2940    -0.5150 H     1 <1>   0.4500 
@<TRIPOS>BOND
  1   1   2  2   
  2   2   3  am  
  3   2   4  1   
  4   3   5  1   
  5   3   6  1   
  6   4   7  1   
  7   4   8  1   
  8   4  24  1   
  9   5   9  1   
 10   5  10  1   
 11   5  25  1   
 12   6  11  1   
 13   6  26  1   
 14   6  27  1   
 15   7  12  1   
 16   7  28  1   
 17   7  29  1   
 18   8  13  1   
 19   8  30  1   
 20   8  31  1   
 21   9  10  1   
 22   9  32  1   
 23   9  33  1   
 24  10  34  1   
 25  10  35  1   
 26  11  14  ar  
 27  11  15  ar  
 28  12  16  1   
 29  12  17  1   
 30  12  36  1   
 31  13  17  1   
 32  13  37  1   
 33  13  38  1   
 34  14  18  ar  
 35  14  39  1   
 36  15  19  ar  
 37  15  40  1   
 38  16  20  1   
 39  17  21  1   
 40  17  41  1   
 41  18  22  ar  
 42  18  42  1   
 43  19  22  ar  
 44  19  43  1   
 45  20  44  1   
 46  20  45  1   
 47  20  46  1   
 48  21  47  1   
 49  22  23  1   
 50  23  48  1   
@<TRIPOS>SUBSTRUCTURE
  1 ****   7 GROUP 4 **** **** 0

# MOE 2024.06 (io_trps.svl 2023.06)
