@<TRIPOS>MOLECULE
NONAME
47 49 1 0 0 
SMALL
USER_CHARGES


@<TRIPOS>ATOM
  1 O       -0.9090    -0.7390    -0.2400 O.2   1 <1>  -0.5700 
  2 C       -1.0080    -1.9440    -0.3050 C.2   1 <1>   0.5690 
  3 N       -1.0990    -2.5990    -1.5140 N.am  1 <1>  -0.6600 
  4 C       -1.0140    -2.7270     1.0160 C.3   1 <1>   0.2010 
  5 C       -1.2150    -4.0840    -1.6050 C.3   1 <1>   0.1400 
  6 C       -1.1670    -1.8680    -2.8090 C.3   1 <1>   0.0600 
  7 N       -1.2000    -4.2160     0.8770 N.am  1 <1>  -0.6600 
  8 C       -0.6230    -4.7850    -0.3730 C.3   1 <1>   0.1400 
  9 C       -1.7400    -4.9560     1.9070 C.2   1 <1>   0.5440 
 10 O       -1.8860    -4.4170     2.9870 O.2   1 <1>  -0.5700 
 11 C       -2.1110    -6.3500     1.7550 C.ar  1 <1>   0.0860 
 12 C       -2.9420    -6.7850     0.7250 C.ar  1 <1>  -0.1500 
 13 C       -1.6490    -7.3080     2.6520 C.ar  1 <1>  -0.1500 
 14 C       -3.2910    -8.1140     0.5560 C.ar  1 <1>   0.1000 
 15 C       -1.9860    -8.6430     2.5180 C.ar  1 <1>  -0.1500 
 16 N       -4.1250    -8.4150    -0.5300 N.pl3 1 <1>  -0.8380 
 17 C       -2.8050    -9.0630     1.4760 C.ar  1 <1>   0.0830 
 18 C       -5.5070    -8.8430    -0.1600 C.3   1 <1>   0.2090 
 19 C       -3.5590    -9.3360    -1.5620 C.3   1 <1>   0.2090 
 20 O       -3.1620   -10.3710     1.3210 O.3   1 <1>  -0.3630 
 21 C       -6.3860    -9.0060    -1.4150 C.3   1 <1>   0.1200 
 22 C       -4.5200    -9.4730    -2.7580 C.3   1 <1>   0.1200 
 23 C       -2.8010   -11.3630     2.2570 C.3   1 <1>   0.0400 
 24 O       -5.7950    -9.8810    -2.3390 O.3   1 <1>  -0.5600 
 25 H       -1.8010    -2.3270     1.6300 H     1 <1>   0.0800 
 26 H       -0.0830    -2.5430     1.5190 H     1 <1>   0.0800 
 27 H       -0.6970    -4.4300    -2.4820 H     1 <1>   0.0800 
 28 H       -2.2530    -4.3490    -1.7020 H     1 <1>   0.0800 
 29 H       -1.1490    -0.8030    -2.6490 H     1 <1>   0.0800 
 30 H       -2.0780    -2.1200    -3.3220 H     1 <1>   0.0800 
 31 H       -0.3250    -2.1360    -3.4230 H     1 <1>   0.0800 
 32 H        0.4430    -4.6380    -0.3640 H     1 <1>   0.0800 
 33 H       -0.8020    -5.8430    -0.4400 H     1 <1>   0.0800 
 34 H       -3.3380    -6.0660     0.0330 H     1 <1>   0.1500 
 35 H       -1.0190    -6.9920     3.4660 H     1 <1>   0.1500 
 36 H       -1.5980    -9.3360     3.2400 H     1 <1>   0.1500 
 37 H       -5.9440    -8.1070     0.4910 H     1 <1>   0.0800 
 38 H       -5.4720    -9.7790     0.3690 H     1 <1>   0.0800 
 39 H       -3.3930   -10.3110    -1.1390 H     1 <1>   0.0800 
 40 H       -2.6140    -8.9520    -1.9000 H     1 <1>   0.0800 
 41 H       -6.5340    -8.0530    -1.8910 H     1 <1>   0.0800 
 42 H       -7.3430    -9.4120    -1.1450 H     1 <1>   0.0800 
 43 H       -4.1510   -10.2100    -3.4470 H     1 <1>   0.0800 
 44 H       -4.6130    -8.5320    -3.2710 H     1 <1>   0.0800 
 45 H       -3.2320   -12.2940     1.9370 H     1 <1>   0.0800 
 46 H       -3.1930   -11.0920     3.2210 H     1 <1>   0.0800 
 47 H       -1.7290   -11.4460     2.2830 H     1 <1>   0.0800 
@<TRIPOS>BOND
  1   1   2  2   
  2   2   3  am  
  3   2   4  1   
  4   3   5  1   
  5   3   6  1   
  6   4   7  1   
  7   4  25  1   
  8   4  26  1   
  9   5   8  1   
 10   5  27  1   
 11   5  28  1   
 12   6  29  1   
 13   6  30  1   
 14   6  31  1   
 15   7   8  1   
 16   7   9  am  
 17   8  32  1   
 18   8  33  1   
 19   9  10  2   
 20   9  11  1   
 21  11  12  ar  
 22  11  13  ar  
 23  12  14  ar  
 24  12  34  1   
 25  13  15  ar  
 26  13  35  1   
 27  14  16  1   
 28  14  17  ar  
 29  15  17  ar  
 30  15  36  1   
 31  16  18  1   
 32  16  19  1   
 33  17  20  1   
 34  18  21  1   
 35  18  37  1   
 36  18  38  1   
 37  19  22  1   
 38  19  39  1   
 39  19  40  1   
 40  20  23  1   
 41  21  24  1   
 42  21  41  1   
 43  21  42  1   
 44  22  24  1   
 45  22  43  1   
 46  22  44  1   
 47  23  45  1   
 48  23  46  1   
 49  23  47  1   
@<TRIPOS>SUBSTRUCTURE
  1 ****  12 GROUP 4 **** **** 0

# MOE 2024.06 (io_trps.svl 2023.06)
