@<TRIPOS>MOLECULE
NONAME
47 50 1 0 0 
SMALL
USER_CHARGES


@<TRIPOS>ATOM
  1 O       -0.6500    -0.0150    -1.5870 O.co2 1 <1>  -0.9000 
  2 C       -0.7280    -0.7640    -0.5980 C.2   1 <1>   0.9790 
  3 O        0.1000    -0.6300     0.3210 O.co2 1 <1>  -0.9000 
  4 C       -1.7620    -1.7720    -0.5160 C.ar  1 <1>  -0.1790 
  5 C       -2.6980    -1.9060    -1.5360 C.ar  1 <1>   0.1600 
  6 C       -1.8780    -2.6440     0.5620 C.ar  1 <1>  -0.1500 
  7 N       -3.6910    -2.7820    -1.5740 N.ar  1 <1>  -0.6200 
  8 C       -2.9000    -3.5600     0.5410 C.ar  1 <1>  -0.1500 
  9 C       -3.7860    -3.5990    -0.5310 C.ar  1 <1>   0.4100 
 10 N       -4.8260    -4.5080    -0.5210 N.pl3 1 <1>  -0.8380 
 11 C       -5.9120    -4.2820     0.4610 C.3   1 <1>   0.2090 
 12 C       -5.3200    -5.0400    -1.8180 C.3   1 <1>   0.2090 
 13 C       -6.6050    -5.6130     0.7520 C.3   1 <1>  -0.1600 
 14 C       -6.0150    -6.3820    -1.5810 C.3   1 <1>  -0.1600 
 15 C       -7.1390    -6.2690    -0.5370 C.3   1 <1>   0.4240 
 16 O       -8.0450    -5.3540    -1.1170 O.3   1 <1>  -0.5600 
 17 C       -7.8160    -7.6460    -0.2690 C.ar  1 <1>  -0.1430 
 18 C       -9.3540    -5.3490    -0.6530 C.3   1 <1>   0.1200 
 19 C       -7.1070    -8.7410     0.2440 C.ar  1 <1>   0.0830 
 20 C       -9.1750    -7.8160    -0.5390 C.ar  1 <1>  -0.1430 
 21 C      -10.0010    -6.6610    -1.0660 C.3   1 <1>  -0.0170 
 22 O       -5.7890    -8.5930     0.5400 O.3   1 <1>  -0.3630 
 23 C       -7.7500    -9.9600     0.4530 C.ar  1 <1>  -0.1500 
 24 C       -9.8020    -9.0320    -0.3290 C.ar  1 <1>  -0.1500 
 25 C       -4.9670    -9.6650     0.9440 C.3   1 <1>   0.0400 
 26 C       -9.0910   -10.1050     0.1650 C.ar  1 <1>  -0.1500 
 27 H       -2.6110    -1.2370    -2.3760 H     1 <1>   0.1500 
 28 H       -1.1740    -2.5840     1.3750 H     1 <1>   0.1500 
 29 H       -3.0290    -4.2590     1.3430 H     1 <1>   0.1500 
 30 H       -6.6130    -3.5730     0.0540 H     1 <1>   0.0800 
 31 H       -5.5070    -3.8720     1.3700 H     1 <1>   0.0800 
 32 H       -4.4900    -5.1710    -2.4920 H     1 <1>   0.0800 
 33 H       -6.0020    -4.3320    -2.2570 H     1 <1>   0.0800 
 34 H       -7.4030    -5.4700     1.4540 H     1 <1>   0.0800 
 35 H       -5.8850    -6.2520     1.2220 H     1 <1>   0.0800 
 36 H       -5.2640    -7.0760    -1.2640 H     1 <1>   0.0800 
 37 H       -6.4250    -6.7490    -2.5020 H     1 <1>   0.0800 
 38 H       -9.8620    -4.5160    -1.1070 H     1 <1>   0.0800 
 39 H       -9.3570    -5.2290     0.4150 H     1 <1>   0.0800 
 40 H      -10.0580    -6.7120    -2.1390 H     1 <1>   0.0800 
 41 H      -10.9990    -6.7020    -0.6690 H     1 <1>   0.0800 
 42 H       -7.2270   -10.8110     0.8430 H     1 <1>   0.1500 
 43 H      -10.8490    -9.1490    -0.5500 H     1 <1>   0.1500 
 44 H       -3.9650    -9.2910     1.0560 H     1 <1>   0.0800 
 45 H       -4.9890   -10.4270     0.1850 H     1 <1>   0.0800 
 46 H       -5.3230   -10.0430     1.8850 H     1 <1>   0.0800 
 47 H       -9.5820   -11.0490     0.3270 H     1 <1>   0.1500 
@<TRIPOS>BOND
  1   1   2  ar  
  2   2   3  ar  
  3   2   4  1   
  4   4   5  ar  
  5   4   6  ar  
  6   5   7  ar  
  7   5  27  1   
  8   6   8  ar  
  9   6  28  1   
 10   7   9  ar  
 11   8   9  ar  
 12   8  29  1   
 13   9  10  1   
 14  10  11  1   
 15  10  12  1   
 16  11  13  1   
 17  11  30  1   
 18  11  31  1   
 19  12  14  1   
 20  12  32  1   
 21  12  33  1   
 22  13  15  1   
 23  13  34  1   
 24  13  35  1   
 25  14  15  1   
 26  14  36  1   
 27  14  37  1   
 28  15  16  1   
 29  15  17  1   
 30  16  18  1   
 31  17  19  ar  
 32  17  20  ar  
 33  18  21  1   
 34  18  38  1   
 35  18  39  1   
 36  19  22  1   
 37  19  23  ar  
 38  20  21  1   
 39  20  24  ar  
 40  21  40  1   
 41  21  41  1   
 42  22  25  1   
 43  23  26  ar  
 44  23  42  1   
 45  24  26  ar  
 46  24  43  1   
 47  25  44  1   
 48  25  45  1   
 49  25  46  1   
 50  26  47  1   
@<TRIPOS>SUBSTRUCTURE
  1 ****  10 GROUP 4 **** **** 0

# MOE 2024.06 (io_trps.svl 2023.06)
