@<TRIPOS>MOLECULE
NONAME
46 48 1 0 0 
SMALL
USER_CHARGES


@<TRIPOS>ATOM
  1 F        0.7050     2.0220     1.9400 F     1 <1>  -0.1900 
  2 C        1.6430     1.8200     1.0490 C.ar  1 <1>   0.1900 
  3 C        2.1620     2.8770     0.2950 C.ar  1 <1>   0.0820 
  4 C        2.0960     0.5230     0.9220 C.ar  1 <1>  -0.1500 
  5 O        1.7180     4.1610     0.3770 O.3   1 <1>  -0.3630 
  6 C        3.2060     2.6070    -0.6020 C.ar  1 <1>   0.0860 
  7 C        3.1060     0.2550     0.0170 C.ar  1 <1>  -0.1500 
  8 C        0.3630     4.4720     0.6330 C.3   1 <1>   0.0400 
  9 C        3.8290     3.6380    -1.4100 C.2   1 <1>   0.5440 
 10 C        3.6460     1.2860    -0.7290 C.ar  1 <1>  -0.1500 
 11 O        3.9320     3.4630    -2.6090 O.2   1 <1>  -0.5700 
 12 N        4.3830     4.7910    -0.8860 N.am  1 <1>  -0.6600 
 13 C        4.8300     4.8740     0.5570 C.3   1 <1>   0.2200 
 14 C        4.5860     5.9760    -1.7870 C.3   1 <1>   0.1400 
 15 C        4.2420     6.0980     1.2770 C.3   1 <1>   0.1200 
 16 C        6.3720     4.8260     0.6750 C.3   1 <1>   0.3430 
 17 C        5.5440     7.0610    -1.2620 C.3   1 <1>  -0.0800 
 18 O        5.0420     7.2270     1.1010 O.3   1 <1>  -0.5600 
 19 N        7.0510     5.1200    -0.6320 N.4   1 <1>  -0.9590 
 20 C        4.9280     7.8800    -0.1180 C.3   1 <1>   0.1200 
 21 C        6.9740     6.5790    -0.9430 C.3   1 <1>   0.3430 
 22 C        8.5120     4.7060    -0.5380 C.3   1 <1>   0.2370 
 23 C        9.2990     5.4050     0.5740 C.2   1 <1>   0.9060 
 24 O        9.8410     6.4810     0.3090 O.co2 1 <1>  -0.9000 
 25 O        9.2400     4.9210     1.7080 O.co2 1 <1>  -0.9000 
 26 H        1.6650    -0.2620     1.5190 H     1 <1>   0.1500 
 27 H        3.4670    -0.7530    -0.1060 H     1 <1>   0.1500 
 28 H        0.1810     5.4780     0.3010 H     1 <1>   0.0800 
 29 H        0.1800     4.4030     1.6910 H     1 <1>   0.0800 
 30 H       -0.2660     3.7880     0.0900 H     1 <1>   0.0800 
 31 H        4.4270     1.0690    -1.4390 H     1 <1>   0.1500 
 32 H        4.4560     4.0190     1.0890 H     1 <1>   0.0800 
 33 H        4.9610     5.6320    -2.7360 H     1 <1>   0.0800 
 34 H        3.6220     6.4170    -1.9770 H     1 <1>   0.0800 
 35 H        4.2240     5.9040     2.3350 H     1 <1>   0.0800 
 36 H        3.2360     6.3030     0.9550 H     1 <1>   0.0800 
 37 H        6.6580     3.8420     1.0060 H     1 <1>   0.0800 
 38 H        6.7080     5.5190     1.4320 H     1 <1>   0.0800 
 39 H        5.6500     7.7650    -2.0670 H     1 <1>   0.0800 
 40 H        6.5430     4.5960    -1.3580 H     1 <1>   0.4500 
 41 H        3.8900     8.1050    -0.3010 H     1 <1>   0.0800 
 42 H        5.4590     8.8110    -0.0150 H     1 <1>   0.0800 
 43 H        7.3750     7.1470    -0.1160 H     1 <1>   0.0800 
 44 H        7.6010     6.7780    -1.7960 H     1 <1>   0.0800 
 45 H        8.5790     3.6500    -0.3540 H     1 <1>   0.0800 
 46 H        9.0130     4.9220    -1.4640 H     1 <1>   0.0800 
@<TRIPOS>BOND
  1   1   2  1   
  2   2   3  ar  
  3   2   4  ar  
  4   3   5  1   
  5   3   6  ar  
  6   4   7  ar  
  7   4  26  1   
  8   5   8  1   
  9   6   9  1   
 10   6  10  ar  
 11   7  10  ar  
 12   7  27  1   
 13   8  28  1   
 14   8  29  1   
 15   8  30  1   
 16   9  11  2   
 17   9  12  am  
 18  10  31  1   
 19  12  13  1   
 20  12  14  1   
 21  13  15  1   
 22  13  16  1   
 23  13  32  1   
 24  14  17  1   
 25  14  33  1   
 26  14  34  1   
 27  15  18  1   
 28  15  35  1   
 29  15  36  1   
 30  16  19  1   
 31  16  37  1   
 32  16  38  1   
 33  17  20  1   
 34  17  21  1   
 35  17  39  1   
 36  18  20  1   
 37  19  21  1   
 38  19  22  1   
 39  19  40  1   
 40  20  41  1   
 41  20  42  1   
 42  21  43  1   
 43  21  44  1   
 44  22  23  1   
 45  22  45  1   
 46  22  46  1   
 47  23  24  ar  
 48  23  25  ar  
@<TRIPOS>SUBSTRUCTURE
  1 ****  13 GROUP 4 **** **** 0

# MOE 2024.06 (io_trps.svl 2023.06)
