@<TRIPOS>MOLECULE
NONAME
51 54 1 0 0 
SMALL
USER_CHARGES


@<TRIPOS>ATOM
  1 S        1.2920     1.4080     1.3440 S.3   1 <1>  -0.2820 
  2 C        2.1810     1.9570    -0.0490 C.2   1 <1>   0.6510 
  3 C        1.2230    -0.2140     0.6580 C.2   1 <1>   0.5300 
  4 N        2.5910     3.1780    -0.1930 N.2   1 <1>  -0.6210 
  5 N        2.3520     0.8960    -0.8970 N.am  1 <1>  -0.0580 
  6 N        1.7980    -0.3210    -0.4680 N.2   1 <1>  -0.5120 
  7 C        0.4970    -1.2590     1.4910 C.3   1 <1>  -0.0990 
  8 C        3.2740     3.4370    -1.3530 C.2   1 <1>   0.0330 
  9 C        3.0550     1.1370    -2.0670 C.2   1 <1>   0.6160 
 10 C        0.4750    -2.6540     0.8450 C.3   1 <1>  -0.2400 
 11 C        3.5130     2.4640    -2.2730 C.2   1 <1>  -0.1360 
 12 C        3.7480     4.8780    -1.5360 C.3   1 <1>   0.4810 
 13 O        3.2860     0.2630    -2.8880 O.2   1 <1>  -0.5700 
 14 N        4.3050     5.3500    -0.2400 N.4   1 <1>  -0.9590 
 15 C        4.1670     6.8240    -0.0580 C.3   1 <1>   0.4230 
 16 C        5.6750     4.8260     0.0060 C.3   1 <1>   0.3430 
 17 C        5.2030     7.3620     0.9520 C.3   1 <1>  -0.1600 
 18 C        2.7220     7.1360     0.3780 C.3   1 <1>  -0.1600 
 19 C        6.0410     5.0330     1.4800 C.3   1 <1>  -0.1600 
 20 C        5.5200     6.3570     2.0690 C.3   1 <1>  -0.1600 
 21 C        2.1280     8.3590    -0.3420 C.3   1 <1>   0.0200 
 22 C        3.0150     9.5850    -0.2410 C.2   1 <1>  -0.1400 
 23 S        4.2130     9.8440    -1.5030 S.3   1 <1>  -0.0800 
 24 C        3.0650    10.5800     0.6640 C.2   1 <1>  -0.1500 
 25 C        4.7640    11.3240    -0.7390 C.2   1 <1>  -0.1100 
 26 C        4.0620    11.5670     0.3830 C.2   1 <1>  -0.1500 
 27 H       -0.5140    -0.9280     1.6470 H     1 <1>   0.0800 
 28 H        0.9760    -1.3230     2.4510 H     1 <1>   0.0800 
 29 H       -0.0200    -2.6180    -0.1110 H     1 <1>   0.0800 
 30 H       -0.0500    -3.3490     1.4770 H     1 <1>   0.0800 
 31 H        1.4780    -3.0150     0.6960 H     1 <1>   0.0800 
 32 H        4.0470     2.6350    -3.1900 H     1 <1>   0.1500 
 33 H        2.8970     5.4820    -1.8060 H     1 <1>   0.0800 
 34 H        4.4840     4.9490    -2.3190 H     1 <1>   0.0800 
 35 H        3.7000     4.8970     0.4640 H     1 <1>   0.4500 
 36 H        4.3490     7.3060    -1.0050 H     1 <1>   0.0800 
 37 H        6.3780     5.3570    -0.6160 H     1 <1>   0.0800 
 38 H        5.7310     3.7760    -0.2330 H     1 <1>   0.0800 
 39 H        4.8610     8.2880     1.3820 H     1 <1>   0.0800 
 40 H        6.1080     7.5980     0.4210 H     1 <1>   0.0800 
 41 H        2.6950     7.3220     1.4380 H     1 <1>   0.0800 
 42 H        2.0690     6.3030     0.1910 H     1 <1>   0.0800 
 43 H        7.1140     5.0050     1.5610 H     1 <1>   0.0800 
 44 H        5.6630     4.2100     2.0630 H     1 <1>   0.0800 
 45 H        4.6260     6.1690     2.6390 H     1 <1>   0.0800 
 46 H        6.2510     6.7710     2.7440 H     1 <1>   0.0800 
 47 H        1.1740     8.5900     0.1000 H     1 <1>   0.0800 
 48 H        1.9520     8.1360    -1.3800 H     1 <1>   0.0800 
 49 H        2.4350    10.6730     1.5330 H     1 <1>   0.1500 
 50 H        5.5620    11.8650    -1.2170 H     1 <1>   0.1500 
 51 H        4.2010    12.4130     1.0350 H     1 <1>   0.1500 
@<TRIPOS>BOND
  1   1   2  1   
  2   1   3  1   
  3   2   4  2   
  4   2   5  1   
  5   3   6  2   
  6   3   7  1   
  7   4   8  1   
  8   5   6  1   
  9   5   9  am  
 10   7  10  1   
 11   7  27  1   
 12   7  28  1   
 13   8  11  2   
 14   8  12  1   
 15   9  11  1   
 16   9  13  2   
 17  10  29  1   
 18  10  30  1   
 19  10  31  1   
 20  11  32  1   
 21  12  14  1   
 22  12  33  1   
 23  12  34  1   
 24  14  15  1   
 25  14  16  1   
 26  14  35  1   
 27  15  17  1   
 28  15  18  1   
 29  15  36  1   
 30  16  19  1   
 31  16  37  1   
 32  16  38  1   
 33  17  20  1   
 34  17  39  1   
 35  17  40  1   
 36  18  21  1   
 37  18  41  1   
 38  18  42  1   
 39  19  20  1   
 40  19  43  1   
 41  19  44  1   
 42  20  45  1   
 43  20  46  1   
 44  21  22  1   
 45  21  47  1   
 46  21  48  1   
 47  22  23  1   
 48  22  24  2   
 49  23  25  1   
 50  24  26  1   
 51  24  49  1   
 52  25  26  2   
 53  25  50  1   
 54  26  51  1   
@<TRIPOS>SUBSTRUCTURE
  1 ****  14 GROUP 4 **** **** 0

# MOE 2024.06 (io_trps.svl 2023.06)
