@<TRIPOS>MOLECULE
NONAME
50 53 1 0 0 
SMALL
USER_CHARGES


@<TRIPOS>ATOM
  1 O       -0.7110     0.1520     1.0400 O.2   1 <1>  -0.5700 
  2 C       -1.6200     0.8300     0.5950 C.2   1 <1>   0.7150 
  3 N       -2.7820     0.1700     0.2390 N.am  1 <1>  -0.6600 
  4 C       -1.4410     2.2630     0.4500 C.2   1 <1>   0.0550 
  5 C       -3.9080     0.7410    -0.5470 C.3   1 <1>   0.1400 
  6 C       -2.9060    -1.3110     0.3030 C.3   1 <1>   0.1400 
  7 O       -2.4790     3.0920     0.4390 O.3   1 <1>  -0.2800 
  8 C       -0.3130     2.9980     0.3260 C.2   1 <1>   0.0460 
  9 C       -4.9170    -0.4000    -0.6690 C.3   1 <1>   0.2000 
 10 C       -4.0470    -1.6620    -0.6590 C.3   1 <1>  -0.0800 
 11 C       -1.9020     4.2690     0.3110 C.2   1 <1>   0.2980 
 12 N       -0.6230     4.2850     0.2350 N.2   1 <1>  -0.5650 
 13 C        1.1460     2.5880     0.2790 C.3   1 <1>  -0.0590 
 14 O       -5.7260    -0.3790     0.4580 O.3   1 <1>  -0.6800 
 15 C       -4.8000    -2.9600    -0.2960 C.3   1 <1>  -0.0170 
 16 C       -2.8180     5.4840     0.2690 C.3   1 <1>   0.0200 
 17 C       -4.0070    -4.2690    -0.4020 C.ar  1 <1>  -0.1440 
 18 C       -2.0760     6.8190     0.1060 C.3   1 <1>  -0.2400 
 19 C       -4.5580    -5.4670     0.1190 C.ar  1 <1>   0.0000 
 20 C       -2.7760    -4.3620    -0.9910 C.ar  1 <1>  -0.1500 
 21 C       -3.7900    -6.6530     0.0200 C.ar  1 <1>   0.3100 
 22 C       -5.8330    -5.5600     0.7280 C.ar  1 <1>  -0.1500 
 23 C       -2.1020    -5.5880    -1.0410 C.ar  1 <1>   0.1600 
 24 N       -2.5660    -6.6960    -0.5610 N.ar  1 <1>  -0.6200 
 25 C       -4.3100    -7.8500     0.5390 C.ar  1 <1>  -0.1500 
 26 C       -6.3120    -6.7430     1.2220 C.ar  1 <1>  -0.1500 
 27 C       -5.5430    -7.9050     1.1290 C.ar  1 <1>  -0.1500 
 28 H       -4.3510     1.5930    -0.0610 H     1 <1>   0.0800 
 29 H       -3.5490     1.0240    -1.5210 H     1 <1>   0.0800 
 30 H       -1.9830    -1.7870     0.0190 H     1 <1>   0.0800 
 31 H       -3.1510    -1.5970     1.3120 H     1 <1>   0.0800 
 32 H       -5.5440    -0.3190    -1.5400 H     1 <1>   0.0800 
 33 H       -3.6360    -1.7630    -1.6470 H     1 <1>   0.0800 
 34 H        1.2560     1.5200     0.2780 H     1 <1>   0.0800 
 35 H        1.6580     2.9880     1.1350 H     1 <1>   0.0800 
 36 H        1.6010     2.9810    -0.6110 H     1 <1>   0.0800 
 37 H       -5.1620    -0.2690     1.2510 H     1 <1>   0.4000 
 38 H       -5.6650    -3.0420    -0.9320 H     1 <1>   0.0800 
 39 H       -5.1530    -2.8660     0.7160 H     1 <1>   0.0800 
 40 H       -3.5040     5.3600    -0.5490 H     1 <1>   0.0800 
 41 H       -3.3880     5.5060     1.1800 H     1 <1>   0.0800 
 42 H       -1.5110     6.8190    -0.8100 H     1 <1>   0.0800 
 43 H       -1.3960     6.9660     0.9270 H     1 <1>   0.0800 
 44 H       -2.7760     7.6350     0.0830 H     1 <1>   0.0800 
 45 H       -2.2760    -3.5250    -1.4350 H     1 <1>   0.1500 
 46 H       -6.4500    -4.6850     0.8070 H     1 <1>   0.1500 
 47 H       -1.1330    -5.6100    -1.5110 H     1 <1>   0.1500 
 48 H       -3.7000    -8.7300     0.4530 H     1 <1>   0.1500 
 49 H       -7.2830    -6.7960     1.6840 H     1 <1>   0.1500 
 50 H       -5.9290    -8.8290     1.5220 H     1 <1>   0.1500 
@<TRIPOS>BOND
  1   1   2  2   
  2   2   3  am  
  3   2   4  1   
  4   3   5  1   
  5   3   6  1   
  6   4   7  1   
  7   4   8  2   
  8   5   9  1   
  9   5  28  1   
 10   5  29  1   
 11   6  10  1   
 12   6  30  1   
 13   6  31  1   
 14   7  11  1   
 15   8  12  1   
 16   8  13  1   
 17   9  10  1   
 18   9  14  1   
 19   9  32  1   
 20  10  15  1   
 21  10  33  1   
 22  11  12  2   
 23  11  16  1   
 24  13  34  1   
 25  13  35  1   
 26  13  36  1   
 27  14  37  1   
 28  15  17  1   
 29  15  38  1   
 30  15  39  1   
 31  16  18  1   
 32  16  40  1   
 33  16  41  1   
 34  17  19  ar  
 35  17  20  ar  
 36  18  42  1   
 37  18  43  1   
 38  18  44  1   
 39  19  21  ar  
 40  19  22  ar  
 41  20  23  ar  
 42  20  45  1   
 43  21  24  ar  
 44  21  25  ar  
 45  22  26  ar  
 46  22  46  1   
 47  23  24  ar  
 48  23  47  1   
 49  25  27  ar  
 50  25  48  1   
 51  26  27  ar  
 52  26  49  1   
 53  27  50  1   
@<TRIPOS>SUBSTRUCTURE
  1 ****   6 GROUP 4 **** **** 0

# MOE 2024.06 (io_trps.svl 2023.06)
