@<TRIPOS>MOLECULE
NONAME
55 57 1 0 0 
SMALL
USER_CHARGES


@<TRIPOS>ATOM
  1 S       -1.2290     1.0300     2.0770 S.3   1 <1>  -0.0800 
  2 C       -1.7210     1.5480     0.4750 C.2   1 <1>  -0.1400 
  3 C       -1.4850    -0.6520     1.6640 C.2   1 <1>  -0.1100 
  4 C       -2.0510     0.4840    -0.2830 C.2   1 <1>  -0.1500 
  5 C       -1.6810     3.0430     0.2260 C.3   1 <1>   0.5230 
  6 C       -1.9090    -0.7790     0.3880 C.2   1 <1>  -0.1810 
  7 N       -0.2570     3.4500     0.2940 N.4   1 <1>  -0.9590 
  8 C       -2.2350    -2.0740    -0.3440 C.3   1 <1>   0.5240 
  9 C        0.5330     3.0130    -0.8960 C.3   1 <1>   0.3430 
 10 C       -0.0430     4.8950     0.6250 C.3   1 <1>   0.3430 
 11 N       -1.4490    -3.2070     0.2220 N.4   1 <1>  -0.9590 
 12 C        2.0190     3.0090    -0.5130 C.3   1 <1>   0.2000 
 13 C        1.3690     5.3730     0.2310 C.3   1 <1>  -0.1600 
 14 C        0.0210    -3.0350    -0.0210 C.3   1 <1>   0.2630 
 15 C       -1.9270    -4.5180    -0.3150 C.3   1 <1>   0.2630 
 16 O        2.2540     1.8730     0.2490 O.3   1 <1>  -0.6800 
 17 C        2.3990     4.2420     0.3490 C.3   1 <1>   0.2200 
 18 N        3.7560     4.7260     0.0140 N.am  1 <1>  -0.7300 
 19 C        4.9000     4.0160     0.2620 C.2   1 <1>   0.5440 
 20 O        4.7770     2.8770     0.6740 O.2   1 <1>  -0.5700 
 21 C        6.2120     4.5910     0.0150 C.ar  1 <1>   0.0860 
 22 C        6.4470     5.9650     0.1020 C.ar  1 <1>  -0.1500 
 23 C        7.2940     3.7780    -0.3230 C.ar  1 <1>  -0.1500 
 24 C        7.6960     6.5010    -0.1530 C.ar  1 <1>  -0.1500 
 25 C        8.5460     4.3070    -0.5780 C.ar  1 <1>  -0.1500 
 26 C        8.7480     5.6720    -0.4960 C.ar  1 <1>  -0.1500 
 27 H       -1.2830    -1.3620     2.4470 H     1 <1>   0.1500 
 28 H       -2.3920     0.5350    -1.3050 H     1 <1>   0.1500 
 29 H       -2.2530     3.5430     0.9910 H     1 <1>   0.0800 
 30 H       -2.1000     3.2820    -0.7380 H     1 <1>   0.0800 
 31 H        0.1410     2.8810     1.0630 H     1 <1>   0.4500 
 32 H       -2.0010    -1.9620    -1.3910 H     1 <1>   0.0800 
 33 H       -3.2910    -2.2710    -0.2540 H     1 <1>   0.0800 
 34 H        0.2530     2.0200    -1.2070 H     1 <1>   0.0800 
 35 H        0.3690     3.6930    -1.7160 H     1 <1>   0.0800 
 36 H       -0.7710     5.5060     0.1150 H     1 <1>   0.0800 
 37 H       -0.1810     5.0340     1.6860 H     1 <1>   0.0800 
 38 H       -1.6110    -3.1930     1.2380 H     1 <1>   0.4500 
 39 H        2.6280     2.9480    -1.4000 H     1 <1>   0.0800 
 40 H        1.6470     6.1900     0.8730 H     1 <1>   0.0800 
 41 H        1.3460     5.7410    -0.7800 H     1 <1>   0.0800 
 42 H        0.2310    -3.0340    -1.0780 H     1 <1>   0.0800 
 43 H        0.5730    -3.8390     0.4390 H     1 <1>   0.0800 
 44 H        0.3660    -2.1030     0.3980 H     1 <1>   0.0800 
 45 H       -1.7820    -4.5650    -1.3830 H     1 <1>   0.0800 
 46 H       -2.9750    -4.6530    -0.1020 H     1 <1>   0.0800 
 47 H       -1.3810    -5.3300     0.1400 H     1 <1>   0.0800 
 48 H        3.2130     1.8910     0.5240 H     1 <1>   0.4000 
 49 H        2.4130     3.9370     1.3840 H     1 <1>   0.0800 
 50 H        3.8370     5.6600    -0.3930 H     1 <1>   0.3700 
 51 H        5.6490     6.6290     0.3820 H     1 <1>   0.1500 
 52 H        7.1490     2.7120    -0.3860 H     1 <1>   0.1500 
 53 H        7.8560     7.5640    -0.0820 H     1 <1>   0.1500 
 54 H        9.3640     3.6570    -0.8400 H     1 <1>   0.1500 
 55 H        9.7220     6.0870    -0.6950 H     1 <1>   0.1500 
@<TRIPOS>BOND
  1   1   2  1   
  2   1   3  1   
  3   2   4  2   
  4   2   5  1   
  5   3   6  2   
  6   3  27  1   
  7   4   6  1   
  8   4  28  1   
  9   5   7  1   
 10   5  29  1   
 11   5  30  1   
 12   6   8  1   
 13   7   9  1   
 14   7  10  1   
 15   7  31  1   
 16   8  11  1   
 17   8  32  1   
 18   8  33  1   
 19   9  12  1   
 20   9  34  1   
 21   9  35  1   
 22  10  13  1   
 23  10  36  1   
 24  10  37  1   
 25  11  14  1   
 26  11  15  1   
 27  11  38  1   
 28  12  16  1   
 29  12  17  1   
 30  12  39  1   
 31  13  17  1   
 32  13  40  1   
 33  13  41  1   
 34  14  42  1   
 35  14  43  1   
 36  14  44  1   
 37  15  45  1   
 38  15  46  1   
 39  15  47  1   
 40  16  48  1   
 41  17  18  1   
 42  17  49  1   
 43  18  19  am  
 44  18  50  1   
 45  19  20  2   
 46  19  21  1   
 47  21  22  ar  
 48  21  23  ar  
 49  22  24  ar  
 50  22  51  1   
 51  23  25  ar  
 52  23  52  1   
 53  24  26  ar  
 54  24  53  1   
 55  25  26  ar  
 56  25  54  1   
 57  26  55  1   
@<TRIPOS>SUBSTRUCTURE
  1 ****  16 GROUP 4 **** **** 0

# MOE 2024.06 (io_trps.svl 2023.06)
