@<TRIPOS>MOLECULE
NONAME
57 60 1 0 0 
SMALL
USER_CHARGES


@<TRIPOS>ATOM
  1 O       -0.3320     0.5670    -2.2830 O.2   1 <1>  -0.5700 
  2 C       -1.3170     0.9230    -1.6630 C.2   1 <1>   0.6900 
  3 N       -2.4970     0.2310    -1.7750 N.am  1 <1>  -0.6600 
  4 N       -1.2720     1.9930    -0.8200 N.am  1 <1>  -0.5470 
  5 C       -2.5440    -1.1420    -2.3450 C.3   1 <1>   0.1400 
  6 C       -3.8330     0.7570    -1.3850 C.3   1 <1>   0.1400 
  7 C       -0.2890     2.9410    -0.4880 C.ar  1 <1>   0.1170 
  8 C       -3.1400    -2.0960    -1.3040 C.3   1 <1>  -0.1600 
  9 C       -4.4340    -0.1570    -0.3140 C.3   1 <1>  -0.1600 
 10 C       -0.4990     3.7360     0.6450 C.ar  1 <1>   0.0830 
 11 C        0.8670     3.1320    -1.2360 C.ar  1 <1>  -0.1500 
 12 C       -4.5140    -1.6220    -0.7930 C.3   1 <1>   0.4240 
 13 O       -1.6540     3.5240     1.3480 O.3   1 <1>  -0.3630 
 14 C        0.4440     4.6910     1.0110 C.ar  1 <1>  -0.1500 
 15 C        1.8020     4.0830    -0.8670 C.ar  1 <1>  -0.1500 
 16 O       -5.3200    -1.6230    -1.9520 O.3   1 <1>  -0.5600 
 17 C       -5.0770    -2.5790     0.2980 C.ar  1 <1>  -0.1430 
 18 C       -1.9110     4.2000     2.5550 C.3   1 <1>   0.1200 
 19 C        1.5920     4.8620     0.2560 C.ar  1 <1>  -0.1500 
 20 C       -6.6980    -1.6880    -1.7890 C.3   1 <1>   0.1200 
 21 C       -4.4210    -2.7880     1.5190 C.ar  1 <1>   0.0830 
 22 C       -6.2730    -3.2620     0.0730 C.ar  1 <1>  -0.1430 
 23 C       -3.2380     3.6850     3.1060 C.3   1 <1>  -0.2400 
 24 C       -7.0410    -3.0530    -1.2160 C.3   1 <1>  -0.0170 
 25 O       -3.2680    -2.1150     1.7700 O.3   1 <1>  -0.3630 
 26 C       -4.9520    -3.6680     2.4600 C.ar  1 <1>  -0.1500 
 27 C       -6.7890    -4.1370     1.0140 C.ar  1 <1>  -0.1500 
 28 C       -2.4490    -2.3860     2.8860 C.3   1 <1>   0.0400 
 29 C       -6.1290    -4.3420     2.2070 C.ar  1 <1>  -0.1500 
 30 H       -2.0690     2.0330    -0.1920 H     1 <1>   0.3700 
 31 H       -1.5580    -1.4770    -2.6160 H     1 <1>   0.0800 
 32 H       -3.1510    -1.1350    -3.2350 H     1 <1>   0.0800 
 33 H       -4.4680     0.7680    -2.2550 H     1 <1>   0.0800 
 34 H       -3.7660     1.7650    -1.0170 H     1 <1>   0.0800 
 35 H       -2.4370    -2.1700    -0.4990 H     1 <1>   0.0800 
 36 H       -3.2440    -3.0770    -1.7270 H     1 <1>   0.0800 
 37 H       -5.4090     0.1920    -0.0340 H     1 <1>   0.0800 
 38 H       -3.8160    -0.0830     0.5590 H     1 <1>   0.0800 
 39 H        1.0430     2.5380    -2.1140 H     1 <1>   0.1500 
 40 H        0.3090     5.3140     1.8750 H     1 <1>   0.1500 
 41 H        2.6920     4.2130    -1.4580 H     1 <1>   0.1500 
 42 H       -1.9670     5.2550     2.3510 H     1 <1>   0.0800 
 43 H       -1.1080     3.9920     3.2420 H     1 <1>   0.0800 
 44 H        2.3210     5.6010     0.5400 H     1 <1>   0.1500 
 45 H       -7.1520    -1.5580    -2.7560 H     1 <1>   0.0800 
 46 H       -7.0200    -0.8970    -1.1350 H     1 <1>   0.0800 
 47 H       -4.0310     3.8850     2.4080 H     1 <1>   0.0800 
 48 H       -3.4640     4.1810     4.0320 H     1 <1>   0.0800 
 49 H       -3.1760     2.6280     3.2890 H     1 <1>   0.0800 
 50 H       -6.7790    -3.8180    -1.9250 H     1 <1>   0.0800 
 51 H       -8.0990    -3.1040    -1.0340 H     1 <1>   0.0800 
 52 H       -4.4660    -3.8430     3.4000 H     1 <1>   0.1500 
 53 H       -7.7080    -4.6630     0.8220 H     1 <1>   0.1500 
 54 H       -1.5660    -1.7780     2.8060 H     1 <1>   0.0800 
 55 H       -2.1780    -3.4270     2.8750 H     1 <1>   0.0800 
 56 H       -2.9860    -2.1340     3.7830 H     1 <1>   0.0800 
 57 H       -6.5320    -5.0230     2.9370 H     1 <1>   0.1500 
@<TRIPOS>BOND
  1   1   2  2   
  2   2   3  am  
  3   2   4  am  
  4   3   5  1   
  5   3   6  1   
  6   4   7  1   
  7   4  30  1   
  8   5   8  1   
  9   5  31  1   
 10   5  32  1   
 11   6   9  1   
 12   6  33  1   
 13   6  34  1   
 14   7  10  ar  
 15   7  11  ar  
 16   8  12  1   
 17   8  35  1   
 18   8  36  1   
 19   9  12  1   
 20   9  37  1   
 21   9  38  1   
 22  10  13  1   
 23  10  14  ar  
 24  11  15  ar  
 25  11  39  1   
 26  12  16  1   
 27  12  17  1   
 28  13  18  1   
 29  14  19  ar  
 30  14  40  1   
 31  15  19  ar  
 32  15  41  1   
 33  16  20  1   
 34  17  21  ar  
 35  17  22  ar  
 36  18  23  1   
 37  18  42  1   
 38  18  43  1   
 39  19  44  1   
 40  20  24  1   
 41  20  45  1   
 42  20  46  1   
 43  21  25  1   
 44  21  26  ar  
 45  22  24  1   
 46  22  27  ar  
 47  23  47  1   
 48  23  48  1   
 49  23  49  1   
 50  24  50  1   
 51  24  51  1   
 52  25  28  1   
 53  26  29  ar  
 54  26  52  1   
 55  27  29  ar  
 56  27  53  1   
 57  28  54  1   
 58  28  55  1   
 59  28  56  1   
 60  29  57  1   
@<TRIPOS>SUBSTRUCTURE
  1 ****   9 GROUP 4 **** **** 0

# MOE 2024.06 (io_trps.svl 2023.06)
