@<TRIPOS>MOLECULE
NONAME
45 49 1 0 0 
SMALL
USER_CHARGES


@<TRIPOS>ATOM
  1 S        0.0630     0.9190    -2.3830 S.3   1 <1>  -0.0800 
  2 C       -1.0300     1.4160    -1.1000 C.2   1 <1>  -0.1400 
  3 C       -1.1270    -0.2220    -2.9960 C.2   1 <1>  -0.1100 
  4 C       -2.1900     0.7530    -1.1820 C.2   1 <1>  -0.1810 
  5 C       -0.6580     2.4670    -0.0600 C.3   1 <1>   0.4600 
  6 C       -2.2530    -0.1890    -2.2570 C.2   1 <1>  -0.1500 
  7 C       -3.2860     1.0400    -0.1800 C.3   1 <1>   0.0210 
  8 O       -1.6830     2.5190     0.9150 O.3   1 <1>  -0.5600 
  9 C       -0.4990     3.8550    -0.6940 C.3   1 <1>  -0.1600 
 10 C        0.6220     2.0740     0.6830 C.3   1 <1>  -0.1600 
 11 C       -3.0190     2.4070     0.4800 C.3   1 <1>   0.1200 
 12 C       -0.0790     4.9080     0.3330 C.3   1 <1>   0.1400 
 13 C        1.0230     3.1350     1.7070 C.3   1 <1>   0.1400 
 14 N        1.1620     4.4570     1.0290 N.am  1 <1>  -0.6600 
 15 C        2.3450     5.1780     1.0690 C.2   1 <1>   0.7150 
 16 O        3.3650     4.5710     1.3590 O.2   1 <1>  -0.5700 
 17 C        2.4350     6.5860     0.7760 C.2   1 <1>   0.1020 
 18 N        1.5060     7.5000     0.9520 N.2   1 <1>  -0.3380 
 19 N        3.5510     7.1500     0.2770 N.pl3 1 <1>   0.3340 
 20 N        1.9880     8.6640     0.5590 N.2   1 <1>  -0.3380 
 21 C        3.2120     8.4560     0.1560 C.2   1 <1>   0.3120 
 22 C        4.8120     6.7340    -0.1220 C.2   1 <1>  -0.1810 
 23 N        4.0630     9.4130    -0.3390 N.2   1 <1>  -0.5760 
 24 C        5.6630     7.6710    -0.6140 C.2   1 <1>  -0.1360 
 25 C        5.2380     9.0230    -0.7040 C.2   1 <1>   0.3750 
 26 C        6.2070    10.0470    -1.2520 C.3   1 <1>  -0.1790 
 27 H       -0.8530    -0.8050    -3.8570 H     1 <1>   0.1500 
 28 H       -3.1290    -0.7910    -2.4230 H     1 <1>   0.1500 
 29 H       -3.3040     0.2690     0.5700 H     1 <1>   0.0800 
 30 H       -4.2410     1.0620    -0.6710 H     1 <1>   0.0800 
 31 H       -1.4130     4.1500    -1.1720 H     1 <1>   0.0800 
 32 H        0.2550     3.8060    -1.4580 H     1 <1>   0.0800 
 33 H        1.4290     1.9530    -0.0170 H     1 <1>   0.0800 
 34 H        0.4710     1.1290     1.1720 H     1 <1>   0.0800 
 35 H       -3.6540     2.5340     1.3390 H     1 <1>   0.0800 
 36 H       -3.2190     3.2030    -0.2150 H     1 <1>   0.0800 
 37 H       -0.8600     5.0490     1.0620 H     1 <1>   0.0800 
 38 H        0.0750     5.8390    -0.1800 H     1 <1>   0.0800 
 39 H        1.9430     2.8460     2.1850 H     1 <1>   0.0800 
 40 H        0.2660     3.2110     2.4700 H     1 <1>   0.0800 
 41 H        5.0560     5.6910    -0.0210 H     1 <1>   0.1500 
 42 H        6.6570     7.4230    -0.9400 H     1 <1>   0.1500 
 43 H        6.4830     9.7880    -2.2570 H     1 <1>   0.0800 
 44 H        7.0870    10.0840    -0.6380 H     1 <1>   0.0800 
 45 H        5.7520    11.0220    -1.2600 H     1 <1>   0.0800 
@<TRIPOS>BOND
  1   1   2  1   
  2   1   3  1   
  3   2   4  2   
  4   2   5  1   
  5   3   6  2   
  6   3  27  1   
  7   4   6  1   
  8   4   7  1   
  9   5   8  1   
 10   5   9  1   
 11   5  10  1   
 12   6  28  1   
 13   7  11  1   
 14   7  29  1   
 15   7  30  1   
 16   8  11  1   
 17   9  12  1   
 18   9  31  1   
 19   9  32  1   
 20  10  13  1   
 21  10  33  1   
 22  10  34  1   
 23  11  35  1   
 24  11  36  1   
 25  12  14  1   
 26  12  37  1   
 27  12  38  1   
 28  13  14  1   
 29  13  39  1   
 30  13  40  1   
 31  14  15  am  
 32  15  16  2   
 33  15  17  1   
 34  17  18  2   
 35  17  19  1   
 36  18  20  1   
 37  19  21  1   
 38  19  22  1   
 39  20  21  2   
 40  21  23  1   
 41  22  24  2   
 42  22  41  1   
 43  23  25  2   
 44  24  25  1   
 45  24  42  1   
 46  25  26  1   
 47  26  43  1   
 48  26  44  1   
 49  26  45  1   
@<TRIPOS>SUBSTRUCTURE
  1 ****  14 GROUP 4 **** **** 0

# MOE 2024.06 (io_trps.svl 2023.06)
