@<TRIPOS>MOLECULE
NONAME
46 47 1 0 0 
SMALL
USER_CHARGES


@<TRIPOS>ATOM
  1 CL      -0.2290     0.3810    -0.5010 Cl    1 <1>  -0.1770 
  2 C       -1.5480     1.5240    -0.3750 C.ar  1 <1>   0.1770 
  3 C       -1.2940     2.8770    -0.1820 C.ar  1 <1>  -0.1440 
  4 C       -2.8360     1.0280    -0.4700 C.ar  1 <1>  -0.1500 
  5 C       -2.3870     3.7320    -0.0770 C.ar  1 <1>  -0.1500 
  6 C        0.1570     3.3590    -0.0860 C.3   1 <1>  -0.0160 
  7 C       -3.9090     1.8930    -0.3690 C.ar  1 <1>  -0.1500 
  8 C       -3.6800     3.2440    -0.1720 C.ar  1 <1>  -0.1500 
  9 C        0.3470     4.8830    -0.1100 C.3   1 <1>  -0.1600 
 10 C        1.8290     5.2530    -0.0900 C.3   1 <1>   0.1400 
 11 N        1.9560     6.7240    -0.1130 N.am  1 <1>  -0.7300 
 12 C        2.5400     7.4750     0.8580 C.2   1 <1>   0.5690 
 13 O        3.0180     6.9810     1.8500 O.2   1 <1>  -0.5700 
 14 C        2.5850     8.9930     0.6970 C.3   1 <1>  -0.0190 
 15 C        1.1740     9.6030     0.5750 C.3   1 <1>  -0.1600 
 16 C        3.4920     9.4250    -0.4820 C.3   1 <1>  -0.1600 
 17 C        1.2080    11.1450     0.5760 C.3   1 <1>   0.2000 
 18 C        3.1710    10.8310    -1.0270 C.3   1 <1>  -0.1600 
 19 O        0.1540    11.5990    -0.2380 O.3   1 <1>  -0.5600 
 20 C        2.5480    11.7240     0.0490 C.3   1 <1>   0.2000 
 21 C       -1.0920    11.6520     0.3830 C.3   1 <1>   0.0400 
 22 O        2.3190    12.9660    -0.5070 O.3   1 <1>  -0.6800 
 23 H       -2.9910    -0.0250    -0.6220 H     1 <1>   0.1500 
 24 H       -2.2580     4.7870     0.0800 H     1 <1>   0.1500 
 25 H        0.5850     2.9670     0.8210 H     1 <1>   0.0800 
 26 H        0.7070     2.9400    -0.9120 H     1 <1>   0.0800 
 27 H       -4.9160     1.5190    -0.4420 H     1 <1>   0.1500 
 28 H       -4.5140     3.9200    -0.0900 H     1 <1>   0.1500 
 29 H       -0.1250     5.3140     0.7560 H     1 <1>   0.0800 
 30 H       -0.1070     5.2820    -1.0000 H     1 <1>   0.0800 
 31 H        2.3320     4.8400    -0.9480 H     1 <1>   0.0800 
 32 H        2.2950     4.8570     0.7990 H     1 <1>   0.0800 
 33 H        1.5700     7.1910    -0.9340 H     1 <1>   0.3700 
 34 H        3.0210     9.3820     1.6010 H     1 <1>   0.0800 
 35 H        0.5680     9.2620     1.3960 H     1 <1>   0.0800 
 36 H        0.7280     9.2590    -0.3420 H     1 <1>   0.0800 
 37 H        4.5140     9.3980    -0.1440 H     1 <1>   0.0800 
 38 H        3.4110     8.7240    -1.2950 H     1 <1>   0.0800 
 39 H        1.0630    11.5190     1.5760 H     1 <1>   0.0800 
 40 H        2.4720    10.7410    -1.8410 H     1 <1>   0.0800 
 41 H        4.0710    11.2860    -1.4040 H     1 <1>   0.0800 
 42 H        3.2470    11.8470     0.8580 H     1 <1>   0.0800 
 43 H       -1.8090    12.0100    -0.3350 H     1 <1>   0.0800 
 44 H       -1.0450    12.3330     1.2160 H     1 <1>   0.0800 
 45 H       -1.3740    10.6680     0.7140 H     1 <1>   0.0800 
 46 H        1.4010    12.9360    -0.8590 H     1 <1>   0.4000 
@<TRIPOS>BOND
  1   1   2  1   
  2   2   3  ar  
  3   2   4  ar  
  4   3   5  ar  
  5   3   6  1   
  6   4   7  ar  
  7   4  23  1   
  8   5   8  ar  
  9   5  24  1   
 10   6   9  1   
 11   6  25  1   
 12   6  26  1   
 13   7   8  ar  
 14   7  27  1   
 15   8  28  1   
 16   9  10  1   
 17   9  29  1   
 18   9  30  1   
 19  10  11  1   
 20  10  31  1   
 21  10  32  1   
 22  11  12  am  
 23  11  33  1   
 24  12  13  2   
 25  12  14  1   
 26  14  15  1   
 27  14  16  1   
 28  14  34  1   
 29  15  17  1   
 30  15  35  1   
 31  15  36  1   
 32  16  18  1   
 33  16  37  1   
 34  16  38  1   
 35  17  19  1   
 36  17  20  1   
 37  17  39  1   
 38  18  20  1   
 39  18  40  1   
 40  18  41  1   
 41  19  21  1   
 42  20  22  1   
 43  20  42  1   
 44  21  43  1   
 45  21  44  1   
 46  21  45  1   
 47  22  46  1   
@<TRIPOS>SUBSTRUCTURE
  1 ****  11 GROUP 4 **** **** 0

# MOE 2024.06 (io_trps.svl 2023.06)
