@<TRIPOS>MOLECULE
NONAME
39 41 1 0 0 
SMALL
USER_CHARGES


@<TRIPOS>ATOM
  1 S       -2.4250    -0.7860     2.6790 S.3   1 <1>  -0.0800 
  2 C       -2.5990    -1.7720     1.2390 C.2   1 <1>  -0.1100 
  3 C       -2.6760     0.6810     1.7520 C.2   1 <1>  -0.1100 
  4 C       -2.8400    -1.0070     0.1560 C.2   1 <1>  -0.1810 
  5 C       -2.8770     0.3950     0.4530 C.2   1 <1>  -0.1500 
  6 C       -3.0580    -1.5070    -1.2690 C.3   1 <1>   0.0820 
  7 C       -3.3900    -2.9920    -1.3500 C.2   1 <1>   0.5690 
  8 O       -2.5470    -3.7390    -1.7900 O.2   1 <1>  -0.5700 
  9 N       -4.6130    -3.4560    -0.9410 N.am  1 <1>  -0.6600 
 10 C       -5.6930    -2.6530    -0.3120 C.3   1 <1>   0.1400 
 11 C       -4.9580    -4.8970    -0.9160 C.3   1 <1>   0.1400 
 12 C       -6.7330    -3.6730     0.1570 C.3   1 <1>   0.2000 
 13 C       -6.0170    -5.0230     0.1800 C.3   1 <1>  -0.0800 
 14 O       -7.2060    -3.3690     1.4240 O.3   1 <1>  -0.6800 
 15 C       -6.9810    -6.2060    -0.0070 C.3   1 <1>  -0.0170 
 16 C       -6.2500    -7.5380     0.0210 C.ar  1 <1>   0.1670 
 17 N       -5.7260    -7.9450    -1.1250 N.ar  1 <1>  -0.6200 
 18 C       -6.1630    -8.2480     1.2090 C.ar  1 <1>  -0.1500 
 19 C       -5.0870    -9.1030    -1.0850 C.ar  1 <1>   0.1600 
 20 C       -5.4950    -9.4540     1.2370 C.ar  1 <1>  -0.1500 
 21 C       -4.9450    -9.8840     0.0490 C.ar  1 <1>  -0.1500 
 22 H       -2.5020    -2.8380     1.3560 H     1 <1>   0.1500 
 23 H       -2.6430     1.6140     2.2860 H     1 <1>   0.1500 
 24 H       -3.0500     1.1250    -0.3190 H     1 <1>   0.1500 
 25 H       -2.1690    -1.3200    -1.8430 H     1 <1>   0.0800 
 26 H       -3.8600    -0.9580    -1.7250 H     1 <1>   0.0800 
 27 H       -5.3000    -2.0980     0.5220 H     1 <1>   0.0800 
 28 H       -6.1250    -1.9820    -1.0340 H     1 <1>   0.0800 
 29 H       -5.3600    -5.1800    -1.8750 H     1 <1>   0.0800 
 30 H       -4.0940    -5.5060    -0.7040 H     1 <1>   0.0800 
 31 H       -7.5670    -3.6830    -0.5240 H     1 <1>   0.0800 
 32 H       -5.4920    -5.1370     1.1120 H     1 <1>   0.0800 
 33 H       -6.4680    -3.3430     2.0640 H     1 <1>   0.4000 
 34 H       -7.5010    -6.1140    -0.9450 H     1 <1>   0.0800 
 35 H       -7.7200    -6.1870     0.7740 H     1 <1>   0.0800 
 36 H       -6.6120    -7.8630     2.1070 H     1 <1>   0.1500 
 37 H       -4.6520    -9.4490    -2.0070 H     1 <1>   0.1500 
 38 H       -5.4090   -10.0310     2.1410 H     1 <1>   0.1500 
 39 H       -4.4100   -10.8150    -0.0010 H     1 <1>   0.1500 
@<TRIPOS>BOND
  1   1   2  1   
  2   1   3  1   
  3   2   4  2   
  4   2  22  1   
  5   3   5  2   
  6   3  23  1   
  7   4   5  1   
  8   4   6  1   
  9   5  24  1   
 10   6   7  1   
 11   6  25  1   
 12   6  26  1   
 13   7   8  2   
 14   7   9  am  
 15   9  10  1   
 16   9  11  1   
 17  10  12  1   
 18  10  27  1   
 19  10  28  1   
 20  11  13  1   
 21  11  29  1   
 22  11  30  1   
 23  12  13  1   
 24  12  14  1   
 25  12  31  1   
 26  13  15  1   
 27  13  32  1   
 28  14  33  1   
 29  15  16  1   
 30  15  34  1   
 31  15  35  1   
 32  16  17  ar  
 33  16  18  ar  
 34  17  19  ar  
 35  18  20  ar  
 36  18  36  1   
 37  19  21  ar  
 38  19  37  1   
 39  20  21  ar  
 40  20  38  1   
 41  21  39  1   
@<TRIPOS>SUBSTRUCTURE
  1 ****  11 GROUP 4 **** **** 0

# MOE 2024.06 (io_trps.svl 2023.06)
