@<TRIPOS>MOLECULE
NONAME
53 56 1 0 0 
SMALL
USER_CHARGES


@<TRIPOS>ATOM
  1 O       -2.7350    -0.1420    -2.5880 O.2   1 <1>  -0.5700 
  2 C       -2.5990    -0.7640    -1.5710 C.2   1 <1>   0.5690 
  3 N       -2.4140    -0.1200    -0.3980 N.am  1 <1>  -0.7300 
  4 C       -2.7160    -2.2710    -1.5980 C.3   1 <1>  -0.0190 
  5 C       -2.3170    -0.7820     0.9380 C.3   1 <1>   0.2200 
  6 C       -1.4510    -2.9450    -1.0510 C.3   1 <1>   0.1200 
  7 C       -3.9880    -2.7490    -0.8810 C.3   1 <1>   0.3430 
  8 C       -1.1330    -1.7640     0.9770 C.3   1 <1>   0.1200 
  9 C       -3.6340    -1.5210     1.3060 C.3   1 <1>   0.3430 
 10 O       -1.4640    -2.9660     0.3440 O.3   1 <1>  -0.5600 
 11 N       -4.5550    -1.7790     0.1340 N.4   1 <1>  -0.9590 
 12 C       -5.9340    -2.1290     0.5910 C.3   1 <1>   0.4230 
 13 C       -6.0080    -3.5540     1.1660 C.3   1 <1>  -0.1600 
 14 C       -6.9320    -1.9000    -0.5510 C.3   1 <1>  -0.1600 
 15 C       -7.4370    -3.8700     1.5950 C.3   1 <1>   0.2090 
 16 C       -8.3450    -2.2460    -0.0940 C.3   1 <1>   0.2090 
 17 N       -8.3100    -3.6270     0.4300 N.pl3 1 <1>  -0.8380 
 18 C       -9.3950    -4.4780     0.2300 C.ar  1 <1>   0.1000 
 19 C       -9.1760    -5.7960    -0.1460 C.ar  1 <1>  -0.1500 
 20 C      -10.7050    -4.0450     0.4020 C.ar  1 <1>  -0.1500 
 21 C      -10.2290    -6.6700    -0.3500 C.ar  1 <1>   0.0820 
 22 C      -11.7670    -4.9080     0.1990 C.ar  1 <1>  -0.1500 
 23 O       -9.9090    -7.9380    -0.7150 O.3   1 <1>  -0.3630 
 24 C      -11.5360    -6.2200    -0.1770 C.ar  1 <1>  -0.1500 
 25 C      -10.9090    -8.9000    -0.9650 C.3   1 <1>   0.0400 
 26 H       -2.2360     0.8900    -0.4540 H     1 <1>   0.3700 
 27 H       -2.7920    -2.5660    -2.6290 H     1 <1>   0.0800 
 28 H       -2.1280    -0.0230     1.6770 H     1 <1>   0.0800 
 29 H       -0.5540    -2.4570    -1.3990 H     1 <1>   0.0800 
 30 H       -1.4190    -3.9720    -1.3760 H     1 <1>   0.0800 
 31 H       -3.7810    -3.6930    -0.4030 H     1 <1>   0.0800 
 32 H       -4.7320    -2.9300    -1.6370 H     1 <1>   0.0800 
 33 H       -0.9040    -2.0090     2.0000 H     1 <1>   0.0800 
 34 H       -0.2490    -1.3430     0.5280 H     1 <1>   0.0800 
 35 H       -4.1530    -0.9180     2.0320 H     1 <1>   0.0800 
 36 H       -3.3880    -2.4540     1.7880 H     1 <1>   0.0800 
 37 H       -4.6260    -0.8730    -0.3550 H     1 <1>   0.4500 
 38 H       -6.2100    -1.4520     1.3830 H     1 <1>   0.0800 
 39 H       -5.7280    -4.2860     0.4310 H     1 <1>   0.0800 
 40 H       -5.3650    -3.6550     2.0200 H     1 <1>   0.0800 
 41 H       -6.9140    -0.8730    -0.8650 H     1 <1>   0.0800 
 42 H       -6.7090    -2.5250    -1.3960 H     1 <1>   0.0800 
 43 H       -7.7450    -3.2420     2.4140 H     1 <1>   0.0800 
 44 H       -7.5160    -4.8990     1.9080 H     1 <1>   0.0800 
 45 H       -9.0290    -2.1890    -0.9260 H     1 <1>   0.0800 
 46 H       -8.6810    -1.5730     0.6770 H     1 <1>   0.0800 
 47 H       -8.1730    -6.1450    -0.2870 H     1 <1>   0.1500 
 48 H      -10.8950    -3.0320     0.7010 H     1 <1>   0.1500 
 49 H      -12.7760    -4.5590     0.3350 H     1 <1>   0.1500 
 50 H      -12.3760    -6.8700    -0.3270 H     1 <1>   0.1500 
 51 H      -10.4260    -9.8190    -1.2430 H     1 <1>   0.0800 
 52 H      -11.5310    -8.5540    -1.7730 H     1 <1>   0.0800 
 53 H      -11.4850    -9.0450    -0.0690 H     1 <1>   0.0800 
@<TRIPOS>BOND
  1   1   2  2   
  2   2   3  am  
  3   2   4  1   
  4   3   5  1   
  5   3  26  1   
  6   4   6  1   
  7   4   7  1   
  8   4  27  1   
  9   5   8  1   
 10   5   9  1   
 11   5  28  1   
 12   6  10  1   
 13   6  29  1   
 14   6  30  1   
 15   7  11  1   
 16   7  31  1   
 17   7  32  1   
 18   8  10  1   
 19   8  33  1   
 20   8  34  1   
 21   9  11  1   
 22   9  35  1   
 23   9  36  1   
 24  11  12  1   
 25  11  37  1   
 26  12  13  1   
 27  12  14  1   
 28  12  38  1   
 29  13  15  1   
 30  13  39  1   
 31  13  40  1   
 32  14  16  1   
 33  14  41  1   
 34  14  42  1   
 35  15  17  1   
 36  15  43  1   
 37  15  44  1   
 38  16  17  1   
 39  16  45  1   
 40  16  46  1   
 41  17  18  1   
 42  18  19  ar  
 43  18  20  ar  
 44  19  21  ar  
 45  19  47  1   
 46  20  22  ar  
 47  20  48  1   
 48  21  23  1   
 49  21  24  ar  
 50  22  24  ar  
 51  22  49  1   
 52  23  25  1   
 53  24  50  1   
 54  25  51  1   
 55  25  52  1   
 56  25  53  1   
@<TRIPOS>SUBSTRUCTURE
  1 ****  13 GROUP 4 **** **** 0

# MOE 2024.06 (io_trps.svl 2023.06)
