@<TRIPOS>MOLECULE
NONAME
42 44 1 0 0 
SMALL
USER_CHARGES


@<TRIPOS>ATOM
  1 F       -3.2970     0.6050    -1.0890 F     1 <1>  -0.1900 
  2 C       -3.4580    -0.6440    -0.7100 C.ar  1 <1>   0.1900 
  3 C       -3.5750    -1.0340     0.6210 C.ar  1 <1>   0.3920 
  4 C       -3.5170    -1.6100    -1.6800 C.ar  1 <1>   0.1600 
  5 O       -3.5450    -0.2090     1.6940 O.3   1 <1>  -0.3630 
  6 N       -3.7350    -2.3020     0.9320 N.ar  1 <1>  -0.6200 
  7 N       -3.6790    -2.8810    -1.3790 N.ar  1 <1>  -0.6200 
  8 C       -3.3360     1.1840     1.6300 C.3   1 <1>   0.0400 
  9 C       -3.7680    -3.1520    -0.0800 C.ar  1 <1>   0.7200 
 10 N       -3.9330    -4.4380     0.2950 N.pl3 1 <1>  -0.8690 
 11 C       -4.4960    -5.5070    -0.5500 C.3   1 <1>   0.2890 
 12 C       -6.0020    -5.6700    -0.3120 C.3   1 <1>  -0.0800 
 13 C       -3.9290    -6.8360    -0.0610 C.3   1 <1>  -0.1600 
 14 C       -6.1080    -6.4490     1.0070 C.3   1 <1>  -0.1600 
 15 C       -6.8220    -4.3660    -0.3420 C.3   1 <1>  -0.0170 
 16 C       -4.8170    -7.2730     1.1130 C.3   1 <1>  -0.1600 
 17 C       -8.3140    -4.6470    -0.2350 C.ar  1 <1>  -0.1430 
 18 C       -9.0280    -5.0380    -1.3610 C.ar  1 <1>  -0.1500 
 19 C       -8.9640    -4.5140     0.9860 C.ar  1 <1>  -0.1500 
 20 C      -10.3860    -5.2990    -1.2720 C.ar  1 <1>  -0.1500 
 21 C      -10.3210    -4.7710     1.0880 C.ar  1 <1>  -0.1500 
 22 C      -11.0060    -5.1610    -0.0460 C.ar  1 <1>   0.1900 
 23 F      -12.2860    -5.4060     0.0440 F     1 <1>  -0.1900 
 24 H       -3.4310    -1.3350    -2.7170 H     1 <1>   0.1500 
 25 H       -3.3360     1.5670     2.6350 H     1 <1>   0.0800 
 26 H       -4.1360     1.6350     1.0700 H     1 <1>   0.0800 
 27 H       -2.3830     1.3770     1.1680 H     1 <1>   0.0800 
 28 H       -4.1110    -4.5410     1.2910 H     1 <1>   0.4000 
 29 H       -4.2650    -5.3380    -1.5890 H     1 <1>   0.0800 
 30 H       -6.3690    -6.3100    -1.0950 H     1 <1>   0.0800 
 31 H       -4.0210    -7.5560    -0.8540 H     1 <1>   0.0800 
 32 H       -2.8910    -6.7560     0.2100 H     1 <1>   0.0800 
 33 H       -6.1620    -5.7660     1.8370 H     1 <1>   0.0800 
 34 H       -6.9840    -7.0750     1.0170 H     1 <1>   0.0800 
 35 H       -6.6250    -3.8440    -1.2620 H     1 <1>   0.0800 
 36 H       -6.5210    -3.7180     0.4620 H     1 <1>   0.0800 
 37 H       -5.0230    -8.3280     1.0590 H     1 <1>   0.0800 
 38 H       -4.3260    -7.0620     2.0480 H     1 <1>   0.0800 
 39 H       -8.5290    -5.1410    -2.3080 H     1 <1>   0.1500 
 40 H       -8.4140    -4.2090     1.8600 H     1 <1>   0.1500 
 41 H      -10.9530    -5.6040    -2.1320 H     1 <1>   0.1500 
 42 H      -10.8380    -4.6730     2.0250 H     1 <1>   0.1500 
@<TRIPOS>BOND
  1   1   2  1   
  2   2   3  ar  
  3   2   4  ar  
  4   3   5  1   
  5   3   6  ar  
  6   4   7  ar  
  7   4  24  1   
  8   5   8  1   
  9   6   9  ar  
 10   7   9  ar  
 11   8  25  1   
 12   8  26  1   
 13   8  27  1   
 14   9  10  1   
 15  10  11  1   
 16  10  28  1   
 17  11  12  1   
 18  11  13  1   
 19  11  29  1   
 20  12  14  1   
 21  12  15  1   
 22  12  30  1   
 23  13  16  1   
 24  13  31  1   
 25  13  32  1   
 26  14  16  1   
 27  14  33  1   
 28  14  34  1   
 29  15  17  1   
 30  15  35  1   
 31  15  36  1   
 32  16  37  1   
 33  16  38  1   
 34  17  18  ar  
 35  17  19  ar  
 36  18  20  ar  
 37  18  39  1   
 38  19  21  ar  
 39  19  40  1   
 40  20  22  ar  
 41  20  41  1   
 42  21  22  ar  
 43  21  42  1   
 44  22  23  1   
@<TRIPOS>SUBSTRUCTURE
  1 ****  15 GROUP 4 **** **** 0

# MOE 2024.06 (io_trps.svl 2023.06)
