@<TRIPOS>MOLECULE
NONAME
40 41 1 0 0 
SMALL
USER_CHARGES


@<TRIPOS>ATOM
  1 F       -2.9140    -2.2720     2.6330 F     1 <1>  -0.3400 
  2 C       -2.4400    -2.3520     1.3930 C.3   1 <1>   0.8560 
  3 F       -1.1310    -2.1390     1.5070 F     1 <1>  -0.3400 
  4 N       -3.0830    -1.2920     0.5370 N.pl3 1 <1>   0.0480 
  5 C       -4.0520    -1.5210    -0.4240 C.2   1 <1>  -0.2370 
  6 C       -2.8620     0.0610     0.5720 C.2   1 <1>  -0.3320 
  7 C       -4.5870    -2.8180    -0.7500 C.2   1 <1>   0.7150 
  8 C       -4.3810    -0.3130    -0.9860 C.2   1 <1>  -0.1500 
  9 C       -3.6400     0.6760    -0.3550 C.2   1 <1>  -0.1500 
 10 C       -1.8910     0.7550     1.5150 C.3   1 <1>  -0.0600 
 11 O       -3.8630    -3.7980    -0.6970 O.2   1 <1>  -0.5700 
 12 N       -5.9030    -2.9950    -1.1020 N.am  1 <1>  -0.6600 
 13 C       -6.2930    -4.0850    -2.0340 C.3   1 <1>   0.3200 
 14 C       -7.0050    -2.1160    -0.6000 C.3   1 <1>   0.1400 
 15 C       -6.6500    -5.3300    -1.2500 C.2   1 <1>  -0.3320 
 16 C       -7.9600    -2.8730     0.3300 C.3   1 <1>   0.1200 
 17 N       -5.7790    -5.9320    -0.4240 N.pl3 1 <1>   0.0330 
 18 C       -7.7860    -6.0600    -1.1990 C.2   1 <1>   0.0770 
 19 O       -8.8330    -1.9660     0.9150 O.3   1 <1>  -0.6800 
 20 C       -6.4430    -6.9900     0.0870 C.2   1 <1>   0.0060 
 21 N       -7.6530    -7.1000    -0.3550 N.2   1 <1>  -0.5650 
 22 C       -5.8190    -7.9460     1.0800 C.3   1 <1>  -0.0600 
 23 H       -2.5810    -3.3540     1.0410 H     1 <1>   0.0800 
 24 H       -5.0870    -0.1350    -1.7790 H     1 <1>   0.1500 
 25 H       -3.6900     1.7290    -0.5780 H     1 <1>   0.1500 
 26 H       -2.1120     0.4990     2.5360 H     1 <1>   0.0800 
 27 H       -1.9680     1.8220     1.4080 H     1 <1>   0.0800 
 28 H       -0.8800     0.4650     1.2910 H     1 <1>   0.0800 
 29 H       -5.4730    -4.3040    -2.6970 H     1 <1>   0.0800 
 30 H       -7.1300    -3.7720    -2.6330 H     1 <1>   0.0800 
 31 H       -7.5560    -1.7220    -1.4370 H     1 <1>   0.0800 
 32 H       -6.5920    -1.2910    -0.0480 H     1 <1>   0.0800 
 33 H       -7.4240    -3.3830     1.1120 H     1 <1>   0.0800 
 34 H       -8.5520    -3.5800    -0.2240 H     1 <1>   0.0800 
 35 H       -4.8190    -5.6170    -0.2360 H     1 <1>   0.2700 
 36 H       -8.7090    -5.8930    -1.7290 H     1 <1>   0.1500 
 37 H       -8.3840    -1.4480     1.6120 H     1 <1>   0.4000 
 38 H       -4.9530    -8.4130     0.6480 H     1 <1>   0.0800 
 39 H       -6.5290    -8.7100     1.3420 H     1 <1>   0.0800 
 40 H       -5.5350    -7.4180     1.9710 H     1 <1>   0.0800 
@<TRIPOS>BOND
  1   1   2  1   
  2   2   3  1   
  3   2   4  1   
  4   2  23  1   
  5   4   5  1   
  6   4   6  1   
  7   5   7  1   
  8   5   8  2   
  9   6   9  2   
 10   6  10  1   
 11   7  11  2   
 12   7  12  am  
 13   8   9  1   
 14   8  24  1   
 15   9  25  1   
 16  10  26  1   
 17  10  27  1   
 18  10  28  1   
 19  12  13  1   
 20  12  14  1   
 21  13  15  1   
 22  13  29  1   
 23  13  30  1   
 24  14  16  1   
 25  14  31  1   
 26  14  32  1   
 27  15  17  1   
 28  15  18  2   
 29  16  19  1   
 30  16  33  1   
 31  16  34  1   
 32  17  20  1   
 33  17  35  1   
 34  18  21  1   
 35  18  36  1   
 36  19  37  1   
 37  20  21  2   
 38  20  22  1   
 39  22  38  1   
 40  22  39  1   
 41  22  40  1   
@<TRIPOS>SUBSTRUCTURE
  1 ****   7 GROUP 4 **** **** 0

# MOE 2024.06 (io_trps.svl 2023.06)
