@<TRIPOS>MOLECULE
NONAME
49 51 1 0 0 
SMALL
USER_CHARGES


@<TRIPOS>ATOM
  1 S        0.5080     1.4010    -1.1030 S.o2  1 <1>   1.3330 
  2 O       -0.1960     2.3570    -1.9280 O.2   1 <1>  -0.6500 
  3 O        0.9060     0.1360    -1.6770 O.2   1 <1>  -0.6500 
  4 N        1.9120     2.1510    -0.5200 N.am  1 <1>  -0.8490 
  5 C       -0.5010     1.0610     0.3520 C.3   1 <1>  -0.0550 
  6 C        2.8700     1.2300     0.0990 C.3   1 <1>   0.1160 
  7 C        2.5910     2.9490    -1.5440 C.3   1 <1>   0.1160 
  8 C       -0.9370     2.2210     1.2840 C.3   1 <1>  -0.0800 
  9 C       -1.5590     3.4300     0.5740 C.3   1 <1>   0.2000 
 10 C        0.2030     2.8050     2.1310 C.3   1 <1>   0.1400 
 11 O       -2.5320     3.9460     1.4160 O.3   1 <1>  -0.6800 
 12 C       -0.4370     4.4640     0.4680 C.3   1 <1>   0.1400 
 13 N        0.4740     4.1650     1.6030 N.am  1 <1>  -0.6600 
 14 C        1.6920     4.7790     1.7940 C.2   1 <1>   0.5440 
 15 O        2.5440     4.1990     2.4400 O.2   1 <1>  -0.5700 
 16 C        1.9780     6.0970     1.2580 C.ar  1 <1>   0.0860 
 17 C        3.1430     6.3470     0.5440 C.ar  1 <1>  -0.1500 
 18 C        1.1070     7.1730     1.4580 C.ar  1 <1>  -0.1500 
 19 C        3.4460     7.6020     0.0320 C.ar  1 <1>   0.1790 
 20 C        1.3890     8.4270     0.9610 C.ar  1 <1>  -0.1500 
 21 N        4.6210     7.7740    -0.6740 N.2   1 <1>  -0.6290 
 22 C        2.5620     8.6670     0.2410 C.ar  1 <1>   0.0860 
 23 C        4.9060     8.9350    -1.1300 C.2   1 <1>   0.4500 
 24 C        2.9250     9.9480    -0.2960 C.2   1 <1>   0.5440 
 25 N        4.1170    10.0500    -0.9780 N.am  1 <1>  -0.4200 
 26 O        2.2150    10.9330    -0.1650 O.2   1 <1>  -0.5700 
 27 C        4.5430    11.3580    -1.5400 C.3   1 <1>   0.0600 
 28 H       -1.3990     0.5870     0.0040 H     1 <1>   0.0800 
 29 H        0.0080     0.3310     0.9500 H     1 <1>   0.0800 
 30 H        3.6740     1.7880     0.5500 H     1 <1>   0.0800 
 31 H        3.2770     0.5570    -0.6380 H     1 <1>   0.0800 
 32 H        2.3910     0.6520     0.8680 H     1 <1>   0.0800 
 33 H        3.4560     3.4350    -1.1240 H     1 <1>   0.0800 
 34 H        1.9300     3.7110    -1.9210 H     1 <1>   0.0800 
 35 H        2.8990     2.3220    -2.3650 H     1 <1>   0.0800 
 36 H       -1.6610     1.7920     1.9550 H     1 <1>   0.0800 
 37 H       -2.0220     3.2010    -0.3710 H     1 <1>   0.0800 
 38 H        1.0890     2.1960     2.0880 H     1 <1>   0.0800 
 39 H       -0.1030     2.8910     3.1600 H     1 <1>   0.0800 
 40 H       -2.1000     4.2890     2.2240 H     1 <1>   0.4000 
 41 H       -0.8260     5.4650     0.5140 H     1 <1>   0.0800 
 42 H        0.1020     4.3400    -0.4540 H     1 <1>   0.0800 
 43 H        3.8420     5.5460     0.3880 H     1 <1>   0.1500 
 44 H        0.2040     7.0110     2.0230 H     1 <1>   0.1500 
 45 H        0.7060     9.2440     1.1270 H     1 <1>   0.1500 
 46 H        5.8230     9.0720    -1.6760 H     1 <1>   0.0600 
 47 H        5.4940    11.2710    -2.0340 H     1 <1>   0.0800 
 48 H        4.6220    12.0810    -0.7460 H     1 <1>   0.0800 
 49 H        3.8070    11.7010    -2.2480 H     1 <1>   0.0800 
@<TRIPOS>BOND
  1   1   2  2   
  2   1   3  2   
  3   1   4  am  
  4   1   5  1   
  5   4   6  1   
  6   4   7  1   
  7   5   8  1   
  8   5  28  1   
  9   5  29  1   
 10   6  30  1   
 11   6  31  1   
 12   6  32  1   
 13   7  33  1   
 14   7  34  1   
 15   7  35  1   
 16   8   9  1   
 17   8  10  1   
 18   8  36  1   
 19   9  11  1   
 20   9  12  1   
 21   9  37  1   
 22  10  13  1   
 23  10  38  1   
 24  10  39  1   
 25  11  40  1   
 26  12  13  1   
 27  12  41  1   
 28  12  42  1   
 29  13  14  am  
 30  14  15  2   
 31  14  16  1   
 32  16  17  ar  
 33  16  18  ar  
 34  17  19  ar  
 35  17  43  1   
 36  18  20  ar  
 37  18  44  1   
 38  19  21  1   
 39  19  22  ar  
 40  20  22  ar  
 41  20  45  1   
 42  21  23  2   
 43  22  24  1   
 44  23  25  1   
 45  23  46  1   
 46  24  25  am  
 47  24  26  2   
 48  25  27  1   
 49  27  47  1   
 50  27  48  1   
 51  27  49  1   
@<TRIPOS>SUBSTRUCTURE
  1 ****  16 GROUP 4 **** **** 0

# MOE 2024.06 (io_trps.svl 2023.06)
