@<TRIPOS>MOLECULE
NONAME
41 42 1 0 0 
SMALL
USER_CHARGES


@<TRIPOS>ATOM
  1 S       -0.1930    -0.7840     0.5180 S.3   1 <1>  -0.0800 
  2 C       -1.7970    -1.3510     0.1310 C.2   1 <1>  -0.1400 
  3 C       -0.7690     0.8590     0.4370 C.2   1 <1>   0.2280 
  4 C       -2.5950    -0.2730    -0.0300 C.2   1 <1>   0.0460 
  5 C       -1.9040    -2.8710     0.0710 C.3   1 <1>   0.0200 
  6 N       -2.0020     0.9660     0.1530 N.2   1 <1>  -0.5650 
  7 C       -4.0660    -0.1900    -0.3900 C.3   1 <1>  -0.0590 
  8 C       -3.3320    -3.4150     0.0290 C.3   1 <1>   0.1400 
  9 N       -3.3300    -4.8960     0.2090 N.am  1 <1>  -0.6600 
 10 C       -3.2720    -5.7260    -0.8940 C.2   1 <1>   0.5690 
 11 C       -3.5190    -5.3410     1.6200 C.3   1 <1>   0.0600 
 12 O       -3.1050    -5.2560    -1.9970 O.2   1 <1>  -0.5700 
 13 C       -3.3780    -7.2570    -0.8340 C.3   1 <1>   0.2370 
 14 N       -4.5610    -7.6980    -0.0360 N.pl3 1 <1>   0.0480 
 15 C       -2.0440    -7.9210    -0.4180 C.3   1 <1>  -0.1600 
 16 C       -5.8540    -7.4470    -0.3830 C.2   1 <1>  -0.3020 
 17 C       -4.6050    -8.3810     1.1470 C.2   1 <1>  -0.3020 
 18 C       -1.9970    -9.4310    -0.7080 C.3   1 <1>  -0.2400 
 19 C       -6.6940    -7.9560     0.5550 C.2   1 <1>  -0.1500 
 20 C       -5.8960    -8.5530     1.5330 C.2   1 <1>  -0.1500 
 21 H       -0.0560     1.6410     0.6290 H     1 <1>   0.1500 
 22 H       -1.4180    -3.2690     0.9440 H     1 <1>   0.0800 
 23 H       -1.3720    -3.2210    -0.7960 H     1 <1>   0.0800 
 24 H       -4.4860    -1.1410    -0.6380 H     1 <1>   0.0800 
 25 H       -4.1840     0.4590    -1.2390 H     1 <1>   0.0800 
 26 H       -4.6120     0.2290     0.4350 H     1 <1>   0.0800 
 27 H       -3.7770    -3.1710    -0.9200 H     1 <1>   0.0800 
 28 H       -3.9220    -2.9590     0.8050 H     1 <1>   0.0800 
 29 H       -3.1380    -4.6000     2.3010 H     1 <1>   0.0800 
 30 H       -2.9970    -6.2610     1.8040 H     1 <1>   0.0800 
 31 H       -4.5690    -5.4870     1.8140 H     1 <1>   0.0800 
 32 H       -3.5750    -7.5720    -1.8420 H     1 <1>   0.0800 
 33 H       -1.8390    -7.7370     0.6200 H     1 <1>   0.0800 
 34 H       -1.2530    -7.4550    -0.9820 H     1 <1>   0.0800 
 35 H       -6.1130    -6.9140    -1.2820 H     1 <1>   0.1500 
 36 H       -3.7230    -8.7150     1.6610 H     1 <1>   0.1500 
 37 H       -2.7570    -9.9590    -0.1600 H     1 <1>   0.0800 
 38 H       -1.0380    -9.8290    -0.4260 H     1 <1>   0.0800 
 39 H       -2.1440    -9.6160    -1.7580 H     1 <1>   0.0800 
 40 H       -7.7700    -7.9210     0.5680 H     1 <1>   0.1500 
 41 H       -6.2640    -9.0500     2.4130 H     1 <1>   0.1500 
@<TRIPOS>BOND
  1   1   2  1   
  2   1   3  1   
  3   2   4  2   
  4   2   5  1   
  5   3   6  2   
  6   3  21  1   
  7   4   6  1   
  8   4   7  1   
  9   5   8  1   
 10   5  22  1   
 11   5  23  1   
 12   7  24  1   
 13   7  25  1   
 14   7  26  1   
 15   8   9  1   
 16   8  27  1   
 17   8  28  1   
 18   9  10  am  
 19   9  11  1   
 20  10  12  2   
 21  10  13  1   
 22  11  29  1   
 23  11  30  1   
 24  11  31  1   
 25  13  14  1   
 26  13  15  1   
 27  13  32  1   
 28  14  16  1   
 29  14  17  1   
 30  15  18  1   
 31  15  33  1   
 32  15  34  1   
 33  16  19  2   
 34  16  35  1   
 35  17  20  2   
 36  17  36  1   
 37  18  37  1   
 38  18  38  1   
 39  18  39  1   
 40  19  20  1   
 41  19  40  1   
 42  20  41  1   
@<TRIPOS>SUBSTRUCTURE
  1 ****   9 GROUP 4 **** **** 0

# MOE 2024.06 (io_trps.svl 2023.06)
