@<TRIPOS>MOLECULE
NONAME
58 60 1 0 0 
SMALL
USER_CHARGES


@<TRIPOS>ATOM
  1 O        1.0360     0.2090     0.7130 O.2   1 <1>  -0.5700 
  2 C        1.6780    -0.6160     0.1070 C.2   1 <1>   0.5690 
  3 N        2.4590    -0.2870    -0.9750 N.am  1 <1>  -0.6600 
  4 C        1.5490    -2.0700     0.5960 C.3   1 <1>   0.4040 
  5 C        2.5780     1.1450    -1.4340 C.3   1 <1>   0.1400 
  6 C        3.1140    -1.2810    -1.8700 C.3   1 <1>   0.1400 
  7 N        0.2520    -2.7610     0.2110 N.4   1 <1>  -0.9590 
  8 C        3.1340     2.1160    -0.3760 C.3   1 <1>   0.2000 
  9 C        4.5450    -1.5350    -1.4060 C.3   1 <1>  -0.2400 
 10 C       -0.9250    -2.0340     0.7890 C.3   1 <1>   0.3430 
 11 C        0.2720    -4.1990     0.6050 C.3   1 <1>   0.3430 
 12 O        3.2740     3.3590    -0.9980 O.3   1 <1>  -0.5600 
 13 C        4.5020     1.7010     0.1940 C.3   1 <1>  -0.1600 
 14 C       -2.2210    -2.6880     0.3160 C.3   1 <1>  -0.1600 
 15 C       -1.0020    -4.8860     0.1230 C.3   1 <1>  -0.1600 
 16 C        3.6190     4.4080    -0.1440 C.3   1 <1>   0.1200 
 17 C        5.0450     2.7720     1.1470 C.3   1 <1>  -0.1600 
 18 C       -2.2530    -4.1810     0.6640 C.3   1 <1>   0.0630 
 19 C        5.0030     4.1410     0.4580 C.3   1 <1>  -0.1600 
 20 C       -3.5250    -4.8440     0.1470 C.ar  1 <1>  -0.1440 
 21 C       -3.8240    -4.8850    -1.2090 C.ar  1 <1>  -0.1500 
 22 C       -4.4100    -5.4230     1.0460 C.ar  1 <1>  -0.1500 
 23 C       -4.9840    -5.4940    -1.6560 C.ar  1 <1>  -0.1500 
 24 C       -5.5700    -6.0320     0.6000 C.ar  1 <1>  -0.1500 
 25 C       -5.8580    -6.0680    -0.7520 C.ar  1 <1>  -0.1500 
 26 H        1.6360    -2.0540     1.6680 H     1 <1>   0.0800 
 27 H        2.3840    -2.6280     0.2120 H     1 <1>   0.0800 
 28 H        1.6040     1.4930    -1.7290 H     1 <1>   0.0800 
 29 H        3.2230     1.1970    -2.2940 H     1 <1>   0.0800 
 30 H        3.1230    -0.9110    -2.8830 H     1 <1>   0.0800 
 31 H        2.5630    -2.2040    -1.8760 H     1 <1>   0.0800 
 32 H        0.1540    -2.7040    -0.8110 H     1 <1>   0.4500 
 33 H        2.4170     2.2320     0.4190 H     1 <1>   0.0800 
 34 H        5.1350    -0.6430    -1.5140 H     1 <1>   0.0800 
 35 H        4.9930    -2.2990    -2.0170 H     1 <1>   0.0800 
 36 H        4.5720    -1.8580    -0.3820 H     1 <1>   0.0800 
 37 H       -0.9180    -1.0010     0.4770 H     1 <1>   0.0800 
 38 H       -0.8780    -2.0570     1.8660 H     1 <1>   0.0800 
 39 H        0.3380    -4.2820     1.6790 H     1 <1>   0.0800 
 40 H        1.1290    -4.6910     0.1730 H     1 <1>   0.0800 
 41 H        5.1920     1.5630    -0.6200 H     1 <1>   0.0800 
 42 H        4.4120     0.7690     0.7200 H     1 <1>   0.0800 
 43 H       -2.3250    -2.5420    -0.7440 H     1 <1>   0.0800 
 44 H       -3.0540    -2.1980     0.7890 H     1 <1>   0.0800 
 45 H       -1.0030    -5.9080     0.4600 H     1 <1>   0.0800 
 46 H       -1.0130    -4.9040    -0.9520 H     1 <1>   0.0800 
 47 H        2.8670     4.4890     0.6230 H     1 <1>   0.0800 
 48 H        3.6280     5.3150    -0.7230 H     1 <1>   0.0800 
 49 H        6.0530     2.5350     1.4400 H     1 <1>   0.0800 
 50 H        4.4350     2.8020     2.0340 H     1 <1>   0.0800 
 51 H       -2.2400    -4.2680     1.7390 H     1 <1>   0.0800 
 52 H        5.2440     4.9150     1.1650 H     1 <1>   0.0800 
 53 H        5.7340     4.1760    -0.3310 H     1 <1>   0.0800 
 54 H       -3.1630    -4.4470    -1.9340 H     1 <1>   0.1500 
 55 H       -4.2100    -5.4090     2.1030 H     1 <1>   0.1500 
 56 H       -5.2090    -5.5220    -2.7080 H     1 <1>   0.1500 
 57 H       -6.2510    -6.4780     1.3040 H     1 <1>   0.1500 
 58 H       -6.7600    -6.5410    -1.0990 H     1 <1>   0.1500 
@<TRIPOS>BOND
  1   1   2  2   
  2   2   3  am  
  3   2   4  1   
  4   3   5  1   
  5   3   6  1   
  6   4   7  1   
  7   4  26  1   
  8   4  27  1   
  9   5   8  1   
 10   5  28  1   
 11   5  29  1   
 12   6   9  1   
 13   6  30  1   
 14   6  31  1   
 15   7  10  1   
 16   7  11  1   
 17   7  32  1   
 18   8  12  1   
 19   8  13  1   
 20   8  33  1   
 21   9  34  1   
 22   9  35  1   
 23   9  36  1   
 24  10  14  1   
 25  10  37  1   
 26  10  38  1   
 27  11  15  1   
 28  11  39  1   
 29  11  40  1   
 30  12  16  1   
 31  13  17  1   
 32  13  41  1   
 33  13  42  1   
 34  14  18  1   
 35  14  43  1   
 36  14  44  1   
 37  15  18  1   
 38  15  45  1   
 39  15  46  1   
 40  16  19  1   
 41  16  47  1   
 42  16  48  1   
 43  17  19  1   
 44  17  49  1   
 45  17  50  1   
 46  18  20  1   
 47  18  51  1   
 48  19  52  1   
 49  19  53  1   
 50  20  21  ar  
 51  20  22  ar  
 52  21  23  ar  
 53  21  54  1   
 54  22  24  ar  
 55  22  55  1   
 56  23  25  ar  
 57  23  56  1   
 58  24  25  ar  
 59  24  57  1   
 60  25  58  1   
@<TRIPOS>SUBSTRUCTURE
  1 ****   7 GROUP 4 **** **** 0

# MOE 2024.06 (io_trps.svl 2023.06)
