@<TRIPOS>MOLECULE
NONAME
46 49 1 0 0 
SMALL
USER_CHARGES


@<TRIPOS>ATOM
  1 O       -0.8020    -1.2090     0.8050 O.2   1 <1>  -0.5700 
  2 C        0.2210    -1.6990     0.3620 C.2   1 <1>   0.8410 
  3 N        0.6780    -1.2750    -0.8570 N.2   1 <1>  -0.6610 
  4 N        0.8970    -2.6790     1.0750 N.am  1 <1>  -0.4690 
  5 C        1.7620    -1.7960    -1.3070 C.2   1 <1>   0.3760 
  6 C        2.0550    -3.2200     0.5760 C.2   1 <1>  -0.0410 
  7 C        0.3700    -3.1690     2.3910 C.3   1 <1>   0.2010 
  8 C        2.5030    -2.7830    -0.6220 C.2   1 <1>  -0.1360 
  9 C        0.0460    -4.6630     2.3610 C.2   1 <1>   0.5690 
 10 O        0.8850    -5.4120     2.8060 O.2   1 <1>  -0.5700 
 11 N       -1.1260    -5.1440     1.8280 N.am  1 <1>  -0.6600 
 12 C       -1.3610    -6.6100     1.6420 C.3   1 <1>   0.1400 
 13 C       -2.1680    -4.3330     1.1260 C.3   1 <1>   0.1400 
 14 C       -1.5220    -6.9470     0.1460 C.3   1 <1>   0.3440 
 15 C       -2.2530    -4.7520    -0.3590 C.3   1 <1>   0.2950 
 16 O       -2.5040    -6.1280    -0.4400 O.3   1 <1>  -0.5600 
 17 C       -1.9050    -8.4130    -0.0340 C.ar  1 <1>  -0.1440 
 18 C       -3.3540    -4.0470    -1.1690 C.3   1 <1>  -0.1950 
 19 C       -0.9090    -9.3690    -0.1760 C.ar  1 <1>  -0.1500 
 20 C       -3.2330    -8.8190    -0.0440 C.ar  1 <1>  -0.1500 
 21 C       -3.7320    -2.6110    -0.9670 C.3   1 <1>  -0.2000 
 22 C       -4.7090    -3.7050    -0.6310 C.3   1 <1>  -0.2000 
 23 C       -1.2330   -10.7070    -0.3240 C.ar  1 <1>  -0.1500 
 24 C       -3.5590   -10.1560    -0.1920 C.ar  1 <1>  -0.1500 
 25 C       -2.5590   -11.1010    -0.3320 C.ar  1 <1>  -0.1500 
 26 H        2.1370    -1.4700    -2.2610 H     1 <1>   0.0600 
 27 H        2.5670    -3.9760     1.1560 H     1 <1>   0.1500 
 28 H        1.1220    -3.0020     3.1400 H     1 <1>   0.0800 
 29 H       -0.5040    -2.6220     2.6920 H     1 <1>   0.0800 
 30 H        3.4010    -3.1600    -1.0750 H     1 <1>   0.1500 
 31 H       -0.5460    -7.1850     2.0450 H     1 <1>   0.0800 
 32 H       -2.2550    -6.8990     2.1660 H     1 <1>   0.0800 
 33 H       -3.1190    -4.5050     1.5980 H     1 <1>   0.0800 
 34 H       -1.9590    -3.2870     1.1950 H     1 <1>   0.0800 
 35 H       -0.5930    -6.7610    -0.3650 H     1 <1>   0.0800 
 36 H       -1.3070    -4.5550    -0.8330 H     1 <1>   0.0800 
 37 H       -3.3180    -4.3740    -2.1940 H     1 <1>   0.1000 
 38 H        0.1270    -9.0790    -0.1700 H     1 <1>   0.1500 
 39 H       -4.0190    -8.0910     0.0600 H     1 <1>   0.1500 
 40 H       -3.3040    -2.0390    -0.1620 H     1 <1>   0.1000 
 41 H       -3.9150    -2.0040    -1.8370 H     1 <1>   0.1000 
 42 H       -5.5610    -3.8560    -1.2700 H     1 <1>   0.1000 
 43 H       -4.9420    -3.8900     0.4030 H     1 <1>   0.1000 
 44 H       -0.4540   -11.4400    -0.4340 H     1 <1>   0.1500 
 45 H       -4.5920   -10.4590    -0.2000 H     1 <1>   0.1500 
 46 H       -2.8120   -12.1400    -0.4480 H     1 <1>   0.1500 
@<TRIPOS>BOND
  1   1   2  2   
  2   2   3  1   
  3   2   4  am  
  4   3   5  2   
  5   4   6  1   
  6   4   7  1   
  7   5   8  1   
  8   5  26  1   
  9   6   8  2   
 10   6  27  1   
 11   7   9  1   
 12   7  28  1   
 13   7  29  1   
 14   8  30  1   
 15   9  10  2   
 16   9  11  am  
 17  11  12  1   
 18  11  13  1   
 19  12  14  1   
 20  12  31  1   
 21  12  32  1   
 22  13  15  1   
 23  13  33  1   
 24  13  34  1   
 25  14  16  1   
 26  14  17  1   
 27  14  35  1   
 28  15  16  1   
 29  15  18  1   
 30  15  36  1   
 31  17  19  ar  
 32  17  20  ar  
 33  18  21  1   
 34  18  22  1   
 35  18  37  1   
 36  19  23  ar  
 37  19  38  1   
 38  20  24  ar  
 39  20  39  1   
 40  21  22  1   
 41  21  40  1   
 42  21  41  1   
 43  22  42  1   
 44  22  43  1   
 45  23  25  ar  
 46  23  44  1   
 47  24  25  ar  
 48  24  45  1   
 49  25  46  1   
@<TRIPOS>SUBSTRUCTURE
  1 ****  15 GROUP 4 **** **** 0

# MOE 2024.06 (io_trps.svl 2023.06)
