@<TRIPOS>MOLECULE
NONAME
51 53 1 0 0 
SMALL
USER_CHARGES


@<TRIPOS>ATOM
  1 S        1.4420     1.7030    -1.2240 S.o2  1 <1>   1.3330 
  2 O        1.0600     0.3240    -1.4330 O.2   1 <1>  -0.6500 
  3 O        1.0950     2.6980    -2.2140 O.2   1 <1>  -0.6500 
  4 N        0.7750     2.2090     0.2530 N.am  1 <1>  -0.8490 
  5 C        3.2120     1.7530    -0.9370 C.3   1 <1>  -0.0550 
  6 C        0.8880     3.6580     0.4770 C.3   1 <1>   0.1160 
  7 C       -0.6250     1.7990     0.3870 C.3   1 <1>   0.1160 
  8 C        3.7440     0.6360    -0.0110 C.3   1 <1>  -0.0800 
  9 C        5.2540     0.6280     0.1760 C.3   1 <1>   0.2200 
 10 C        3.2280     0.6820     1.4330 C.3   1 <1>   0.1200 
 11 N        5.7480     2.0060     0.4000 N.am  1 <1>  -0.7300 
 12 C        5.3670    -0.1490     1.4790 C.3   1 <1>   0.1200 
 13 O        4.2910     0.2860     2.2530 O.3   1 <1>  -0.5600 
 14 C        6.3770     2.7740    -0.5180 C.2   1 <1>   0.5690 
 15 O        6.6850     2.3550    -1.6050 O.2   1 <1>  -0.5700 
 16 C        6.6300     4.2220    -0.1860 C.3   1 <1>  -0.0990 
 17 C        5.7140     5.0970    -1.0410 C.3   1 <1>   0.1400 
 18 N        5.4750     6.3850    -0.3660 N.am  1 <1>  -0.4770 
 19 C        4.4470     6.6380     0.4970 C.2   1 <1>   0.6900 
 20 C        6.2340     7.5490    -0.4620 C.ar  1 <1>   0.1170 
 21 O        3.5900     5.8390     0.8400 O.2   1 <1>  -0.5700 
 22 N        4.5310     7.9150     0.9370 N.am  1 <1>  -0.5470 
 23 C        5.6420     8.5010     0.3520 C.ar  1 <1>   0.1170 
 24 C        7.3810     7.8510    -1.1830 C.ar  1 <1>  -0.1500 
 25 C        6.1770     9.7750     0.4670 C.ar  1 <1>  -0.1500 
 26 C        7.9190     9.1220    -1.0710 C.ar  1 <1>  -0.1500 
 27 C        7.3210    10.0780    -0.2520 C.ar  1 <1>  -0.1500 
 28 H        3.7090     1.6580    -1.8830 H     1 <1>   0.0800 
 29 H        3.4700     2.7120    -0.5380 H     1 <1>   0.0800 
 30 H        0.5130     3.9130     1.4530 H     1 <1>   0.0800 
 31 H        0.3290     4.2020    -0.2660 H     1 <1>   0.0800 
 32 H        1.9170     3.9660     0.4260 H     1 <1>   0.0800 
 33 H       -1.0160     2.1130     1.3400 H     1 <1>   0.0800 
 34 H       -0.7020     0.7260     0.3290 H     1 <1>   0.0800 
 35 H       -1.2190     2.2320    -0.4010 H     1 <1>   0.0800 
 36 H        3.4550    -0.3140    -0.4270 H     1 <1>   0.0800 
 37 H        5.7810     0.1560    -0.6370 H     1 <1>   0.0800 
 38 H        2.3970     0.0140     1.5840 H     1 <1>   0.0800 
 39 H        2.9500     1.6790     1.7270 H     1 <1>   0.0800 
 40 H        5.4820     2.3890     1.3120 H     1 <1>   0.3700 
 41 H        6.2900     0.0370     2.0000 H     1 <1>   0.0800 
 42 H        5.2460    -1.2050     1.3080 H     1 <1>   0.0800 
 43 H        6.4310     4.3830     0.8580 H     1 <1>   0.0800 
 44 H        7.6580     4.4590    -0.3850 H     1 <1>   0.0800 
 45 H        4.7640     4.6090    -1.1800 H     1 <1>   0.0800 
 46 H        6.1480     5.2600    -2.0130 H     1 <1>   0.0800 
 47 H        3.8700     8.3210     1.5940 H     1 <1>   0.3700 
 48 H        7.8370     7.1100    -1.8130 H     1 <1>   0.1500 
 49 H        5.7090    10.5050     1.1020 H     1 <1>   0.1500 
 50 H        8.8080     9.3780    -1.6220 H     1 <1>   0.1500 
 51 H        7.7560    11.0610    -0.1800 H     1 <1>   0.1500 
@<TRIPOS>BOND
  1   1   2  2   
  2   1   3  2   
  3   1   4  am  
  4   1   5  1   
  5   4   6  1   
  6   4   7  1   
  7   5   8  1   
  8   5  28  1   
  9   5  29  1   
 10   6  30  1   
 11   6  31  1   
 12   6  32  1   
 13   7  33  1   
 14   7  34  1   
 15   7  35  1   
 16   8   9  1   
 17   8  10  1   
 18   8  36  1   
 19   9  11  1   
 20   9  12  1   
 21   9  37  1   
 22  10  13  1   
 23  10  38  1   
 24  10  39  1   
 25  11  14  am  
 26  11  40  1   
 27  12  13  1   
 28  12  41  1   
 29  12  42  1   
 30  14  15  2   
 31  14  16  1   
 32  16  17  1   
 33  16  43  1   
 34  16  44  1   
 35  17  18  1   
 36  17  45  1   
 37  17  46  1   
 38  18  19  am  
 39  18  20  1   
 40  19  21  2   
 41  19  22  am  
 42  20  23  ar  
 43  20  24  ar  
 44  22  23  1   
 45  22  47  1   
 46  23  25  ar  
 47  24  26  ar  
 48  24  48  1   
 49  25  27  ar  
 50  25  49  1   
 51  26  27  ar  
 52  26  50  1   
 53  27  51  1   
@<TRIPOS>SUBSTRUCTURE
  1 ****  17 GROUP 4 **** **** 0

# MOE 2024.06 (io_trps.svl 2023.06)
