@<TRIPOS>MOLECULE
NONAME
53 56 1 0 0 
SMALL
USER_CHARGES


@<TRIPOS>ATOM
  1 O       -2.4600    -2.3950    -1.2120 O.3   1 <1>  -0.5600 
  2 C       -3.0360    -1.3350    -0.5200 C.3   1 <1>   0.1200 
  3 C       -1.1630    -2.6960    -0.8060 C.3   1 <1>   0.0400 
  4 C       -4.4090    -1.0610    -1.1280 C.3   1 <1>   0.0960 
  5 N       -5.1010    -0.0150    -0.3480 N.pl3 1 <1>   0.0480 
  6 C       -5.8650    -0.1350     0.7690 C.2   1 <1>   0.0060 
  7 C       -5.0750     1.3060    -0.6030 C.2   1 <1>  -0.3020 
  8 N       -6.3070     0.9980     1.2180 N.2   1 <1>  -0.5650 
  9 C       -6.1750    -1.4680     1.4410 C.3   1 <1>   0.2900 
 10 C       -5.8130     1.9040     0.3560 C.2   1 <1>   0.0770 
 11 N       -6.8560    -2.4160     0.5260 N.3   1 <1>  -0.8100 
 12 C       -6.8740    -3.7700     1.1110 C.3   1 <1>   0.1100 
 13 C       -8.2070    -1.9060     0.1890 C.3   1 <1>   0.1100 
 14 C       -7.0970    -4.8560     0.0520 C.3   1 <1>   0.0960 
 15 C       -8.7710    -2.5440    -1.0830 C.3   1 <1>   0.0200 
 16 N       -8.5160    -4.9390    -0.3510 N.pl3 1 <1>   0.0480 
 17 C       -9.2700    -3.9540    -0.8420 C.2   1 <1>   0.0060 
 18 C       -9.3650    -5.9760    -0.3130 C.2   1 <1>   0.0060 
 19 N      -10.4720    -4.3480    -1.0790 N.2   1 <1>  -0.3380 
 20 N      -10.5330    -5.6350    -0.7420 N.2   1 <1>  -0.3380 
 21 C       -8.9720    -7.3680     0.1770 C.3   1 <1>   0.1630 
 22 C      -10.0820    -8.4140     0.1120 C.ar  1 <1>  -0.1430 
 23 C      -10.6030    -8.9680     1.2730 C.ar  1 <1>  -0.1500 
 24 C      -10.5730    -8.8340    -1.1150 C.ar  1 <1>  -0.1500 
 25 C      -11.5930    -9.9340     1.2070 C.ar  1 <1>  -0.1500 
 26 C      -11.5630    -9.7990    -1.1830 C.ar  1 <1>  -0.1500 
 27 C      -12.0720   -10.3520    -0.0220 C.ar  1 <1>  -0.1500 
 28 H       -2.4040    -0.4690    -0.6190 H     1 <1>   0.0800 
 29 H       -3.1280    -1.6150     0.5150 H     1 <1>   0.0800 
 30 H       -0.8140    -3.5280    -1.3920 H     1 <1>   0.0800 
 31 H       -1.1670    -2.9630     0.2360 H     1 <1>   0.0800 
 32 H       -0.5290    -1.8430    -0.9780 H     1 <1>   0.0800 
 33 H       -4.9980    -1.9570    -1.1250 H     1 <1>   0.0800 
 34 H       -4.2960    -0.7210    -2.1410 H     1 <1>   0.0800 
 35 H       -4.5480     1.7420    -1.4320 H     1 <1>   0.1500 
 36 H       -6.7910    -1.2910     2.3070 H     1 <1>   0.0800 
 37 H       -5.2450    -1.8890     1.7780 H     1 <1>   0.0800 
 38 H       -6.0170     2.9550     0.4740 H     1 <1>   0.1500 
 39 H       -7.6170    -3.8410     1.8880 H     1 <1>   0.0800 
 40 H       -5.9140    -3.9640     1.5570 H     1 <1>   0.0800 
 41 H       -8.1580    -0.8450     0.0090 H     1 <1>   0.0800 
 42 H       -8.8860    -2.0600     1.0120 H     1 <1>   0.0800 
 43 H       -6.7950    -5.8030     0.4560 H     1 <1>   0.0800 
 44 H       -6.4940    -4.6500    -0.8140 H     1 <1>   0.0800 
 45 H       -8.0270    -2.5370    -1.8580 H     1 <1>   0.0800 
 46 H       -9.6010    -1.9500    -1.4210 H     1 <1>   0.0800 
 47 H       -8.6270    -7.2860     1.1910 H     1 <1>   0.0800 
 48 H       -8.1520    -7.7210    -0.4200 H     1 <1>   0.0800 
 49 H      -10.2450    -8.6520     2.2370 H     1 <1>   0.1500 
 50 H      -10.1920    -8.4000    -2.0230 H     1 <1>   0.1500 
 51 H      -11.9920   -10.3590     2.1110 H     1 <1>   0.1500 
 52 H      -11.9390   -10.1150    -2.1410 H     1 <1>   0.1500 
 53 H      -12.8430   -11.1000    -0.0740 H     1 <1>   0.1500 
@<TRIPOS>BOND
  1   1   2  1   
  2   1   3  1   
  3   2   4  1   
  4   2  28  1   
  5   2  29  1   
  6   3  30  1   
  7   3  31  1   
  8   3  32  1   
  9   4   5  1   
 10   4  33  1   
 11   4  34  1   
 12   5   6  1   
 13   5   7  1   
 14   6   8  2   
 15   6   9  1   
 16   7  10  2   
 17   7  35  1   
 18   8  10  1   
 19   9  11  1   
 20   9  36  1   
 21   9  37  1   
 22  10  38  1   
 23  11  12  1   
 24  11  13  1   
 25  12  14  1   
 26  12  39  1   
 27  12  40  1   
 28  13  15  1   
 29  13  41  1   
 30  13  42  1   
 31  14  16  1   
 32  14  43  1   
 33  14  44  1   
 34  15  17  1   
 35  15  45  1   
 36  15  46  1   
 37  16  17  1   
 38  16  18  1   
 39  17  19  2   
 40  18  20  2   
 41  18  21  1   
 42  19  20  1   
 43  21  22  1   
 44  21  47  1   
 45  21  48  1   
 46  22  23  ar  
 47  22  24  ar  
 48  23  25  ar  
 49  23  49  1   
 50  24  26  ar  
 51  24  50  1   
 52  25  27  ar  
 53  25  51  1   
 54  26  27  ar  
 55  26  52  1   
 56  27  53  1   
@<TRIPOS>SUBSTRUCTURE
  1 ****  14 GROUP 4 **** **** 0

# MOE 2024.06 (io_trps.svl 2023.06)
