@<TRIPOS>MOLECULE
NONAME
52 55 1 0 0 
SMALL
USER_CHARGES


@<TRIPOS>ATOM
  1 O       -1.0980     0.0980    -0.0020 O.2   1 <1>  -0.5700 
  2 C       -1.7850     0.9480    -0.5410 C.2   1 <1>   0.5440 
  3 N       -2.9880     0.5370    -1.0750 N.am  1 <1>  -0.6600 
  4 C       -1.3610     2.3370    -0.5640 C.ar  1 <1>   0.0860 
  5 C       -3.1990    -0.9090    -1.3440 C.3   1 <1>   0.1400 
  6 C       -4.2430     1.2740    -0.7650 C.3   1 <1>   0.1400 
  7 C       -0.6200     2.8740     0.4830 C.ar  1 <1>  -0.1500 
  8 C       -1.6880     3.1780    -1.6480 C.ar  1 <1>  -0.1500 
  9 C       -3.7880    -1.5630    -0.0750 C.3   1 <1>   0.4230 
 10 C       -4.8660     0.6480     0.4910 C.3   1 <1>  -0.1600 
 11 C       -0.2340     4.2120     0.4640 C.ar  1 <1>   0.0000 
 12 C       -1.3130     4.5050    -1.6790 C.ar  1 <1>  -0.1500 
 13 N       -3.8520    -3.0830    -0.1340 N.4   1 <1>  -0.9590 
 14 C       -5.1210    -0.8850     0.3670 C.3   1 <1>   0.0000 
 15 C       -0.5870     5.0080    -0.6090 C.ar  1 <1>   0.1400 
 16 C        0.4880     5.0680     1.3200 C.2   1 <1>  -0.1500 
 17 C       -4.7720    -3.6960     0.8780 C.3   1 <1>   0.3430 
 18 C       -4.1120    -3.6690    -1.4890 C.3   1 <1>   0.2630 
 19 C       -5.5400    -1.4350     1.7630 C.3   1 <1>  -0.1600 
 20 C       -6.2370    -1.1620    -0.6820 C.3   1 <1>   0.1200 
 21 O       -0.1330     6.2470    -0.4400 O.3   1 <1>  -0.2800 
 22 C        0.5120     6.2740     0.7210 C.2   1 <1>  -0.0400 
 23 C       -4.9120    -2.8000     2.1070 C.3   1 <1>  -0.1600 
 24 O       -7.3700    -0.4060    -0.4370 O.3   1 <1>  -0.6800 
 25 C        1.1340     7.5820     1.1550 C.3   1 <1>  -0.0600 
 26 H       -3.8520    -1.0130    -2.1910 H     1 <1>   0.0800 
 27 H       -2.2540    -1.3650    -1.5860 H     1 <1>   0.0800 
 28 H       -4.0370     2.3150    -0.5820 H     1 <1>   0.0800 
 29 H       -4.9210     1.2130    -1.6000 H     1 <1>   0.0800 
 30 H       -0.3360     2.2580     1.3180 H     1 <1>   0.1500 
 31 H       -2.2440     2.7680    -2.4730 H     1 <1>   0.1500 
 32 H       -3.0820    -1.3260     0.7050 H     1 <1>   0.0800 
 33 H       -4.1910     0.8390     1.3080 H     1 <1>   0.0800 
 34 H       -5.7780     1.1700     0.7210 H     1 <1>   0.0800 
 35 H       -1.5610     5.1520    -2.5000 H     1 <1>   0.1500 
 36 H       -2.9000    -3.3770     0.1380 H     1 <1>   0.4500 
 37 H        0.9170     4.7690     2.2590 H     1 <1>   0.1500 
 38 H       -5.7500    -3.8350     0.4440 H     1 <1>   0.0800 
 39 H       -4.4000    -4.6650     1.1720 H     1 <1>   0.0800 
 40 H       -5.0760    -3.3590    -1.8560 H     1 <1>   0.0800 
 41 H       -4.0940    -4.7460    -1.4390 H     1 <1>   0.0800 
 42 H       -3.3560    -3.3530    -2.1900 H     1 <1>   0.0800 
 43 H       -5.2550    -0.7480     2.5430 H     1 <1>   0.0800 
 44 H       -6.6110    -1.5200     1.8200 H     1 <1>   0.0800 
 45 H       -6.5330    -2.1960    -0.6790 H     1 <1>   0.0800 
 46 H       -5.9150    -0.9050    -1.6750 H     1 <1>   0.0800 
 47 H       -5.5270    -3.2950     2.8390 H     1 <1>   0.0800 
 48 H       -3.9420    -2.6610     2.5540 H     1 <1>   0.0800 
 49 H       -7.7810    -0.6200     0.4240 H     1 <1>   0.4000 
 50 H        1.6220     7.4660     2.1050 H     1 <1>   0.0800 
 51 H        0.3720     8.3350     1.2410 H     1 <1>   0.0800 
 52 H        1.8570     7.8990     0.4250 H     1 <1>   0.0800 
@<TRIPOS>BOND
  1   1   2  2   
  2   2   3  am  
  3   2   4  1   
  4   3   5  1   
  5   3   6  1   
  6   4   7  ar  
  7   4   8  ar  
  8   5   9  1   
  9   5  26  1   
 10   5  27  1   
 11   6  10  1   
 12   6  28  1   
 13   6  29  1   
 14   7  11  ar  
 15   7  30  1   
 16   8  12  ar  
 17   8  31  1   
 18   9  13  1   
 19   9  14  1   
 20   9  32  1   
 21  10  14  1   
 22  10  33  1   
 23  10  34  1   
 24  11  15  ar  
 25  11  16  1   
 26  12  15  ar  
 27  12  35  1   
 28  13  17  1   
 29  13  18  1   
 30  13  36  1   
 31  14  19  1   
 32  14  20  1   
 33  15  21  1   
 34  16  22  2   
 35  16  37  1   
 36  17  23  1   
 37  17  38  1   
 38  17  39  1   
 39  18  40  1   
 40  18  41  1   
 41  18  42  1   
 42  19  23  1   
 43  19  43  1   
 44  19  44  1   
 45  20  24  1   
 46  20  45  1   
 47  20  46  1   
 48  21  22  1   
 49  22  25  1   
 50  23  47  1   
 51  23  48  1   
 52  24  49  1   
 53  25  50  1   
 54  25  51  1   
 55  25  52  1   
@<TRIPOS>SUBSTRUCTURE
  1 ****   2 GROUP 4 **** **** 0

# MOE 2024.06 (io_trps.svl 2023.06)
