@<TRIPOS>MOLECULE
NONAME
44 47 1 0 0 
SMALL
USER_CHARGES


@<TRIPOS>ATOM
  1 O       -1.0170    -1.3900     1.4940 O.2   1 <1>  -0.5700 
  2 C       -1.7220    -2.2720     1.0730 C.2   1 <1>   0.8700 
  3 O       -2.8100    -2.7000     1.6890 O.3   1 <1>  -0.4300 
  4 O       -1.4940    -2.9240    -0.0530 O.3   1 <1>  -0.4300 
  5 C       -3.4300    -3.7090     0.9480 C.3   1 <1>   0.2800 
  6 C       -2.4760    -3.9030    -0.2460 C.3   1 <1>   0.1200 
  7 C       -3.5370    -4.9600     1.8330 C.3   1 <1>  -0.1600 
  8 C       -4.8250    -3.2070     0.5270 C.3   1 <1>  -0.1600 
  9 C       -4.2100    -6.1200     1.0820 C.3   1 <1>   0.1400 
 10 C       -5.8470    -4.3450     0.3990 C.3   1 <1>   0.1400 
 11 N       -5.1560    -5.6160     0.0390 N.am  1 <1>  -0.6600 
 12 C       -5.4480    -6.2700    -1.1430 C.2   1 <1>   0.5690 
 13 O       -6.1620    -5.7490    -1.9690 O.2   1 <1>  -0.5700 
 14 C       -4.8990    -7.6660    -1.5180 C.3   1 <1>   0.2610 
 15 O       -4.7960    -8.5560    -0.4140 O.3   1 <1>  -0.3630 
 16 C       -3.5170    -7.5940    -2.1770 C.3   1 <1>  -0.2400 
 17 C       -5.8880    -8.9790     0.2760 C.ar  1 <1>   0.0820 
 18 C       -7.2020    -8.6670    -0.0820 C.ar  1 <1>  -0.1500 
 19 C       -5.6360    -9.7600     1.4030 C.ar  1 <1>  -0.1500 
 20 C       -8.2170    -9.1460     0.7210 C.ar  1 <1>   0.0820 
 21 C       -6.6740   -10.2330     2.1960 C.ar  1 <1>  -0.1500 
 22 O       -9.5340    -8.9700     0.5770 O.3   1 <1>  -0.3630 
 23 C       -7.9630    -9.9050     1.8260 C.ar  1 <1>   0.0820 
 24 C      -10.1600    -9.6610     1.6570 C.3   1 <1>   0.4000 
 25 O       -9.1100   -10.2400     2.4300 O.3   1 <1>  -0.3630 
 26 H       -2.0040    -4.8680    -0.2400 H     1 <1>   0.0800 
 27 H       -2.9570    -3.7420    -1.1950 H     1 <1>   0.0800 
 28 H       -4.1280    -4.7250     2.7010 H     1 <1>   0.0800 
 29 H       -2.5650    -5.2700     2.1720 H     1 <1>   0.0800 
 30 H       -4.7680    -2.6830    -0.4100 H     1 <1>   0.0800 
 31 H       -5.2000    -2.5140     1.2590 H     1 <1>   0.0800 
 32 H       -4.7430    -6.7470     1.7770 H     1 <1>   0.0800 
 33 H       -3.4460    -6.7160     0.6170 H     1 <1>   0.0800 
 34 H       -6.5990    -4.0840    -0.3270 H     1 <1>   0.0800 
 35 H       -6.3480    -4.4900     1.3420 H     1 <1>   0.0800 
 36 H       -5.5780    -8.1160    -2.2200 H     1 <1>   0.0800 
 37 H       -2.7940    -7.1670    -1.5070 H     1 <1>   0.0800 
 38 H       -3.5710    -6.9780    -3.0570 H     1 <1>   0.0800 
 39 H       -3.1980    -8.5780    -2.4700 H     1 <1>   0.0800 
 40 H       -7.4610    -8.0790    -0.9410 H     1 <1>   0.1500 
 41 H       -4.6190    -9.9970     1.6580 H     1 <1>   0.1500 
 42 H       -6.4950   -10.8350     3.0680 H     1 <1>   0.1500 
 43 H      -10.7930   -10.4390     1.2690 H     1 <1>   0.0800 
 44 H      -10.7100    -8.9620     2.2620 H     1 <1>   0.0800 
@<TRIPOS>BOND
  1   1   2  2   
  2   2   3  1   
  3   2   4  1   
  4   3   5  1   
  5   4   6  1   
  6   5   6  1   
  7   5   7  1   
  8   5   8  1   
  9   6  26  1   
 10   6  27  1   
 11   7   9  1   
 12   7  28  1   
 13   7  29  1   
 14   8  10  1   
 15   8  30  1   
 16   8  31  1   
 17   9  11  1   
 18   9  32  1   
 19   9  33  1   
 20  10  11  1   
 21  10  34  1   
 22  10  35  1   
 23  11  12  am  
 24  12  13  2   
 25  12  14  1   
 26  14  15  1   
 27  14  16  1   
 28  14  36  1   
 29  15  17  1   
 30  16  37  1   
 31  16  38  1   
 32  16  39  1   
 33  17  18  ar  
 34  17  19  ar  
 35  18  20  ar  
 36  18  40  1   
 37  19  21  ar  
 38  19  41  1   
 39  20  22  1   
 40  20  23  ar  
 41  21  23  ar  
 42  21  42  1   
 43  22  24  1   
 44  23  25  1   
 45  24  25  1   
 46  24  43  1   
 47  24  44  1   
@<TRIPOS>SUBSTRUCTURE
  1 ****  11 GROUP 4 **** **** 0

# MOE 2024.06 (io_trps.svl 2023.06)
