@<TRIPOS>MOLECULE
NONAME
47 50 1 0 0 
SMALL
USER_CHARGES


@<TRIPOS>ATOM
  1 O       -0.6310    -0.0290    -0.9270 O.2   1 <1>  -0.5700 
  2 C       -1.5330     0.6940    -0.5670 C.2   1 <1>   0.5690 
  3 N       -2.8210     0.2890    -0.7280 N.am  1 <1>  -0.5470 
  4 C       -1.2470     2.0980     0.0550 C.3   1 <1>   0.4300 
  5 C       -3.9290     1.0450    -0.3180 C.ar  1 <1>   0.1170 
  6 N       -2.4480     2.6840     0.7480 N.pl3 1 <1>  -0.8690 
  7 C       -0.1410     2.0000     1.1280 C.3   1 <1>  -0.1600 
  8 C       -0.8740     3.0670    -1.0830 C.3   1 <1>  -0.1600 
  9 C       -3.7310     2.2340     0.4040 C.ar  1 <1>   0.1000 
 10 C       -5.2160     0.6310    -0.6270 C.ar  1 <1>  -0.1500 
 11 C        1.2210     2.4090     0.5760 C.3   1 <1>   0.2090 
 12 C       -0.0820     4.2710    -0.5820 C.3   1 <1>   0.2090 
 13 C       -4.8360     2.9760     0.7920 C.ar  1 <1>  -0.1500 
 14 C       -6.3080     1.3850    -0.2320 C.ar  1 <1>  -0.1500 
 15 N        1.1530     3.8280     0.1240 N.pl3 1 <1>  -0.8380 
 16 C       -6.1180     2.5580     0.4760 C.ar  1 <1>  -0.1500 
 17 C        2.3430     4.5170    -0.1820 C.ar  1 <1>   0.4100 
 18 N        3.3590     3.7370    -0.5170 N.ar  1 <1>  -0.6200 
 19 C        2.4440     5.9580    -0.1530 C.ar  1 <1>   0.4100 
 20 C        4.4480     4.4160    -0.8450 C.ar  1 <1>   0.1600 
 21 N        3.5480     6.6040    -0.4970 N.ar  1 <1>  -0.6200 
 22 N        1.3890     6.7880     0.2750 N.pl3 1 <1>  -0.8380 
 23 C        4.5370     5.7920    -0.8410 C.ar  1 <1>   0.1600 
 24 C        1.2980     8.1740    -0.2630 C.3   1 <1>   0.1290 
 25 C        1.0340     6.6830     1.7130 C.3   1 <1>   0.1290 
 26 H       -2.9540    -0.6280    -1.1480 H     1 <1>   0.3700 
 27 H       -2.3520     3.6870     0.9170 H     1 <1>   0.4000 
 28 H       -0.0820     0.9950     1.5020 H     1 <1>   0.0800 
 29 H       -0.3580     2.6430     1.9620 H     1 <1>   0.0800 
 30 H       -1.7610     3.3900    -1.5960 H     1 <1>   0.0800 
 31 H       -0.2610     2.5580    -1.8050 H     1 <1>   0.0800 
 32 H       -5.3690    -0.2790    -1.1770 H     1 <1>   0.1500 
 33 H        1.5000     1.7750    -0.2500 H     1 <1>   0.0800 
 34 H        1.9720     2.3150     1.3430 H     1 <1>   0.0800 
 35 H       -0.6800     4.8530     0.0970 H     1 <1>   0.0800 
 36 H        0.1810     4.9000    -1.4150 H     1 <1>   0.0800 
 37 H       -4.6940     3.8830     1.3490 H     1 <1>   0.1500 
 38 H       -7.3050     1.0590    -0.4760 H     1 <1>   0.1500 
 39 H       -6.9660     3.1440     0.7850 H     1 <1>   0.1500 
 40 H        5.3070     3.8390    -1.1340 H     1 <1>   0.1500 
 41 H        5.4640     6.2550    -1.1290 H     1 <1>   0.1500 
 42 H        1.5280     8.1720    -1.3150 H     1 <1>   0.0800 
 43 H        2.0020     8.8110     0.2430 H     1 <1>   0.0800 
 44 H        0.3030     8.5570    -0.1260 H     1 <1>   0.0800 
 45 H        1.1910     5.6770     2.0660 H     1 <1>   0.0800 
 46 H       -0.0010     6.9390     1.8530 H     1 <1>   0.0800 
 47 H        1.6490     7.3500     2.2910 H     1 <1>   0.0800 
@<TRIPOS>BOND
  1   1   2  2   
  2   2   3  am  
  3   2   4  1   
  4   3   5  1   
  5   3  26  1   
  6   4   6  1   
  7   4   7  1   
  8   4   8  1   
  9   5   9  ar  
 10   5  10  ar  
 11   6   9  1   
 12   6  27  1   
 13   7  11  1   
 14   7  28  1   
 15   7  29  1   
 16   8  12  1   
 17   8  30  1   
 18   8  31  1   
 19   9  13  ar  
 20  10  14  ar  
 21  10  32  1   
 22  11  15  1   
 23  11  33  1   
 24  11  34  1   
 25  12  15  1   
 26  12  35  1   
 27  12  36  1   
 28  13  16  ar  
 29  13  37  1   
 30  14  16  ar  
 31  14  38  1   
 32  15  17  1   
 33  16  39  1   
 34  17  18  ar  
 35  17  19  ar  
 36  18  20  ar  
 37  19  21  ar  
 38  19  22  1   
 39  20  23  ar  
 40  20  40  1   
 41  21  23  ar  
 42  22  24  1   
 43  22  25  1   
 44  23  41  1   
 45  24  42  1   
 46  24  43  1   
 47  24  44  1   
 48  25  45  1   
 49  25  46  1   
 50  25  47  1   
@<TRIPOS>SUBSTRUCTURE
  1 ****  12 GROUP 4 **** **** 0

# MOE 2024.06 (io_trps.svl 2023.06)
