@<TRIPOS>MOLECULE
NONAME
52 54 1 0 0 
SMALL
USER_CHARGES


@<TRIPOS>ATOM
  1 F       -1.6830     3.0920     2.2820 F     1 <1>  -0.1900 
  2 C       -2.1630     2.5240     1.2070 C.ar  1 <1>   0.1900 
  3 C       -1.3690     2.4590     0.0720 C.ar  1 <1>  -0.1440 
  4 C       -3.4510     2.0250     1.2460 C.ar  1 <1>  -0.1500 
  5 C       -1.9020     1.8640    -1.0640 C.ar  1 <1>  -0.1500 
  6 C        0.0380     3.0210     0.0820 C.3   1 <1>   0.4870 
  7 C       -3.9670     1.4380     0.1040 C.ar  1 <1>  -0.1500 
  8 C       -3.1930     1.3590    -1.0440 C.ar  1 <1>  -0.1500 
  9 N       -0.0220     4.4920     0.3100 N.4   1 <1>  -0.9590 
 10 C       -0.7540     5.1980    -0.7850 C.3   1 <1>   0.3430 
 11 C        1.3350     5.0590     0.5610 C.3   1 <1>   0.3430 
 12 C       -0.8900     6.6790    -0.4460 C.3   1 <1>  -0.1600 
 13 C        1.2150     6.5350     0.9150 C.3   1 <1>  -0.1600 
 14 C        0.4850     7.2860    -0.1950 C.3   1 <1>   0.2890 
 15 N        0.3270     8.6900     0.2010 N.pl3 1 <1>  -0.8690 
 16 C        1.3150     9.6480     0.0770 C.ar  1 <1>   0.4100 
 17 N        2.3810     9.2760    -0.6280 N.ar  1 <1>  -0.6200 
 18 C        1.1860    10.9100     0.6840 C.ar  1 <1>   0.0860 
 19 C        3.3680    10.1430    -0.7340 C.ar  1 <1>   0.1670 
 20 C        0.0000    11.2970     1.4090 C.2   1 <1>   0.5440 
 21 C        2.2510    11.7890     0.5710 C.ar  1 <1>  -0.1500 
 22 C        3.3610    11.4060    -0.1490 C.ar  1 <1>  -0.1430 
 23 C        4.5580     9.6730    -1.5510 C.3   1 <1>  -0.0970 
 24 O        0.0670    11.8650     2.4770 O.2   1 <1>  -0.5700 
 25 N       -1.2490    11.0830     0.9310 N.am  1 <1>  -0.8000 
 26 C        4.5320    12.3730    -0.2760 C.3   1 <1>  -0.0970 
 27 H       -4.0360     2.0940     2.1470 H     1 <1>   0.1500 
 28 H       -1.3260     1.7800    -1.9710 H     1 <1>   0.1500 
 29 H        0.5270     2.8080    -0.8540 H     1 <1>   0.0800 
 30 H        0.5960     2.5480     0.8750 H     1 <1>   0.0800 
 31 H       -4.9680     1.0390     0.1080 H     1 <1>   0.1500 
 32 H       -3.6030     0.8960    -1.9270 H     1 <1>   0.1500 
 33 H       -0.5770     4.6080     1.1730 H     1 <1>   0.4500 
 34 H       -1.7360     4.7700    -0.9120 H     1 <1>   0.0800 
 35 H       -0.2160     5.0900    -1.7140 H     1 <1>   0.0800 
 36 H        1.9470     4.9510    -0.3200 H     1 <1>   0.0800 
 37 H        1.8130     4.5350     1.3740 H     1 <1>   0.0800 
 38 H       -1.5190     6.7940     0.4180 H     1 <1>   0.0800 
 39 H       -1.3530     7.1860    -1.2740 H     1 <1>   0.0800 
 40 H        2.2030     6.9460     1.0260 H     1 <1>   0.0800 
 41 H        0.6980     6.6470     1.8510 H     1 <1>   0.0800 
 42 H        1.0600     7.2330    -1.1070 H     1 <1>   0.0800 
 43 H       -0.4020     8.8870     0.8960 H     1 <1>   0.4000 
 44 H        2.1930    12.7540     1.0450 H     1 <1>   0.1500 
 45 H        4.3190     8.7650    -2.0760 H     1 <1>   0.0800 
 46 H        5.3930     9.4840    -0.9020 H     1 <1>   0.0800 
 47 H        4.8310    10.4160    -2.2770 H     1 <1>   0.0800 
 48 H       -2.0320    11.5100     1.4310 H     1 <1>   0.3700 
 49 H       -1.4170    10.8250    -0.0430 H     1 <1>   0.3700 
 50 H        5.4440    11.8980     0.0400 H     1 <1>   0.0800 
 51 H        4.3800    13.2440     0.3370 H     1 <1>   0.0800 
 52 H        4.6380    12.6930    -1.2970 H     1 <1>   0.0800 
@<TRIPOS>BOND
  1   1   2  1   
  2   2   3  ar  
  3   2   4  ar  
  4   3   5  ar  
  5   3   6  1   
  6   4   7  ar  
  7   4  27  1   
  8   5   8  ar  
  9   5  28  1   
 10   6   9  1   
 11   6  29  1   
 12   6  30  1   
 13   7   8  ar  
 14   7  31  1   
 15   8  32  1   
 16   9  10  1   
 17   9  11  1   
 18   9  33  1   
 19  10  12  1   
 20  10  34  1   
 21  10  35  1   
 22  11  13  1   
 23  11  36  1   
 24  11  37  1   
 25  12  14  1   
 26  12  38  1   
 27  12  39  1   
 28  13  14  1   
 29  13  40  1   
 30  13  41  1   
 31  14  15  1   
 32  14  42  1   
 33  15  16  1   
 34  15  43  1   
 35  16  17  ar  
 36  16  18  ar  
 37  17  19  ar  
 38  18  20  1   
 39  18  21  ar  
 40  19  22  ar  
 41  19  23  1   
 42  20  24  2   
 43  20  25  am  
 44  21  22  ar  
 45  21  44  1   
 46  22  26  1   
 47  23  45  1   
 48  23  46  1   
 49  23  47  1   
 50  25  48  1   
 51  25  49  1   
 52  26  50  1   
 53  26  51  1   
 54  26  52  1   
@<TRIPOS>SUBSTRUCTURE
  1 ****  14 GROUP 4 **** **** 0

# MOE 2024.06 (io_trps.svl 2023.06)
