@<TRIPOS>MOLECULE
NONAME
50 51 1 0 0 
SMALL
USER_CHARGES


@<TRIPOS>ATOM
  1 S        0.6350     0.3250    -0.2650 S.o2  1 <1>   1.3330 
  2 O        0.5650    -0.8520    -1.1010 O.2   1 <1>  -0.6500 
  3 O        0.4310     0.2020     1.1610 O.2   1 <1>  -0.6500 
  4 N       -0.4770     1.4660    -0.8510 N.am  1 <1>  -0.8490 
  5 C        2.2170     1.1130    -0.5560 C.3   1 <1>  -0.0550 
  6 C       -1.7280     0.8440    -1.2920 C.3   1 <1>   0.1160 
  7 C       -0.7620     2.5470     0.0990 C.3   1 <1>   0.1160 
  8 C        3.4160     0.1960    -0.2420 C.3   1 <1>  -0.0800 
  9 C        4.7840     0.7980    -0.5320 C.3   1 <1>   0.2200 
 10 C        3.5360    -0.2330     1.2270 C.3   1 <1>   0.1200 
 11 N        4.8590     2.2020    -0.0560 N.am  1 <1>  -0.7300 
 12 C        5.6530    -0.0610     0.3740 C.3   1 <1>   0.1200 
 13 O        4.9010    -0.2130     1.5380 O.3   1 <1>  -0.5600 
 14 C        4.7530     3.3120    -0.8460 C.2   1 <1>   0.5440 
 15 O        4.4730     3.1460    -2.0160 O.2   1 <1>  -0.5700 
 16 C        4.9320     4.6420    -0.3200 C.ar  1 <1>   0.0860 
 17 C        5.5040     4.9090     0.9130 C.ar  1 <1>   0.1600 
 18 C        4.5350     5.7650    -1.0260 C.ar  1 <1>   0.1600 
 19 N        5.6490     6.1170     1.3990 N.ar  1 <1>  -0.6200 
 20 N        4.6650     6.9890    -0.5720 N.ar  1 <1>  -0.6200 
 21 C        5.2180     7.1070     0.6300 C.ar  1 <1>   0.7200 
 22 N        5.3770     8.3340     1.1580 N.pl3 1 <1>  -0.8690 
 23 C        5.0830     9.6260     0.5360 C.3   1 <1>   0.2890 
 24 C        6.4040    10.3520     0.3170 C.3   1 <1>  -0.2400 
 25 C        4.1720    10.4020     1.4780 C.3   1 <1>  -0.2400 
 26 H        2.2730     1.4040    -1.5870 H     1 <1>   0.0800 
 27 H        2.2750     2.0030     0.0370 H     1 <1>   0.0800 
 28 H       -2.4020     1.5910    -1.6760 H     1 <1>   0.0800 
 29 H       -2.2000     0.3280    -0.4720 H     1 <1>   0.0800 
 30 H       -1.5300     0.1350    -2.0790 H     1 <1>   0.0800 
 31 H       -1.4020     3.2820    -0.3590 H     1 <1>   0.0800 
 32 H        0.1510     3.0320     0.3960 H     1 <1>   0.0800 
 33 H       -1.2490     2.1570     0.9780 H     1 <1>   0.0800 
 34 H        3.3160    -0.6990    -0.8320 H     1 <1>   0.0800 
 35 H        5.0660     0.7240    -1.5700 H     1 <1>   0.0800 
 36 H        3.1550    -1.2280     1.3860 H     1 <1>   0.0800 
 37 H        3.0400     0.4530     1.8920 H     1 <1>   0.0800 
 38 H        4.9580     2.2660     0.9610 H     1 <1>   0.3700 
 39 H        6.5990     0.3960     0.6060 H     1 <1>   0.0800 
 40 H        5.8090    -1.0370    -0.0530 H     1 <1>   0.0800 
 41 H        5.8580     4.0940     1.5190 H     1 <1>   0.1500 
 42 H        4.0940     5.6370    -2.0010 H     1 <1>   0.1500 
 43 H        5.8380     8.3560     2.0630 H     1 <1>   0.4000 
 44 H        4.5860     9.4850    -0.4100 H     1 <1>   0.0800 
 45 H        6.9150    10.5050     1.2500 H     1 <1>   0.0800 
 46 H        6.2240    11.3080    -0.1400 H     1 <1>   0.0800 
 47 H        7.0290     9.7750    -0.3410 H     1 <1>   0.0800 
 48 H        4.6490    10.5570     2.4290 H     1 <1>   0.0800 
 49 H        3.2560     9.8580     1.6250 H     1 <1>   0.0800 
 50 H        3.9330    11.3580     1.0510 H     1 <1>   0.0800 
@<TRIPOS>BOND
  1   1   2  2   
  2   1   3  2   
  3   1   4  am  
  4   1   5  1   
  5   4   6  1   
  6   4   7  1   
  7   5   8  1   
  8   5  26  1   
  9   5  27  1   
 10   6  28  1   
 11   6  29  1   
 12   6  30  1   
 13   7  31  1   
 14   7  32  1   
 15   7  33  1   
 16   8   9  1   
 17   8  10  1   
 18   8  34  1   
 19   9  11  1   
 20   9  12  1   
 21   9  35  1   
 22  10  13  1   
 23  10  36  1   
 24  10  37  1   
 25  11  14  am  
 26  11  38  1   
 27  12  13  1   
 28  12  39  1   
 29  12  40  1   
 30  14  15  2   
 31  14  16  1   
 32  16  17  ar  
 33  16  18  ar  
 34  17  19  ar  
 35  17  41  1   
 36  18  20  ar  
 37  18  42  1   
 38  19  21  ar  
 39  20  21  ar  
 40  21  22  1   
 41  22  23  1   
 42  22  43  1   
 43  23  24  1   
 44  23  25  1   
 45  23  44  1   
 46  24  45  1   
 47  24  46  1   
 48  24  47  1   
 49  25  48  1   
 50  25  49  1   
 51  25  50  1   
@<TRIPOS>SUBSTRUCTURE
  1 ****  14 GROUP 4 **** **** 0

# MOE 2024.06 (io_trps.svl 2023.06)
