@<TRIPOS>MOLECULE
NONAME
49 52 1 0 0 
SMALL
USER_CHARGES


@<TRIPOS>ATOM
  1 F        0.2080     1.1470    -0.7380 F     1 <1>  -0.1900 
  2 C       -0.2720     2.2760    -1.1930 C.ar  1 <1>   0.1900 
  3 C        0.2160     2.8180    -2.3700 C.ar  1 <1>   0.1900 
  4 C       -1.2690     2.9100    -0.4800 C.ar  1 <1>  -0.1500 
  5 F        1.1610     2.2140    -3.0400 F     1 <1>  -0.1900 
  6 C       -0.2910     4.0080    -2.8550 C.ar  1 <1>  -0.1500 
  7 C       -1.7950     4.1210    -0.9390 C.ar  1 <1>   0.0860 
  8 C       -1.2920     4.6450    -2.1370 C.ar  1 <1>  -0.1500 
  9 C       -2.8410     4.8000    -0.1930 C.2   1 <1>   0.5440 
 10 O       -3.7240     4.1400     0.3200 O.2   1 <1>  -0.5700 
 11 N       -2.8510     6.1710    -0.0480 N.am  1 <1>  -0.6600 
 12 C       -4.1100     6.8930     0.3580 C.3   1 <1>   0.2200 
 13 C       -1.5690     6.9310     0.0960 C.3   1 <1>   0.1400 
 14 C       -3.9100     8.4180     0.6280 C.3   1 <1>   0.1380 
 15 C       -5.2990     6.5920    -0.5760 C.3   1 <1>  -0.1600 
 16 C       -1.5280     7.7760     1.3820 C.3   1 <1>  -0.1600 
 17 C       -3.4410     9.2850    -0.5840 C.2   1 <1>  -0.2760 
 18 C       -5.2680     8.9830     1.1460 C.3   1 <1>   0.1200 
 19 C       -2.8530     8.4750     1.7560 C.3   1 <1>  -0.1600 
 20 C       -6.3470     7.7070    -0.5180 C.3   1 <1>   0.1200 
 21 C       -3.3530     8.8960    -1.8640 C.2   1 <1>  -0.2880 
 22 C       -3.0210    10.7250    -0.2600 C.3   1 <1>  -0.0220 
 23 O       -6.3810     8.2100     0.7790 O.3   1 <1>  -0.5600 
 24 C       -2.8670     9.7800    -3.0060 C.3   1 <1>   0.2580 
 25 C       -2.9550    11.5910    -1.5250 C.3   1 <1>   0.1200 
 26 O       -2.2330    10.9180    -2.5080 O.3   1 <1>  -0.5600 
 27 H       -1.6430     2.4730     0.4300 H     1 <1>   0.1500 
 28 H        0.0900     4.4210    -3.7730 H     1 <1>   0.1500 
 29 H       -1.7010     5.5690    -2.5090 H     1 <1>   0.1500 
 30 H       -4.3960     6.4720     1.3080 H     1 <1>   0.0800 
 31 H       -0.7310     6.2560     0.1070 H     1 <1>   0.0800 
 32 H       -1.4460     7.5730    -0.7580 H     1 <1>   0.0800 
 33 H       -5.7650     5.6810    -0.2480 H     1 <1>   0.0800 
 34 H       -4.9880     6.4400    -1.5900 H     1 <1>   0.0800 
 35 H       -1.2270     7.1410     2.1970 H     1 <1>   0.0800 
 36 H       -0.7590     8.5180     1.2630 H     1 <1>   0.0800 
 37 H       -5.4420     9.9760     0.7760 H     1 <1>   0.0800 
 38 H       -5.2730     9.0250     2.2200 H     1 <1>   0.0800 
 39 H       -2.6630     9.4850     2.0700 H     1 <1>   0.0800 
 40 H       -3.2530     7.9650     2.6170 H     1 <1>   0.0800 
 41 H       -7.3240     7.3230    -0.7560 H     1 <1>   0.0800 
 42 H       -6.1120     8.5120    -1.1940 H     1 <1>   0.0800 
 43 H       -3.6060     7.9180    -2.2180 H     1 <1>   0.1500 
 44 H       -2.0460    10.7220     0.1940 H     1 <1>   0.0800 
 45 H       -3.7010    11.1930     0.4260 H     1 <1>   0.0800 
 46 H       -3.6880    10.0890    -3.6300 H     1 <1>   0.0800 
 47 H       -2.1470     9.2530    -3.6080 H     1 <1>   0.0800 
 48 H       -2.4530    12.5210    -1.3210 H     1 <1>   0.0800 
 49 H       -3.9410    11.7980    -1.9030 H     1 <1>   0.0800 
@<TRIPOS>BOND
  1   1   2  1   
  2   2   3  ar  
  3   2   4  ar  
  4   3   5  1   
  5   3   6  ar  
  6   4   7  ar  
  7   4  27  1   
  8   6   8  ar  
  9   6  28  1   
 10   7   8  ar  
 11   7   9  1   
 12   8  29  1   
 13   9  10  2   
 14   9  11  am  
 15  11  12  1   
 16  11  13  1   
 17  12  14  1   
 18  12  15  1   
 19  12  30  1   
 20  13  16  1   
 21  13  31  1   
 22  13  32  1   
 23  14  17  1   
 24  14  18  1   
 25  14  19  1   
 26  15  20  1   
 27  15  33  1   
 28  15  34  1   
 29  16  19  1   
 30  16  35  1   
 31  16  36  1   
 32  17  21  2   
 33  17  22  1   
 34  18  23  1   
 35  18  37  1   
 36  18  38  1   
 37  19  39  1   
 38  19  40  1   
 39  20  23  1   
 40  20  41  1   
 41  20  42  1   
 42  21  24  1   
 43  21  43  1   
 44  22  25  1   
 45  22  44  1   
 46  22  45  1   
 47  24  26  1   
 48  24  46  1   
 49  24  47  1   
 50  25  26  1   
 51  25  48  1   
 52  25  49  1   
@<TRIPOS>SUBSTRUCTURE
  1 ****  11 GROUP 4 **** **** 0

# MOE 2024.06 (io_trps.svl 2023.06)
