@<TRIPOS>MOLECULE
F1911-4945
29 30 1 0 0 
SMALL
USER_CHARGES


@<TRIPOS>ATOM
  1 O       -1.7000     0.9740    -0.4790 O.3   1 <1>  -0.6800 
  2 C       -2.8310     0.6390    -1.2060 C.3   1 <1>   0.1200 
  3 C       -4.0470     0.5450    -0.2500 C.3   1 <1>   0.0000 
  4 C       -5.1780    -0.2830    -0.8910 C.3   1 <1>  -0.0800 
  5 C       -4.4800     1.9770     0.1480 C.3   1 <1>  -0.1600 
  6 C       -3.6820    -0.3170     0.9630 C.3   1 <1>   0.3430 
  7 C       -6.5480    -0.1180    -0.1940 C.3   1 <1>  -0.1600 
  8 C       -4.7010    -1.7270    -0.7150 C.3   1 <1>   0.3430 
  9 C       -5.8330     2.0440     0.8650 C.3   1 <1>  -0.1600 
 10 N       -3.8960    -1.7340     0.5410 N.4   1 <1>  -0.9060 
 11 C       -6.9120     1.3500     0.0320 C.3   1 <1>  -0.1600 
 12 H       -0.9760     1.2760    -1.0690 H     1 <1>   0.4000 
 13 H       -2.6290    -0.2950    -1.7010 H     1 <1>   0.0800 
 14 H       -2.9910     1.3970    -1.9550 H     1 <1>   0.0800 
 15 H       -5.2920    -0.0390    -1.9340 H     1 <1>   0.0800 
 16 H       -4.5550     2.5800    -0.7410 H     1 <1>   0.0800 
 17 H       -3.7240     2.4290     0.7690 H     1 <1>   0.0800 
 18 H       -4.3490    -0.0780     1.7750 H     1 <1>   0.0800 
 19 H       -2.6680    -0.1420     1.2850 H     1 <1>   0.0800 
 20 H       -6.5520    -0.6120     0.7630 H     1 <1>   0.0800 
 21 H       -7.3150    -0.5790    -0.7940 H     1 <1>   0.0800 
 22 H       -4.0760    -2.0040    -1.5490 H     1 <1>   0.0800 
 23 H       -5.5340    -2.4100    -0.6580 H     1 <1>   0.0800 
 24 H       -6.1060     3.0760     1.0110 H     1 <1>   0.0800 
 25 H       -5.7690     1.5880     1.8380 H     1 <1>   0.0800 
 26 H       -4.3760    -2.2520     1.2870 H     1 <1>   0.4500 
 27 H       -2.9840    -2.1800     0.3810 H     1 <1>   0.4500 
 28 H       -7.8580     1.4140     0.5440 H     1 <1>   0.0800 
 29 H       -7.0200     1.8520    -0.9150 H     1 <1>   0.0800 
@<TRIPOS>BOND
  1   1   2  1   
  2   1  12  1   
  3   2   3  1   
  4   2  13  1   
  5   2  14  1   
  6   3   4  1   
  7   3   5  1   
  8   3   6  1   
  9   4   7  1   
 10   4   8  1   
 11   4  15  1   
 12   5   9  1   
 13   5  16  1   
 14   5  17  1   
 15   6  10  1   
 16   6  18  1   
 17   6  19  1   
 18   7  11  1   
 19   7  20  1   
 20   7  21  1   
 21   8  10  1   
 22   8  22  1   
 23   8  23  1   
 24   9  11  1   
 25   9  24  1   
 26   9  25  1   
 27  10  26  1   
 28  10  27  1   
 29  11  28  1   
 30  11  29  1   
@<TRIPOS>SUBSTRUCTURE
  1 ****   3 GROUP 4 **** **** 0

# MOE 2024.06 (io_trps.svl 2023.06)
