@<TRIPOS>MOLECULE
NONAME
46 49 1 0 0 
SMALL
USER_CHARGES


@<TRIPOS>ATOM
  1 S       -0.4230     0.0420     1.7490 S.o2  1 <1>   1.4470 
  2 O       -0.8060     0.8900     2.8560 O.2   1 <1>  -0.6500 
  3 O       -0.2070    -1.3690     1.9890 O.2   1 <1>  -0.6500 
  4 N       -1.6350     0.2030     0.5670 N.am  1 <1>  -0.8490 
  5 C        1.0270     0.7660     0.9340 C.ar  1 <1>  -0.0090 
  6 C       -3.0080     0.1170     1.0720 C.3   1 <1>   0.1960 
  7 C       -1.4490    -0.5470    -0.6830 C.3   1 <1>   0.1960 
  8 C        1.0460     2.1100     0.5790 C.ar  1 <1>  -0.1500 
  9 C        2.1440    -0.0030     0.6240 C.ar  1 <1>  -0.1500 
 10 C       -3.4290    -1.3370     1.2940 C.3   1 <1>  -0.1600 
 11 C       -1.8710    -2.0150    -0.5590 C.3   1 <1>  -0.1600 
 12 C        2.1360     2.6740    -0.0630 C.ar  1 <1>  -0.1500 
 13 C        3.2370     0.5500    -0.0180 C.ar  1 <1>  -0.1500 
 14 C       -3.2860    -2.1540     0.0060 C.3   1 <1>   0.4610 
 15 C        3.2430     1.8890    -0.3680 C.ar  1 <1>   0.0830 
 16 O       -4.1460    -1.6140    -0.9830 O.3   1 <1>  -0.5600 
 17 C       -3.6210    -3.6270     0.2450 C.2   1 <1>  -0.1810 
 18 O        4.3490     2.3540    -0.9960 O.3   1 <1>  -0.3630 
 19 C       -5.5080    -1.9750    -0.9620 C.3   1 <1>   0.1200 
 20 C       -4.6960    -4.1920    -0.3180 C.2   1 <1>  -0.1400 
 21 C       -2.8690    -4.5410     1.0570 C.2   1 <1>  -0.1500 
 22 C        4.4710     3.7090    -1.3660 C.3   1 <1>   0.0400 
 23 C       -5.6890    -3.4830    -1.1990 C.3   1 <1>   0.0200 
 24 S       -4.8370    -5.8870     0.0960 S.3   1 <1>  -0.0800 
 25 C       -3.3840    -5.7860     1.0820 C.2   1 <1>  -0.1100 
 26 H       -3.6690     0.5700     0.3510 H     1 <1>   0.0800 
 27 H       -3.1040     0.6740     1.9890 H     1 <1>   0.0800 
 28 H       -0.4230    -0.4870    -1.0040 H     1 <1>   0.0800 
 29 H       -2.0510    -0.0830    -1.4470 H     1 <1>   0.0800 
 30 H        0.1900     2.7220     0.8120 H     1 <1>   0.1500 
 31 H        2.1590    -1.0480     0.8890 H     1 <1>   0.1500 
 32 H       -4.4420    -1.3760     1.6430 H     1 <1>   0.0800 
 33 H       -2.8180    -1.7700     2.0640 H     1 <1>   0.0800 
 34 H       -1.1740    -2.5410     0.0610 H     1 <1>   0.0800 
 35 H       -1.8370    -2.4830    -1.5260 H     1 <1>   0.0800 
 36 H        2.1030     3.7160    -0.3160 H     1 <1>   0.1500 
 37 H        4.0960    -0.0540    -0.2520 H     1 <1>   0.1500 
 38 H       -6.0080    -1.4150    -1.7320 H     1 <1>   0.0800 
 39 H       -5.9200    -1.6940    -0.0090 H     1 <1>   0.0800 
 40 H       -1.9840    -4.2230     1.5830 H     1 <1>   0.1500 
 41 H        5.4300     3.8420    -1.8330 H     1 <1>   0.0800 
 42 H        4.4070     4.3190    -0.4820 H     1 <1>   0.0800 
 43 H        3.6880     3.9530    -2.0620 H     1 <1>   0.0800 
 44 H       -5.5060    -3.7250    -2.2300 H     1 <1>   0.0800 
 45 H       -6.6920    -3.7740    -0.9450 H     1 <1>   0.0800 
 46 H       -3.0660    -6.6820     1.5830 H     1 <1>   0.1500 
@<TRIPOS>BOND
  1   1   2  2   
  2   1   3  2   
  3   1   4  am  
  4   1   5  1   
  5   4   6  1   
  6   4   7  1   
  7   5   8  ar  
  8   5   9  ar  
  9   6  10  1   
 10   6  26  1   
 11   6  27  1   
 12   7  11  1   
 13   7  28  1   
 14   7  29  1   
 15   8  12  ar  
 16   8  30  1   
 17   9  13  ar  
 18   9  31  1   
 19  10  14  1   
 20  10  32  1   
 21  10  33  1   
 22  11  14  1   
 23  11  34  1   
 24  11  35  1   
 25  12  15  ar  
 26  12  36  1   
 27  13  15  ar  
 28  13  37  1   
 29  14  16  1   
 30  14  17  1   
 31  15  18  1   
 32  16  19  1   
 33  17  20  2   
 34  17  21  1   
 35  18  22  1   
 36  19  23  1   
 37  19  38  1   
 38  19  39  1   
 39  20  23  1   
 40  20  24  1   
 41  21  25  2   
 42  21  40  1   
 43  22  41  1   
 44  22  42  1   
 45  22  43  1   
 46  23  44  1   
 47  23  45  1   
 48  24  25  1   
 49  25  46  1   
@<TRIPOS>SUBSTRUCTURE
  1 ****   7 GROUP 4 **** **** 0

# MOE 2024.06 (io_trps.svl 2023.06)
