@<TRIPOS>MOLECULE
NONAME
60 63 1 0 0 
SMALL
USER_CHARGES


@<TRIPOS>ATOM
  1 O       -2.6190     0.4170    -1.8810 O.2   1 <1>  -0.5700 
  2 C       -2.0680     0.7340    -0.8430 C.2   1 <1>   0.7160 
  3 N       -1.6140    -0.2600    -0.0240 N.am  1 <1>  -0.7300 
  4 C       -1.8360     2.0940    -0.4770 C.2   1 <1>  -0.0860 
  5 C       -1.5860    -1.6960    -0.3630 C.3   1 <1>   0.1400 
  6 C       -2.7500     3.1340    -0.2470 C.2   1 <1>   0.3720 
  7 C       -0.6370     2.6580    -0.1760 C.2   1 <1>   0.0870 
  8 C       -2.8830    -2.3490     0.1270 C.3   1 <1>  -0.1600 
  9 N       -2.1410     4.1870     0.1760 N.2   1 <1>  -0.4100 
 10 N       -4.1440     3.1280    -0.3850 N.pl3 1 <1>  -0.8210 
 11 O       -0.8730     3.8840     0.2060 O.3   1 <1>  -0.0190 
 12 C        0.7070     2.1420    -0.2020 C.ar  1 <1>   0.0530 
 13 C       -3.0460    -3.8040    -0.3530 C.3   1 <1>  -0.0800 
 14 C       -4.8530     2.2480    -1.3580 C.3   1 <1>   0.2090 
 15 C       -4.9670     3.5080     0.8000 C.3   1 <1>   0.2090 
 16 C        1.1320     1.2570    -1.1930 C.ar  1 <1>  -0.1500 
 17 C        1.6330     2.5090     0.7750 C.ar  1 <1>  -0.1500 
 18 C       -4.4750    -4.3000    -0.0340 C.3   1 <1>   0.3430 
 19 C       -1.9680    -4.7360     0.2340 C.3   1 <1>  -0.1600 
 20 C       -6.2710     2.7720    -1.6450 C.3   1 <1>   0.1200 
 21 C       -6.3760     3.9540     0.3710 C.3   1 <1>   0.1200 
 22 C        2.4170     0.7480    -1.2000 C.ar  1 <1>  -0.1500 
 23 C        2.9200     2.0040     0.7730 C.ar  1 <1>  -0.1500 
 24 N       -4.5220    -5.7580     0.3160 N.4   1 <1>  -0.9590 
 25 C       -2.1630    -6.1860    -0.2530 C.3   1 <1>  -0.1600 
 26 O       -6.9780     2.9950    -0.4550 O.3   1 <1>  -0.5600 
 27 C        3.3140     1.1200    -0.2150 C.ar  1 <1>  -0.1500 
 28 C       -3.6200    -6.5600    -0.5540 C.3   1 <1>   0.3430 
 29 C       -5.9220    -6.2790     0.2860 C.3   1 <1>   0.2630 
 30 H       -1.1030     0.0160     0.8180 H     1 <1>   0.3700 
 31 H       -0.7250    -2.1500     0.0980 H     1 <1>   0.0800 
 32 H       -1.4980    -1.8070    -1.4320 H     1 <1>   0.0800 
 33 H       -3.7060    -1.7670    -0.2540 H     1 <1>   0.0800 
 34 H       -2.9130    -2.3080     1.2030 H     1 <1>   0.0800 
 35 H       -2.9430    -3.8050    -1.4260 H     1 <1>   0.0800 
 36 H       -4.9210     1.2500    -0.9620 H     1 <1>   0.0800 
 37 H       -4.3010     2.2140    -2.2810 H     1 <1>   0.0800 
 38 H       -4.4900     4.3100     1.3350 H     1 <1>   0.0800 
 39 H       -5.0490     2.6640     1.4620 H     1 <1>   0.0800 
 40 H        0.4510     0.9680    -1.9750 H     1 <1>   0.1500 
 41 H        1.3370     3.1990     1.5470 H     1 <1>   0.1500 
 42 H       -5.1030    -4.1060    -0.8880 H     1 <1>   0.0800 
 43 H       -4.8670    -3.7320     0.7940 H     1 <1>   0.0800 
 44 H       -2.0270    -4.7110     1.3100 H     1 <1>   0.0800 
 45 H       -0.9800    -4.4090    -0.0420 H     1 <1>   0.0800 
 46 H       -6.8200     2.0530    -2.2260 H     1 <1>   0.0800 
 47 H       -6.2220     3.6960    -2.1950 H     1 <1>   0.0800 
 48 H       -6.3240     4.8870    -0.1630 H     1 <1>   0.0800 
 49 H       -7.0020     4.0850     1.2350 H     1 <1>   0.0800 
 50 H        2.7240     0.0670    -1.9750 H     1 <1>   0.1500 
 51 H        3.6170     2.3000     1.5380 H     1 <1>   0.1500 
 52 H       -4.1540    -5.8520     1.2740 H     1 <1>   0.4500 
 53 H       -1.7650    -6.8640     0.4830 H     1 <1>   0.0800 
 54 H       -1.5930    -6.3390    -1.1530 H     1 <1>   0.0800 
 55 H        4.3160     0.7260    -0.2190 H     1 <1>   0.1500 
 56 H       -3.8400    -6.3480    -1.5880 H     1 <1>   0.0800 
 57 H       -3.7650    -7.6150    -0.3850 H     1 <1>   0.0800 
 58 H       -6.3280    -6.2050    -0.7100 H     1 <1>   0.0800 
 59 H       -6.5470    -5.7110     0.9560 H     1 <1>   0.0800 
 60 H       -5.9430    -7.3120     0.5910 H     1 <1>   0.0800 
@<TRIPOS>BOND
  1   1   2  2   
  2   2   3  am  
  3   2   4  1   
  4   3   5  1   
  5   3  30  1   
  6   4   6  1   
  7   4   7  2   
  8   5   8  1   
  9   5  31  1   
 10   5  32  1   
 11   6   9  2   
 12   6  10  1   
 13   7  11  1   
 14   7  12  1   
 15   8  13  1   
 16   8  33  1   
 17   8  34  1   
 18   9  11  1   
 19  10  14  1   
 20  10  15  1   
 21  12  16  ar  
 22  12  17  ar  
 23  13  18  1   
 24  13  19  1   
 25  13  35  1   
 26  14  20  1   
 27  14  36  1   
 28  14  37  1   
 29  15  21  1   
 30  15  38  1   
 31  15  39  1   
 32  16  22  ar  
 33  16  40  1   
 34  17  23  ar  
 35  17  41  1   
 36  18  24  1   
 37  18  42  1   
 38  18  43  1   
 39  19  25  1   
 40  19  44  1   
 41  19  45  1   
 42  20  26  1   
 43  20  46  1   
 44  20  47  1   
 45  21  26  1   
 46  21  48  1   
 47  21  49  1   
 48  22  27  ar  
 49  22  50  1   
 50  23  27  ar  
 51  23  51  1   
 52  24  28  1   
 53  24  29  1   
 54  24  52  1   
 55  25  28  1   
 56  25  53  1   
 57  25  54  1   
 58  27  55  1   
 59  28  56  1   
 60  28  57  1   
 61  29  58  1   
 62  29  59  1   
 63  29  60  1   
@<TRIPOS>SUBSTRUCTURE
  1 ****   3 GROUP 4 **** **** 0

# MOE 2024.06 (io_trps.svl 2023.06)
