@<TRIPOS>MOLECULE
NONAME
44 46 1 0 0 
SMALL
USER_CHARGES


@<TRIPOS>ATOM
  1 O        4.0920    -1.8060    -1.9060 O.2   1 <1>  -0.5700 
  2 C        3.1700    -1.6690    -1.1210 C.2   1 <1>   0.5440 
  3 N        3.0300    -0.4170    -0.5790 N.am  1 <1>  -0.6600 
  4 C        2.3190    -2.7790    -0.7270 C.ar  1 <1>   0.0860 
  5 C        3.6870    -0.1760     0.7530 C.3   1 <1>   0.2200 
  6 C        2.8320     0.7350    -1.5130 C.3   1 <1>   0.1400 
  7 C        2.6620    -4.0970    -1.0390 C.ar  1 <1>  -0.1500 
  8 C        1.1280    -2.5840    -0.0200 C.ar  1 <1>  -0.1500 
  9 C        3.0960     1.0270     1.5060 C.3   1 <1>   0.1200 
 10 C        5.2250    -0.0320     0.6060 C.3   1 <1>   0.3430 
 11 C        3.7550     1.9450    -1.2700 C.3   1 <1>  -0.0800 
 12 C        1.8680    -5.1610    -0.6560 C.ar  1 <1>  -0.1500 
 13 C        0.3280    -3.6440     0.3660 C.ar  1 <1>  -0.1500 
 14 O        3.7420     2.2070     1.1330 O.3   1 <1>  -0.5600 
 15 N        5.6550     0.2820    -0.8020 N.4   1 <1>  -0.9590 
 16 C        3.3150     2.7790    -0.0570 C.3   1 <1>   0.1200 
 17 C        5.2710     1.6510    -1.2660 C.3   1 <1>   0.3430 
 18 C        0.6960    -4.9480     0.0500 C.ar  1 <1>   0.0830 
 19 C        7.1030     0.0110    -1.0110 C.3   1 <1>   0.2630 
 20 O       -0.0240    -6.0400     0.3890 O.3   1 <1>  -0.3620 
 21 C       -1.2540    -5.9410     1.0720 C.3   1 <1>   0.0400 
 22 H        3.4970    -1.0390     1.3690 H     1 <1>   0.0800 
 23 H        2.9760     0.3920    -2.5260 H     1 <1>   0.0800 
 24 H        1.8050     1.0540    -1.4410 H     1 <1>   0.0800 
 25 H        3.5650    -4.2900    -1.5920 H     1 <1>   0.1500 
 26 H        0.8170    -1.5850     0.2290 H     1 <1>   0.1500 
 27 H        3.2730     0.9050     2.5600 H     1 <1>   0.0800 
 28 H        2.0330     1.1160     1.3520 H     1 <1>   0.0800 
 29 H        5.6690    -0.9670     0.9040 H     1 <1>   0.0800 
 30 H        5.5840     0.7260     1.2820 H     1 <1>   0.0800 
 31 H        3.5910     2.5970    -2.1090 H     1 <1>   0.0800 
 32 H        2.1490    -6.1690    -0.9040 H     1 <1>   0.1500 
 33 H       -0.5770    -3.4430     0.9080 H     1 <1>   0.1500 
 34 H        5.1090    -0.3950    -1.3850 H     1 <1>   0.4500 
 35 H        2.2450     2.9060    -0.0240 H     1 <1>   0.0800 
 36 H        3.7620     3.7580    -0.1070 H     1 <1>   0.0800 
 37 H        5.7660     2.3890    -0.6550 H     1 <1>   0.0800 
 38 H        5.6300     1.7740    -2.2740 H     1 <1>   0.0800 
 39 H        7.7000     0.6710    -0.4030 H     1 <1>   0.0800 
 40 H        7.3640     0.1590    -2.0460 H     1 <1>   0.0800 
 41 H        7.3320    -1.0090    -0.7460 H     1 <1>   0.0800 
 42 H       -1.6370    -6.9350     1.2140 H     1 <1>   0.0800 
 43 H       -1.9400    -5.3670     0.4760 H     1 <1>   0.0800 
 44 H       -1.0870    -5.4750     2.0270 H     1 <1>   0.0800 
@<TRIPOS>BOND
  1   1   2  2   
  2   2   3  am  
  3   2   4  1   
  4   3   5  1   
  5   3   6  1   
  6   4   7  ar  
  7   4   8  ar  
  8   5   9  1   
  9   5  10  1   
 10   5  22  1   
 11   6  11  1   
 12   6  23  1   
 13   6  24  1   
 14   7  12  ar  
 15   7  25  1   
 16   8  13  ar  
 17   8  26  1   
 18   9  14  1   
 19   9  27  1   
 20   9  28  1   
 21  10  15  1   
 22  10  29  1   
 23  10  30  1   
 24  11  16  1   
 25  11  17  1   
 26  11  31  1   
 27  12  18  ar  
 28  12  32  1   
 29  13  18  ar  
 30  13  33  1   
 31  14  16  1   
 32  15  17  1   
 33  15  19  1   
 34  15  34  1   
 35  16  35  1   
 36  16  36  1   
 37  17  37  1   
 38  17  38  1   
 39  18  20  1   
 40  19  39  1   
 41  19  40  1   
 42  19  41  1   
 43  20  21  1   
 44  21  42  1   
 45  21  43  1   
 46  21  44  1   
@<TRIPOS>SUBSTRUCTURE
  1 ****   2 GROUP 4 **** **** 0

# MOE 2024.06 (io_trps.svl 2023.06)
