@<TRIPOS>MOLECULE
NONAME
50 51 1 0 0 
SMALL
USER_CHARGES


@<TRIPOS>ATOM
  1 N       -0.6370    -0.4590     1.8470 N.ar  1 <1>  -0.6200 
  2 C       -1.2960    -1.0300     0.8530 C.ar  1 <1>   0.4100 
  3 C       -0.5920    -1.2280     2.9270 C.ar  1 <1>   0.1600 
  4 N       -1.4110    -0.2820    -0.3290 N.pl3 1 <1>  -0.8380 
  5 C       -1.8830    -2.3340     0.9520 C.ar  1 <1>   0.4100 
  6 C       -1.1600    -2.4850     3.0190 C.ar  1 <1>   0.1600 
  7 C       -0.2200     0.5030    -0.7540 C.3   1 <1>   0.1290 
  8 C       -2.6840     0.4740    -0.4600 C.3   1 <1>   0.1290 
  9 N       -1.8220    -3.0850     2.0370 N.ar  1 <1>  -0.6200 
 10 N       -2.5560    -2.8640    -0.1430 N.pl3 1 <1>  -0.8690 
 11 C       -2.4760    -4.3200    -0.4410 C.3   1 <1>   0.2090 
 12 C       -3.6530    -5.0990     0.1860 C.3   1 <1>   0.1900 
 13 N       -3.3870    -6.5610     0.0620 N.3   1 <1>  -0.8100 
 14 C       -5.0130    -4.6430    -0.3990 C.3   1 <1>  -0.1600 
 15 C       -3.7430    -7.2060    -1.2250 C.3   1 <1>   0.1100 
 16 C       -3.8110    -7.3450     1.2470 C.3   1 <1>   0.1100 
 17 C       -6.2570    -5.2550     0.2630 C.3   1 <1>  -0.2400 
 18 C       -3.1980    -8.6530    -1.3210 C.3   1 <1>   0.3430 
 19 C       -3.4700    -8.8490     1.1190 C.3   1 <1>   0.3430 
 20 N       -2.5480    -9.0910    -0.0390 N.4   1 <1>  -0.9590 
 21 C       -2.0090   -10.4800    -0.0910 C.3   1 <1>   0.2630 
 22 H       -0.0740    -0.8290     3.7810 H     1 <1>   0.1500 
 23 H       -1.0690    -3.0280     3.9420 H     1 <1>   0.1500 
 24 H        0.6740    -0.0730    -0.5870 H     1 <1>   0.0800 
 25 H       -0.1550     1.4130    -0.1820 H     1 <1>   0.0800 
 26 H       -0.2900     0.7410    -1.8000 H     1 <1>   0.0800 
 27 H       -3.5080    -0.1250    -0.1100 H     1 <1>   0.0800 
 28 H       -2.8550     0.7310    -1.4910 H     1 <1>   0.0800 
 29 H       -2.6360     1.3740     0.1290 H     1 <1>   0.0800 
 30 H       -2.3620    -2.2630    -0.9540 H     1 <1>   0.4000 
 31 H       -1.5520    -4.7070    -0.0490 H     1 <1>   0.0800 
 32 H       -2.4790    -4.4560    -1.5070 H     1 <1>   0.0800 
 33 H       -3.6450    -4.8470     1.2330 H     1 <1>   0.0800 
 34 H       -5.0390    -4.8060    -1.4600 H     1 <1>   0.0800 
 35 H       -5.0810    -3.5790    -0.2560 H     1 <1>   0.0800 
 36 H       -3.3430    -6.6300    -2.0420 H     1 <1>   0.0800 
 37 H       -4.8120    -7.2310    -1.3410 H     1 <1>   0.0800 
 38 H       -4.8670    -7.2410     1.4150 H     1 <1>   0.0800 
 39 H       -3.3110    -6.9520     2.1160 H     1 <1>   0.0800 
 40 H       -6.3460    -6.3010     0.0410 H     1 <1>   0.0800 
 41 H       -7.1400    -4.7620    -0.1050 H     1 <1>   0.0800 
 42 H       -6.2160    -5.1190     1.3290 H     1 <1>   0.0800 
 43 H       -2.4820    -8.7000    -2.1250 H     1 <1>   0.0800 
 44 H       -4.0100    -9.3160    -1.5690 H     1 <1>   0.0800 
 45 H       -4.3820    -9.4060     0.9810 H     1 <1>   0.0800 
 46 H       -3.0150    -9.1840     2.0370 H     1 <1>   0.0800 
 47 H       -1.7910    -8.4020     0.1040 H     1 <1>   0.4500 
 48 H       -2.8090   -11.1870    -0.2370 H     1 <1>   0.0800 
 49 H       -1.5010   -10.7170     0.8300 H     1 <1>   0.0800 
 50 H       -1.3080   -10.5770    -0.9040 H     1 <1>   0.0800 
@<TRIPOS>BOND
  1   1   2  ar  
  2   1   3  ar  
  3   2   4  1   
  4   2   5  ar  
  5   3   6  ar  
  6   3  22  1   
  7   4   7  1   
  8   4   8  1   
  9   5   9  ar  
 10   5  10  1   
 11   6   9  ar  
 12   6  23  1   
 13   7  24  1   
 14   7  25  1   
 15   7  26  1   
 16   8  27  1   
 17   8  28  1   
 18   8  29  1   
 19  10  11  1   
 20  10  30  1   
 21  11  12  1   
 22  11  31  1   
 23  11  32  1   
 24  12  13  1   
 25  12  14  1   
 26  12  33  1   
 27  13  15  1   
 28  13  16  1   
 29  14  17  1   
 30  14  34  1   
 31  14  35  1   
 32  15  18  1   
 33  15  36  1   
 34  15  37  1   
 35  16  19  1   
 36  16  38  1   
 37  16  39  1   
 38  17  40  1   
 39  17  41  1   
 40  17  42  1   
 41  18  20  1   
 42  18  43  1   
 43  18  44  1   
 44  19  20  1   
 45  19  45  1   
 46  19  46  1   
 47  20  21  1   
 48  20  47  1   
 49  21  48  1   
 50  21  49  1   
 51  21  50  1   
@<TRIPOS>SUBSTRUCTURE
  1 ****  11 GROUP 4 **** **** 0

# MOE 2024.06 (io_trps.svl 2023.06)
