@<TRIPOS>MOLECULE
NONAME
47 49 1 0 0 
SMALL
USER_CHARGES


@<TRIPOS>ATOM
  1 O        0.6160    -0.0270    -1.6390 O.3   1 <1>  -0.6800 
  2 C        1.9430     0.0360    -1.2330 C.3   1 <1>   0.2000 
  3 C        2.2990    -1.1860    -0.3830 C.3   1 <1>  -0.0800 
  4 C        2.1910     1.2520    -0.3460 C.3   1 <1>   0.2090 
  5 C        3.0690    -0.6380     0.8280 C.3   1 <1>   0.2090 
  6 C        3.1250    -2.2010    -1.1900 C.3   1 <1>   0.0210 
  7 N        3.2410     0.8220     0.6100 N.pl3 1 <1>  -0.8380 
  8 C        3.4370    -3.4390    -0.3730 C.2   1 <1>   0.1080 
  9 C        4.5200     1.2970     0.3740 C.ar  1 <1>   0.4100 
 10 N        2.5400    -4.3250    -0.0700 N.2   1 <1>  -0.7070 
 11 C        4.6900    -3.7620     0.1360 C.2   1 <1>  -0.1500 
 12 N        5.1680     0.6920    -0.6130 N.ar  1 <1>  -0.6200 
 13 C        5.0570     2.3480     1.1270 C.ar  1 <1>   0.0730 
 14 N        3.2060    -5.2500     0.6470 N.pl3 1 <1>   0.3000 
 15 C        4.5100    -4.9300     0.7860 C.2   1 <1>  -0.3320 
 16 C        6.3830     1.1200    -0.8810 C.ar  1 <1>   0.1670 
 17 C        4.2520     2.9370     2.1560 C.1   1 <1>   0.4840 
 18 C        6.3460     2.7870     0.8410 C.ar  1 <1>  -0.1430 
 19 C        5.5190    -5.7740     1.5430 C.3   1 <1>  -0.0600 
 20 C        7.0150     2.1640    -0.2070 C.ar  1 <1>  -0.1430 
 21 C        7.0630     0.3630    -2.0100 C.3   1 <1>  -0.0970 
 22 N        3.6650     3.4630     2.9840 N.1   1 <1>  -0.5570 
 23 C        7.0040     3.9160     1.6430 C.3   1 <1>  -0.0970 
 24 C        8.4210     2.6250    -0.6060 C.3   1 <1>  -0.0970 
 25 H        0.4420    -0.8770    -2.0870 H     1 <1>   0.4000 
 26 H        2.5680     0.1040    -2.1070 H     1 <1>   0.0800 
 27 H        1.4080    -1.6660    -0.0170 H     1 <1>   0.0800 
 28 H        1.3010     1.5070     0.2030 H     1 <1>   0.0800 
 29 H        2.5180     2.0930    -0.9320 H     1 <1>   0.0800 
 30 H        4.0260    -1.1190     0.9480 H     1 <1>   0.0800 
 31 H        2.4970    -0.7930     1.7260 H     1 <1>   0.0800 
 32 H        4.0440    -1.7490    -1.5180 H     1 <1>   0.0800 
 33 H        2.5730    -2.5050    -2.0610 H     1 <1>   0.0800 
 34 H        5.5880    -3.1820     0.0180 H     1 <1>   0.1500 
 35 H        2.7430    -6.0850     1.0250 H     1 <1>   0.2700 
 36 H        6.4880    -5.3080     1.5100 H     1 <1>   0.0800 
 37 H        5.5940    -6.7510     1.1010 H     1 <1>   0.0800 
 38 H        5.2230    -5.8750     2.5720 H     1 <1>   0.0800 
 39 H        8.0610     0.0840    -1.7280 H     1 <1>   0.0800 
 40 H        7.0930     0.9770    -2.8910 H     1 <1>   0.0800 
 41 H        6.5200    -0.5360    -2.2410 H     1 <1>   0.0800 
 42 H        8.0350     3.6880     1.8420 H     1 <1>   0.0800 
 43 H        6.5340     4.0730     2.5970 H     1 <1>   0.0800 
 44 H        6.9520     4.8360     1.0880 H     1 <1>   0.0800 
 45 H        8.5150     3.6920    -0.5210 H     1 <1>   0.0800 
 46 H        8.6530     2.3810    -1.6260 H     1 <1>   0.0800 
 47 H        9.1510     2.1590     0.0320 H     1 <1>   0.0800 
@<TRIPOS>BOND
  1   1   2  1   
  2   1  25  1   
  3   2   3  1   
  4   2   4  1   
  5   2  26  1   
  6   3   5  1   
  7   3   6  1   
  8   3  27  1   
  9   4   7  1   
 10   4  28  1   
 11   4  29  1   
 12   5   7  1   
 13   5  30  1   
 14   5  31  1   
 15   6   8  1   
 16   6  32  1   
 17   6  33  1   
 18   7   9  1   
 19   8  10  2   
 20   8  11  1   
 21   9  12  ar  
 22   9  13  ar  
 23  10  14  1   
 24  11  15  2   
 25  11  34  1   
 26  12  16  ar  
 27  13  17  1   
 28  13  18  ar  
 29  14  15  1   
 30  14  35  1   
 31  15  19  1   
 32  16  20  ar  
 33  16  21  1   
 34  17  22  3   
 35  18  20  ar  
 36  18  23  1   
 37  19  36  1   
 38  19  37  1   
 39  19  38  1   
 40  20  24  1   
 41  21  39  1   
 42  21  40  1   
 43  21  41  1   
 44  23  42  1   
 45  23  43  1   
 46  23  44  1   
 47  24  45  1   
 48  24  46  1   
 49  24  47  1   
@<TRIPOS>SUBSTRUCTURE
  1 ****  12 GROUP 4 **** **** 0

# MOE 2024.06 (io_trps.svl 2023.06)
