@<TRIPOS>MOLECULE
NONAME
56 58 1 0 0 
SMALL
USER_CHARGES


@<TRIPOS>ATOM
  1 O        1.8950    -0.6800    -2.0600 O.2   1 <1>  -0.5700 
  2 C        1.3630    -1.2610    -1.1470 C.2   1 <1>   0.5690 
  3 N        1.9720    -1.6990    -0.0220 N.am  1 <1>  -0.6600 
  4 C       -0.1010    -1.6010    -1.1310 C.3   1 <1>  -0.0990 
  5 C        1.0250    -2.3800     0.8800 C.3   1 <1>   0.1400 
  6 C        3.4170    -1.5790     0.3050 C.3   1 <1>   0.1400 
  7 C       -0.1870    -2.6600    -0.0260 C.3   1 <1>   0.2200 
  8 C        3.8130    -0.1140     0.4860 C.3   1 <1>   0.1200 
  9 N       -0.0280    -3.9980    -0.6460 N.am  1 <1>  -0.7300 
 10 O        5.1190    -0.0690     0.9710 O.3   1 <1>  -0.5600 
 11 C       -0.5990    -5.1460    -0.1770 C.2   1 <1>   0.7150 
 12 C        5.6260     1.2200     1.0940 C.3   1 <1>   0.0400 
 13 O       -1.3310    -5.0730     0.7920 O.2   1 <1>  -0.5700 
 14 C       -0.3240    -6.4150    -0.8140 C.2   1 <1>   0.0550 
 15 O       -0.7260    -7.5490    -0.2500 O.3   1 <1>  -0.2800 
 16 C        0.3130    -6.7300    -1.9780 C.2   1 <1>  -0.1500 
 17 C       -0.3820    -8.5650    -1.0050 C.2   1 <1>  -0.0400 
 18 C        0.2730    -8.1210    -2.1010 C.2   1 <1>  -0.1500 
 19 C       -0.7540    -9.9700    -0.5610 C.3   1 <1>   0.5230 
 20 N       -2.2320   -10.0610    -0.3820 N.4   1 <1>  -0.9590 
 21 C       -2.6640    -9.4930     0.9320 C.3   1 <1>   0.3430 
 22 C       -2.7320   -11.4490    -0.5820 C.3   1 <1>   0.3430 
 23 C       -4.1900    -9.4710     1.0060 C.3   1 <1>  -0.1600 
 24 C       -4.2600   -11.4580    -0.5360 C.3   1 <1>  -0.1600 
 25 C       -4.7920   -10.8650     0.7770 C.3   1 <1>  -0.0800 
 26 C       -6.3220   -10.7960     0.7580 C.3   1 <1>  -0.2400 
 27 H       -0.4410    -1.9600    -2.0850 H     1 <1>   0.0800 
 28 H       -0.6500    -0.7220    -0.8540 H     1 <1>   0.0800 
 29 H        0.7540    -1.7120     1.6800 H     1 <1>   0.0800 
 30 H        1.4390    -3.2880     1.2850 H     1 <1>   0.0800 
 31 H        3.9950    -2.0020    -0.4990 H     1 <1>   0.0800 
 32 H        3.6270    -2.1190     1.2110 H     1 <1>   0.0800 
 33 H       -1.1150    -2.6070     0.5190 H     1 <1>   0.0800 
 34 H        3.1680     0.3640     1.2020 H     1 <1>   0.0800 
 35 H        3.7730     0.4000    -0.4590 H     1 <1>   0.0800 
 36 H        0.7160    -4.0630    -1.3420 H     1 <1>   0.3700 
 37 H        6.6290     1.1490     1.4780 H     1 <1>   0.0800 
 38 H        5.0130     1.7800     1.7790 H     1 <1>   0.0800 
 39 H        5.6410     1.6890     0.1260 H     1 <1>   0.0800 
 40 H        0.7650    -6.0600    -2.6890 H     1 <1>   0.1500 
 41 H        0.6930    -8.6790    -2.9220 H     1 <1>   0.1500 
 42 H       -0.2510   -10.2060     0.3620 H     1 <1>   0.0800 
 43 H       -0.4300   -10.6660    -1.3160 H     1 <1>   0.0800 
 44 H       -2.6450    -9.4570    -1.1050 H     1 <1>   0.4500 
 45 H       -2.2940    -8.4870     1.0520 H     1 <1>   0.0800 
 46 H       -2.2740   -10.0930     1.7380 H     1 <1>   0.0800 
 47 H       -2.3470   -12.0920     0.1940 H     1 <1>   0.0800 
 48 H       -2.4020   -11.8300    -1.5360 H     1 <1>   0.0800 
 49 H       -4.5680    -8.7750     0.2780 H     1 <1>   0.0800 
 50 H       -4.4840    -9.1090     1.9770 H     1 <1>   0.0800 
 51 H       -4.6050   -12.4730    -0.6350 H     1 <1>   0.0800 
 52 H       -4.6440   -10.9050    -1.3760 H     1 <1>   0.0800 
 53 H       -4.4950   -11.5070     1.5920 H     1 <1>   0.0800 
 54 H       -6.6710   -10.1620    -0.0390 H     1 <1>   0.0800 
 55 H       -6.6910   -10.4040     1.6900 H     1 <1>   0.0800 
 56 H       -6.7410   -11.7780     0.6210 H     1 <1>   0.0800 
@<TRIPOS>BOND
  1   1   2  2   
  2   2   3  am  
  3   2   4  1   
  4   3   5  1   
  5   3   6  1   
  6   4   7  1   
  7   4  27  1   
  8   4  28  1   
  9   5   7  1   
 10   5  29  1   
 11   5  30  1   
 12   6   8  1   
 13   6  31  1   
 14   6  32  1   
 15   7   9  1   
 16   7  33  1   
 17   8  10  1   
 18   8  34  1   
 19   8  35  1   
 20   9  11  am  
 21   9  36  1   
 22  10  12  1   
 23  11  13  2   
 24  11  14  1   
 25  12  37  1   
 26  12  38  1   
 27  12  39  1   
 28  14  15  1   
 29  14  16  2   
 30  15  17  1   
 31  16  18  1   
 32  16  40  1   
 33  17  18  2   
 34  17  19  1   
 35  18  41  1   
 36  19  20  1   
 37  19  42  1   
 38  19  43  1   
 39  20  21  1   
 40  20  22  1   
 41  20  44  1   
 42  21  23  1   
 43  21  45  1   
 44  21  46  1   
 45  22  24  1   
 46  22  47  1   
 47  22  48  1   
 48  23  25  1   
 49  23  49  1   
 50  23  50  1   
 51  24  25  1   
 52  24  51  1   
 53  24  52  1   
 54  25  26  1   
 55  25  53  1   
 56  26  54  1   
 57  26  55  1   
 58  26  56  1   
@<TRIPOS>SUBSTRUCTURE
  1 ****  11 GROUP 4 **** **** 0

# MOE 2024.06 (io_trps.svl 2023.06)
