@<TRIPOS>MOLECULE
NONAME
52 54 1 0 0 
SMALL
USER_CHARGES


@<TRIPOS>ATOM
  1 O       -0.5050    -0.1630     2.4830 O.2   1 <1>  -0.5700 
  2 C       -1.0530     0.6480     1.7730 C.2   1 <1>   0.5690 
  3 N       -1.9620     0.2360     0.8240 N.am  1 <1>  -0.6600 
  4 C       -0.7090     2.1180     1.9930 C.3   1 <1>   0.0440 
  5 C       -2.1510    -1.2110     0.5290 C.3   1 <1>   0.1400 
  6 C       -2.8280     1.1420     0.0170 C.3   1 <1>   0.1400 
  7 C       -0.1780     2.8250     0.7400 C.ar  1 <1>  -0.1440 
  8 C       -3.6230    -1.6100     0.7700 C.3   1 <1>   0.4230 
  9 C       -4.2940     0.7640     0.2620 C.3   1 <1>  -0.1600 
 10 C       -0.5920     4.1020     0.3640 C.ar  1 <1>  -0.1440 
 11 C        0.7570     2.1590    -0.0420 C.ar  1 <1>  -0.1500 
 12 N       -3.8810    -3.1070     0.6500 N.4   1 <1>  -0.9590 
 13 C       -4.6150    -0.7280    -0.0460 C.3   1 <1>   0.0000 
 14 C       -0.0820     4.6710    -0.7940 C.ar  1 <1>  -0.1500 
 15 C       -1.5830     4.9170     1.1850 C.3   1 <1>  -0.0970 
 16 C        1.2610     2.7350    -1.1930 C.ar  1 <1>  -0.1500 
 17 C       -5.3250    -3.4670     0.4630 C.3   1 <1>   0.3430 
 18 C       -3.0410    -3.8280    -0.3630 C.3   1 <1>   0.2630 
 19 C       -6.0700    -1.0320     0.4200 C.3   1 <1>  -0.1600 
 20 C       -4.4600    -1.0080    -1.5680 C.3   1 <1>   0.1200 
 21 C        0.8380     3.9930    -1.5720 C.ar  1 <1>  -0.1500 
 22 C       -6.2370    -2.4120     1.0860 C.3   1 <1>  -0.1600 
 23 O       -5.1890    -0.1120    -2.3310 O.3   1 <1>  -0.6800 
 24 H       -1.5870     2.5960     2.3770 H     1 <1>   0.0800 
 25 H        0.0460     2.1820     2.7550 H     1 <1>   0.0800 
 26 H       -1.8610    -1.3850    -0.4910 H     1 <1>   0.0800 
 27 H       -1.5170    -1.8060     1.1620 H     1 <1>   0.0800 
 28 H       -2.6820     2.1700     0.2940 H     1 <1>   0.0800 
 29 H       -2.5770     1.0500    -1.0270 H     1 <1>   0.0800 
 30 H       -3.8090    -1.3570     1.8010 H     1 <1>   0.0800 
 31 H       -4.5110     0.9810     1.2940 H     1 <1>   0.0800 
 32 H       -4.9190     1.4140    -0.3250 H     1 <1>   0.0800 
 33 H        1.1060     1.1800     0.2400 H     1 <1>   0.1500 
 34 H       -3.6140    -3.4850     1.5720 H     1 <1>   0.4500 
 35 H       -0.3950     5.6540    -1.1000 H     1 <1>   0.1500 
 36 H       -1.6680     5.9180     0.8040 H     1 <1>   0.0800 
 37 H       -1.2530     4.9810     2.2060 H     1 <1>   0.0800 
 38 H       -2.5560     4.4620     1.1540 H     1 <1>   0.0800 
 39 H        1.9820     2.2060    -1.7910 H     1 <1>   0.1500 
 40 H       -5.5510    -3.5350    -0.5880 H     1 <1>   0.0800 
 41 H       -5.5230    -4.4300     0.9080 H     1 <1>   0.0800 
 42 H       -3.2340    -3.4490    -1.3530 H     1 <1>   0.0800 
 43 H       -3.2640    -4.8830    -0.3510 H     1 <1>   0.0800 
 44 H       -1.9930    -3.7030    -0.1430 H     1 <1>   0.0800 
 45 H       -6.4030    -0.2930     1.1300 H     1 <1>   0.0800 
 46 H       -6.7470    -0.9640    -0.4140 H     1 <1>   0.0800 
 47 H       -4.7960    -1.9960    -1.8260 H     1 <1>   0.0800 
 48 H       -3.4360    -0.9060    -1.8830 H     1 <1>   0.0800 
 49 H        1.2260     4.4460    -2.4680 H     1 <1>   0.1500 
 50 H       -7.2620    -2.7280     0.9890 H     1 <1>   0.0800 
 51 H       -6.0290    -2.3440     2.1400 H     1 <1>   0.0800 
 52 H       -6.1520    -0.1860    -2.1760 H     1 <1>   0.4000 
@<TRIPOS>BOND
  1   1   2  2   
  2   2   3  am  
  3   2   4  1   
  4   3   5  1   
  5   3   6  1   
  6   4   7  1   
  7   4  24  1   
  8   4  25  1   
  9   5   8  1   
 10   5  26  1   
 11   5  27  1   
 12   6   9  1   
 13   6  28  1   
 14   6  29  1   
 15   7  10  ar  
 16   7  11  ar  
 17   8  12  1   
 18   8  13  1   
 19   8  30  1   
 20   9  13  1   
 21   9  31  1   
 22   9  32  1   
 23  10  14  ar  
 24  10  15  1   
 25  11  16  ar  
 26  11  33  1   
 27  12  17  1   
 28  12  18  1   
 29  12  34  1   
 30  13  19  1   
 31  13  20  1   
 32  14  21  ar  
 33  14  35  1   
 34  15  36  1   
 35  15  37  1   
 36  15  38  1   
 37  16  21  ar  
 38  16  39  1   
 39  17  22  1   
 40  17  40  1   
 41  17  41  1   
 42  18  42  1   
 43  18  43  1   
 44  18  44  1   
 45  19  22  1   
 46  19  45  1   
 47  19  46  1   
 48  20  23  1   
 49  20  47  1   
 50  20  48  1   
 51  21  49  1   
 52  22  50  1   
 53  22  51  1   
 54  23  52  1   
@<TRIPOS>SUBSTRUCTURE
  1 ****   3 GROUP 4 **** **** 0

# MOE 2024.06 (io_trps.svl 2023.06)
