@<TRIPOS>MOLECULE
NONAME
51 54 1 0 0 
SMALL
USER_CHARGES


@<TRIPOS>ATOM
  1 O       -0.4770     0.6670    -0.8970 O.2   1 <1>  -0.5700 
  2 C       -1.5620     1.0520    -0.5140 C.2   1 <1>   0.5690 
  3 N       -2.5030     0.1610    -0.0460 N.am  1 <1>  -0.6600 
  4 C       -1.8440     2.5720    -0.5800 C.3   1 <1>   0.2810 
  5 C       -2.1320    -1.2770     0.1260 C.3   1 <1>   0.1400 
  6 C       -3.8970     0.5490     0.3310 C.3   1 <1>   0.1400 
  7 N       -0.6310     3.3660    -0.2640 N.am  1 <1>  -0.7300 
  8 C       -2.3220     2.9970    -1.9700 C.3   1 <1>  -0.2400 
  9 C       -2.9530    -1.9250     1.2420 C.3   1 <1>  -0.1600 
 10 C       -4.8410    -0.6290     0.1040 C.3   1 <1>  -0.1600 
 11 C       -0.6030     4.4530     0.5360 C.2   1 <1>   0.5690 
 12 C       -4.4700    -1.8130     1.0110 C.3   1 <1>   0.4600 
 13 O       -1.6040     4.9310     1.0070 O.2   1 <1>  -0.5700 
 14 C        0.7320     5.0740     0.8440 C.3   1 <1>  -0.1790 
 15 O       -5.0230    -1.5830     2.2880 O.3   1 <1>  -0.5600 
 16 C       -5.0200    -3.1200     0.4460 C.2   1 <1>  -0.3320 
 17 C       -6.3670    -1.9350     2.5190 C.3   1 <1>   0.1200 
 18 N       -4.6420    -3.7260    -0.7210 N.pl3 1 <1>   0.0330 
 19 C       -5.9680    -3.8680     1.0450 C.2   1 <1>  -0.1810 
 20 C       -6.5870    -3.4470     2.3530 C.3   1 <1>   0.0210 
 21 C       -5.3680    -4.8850    -0.8540 C.ar  1 <1>  -0.1520 
 22 C       -6.2120    -5.0050     0.2470 C.ar  1 <1>   0.0000 
 23 C       -5.3580    -5.8560    -1.8580 C.ar  1 <1>  -0.1500 
 24 C       -7.0610    -6.1110     0.3510 C.ar  1 <1>  -0.1500 
 25 C       -6.1990    -6.9390    -1.7430 C.ar  1 <1>  -0.1500 
 26 C       -7.0500    -7.0670    -0.6380 C.ar  1 <1>  -0.1500 
 27 H       -2.6010     2.8190     0.1430 H     1 <1>   0.0800 
 28 H       -2.2980    -1.7930    -0.8040 H     1 <1>   0.0800 
 29 H       -1.0850    -1.3570     0.3680 H     1 <1>   0.0800 
 30 H       -3.9200     0.8390     1.3690 H     1 <1>   0.0800 
 31 H       -4.2300     1.3800    -0.2650 H     1 <1>   0.0800 
 32 H        0.2340     2.9190    -0.5820 H     1 <1>   0.3700 
 33 H       -1.5680     2.7800    -2.7050 H     1 <1>   0.0800 
 34 H       -2.5380     4.0510    -1.9770 H     1 <1>   0.0800 
 35 H       -3.2170     2.4630    -2.2310 H     1 <1>   0.0800 
 36 H       -2.6890    -1.4360     2.1630 H     1 <1>   0.0800 
 37 H       -2.6760    -2.9580     1.3380 H     1 <1>   0.0800 
 38 H       -4.7690    -0.9200    -0.9280 H     1 <1>   0.0800 
 39 H       -5.8560    -0.3290     0.2750 H     1 <1>   0.0800 
 40 H        1.2240     5.3500    -0.0690 H     1 <1>   0.0800 
 41 H        1.3410     4.3740     1.3840 H     1 <1>   0.0800 
 42 H        0.5930     5.9540     1.4460 H     1 <1>   0.0800 
 43 H       -6.6180    -1.6310     3.5200 H     1 <1>   0.0800 
 44 H       -6.9880    -1.3930     1.8290 H     1 <1>   0.0800 
 45 H       -3.9410    -3.3950    -1.3900 H     1 <1>   0.2700 
 46 H       -6.1240    -3.9790     3.1640 H     1 <1>   0.0800 
 47 H       -7.6390    -3.6630     2.3530 H     1 <1>   0.0800 
 48 H       -4.7020    -5.7520    -2.7030 H     1 <1>   0.1500 
 49 H       -7.7070    -6.1960     1.2050 H     1 <1>   0.1500 
 50 H       -6.2110    -7.7010    -2.5030 H     1 <1>   0.1500 
 51 H       -7.6970    -7.9240    -0.5720 H     1 <1>   0.1500 
@<TRIPOS>BOND
  1   1   2  2   
  2   2   3  am  
  3   2   4  1   
  4   3   5  1   
  5   3   6  1   
  6   4   7  1   
  7   4   8  1   
  8   4  27  1   
  9   5   9  1   
 10   5  28  1   
 11   5  29  1   
 12   6  10  1   
 13   6  30  1   
 14   6  31  1   
 15   7  11  am  
 16   7  32  1   
 17   8  33  1   
 18   8  34  1   
 19   8  35  1   
 20   9  12  1   
 21   9  36  1   
 22   9  37  1   
 23  10  12  1   
 24  10  38  1   
 25  10  39  1   
 26  11  13  2   
 27  11  14  1   
 28  12  15  1   
 29  12  16  1   
 30  14  40  1   
 31  14  41  1   
 32  14  42  1   
 33  15  17  1   
 34  16  18  1   
 35  16  19  2   
 36  17  20  1   
 37  17  43  1   
 38  17  44  1   
 39  18  21  1   
 40  18  45  1   
 41  19  20  1   
 42  19  22  1   
 43  20  46  1   
 44  20  47  1   
 45  21  22  ar  
 46  21  23  ar  
 47  22  24  ar  
 48  23  25  ar  
 49  23  48  1   
 50  24  26  ar  
 51  24  49  1   
 52  25  26  ar  
 53  25  50  1   
 54  26  51  1   
@<TRIPOS>SUBSTRUCTURE
  1 ****  12 GROUP 4 **** **** 0

# MOE 2024.06 (io_trps.svl 2023.06)
