@<TRIPOS>MOLECULE
NONAME
46 48 1 0 0 
SMALL
USER_CHARGES


@<TRIPOS>ATOM
  1 F        1.9410    -0.1230     2.4470 F     1 <1>  -0.3400 
  2 C        1.7100    -0.4400     1.1810 C.3   1 <1>   1.1640 
  3 F        0.4660    -0.9010     1.1330 F     1 <1>  -0.3400 
  4 F        1.7150     0.6970     0.4960 F     1 <1>  -0.3400 
  5 C        2.7180    -1.4790     0.6570 C.ar  1 <1>  -0.1440 
  6 C        2.6140    -2.8100     1.0440 C.ar  1 <1>  -0.1500 
  7 C        3.7490    -1.1220    -0.2020 C.ar  1 <1>  -0.1500 
  8 C        3.5050    -3.7700     0.5830 C.ar  1 <1>  -0.1440 
  9 C        4.6480    -2.0700    -0.6550 C.ar  1 <1>  -0.1500 
 10 C        4.5400    -3.3960    -0.2680 C.ar  1 <1>  -0.1430 
 11 C        3.3200    -5.2130     1.0190 C.3   1 <1>   0.4870 
 12 C        5.5760    -4.3870    -0.7860 C.3   1 <1>  -0.0970 
 13 N        2.6140    -5.9340    -0.0730 N.4   1 <1>  -0.9590 
 14 C        1.2080    -5.4690    -0.2830 C.3   1 <1>   0.3430 
 15 C        2.5910    -7.4180     0.1070 C.3   1 <1>   0.3430 
 16 C        0.4360    -6.7130    -0.7190 C.3   1 <1>   0.2000 
 17 C        1.1310    -7.8680    -0.0090 C.3   1 <1>  -0.0800 
 18 O       -0.9000    -6.6520    -0.3590 O.3   1 <1>  -0.6800 
 19 C        0.9540    -9.2110    -0.7450 C.3   1 <1>  -0.0170 
 20 C        1.6150   -10.3670    -0.0060 C.ar  1 <1>   0.1670 
 21 N        2.9330   -10.3100     0.1230 N.ar  1 <1>  -0.6200 
 22 C        0.8370   -11.4140     0.4890 C.ar  1 <1>   0.1600 
 23 C        3.4150   -11.3680     0.7590 C.ar  1 <1>   0.1600 
 24 N        1.3190   -12.4590     1.1380 N.ar  1 <1>  -0.6200 
 25 C        2.6340   -12.4060     1.2510 C.ar  1 <1>   0.1600 
 26 H        1.8220    -3.0910     1.7200 H     1 <1>   0.1500 
 27 H        3.8680    -0.1000    -0.5240 H     1 <1>   0.1500 
 28 H        5.4400    -1.7570    -1.3150 H     1 <1>   0.1500 
 29 H        2.7470    -5.2570     1.9310 H     1 <1>   0.0800 
 30 H        4.2840    -5.6590     1.2000 H     1 <1>   0.0800 
 31 H        6.3750    -3.8710    -1.2900 H     1 <1>   0.0800 
 32 H        5.1340    -5.0700    -1.4870 H     1 <1>   0.0800 
 33 H        6.0140    -4.9390     0.0260 H     1 <1>   0.0800 
 34 H        3.1370    -5.7140    -0.9310 H     1 <1>   0.4500 
 35 H        0.7980    -5.1070     0.6450 H     1 <1>   0.0800 
 36 H        1.1580    -4.6930    -1.0300 H     1 <1>   0.0800 
 37 H        3.1780    -7.8880    -0.6670 H     1 <1>   0.0800 
 38 H        2.9950    -7.7130     1.0620 H     1 <1>   0.0800 
 39 H        0.4900    -6.8130    -1.7910 H     1 <1>   0.0800 
 40 H        0.7460    -7.9630     0.9920 H     1 <1>   0.0800 
 41 H       -1.0470    -6.7600     0.6030 H     1 <1>   0.4000 
 42 H        1.3780    -9.1510    -1.7320 H     1 <1>   0.0800 
 43 H       -0.0980    -9.4120    -0.8620 H     1 <1>   0.0800 
 44 H       -0.2280   -11.3920     0.3430 H     1 <1>   0.1500 
 45 H        4.4800   -11.4210     0.9000 H     1 <1>   0.1500 
 46 H        3.1160   -13.2240     1.7580 H     1 <1>   0.1500 
@<TRIPOS>BOND
  1   1   2  1   
  2   2   3  1   
  3   2   4  1   
  4   2   5  1   
  5   5   6  ar  
  6   5   7  ar  
  7   6   8  ar  
  8   6  26  1   
  9   7   9  ar  
 10   7  27  1   
 11   8  10  ar  
 12   8  11  1   
 13   9  10  ar  
 14   9  28  1   
 15  10  12  1   
 16  11  13  1   
 17  11  29  1   
 18  11  30  1   
 19  12  31  1   
 20  12  32  1   
 21  12  33  1   
 22  13  14  1   
 23  13  15  1   
 24  13  34  1   
 25  14  16  1   
 26  14  35  1   
 27  14  36  1   
 28  15  17  1   
 29  15  37  1   
 30  15  38  1   
 31  16  17  1   
 32  16  18  1   
 33  16  39  1   
 34  17  19  1   
 35  17  40  1   
 36  18  41  1   
 37  19  20  1   
 38  19  42  1   
 39  19  43  1   
 40  20  21  ar  
 41  20  22  ar  
 42  21  23  ar  
 43  22  24  ar  
 44  22  44  1   
 45  23  25  ar  
 46  23  45  1   
 47  24  25  ar  
 48  25  46  1   
@<TRIPOS>SUBSTRUCTURE
  1 ****  13 GROUP 4 **** **** 0

# MOE 2024.06 (io_trps.svl 2023.06)
