@<TRIPOS>MOLECULE
NONAME
54 57 1 0 0 
SMALL
USER_CHARGES


@<TRIPOS>ATOM
  1 O       -0.3810     0.1580     1.2020 O.2   1 <1>  -0.5700 
  2 C       -1.3740     0.8590     1.1530 C.2   1 <1>   0.5440 
  3 N       -2.6140     0.2630     1.2220 N.am  1 <1>  -0.6600 
  4 C       -1.2400     2.2950     1.0140 C.ar  1 <1>   0.0860 
  5 C       -2.7880    -1.2090     1.4350 C.3   1 <1>   0.1400 
  6 C       -3.8880     0.9430     0.8330 C.3   1 <1>   0.1400 
  7 C       -0.8650     2.9050    -0.1880 C.ar  1 <1>  -0.1440 
  8 C       -1.5090     3.1210     2.1050 C.ar  1 <1>  -0.1500 
  9 C       -3.5330    -1.8490     0.2510 C.3   1 <1>   0.3440 
 10 C       -4.5830     0.1890    -0.3200 C.3   1 <1>   0.2950 
 11 C       -0.7800     4.2840    -0.2760 C.ar  1 <1>  -0.1500 
 12 C       -0.5450     2.0590    -1.4140 C.3   1 <1>  -0.0970 
 13 C       -1.4200     4.4960     2.0080 C.ar  1 <1>  -0.1500 
 14 O       -4.7350    -1.1650     0.0090 O.3   1 <1>  -0.5600 
 15 C       -3.8290    -3.3200     0.5330 C.ar  1 <1>  -0.1440 
 16 C       -5.9640     0.8000    -0.6200 C.3   1 <1>  -0.1950 
 17 C       -1.0590     5.1030     0.8130 C.ar  1 <1>   0.1170 
 18 C       -5.0060    -3.7180     1.1520 C.ar  1 <1>  -0.1500 
 19 C       -2.8970    -4.2850     0.1770 C.ar  1 <1>  -0.1500 
 20 C       -7.1890     0.4390     0.1640 C.3   1 <1>  -0.2000 
 21 C       -7.0630     0.0200    -1.2750 C.3   1 <1>  -0.2000 
 22 N       -0.9730     6.4990     0.7600 N.am  1 <1>  -0.5470 
 23 C       -5.2480    -5.0560     1.4110 C.ar  1 <1>  -0.1500 
 24 C       -3.1370    -5.6230     0.4340 C.ar  1 <1>  -0.1500 
 25 C       -1.0690     7.3580    -0.2990 C.2   1 <1>   0.5690 
 26 C       -4.3130    -6.0100     1.0520 C.ar  1 <1>  -0.1500 
 27 O       -1.3010     7.0170    -1.4300 O.2   1 <1>  -0.5700 
 28 C       -0.8840     8.8270    -0.0140 C.3   1 <1>  -0.1790 
 29 H       -1.8360    -1.6940     1.5560 H     1 <1>   0.0800 
 30 H       -3.3520    -1.3730     2.3350 H     1 <1>   0.0800 
 31 H       -4.5480     0.9700     1.6820 H     1 <1>   0.0800 
 32 H       -3.7060     1.9570     0.5250 H     1 <1>   0.0800 
 33 H       -1.7900     2.6660     3.0380 H     1 <1>   0.1500 
 34 H       -2.9270    -1.7750    -0.6360 H     1 <1>   0.0800 
 35 H       -3.9770     0.2490    -1.2080 H     1 <1>   0.0800 
 36 H       -0.4850     4.7370    -1.2060 H     1 <1>   0.1500 
 37 H       -0.3100     2.6770    -2.2620 H     1 <1>   0.0800 
 38 H       -1.3850     1.4390    -1.6690 H     1 <1>   0.0800 
 39 H        0.3020     1.4270    -1.2100 H     1 <1>   0.0800 
 40 H       -1.6370     5.1010     2.8690 H     1 <1>   0.1500 
 41 H       -5.8750     1.8290    -0.9230 H     1 <1>   0.1000 
 42 H       -5.7420    -2.9830     1.4330 H     1 <1>   0.1500 
 43 H       -1.9760    -3.9990    -0.3030 H     1 <1>   0.1500 
 44 H       -7.1250    -0.3260     0.9190 H     1 <1>   0.1000 
 45 H       -7.8920     1.2130     0.4170 H     1 <1>   0.1000 
 46 H       -7.6780     0.5060    -2.0120 H     1 <1>   0.1000 
 47 H       -6.9120    -1.0250    -1.4880 H     1 <1>   0.1000 
 48 H       -0.8500     6.9520     1.6630 H     1 <1>   0.3700 
 49 H       -6.1640    -5.3520     1.8890 H     1 <1>   0.1500 
 50 H       -2.4090    -6.3640     0.1540 H     1 <1>   0.1500 
 51 H       -4.5000    -7.0500     1.2520 H     1 <1>   0.1500 
 52 H        0.0760     8.9940     0.4370 H     1 <1>   0.0800 
 53 H       -1.6590     9.1720     0.6440 H     1 <1>   0.0800 
 54 H       -0.9360     9.3830    -0.9320 H     1 <1>   0.0800 
@<TRIPOS>BOND
  1   1   2  2   
  2   2   3  am  
  3   2   4  1   
  4   3   5  1   
  5   3   6  1   
  6   4   7  ar  
  7   4   8  ar  
  8   5   9  1   
  9   5  29  1   
 10   5  30  1   
 11   6  10  1   
 12   6  31  1   
 13   6  32  1   
 14   7  11  ar  
 15   7  12  1   
 16   8  13  ar  
 17   8  33  1   
 18   9  14  1   
 19   9  15  1   
 20   9  34  1   
 21  10  14  1   
 22  10  16  1   
 23  10  35  1   
 24  11  17  ar  
 25  11  36  1   
 26  12  37  1   
 27  12  38  1   
 28  12  39  1   
 29  13  17  ar  
 30  13  40  1   
 31  15  18  ar  
 32  15  19  ar  
 33  16  20  1   
 34  16  21  1   
 35  16  41  1   
 36  17  22  1   
 37  18  23  ar  
 38  18  42  1   
 39  19  24  ar  
 40  19  43  1   
 41  20  21  1   
 42  20  44  1   
 43  20  45  1   
 44  21  46  1   
 45  21  47  1   
 46  22  25  am  
 47  22  48  1   
 48  23  26  ar  
 49  23  49  1   
 50  24  26  ar  
 51  24  50  1   
 52  25  27  2   
 53  25  28  1   
 54  26  51  1   
 55  28  52  1   
 56  28  53  1   
 57  28  54  1   
@<TRIPOS>SUBSTRUCTURE
  1 ****   3 GROUP 4 **** **** 0

# MOE 2024.06 (io_trps.svl 2023.06)
