@<TRIPOS>MOLECULE
NONAME
56 59 1 0 0 
SMALL
USER_CHARGES


@<TRIPOS>ATOM
  1 O       -0.6260     0.9940     2.1150 O.2   1 <1>  -0.5700 
  2 C       -1.4720     1.2900     1.3020 C.2   1 <1>   0.5690 
  3 N       -2.4980     0.4120     1.0170 N.am  1 <1>  -0.6600 
  4 C       -1.2930     2.6690     0.6450 C.3   1 <1>  -0.0190 
  5 C       -3.5440     0.6080    -0.0360 C.3   1 <1>   0.1400 
  6 C       -2.5660    -0.8800     1.7730 C.3   1 <1>   0.1400 
  7 C       -2.5130     3.6090     0.7100 C.3   1 <1>  -0.1600 
  8 C       -0.7190     2.6000    -0.7830 C.3   1 <1>  -0.1600 
  9 C       -4.0000    -0.7400    -0.5880 C.3   1 <1>  -0.1600 
 10 C       -4.0030    -1.3980     1.8780 C.3   1 <1>  -0.1600 
 11 C       -2.1970     4.9420     0.0240 C.3   1 <1>   0.1200 
 12 C       -0.5530     4.0060    -1.3690 C.3   1 <1>   0.1200 
 13 C       -4.6940    -1.5630     0.5070 C.3   1 <1>   0.4240 
 14 O       -1.7630     4.6920    -1.2770 O.3   1 <1>  -0.5600 
 15 O       -5.9710    -0.9830     0.6200 O.3   1 <1>  -0.5600 
 16 C       -4.7830    -3.0480     0.0910 C.ar  1 <1>  -0.1440 
 17 C       -6.9670    -1.7560     1.2130 C.3   1 <1>   0.1200 
 18 C       -6.0070    -3.6950    -0.0160 C.ar  1 <1>  -0.1440 
 19 C       -3.6310    -3.7780    -0.1710 C.ar  1 <1>  -0.1500 
 20 C       -7.2810    -2.9340     0.2950 C.3   1 <1>  -0.0170 
 21 C       -6.0720    -5.0250    -0.4000 C.ar  1 <1>  -0.1500 
 22 C       -3.6730    -5.1110    -0.5420 C.ar  1 <1>   0.0820 
 23 C       -4.9160    -5.7500    -0.6790 C.ar  1 <1>   0.0820 
 24 O       -2.4500    -5.6790    -0.7480 O.3   1 <1>  -0.3630 
 25 O       -4.9810    -7.0500    -1.0900 O.3   1 <1>  -0.3620 
 26 C       -2.2330    -7.0610    -0.5740 C.3   1 <1>   0.0400 
 27 C       -6.1880    -7.6380    -1.5230 C.3   1 <1>   0.0400 
 28 H       -0.5340     3.1590     1.2310 H     1 <1>   0.0800 
 29 H       -3.1660     1.2020    -0.8440 H     1 <1>   0.0800 
 30 H       -4.3870     1.1200     0.3970 H     1 <1>   0.0800 
 31 H       -2.1740    -0.7440     2.7670 H     1 <1>   0.0800 
 32 H       -1.9460    -1.6050     1.2740 H     1 <1>   0.0800 
 33 H       -2.7790     3.7870     1.7370 H     1 <1>   0.0800 
 34 H       -3.3680     3.1900     0.2180 H     1 <1>   0.0800 
 35 H       -1.3530     2.0340    -1.4360 H     1 <1>   0.0800 
 36 H        0.2380     2.1090    -0.7600 H     1 <1>   0.0800 
 37 H       -3.1400    -1.2520    -0.9770 H     1 <1>   0.0800 
 38 H       -4.6810    -0.5970    -1.4070 H     1 <1>   0.0800 
 39 H       -4.5500    -0.6990     2.4850 H     1 <1>   0.0800 
 40 H       -3.9950    -2.3400     2.3950 H     1 <1>   0.0800 
 41 H       -1.4270     5.4830     0.5490 H     1 <1>   0.0800 
 42 H       -3.0790     5.5550    -0.0350 H     1 <1>   0.0800 
 43 H       -0.2820     3.9520    -2.4090 H     1 <1>   0.0800 
 44 H        0.2010     4.5650    -0.8400 H     1 <1>   0.0800 
 45 H       -7.8360    -1.1340     1.3420 H     1 <1>   0.0800 
 46 H       -6.6270    -2.0930     2.1770 H     1 <1>   0.0800 
 47 H       -2.6640    -3.3190    -0.0860 H     1 <1>   0.1500 
 48 H       -7.7180    -2.5690    -0.6170 H     1 <1>   0.0800 
 49 H       -7.9930    -3.5780     0.7790 H     1 <1>   0.0800 
 50 H       -7.0380    -5.4820    -0.4760 H     1 <1>   0.1500 
 51 H       -1.1760    -7.2240    -0.4720 H     1 <1>   0.0800 
 52 H       -2.5990    -7.5810    -1.4400 H     1 <1>   0.0800 
 53 H       -2.7450    -7.3880     0.3140 H     1 <1>   0.0800 
 54 H       -5.9620    -8.6130    -1.9150 H     1 <1>   0.0800 
 55 H       -6.6190    -7.0250    -2.2940 H     1 <1>   0.0800 
 56 H       -6.8540    -7.7300    -0.6830 H     1 <1>   0.0800 
@<TRIPOS>BOND
  1   1   2  2   
  2   2   3  am  
  3   2   4  1   
  4   3   5  1   
  5   3   6  1   
  6   4   7  1   
  7   4   8  1   
  8   4  28  1   
  9   5   9  1   
 10   5  29  1   
 11   5  30  1   
 12   6  10  1   
 13   6  31  1   
 14   6  32  1   
 15   7  11  1   
 16   7  33  1   
 17   7  34  1   
 18   8  12  1   
 19   8  35  1   
 20   8  36  1   
 21   9  13  1   
 22   9  37  1   
 23   9  38  1   
 24  10  13  1   
 25  10  39  1   
 26  10  40  1   
 27  11  14  1   
 28  11  41  1   
 29  11  42  1   
 30  12  14  1   
 31  12  43  1   
 32  12  44  1   
 33  13  15  1   
 34  13  16  1   
 35  15  17  1   
 36  16  18  ar  
 37  16  19  ar  
 38  17  20  1   
 39  17  45  1   
 40  17  46  1   
 41  18  20  1   
 42  18  21  ar  
 43  19  22  ar  
 44  19  47  1   
 45  20  48  1   
 46  20  49  1   
 47  21  23  ar  
 48  21  50  1   
 49  22  23  ar  
 50  22  24  1   
 51  23  25  1   
 52  24  26  1   
 53  25  27  1   
 54  26  51  1   
 55  26  52  1   
 56  26  53  1   
 57  27  54  1   
 58  27  55  1   
 59  27  56  1   
@<TRIPOS>SUBSTRUCTURE
  1 ****   9 GROUP 4 **** **** 0

# MOE 2024.06 (io_trps.svl 2023.06)
