@<TRIPOS>MOLECULE
NONAME
41 42 1 0 0 
SMALL
USER_CHARGES


@<TRIPOS>ATOM
  1 O        0.3310    -0.1640    -1.1160 O.2   1 <1>  -0.5700 
  2 C        1.3460    -0.4730    -0.5210 C.2   1 <1>   0.7160 
  3 N        2.2470     0.4920    -0.1410 N.am  1 <1>  -0.4940 
  4 C        1.6370    -1.8490    -0.2020 C.2   1 <1>  -0.0860 
  5 C        2.2080     1.8950    -0.3270 C.2   1 <1>  -0.0880 
  6 C        0.8310    -2.9180     0.0710 C.2   1 <1>  -0.3320 
  7 C        2.9210    -2.3950    -0.1100 C.2   1 <1>   0.1390 
  8 N        3.2630     2.6410    -0.7550 N.pl3 1 <1>   0.3140 
  9 C        1.1890     2.7660    -0.1260 C.2   1 <1>  -0.1810 
 10 N        1.6270    -3.9780     0.3060 N.pl3 1 <1>   0.3140 
 11 C       -0.6910    -2.9730     0.1200 C.3   1 <1>  -0.0600 
 12 N        2.9230    -3.6490     0.1990 N.2   1 <1>  -0.7070 
 13 N        2.9510     3.9530    -0.8250 N.2   1 <1>  -0.7070 
 14 C        4.5900     2.1490    -1.1740 C.3   1 <1>   0.0960 
 15 C        1.7100     4.0130    -0.4530 C.2   1 <1>   0.1390 
 16 C       -0.2260     2.5000     0.3540 C.3   1 <1>  -0.0590 
 17 C        1.2210    -5.3510     0.6360 C.3   1 <1>   0.0160 
 18 C        5.5040     1.9250     0.0390 C.3   1 <1>  -0.1600 
 19 C        6.8680     1.3710    -0.3910 C.3   1 <1>  -0.1600 
 20 C        7.7740     1.1410     0.8220 C.3   1 <1>  -0.2400 
 21 H        3.0310     0.1390     0.4020 H     1 <1>   0.3700 
 22 H        3.8290    -1.8440    -0.2820 H     1 <1>   0.1500 
 23 H       -1.1150    -2.0000    -0.0490 H     1 <1>   0.0800 
 24 H       -1.0220    -3.3220     1.0810 H     1 <1>   0.0800 
 25 H       -1.0610    -3.6370    -0.6410 H     1 <1>   0.0800 
 26 H        5.0240     2.8800    -1.8320 H     1 <1>   0.0800 
 27 H        4.4550     1.2350    -1.7220 H     1 <1>   0.0800 
 28 H        1.1540     4.9340    -0.4040 H     1 <1>   0.1500 
 29 H       -0.2630     1.5880     0.9200 H     1 <1>   0.0800 
 30 H       -0.8820     2.4060    -0.4930 H     1 <1>   0.0800 
 31 H       -0.5660     3.3070     0.9760 H     1 <1>   0.0800 
 32 H        0.5870    -5.7290    -0.1440 H     1 <1>   0.0800 
 33 H        0.6930    -5.3470     1.5710 H     1 <1>   0.0800 
 34 H        2.0960    -5.9670     0.7190 H     1 <1>   0.0800 
 35 H        5.0400     1.2360     0.7220 H     1 <1>   0.0800 
 36 H        5.6440     2.8650     0.5460 H     1 <1>   0.0800 
 37 H        7.3470     2.0660    -1.0610 H     1 <1>   0.0800 
 38 H        6.7380     0.4390    -0.9140 H     1 <1>   0.0800 
 39 H        7.9380     2.0650     1.3500 H     1 <1>   0.0800 
 40 H        8.7270     0.7580     0.5030 H     1 <1>   0.0800 
 41 H        7.3300     0.4300     1.4980 H     1 <1>   0.0800 
@<TRIPOS>BOND
  1   1   2  2   
  2   2   3  am  
  3   2   4  1   
  4   3   5  1   
  5   3  21  1   
  6   4   6  2   
  7   4   7  1   
  8   5   8  1   
  9   5   9  2   
 10   6  10  1   
 11   6  11  1   
 12   7  12  2   
 13   7  22  1   
 14   8  13  1   
 15   8  14  1   
 16   9  15  1   
 17   9  16  1   
 18  10  12  1   
 19  10  17  1   
 20  11  23  1   
 21  11  24  1   
 22  11  25  1   
 23  13  15  2   
 24  14  18  1   
 25  14  26  1   
 26  14  27  1   
 27  15  28  1   
 28  16  29  1   
 29  16  30  1   
 30  16  31  1   
 31  17  32  1   
 32  17  33  1   
 33  17  34  1   
 34  18  19  1   
 35  18  35  1   
 36  18  36  1   
 37  19  20  1   
 38  19  37  1   
 39  19  38  1   
 40  20  39  1   
 41  20  40  1   
 42  20  41  1   
@<TRIPOS>SUBSTRUCTURE
  1 ****   3 GROUP 4 **** **** 0

# MOE 2024.06 (io_trps.svl 2023.06)
