@<TRIPOS>MOLECULE
NONAME
53 55 1 0 0 
SMALL
USER_CHARGES


@<TRIPOS>ATOM
  1 O       -1.2080     2.7360     2.2570 O.2   1 <1>  -0.5700 
  2 C       -0.8040     2.6440     1.1210 C.2   1 <1>   0.5690 
  3 N       -1.5520     2.0630     0.1320 N.am  1 <1>  -0.6600 
  4 C        0.5710     3.2120     0.8190 C.3   1 <1>  -0.0990 
  5 C       -1.1180     1.9720    -1.2860 C.3   1 <1>   0.1400 
  6 C       -2.8800     1.4610     0.4470 C.3   1 <1>   0.1400 
  7 C        0.5250     4.4350    -0.1120 C.3   1 <1>  -0.1600 
  8 C       -0.9850     3.3640    -1.9140 C.3   1 <1>  -0.1600 
  9 C       -3.9620     2.5410     0.3840 C.3   1 <1>  -0.0990 
 10 C        0.3410     4.0710    -1.5910 C.3   1 <1>  -0.1600 
 11 C       -5.3560     1.9870     0.6230 C.2   1 <1>   0.5690 
 12 O       -5.5190     0.7920     0.5280 O.2   1 <1>  -0.5700 
 13 N       -6.3980     2.8330     0.9100 N.am  1 <1>  -0.6600 
 14 C       -7.7650     2.3020     1.1920 C.3   1 <1>   0.1400 
 15 C       -6.3420     4.3210     0.8920 C.3   1 <1>   0.1400 
 16 C       -8.7500     2.7480     0.0950 C.3   1 <1>   0.0000 
 17 C       -7.2940     4.8560    -0.1850 C.3   1 <1>  -0.1600 
 18 C      -10.1540     2.1800     0.3750 C.3   1 <1>   0.2000 
 19 C       -8.7220     4.3000    -0.0210 C.3   1 <1>  -0.1600 
 20 C       -8.4330     2.0900    -1.2610 C.3   1 <1>  -0.1600 
 21 O      -10.8830     2.9480     1.2640 O.3   1 <1>  -0.6800 
 22 C      -10.8680     2.1080    -0.9740 C.3   1 <1>  -0.1600 
 23 C       -9.7570     2.0630    -2.0320 C.3   1 <1>  -0.1600 
 24 H        1.0100     3.5130     1.7530 H     1 <1>   0.0800 
 25 H        1.1960     2.4420     0.4070 H     1 <1>   0.0800 
 26 H       -0.1840     1.4400    -1.3460 H     1 <1>   0.0800 
 27 H       -1.8460     1.4100    -1.8460 H     1 <1>   0.0800 
 28 H       -3.0990     0.6660    -0.2440 H     1 <1>   0.0800 
 29 H       -2.8600     1.0350     1.4370 H     1 <1>   0.0800 
 30 H       -0.2630     5.0970     0.2050 H     1 <1>   0.0800 
 31 H        1.4540     4.9710    -0.0130 H     1 <1>   0.0800 
 32 H       -1.0360     3.2450    -2.9810 H     1 <1>   0.0800 
 33 H       -1.8200     3.9780    -1.6230 H     1 <1>   0.0800 
 34 H       -3.9490     3.0090    -0.5810 H     1 <1>   0.0800 
 35 H       -3.7410     3.2690     1.1410 H     1 <1>   0.0800 
 36 H        1.1620     3.4530    -1.9110 H     1 <1>   0.0800 
 37 H        0.3860     4.9790    -2.1670 H     1 <1>   0.0800 
 38 H       -7.7490     1.2280     1.2570 H     1 <1>   0.0800 
 39 H       -8.0950     2.6780     2.1450 H     1 <1>   0.0800 
 40 H       -6.6410     4.6900     1.8580 H     1 <1>   0.0800 
 41 H       -5.3490     4.6790     0.6940 H     1 <1>   0.0800 
 42 H       -7.3220     5.9290    -0.1250 H     1 <1>   0.0800 
 43 H       -6.9020     4.6020    -1.1530 H     1 <1>   0.0800 
 44 H      -10.0710     1.1870     0.7860 H     1 <1>   0.0800 
 45 H       -9.3320     4.6300    -0.8440 H     1 <1>   0.0800 
 46 H       -9.1270     4.7300     0.8780 H     1 <1>   0.0800 
 47 H       -7.6580     2.5910    -1.8100 H     1 <1>   0.0800 
 48 H       -8.1120     1.0750    -1.0940 H     1 <1>   0.0800 
 49 H      -11.0450     3.8280     0.8770 H     1 <1>   0.4000 
 50 H      -11.4780     1.2240    -1.0220 H     1 <1>   0.0800 
 51 H      -11.4840     2.9760    -1.1360 H     1 <1>   0.0800 
 52 H       -9.8270     1.1790    -2.6420 H     1 <1>   0.0800 
 53 H       -9.8270     2.9290    -2.6680 H     1 <1>   0.0800 
@<TRIPOS>BOND
  1   1   2  2   
  2   2   3  am  
  3   2   4  1   
  4   3   5  1   
  5   3   6  1   
  6   4   7  1   
  7   4  24  1   
  8   4  25  1   
  9   5   8  1   
 10   5  26  1   
 11   5  27  1   
 12   6   9  1   
 13   6  28  1   
 14   6  29  1   
 15   7  10  1   
 16   7  30  1   
 17   7  31  1   
 18   8  10  1   
 19   8  32  1   
 20   8  33  1   
 21   9  11  1   
 22   9  34  1   
 23   9  35  1   
 24  10  36  1   
 25  10  37  1   
 26  11  12  2   
 27  11  13  am  
 28  13  14  1   
 29  13  15  1   
 30  14  16  1   
 31  14  38  1   
 32  14  39  1   
 33  15  17  1   
 34  15  40  1   
 35  15  41  1   
 36  16  18  1   
 37  16  19  1   
 38  16  20  1   
 39  17  19  1   
 40  17  42  1   
 41  17  43  1   
 42  18  21  1   
 43  18  22  1   
 44  18  44  1   
 45  19  45  1   
 46  19  46  1   
 47  20  23  1   
 48  20  47  1   
 49  20  48  1   
 50  21  49  1   
 51  22  23  1   
 52  22  50  1   
 53  22  51  1   
 54  23  52  1   
 55  23  53  1   
@<TRIPOS>SUBSTRUCTURE
  1 ****  11 GROUP 4 **** **** 0

# MOE 2024.06 (io_trps.svl 2023.06)
