@<TRIPOS>MOLECULE
NONAME
52 55 1 0 0 
SMALL
USER_CHARGES


@<TRIPOS>ATOM
  1 O       -4.4260    -0.9040     1.4550 O.2   1 <1>  -0.5700 
  2 C       -3.5710    -0.9880     0.6050 C.2   1 <1>   0.5690 
  3 N       -2.7050    -2.0600     0.6220 N.am  1 <1>  -0.6600 
  4 C       -3.5380     0.1060    -0.4580 C.3   1 <1>   0.1570 
  5 C       -2.5460    -2.8220     1.9030 C.3   1 <1>   0.2200 
  6 C       -1.9150    -2.4910    -0.5620 C.3   1 <1>   0.1400 
  7 N       -2.1590     0.5440    -0.7610 N.pl3 1 <1>   0.0480 
  8 C       -1.0960    -3.3040     2.1650 C.3   1 <1>   0.1200 
  9 C       -3.6110    -3.9430     1.9590 C.3   1 <1>   0.3430 
 10 C       -1.7670    -4.0150    -0.6460 C.3   1 <1>  -0.0800 
 11 C       -1.5720     0.5470    -1.9890 C.2   1 <1>  -0.3020 
 12 C       -1.2130     0.9370     0.1340 C.2   1 <1>  -0.3020 
 13 O       -0.8060    -4.5340     1.5500 O.3   1 <1>  -0.5600 
 14 N       -3.3250    -5.1090     1.0480 N.4   1 <1>  -0.9590 
 15 C       -0.5540    -4.5090     0.1750 C.3   1 <1>   0.1200 
 16 C       -3.1020    -4.7560    -0.3950 C.3   1 <1>   0.3430 
 17 C       -0.2740     0.9310    -1.8710 C.2   1 <1>  -0.1500 
 18 C       -0.0450     1.1800    -0.5150 C.2   1 <1>  -0.1500 
 19 C       -4.2730    -6.2370     1.2570 C.3   1 <1>   0.4860 
 20 C       -3.7800    -7.4510     0.5040 C.ar  1 <1>  -0.1430 
 21 C       -2.6050    -8.0850     0.8400 C.ar  1 <1>   0.1600 
 22 C       -4.4820    -7.9620    -0.5640 C.ar  1 <1>   0.1600 
 23 N       -2.1530    -9.1140     0.1640 N.ar  1 <1>  -0.6200 
 24 N       -4.0470    -8.9890    -1.2530 N.ar  1 <1>  -0.6200 
 25 C       -2.9040    -9.5160    -0.8490 C.ar  1 <1>   0.4770 
 26 C       -2.4060   -10.7050    -1.6340 C.3   1 <1>  -0.0970 
 27 H       -4.0900     0.9570    -0.1040 H     1 <1>   0.0800 
 28 H       -4.0030    -0.2520    -1.3550 H     1 <1>   0.0800 
 29 H       -2.7720    -2.1380     2.7050 H     1 <1>   0.0800 
 30 H       -2.4100    -2.1510    -1.4560 H     1 <1>   0.0800 
 31 H       -0.9450    -2.0210    -0.5350 H     1 <1>   0.0800 
 32 H       -0.9710    -3.4610     3.2220 H     1 <1>   0.0800 
 33 H       -0.3750    -2.5650     1.8570 H     1 <1>   0.0800 
 34 H       -4.5680    -3.5100     1.7200 H     1 <1>   0.0800 
 35 H       -3.6580    -4.2990     2.9740 H     1 <1>   0.0800 
 36 H       -1.5100    -4.2060    -1.6730 H     1 <1>   0.0800 
 37 H       -2.1000     0.2840    -2.8880 H     1 <1>   0.1500 
 38 H       -1.4160     1.0270     1.1880 H     1 <1>   0.1500 
 39 H       -2.3820    -5.4180     1.3580 H     1 <1>   0.4500 
 40 H        0.3120    -3.8920     0.0000 H     1 <1>   0.0800 
 41 H       -0.3030    -5.5160    -0.1160 H     1 <1>   0.0800 
 42 H       -3.0740    -5.6640    -0.9750 H     1 <1>   0.0800 
 43 H       -3.9230    -4.1600    -0.7600 H     1 <1>   0.0800 
 44 H        0.4600     1.0390    -2.6510 H     1 <1>   0.1500 
 45 H        0.8910     1.5080    -0.0940 H     1 <1>   0.1500 
 46 H       -4.3380    -6.4740     2.3070 H     1 <1>   0.0800 
 47 H       -5.2550    -5.9610     0.9100 H     1 <1>   0.0800 
 48 H       -2.0110    -7.7500     1.6740 H     1 <1>   0.1500 
 49 H       -5.4180    -7.5260    -0.8740 H     1 <1>   0.1500 
 50 H       -1.4710   -11.0570    -1.2380 H     1 <1>   0.0800 
 51 H       -2.2680   -10.4260    -2.6620 H     1 <1>   0.0800 
 52 H       -3.1280   -11.4980    -1.5790 H     1 <1>   0.0800 
@<TRIPOS>BOND
  1   1   2  2   
  2   2   3  am  
  3   2   4  1   
  4   3   5  1   
  5   3   6  1   
  6   4   7  1   
  7   4  27  1   
  8   4  28  1   
  9   5   8  1   
 10   5   9  1   
 11   5  29  1   
 12   6  10  1   
 13   6  30  1   
 14   6  31  1   
 15   7  11  1   
 16   7  12  1   
 17   8  13  1   
 18   8  32  1   
 19   8  33  1   
 20   9  14  1   
 21   9  34  1   
 22   9  35  1   
 23  10  15  1   
 24  10  16  1   
 25  10  36  1   
 26  11  17  2   
 27  11  37  1   
 28  12  18  2   
 29  12  38  1   
 30  13  15  1   
 31  14  16  1   
 32  14  19  1   
 33  14  39  1   
 34  15  40  1   
 35  15  41  1   
 36  16  42  1   
 37  16  43  1   
 38  17  18  1   
 39  17  44  1   
 40  18  45  1   
 41  19  20  1   
 42  19  46  1   
 43  19  47  1   
 44  20  21  ar  
 45  20  22  ar  
 46  21  23  ar  
 47  21  48  1   
 48  22  24  ar  
 49  22  49  1   
 50  23  25  ar  
 51  24  25  ar  
 52  25  26  1   
 53  26  50  1   
 54  26  51  1   
 55  26  52  1   
@<TRIPOS>SUBSTRUCTURE
  1 ****  10 GROUP 4 **** **** 0

# MOE 2024.06 (io_trps.svl 2023.06)
