@<TRIPOS>MOLECULE
NONAME
53 55 1 0 0 
SMALL
USER_CHARGES


@<TRIPOS>ATOM
  1 O        4.1850     0.0330     0.4970 O.co2 1 <1>  -0.9000 
  2 C        3.4040     0.9890     0.3430 C.2   1 <1>   0.9060 
  3 O        3.5610     1.9410     1.1070 O.co2 1 <1>  -0.9000 
  4 C        2.5490     1.0960    -0.9330 C.3   1 <1>  -0.1060 
  5 C        3.2490     0.2920    -2.0590 C.3   1 <1>   0.2000 
  6 C        2.4860     2.5710    -1.4480 C.3   1 <1>  -0.1600 
  7 C        1.1300     0.5250    -0.6680 C.3   1 <1>  -0.0160 
  8 O        3.2850    -1.0540    -1.7280 O.3   1 <1>  -0.6800 
  9 C        4.6970     0.7780    -2.3220 C.3   1 <1>   0.2090 
 10 C        3.7800     3.1080    -2.1060 C.3   1 <1>   0.2090 
 11 C        0.1500     1.4970    -0.0150 C.ar  1 <1>  -0.1440 
 12 N        4.9270     2.1910    -1.8660 N.pl3 1 <1>  -0.8380 
 13 C        0.3160     1.8950     1.3030 C.ar  1 <1>  -0.1500 
 14 C       -0.9300     1.9880    -0.7350 C.ar  1 <1>  -0.1500 
 15 C        5.9160     2.5730    -1.0200 C.ar  1 <1>   0.7710 
 16 C       -0.5780     2.7730     1.8900 C.ar  1 <1>  -0.1500 
 17 C       -1.8270     2.8640    -0.1500 C.ar  1 <1>  -0.1500 
 18 N        6.6060     3.6630    -1.3190 N.ar  1 <1>  -0.6200 
 19 N        6.1540     1.8620     0.0940 N.ar  1 <1>  -0.1790 
 20 C       -1.6520     3.2580     1.1650 C.ar  1 <1>  -0.1500 
 21 C        7.5460     4.0490    -0.4760 C.ar  1 <1>   0.4100 
 22 C        7.1000     2.2210     0.9780 C.ar  1 <1>   0.2110 
 23 N        8.2130     5.1880    -0.8020 N.pl3 1 <1>  -0.8380 
 24 C        7.8440     3.3220     0.7070 C.ar  1 <1>  -0.1430 
 25 C        8.1960     6.3880     0.0780 C.3   1 <1>   0.1290 
 26 C        8.5920     5.4740    -2.2140 C.3   1 <1>   0.1290 
 27 C        8.9710     3.7360     1.6510 C.3   1 <1>  -0.0970 
 28 H        2.6840     0.3730    -2.9710 H     1 <1>   0.0800 
 29 H        2.2270     3.2220    -0.6310 H     1 <1>   0.0800 
 30 H        1.6930     2.6660    -2.1670 H     1 <1>   0.0800 
 31 H        0.7070     0.1990    -1.6020 H     1 <1>   0.0800 
 32 H        1.2100    -0.3520    -0.0490 H     1 <1>   0.0800 
 33 H        3.6510    -1.0970    -0.8020 H     1 <1>   0.4000 
 34 H        4.8900     0.7210    -3.3790 H     1 <1>   0.0800 
 35 H        5.3930     0.1220    -1.8270 H     1 <1>   0.0800 
 36 H        3.9980     4.0880    -1.7140 H     1 <1>   0.0800 
 37 H        3.6340     3.2050    -3.1680 H     1 <1>   0.0800 
 38 H        1.1490     1.5300     1.8800 H     1 <1>   0.1500 
 39 H       -1.0780     1.6890    -1.7570 H     1 <1>   0.1500 
 40 H       -0.4320     3.0770     2.9110 H     1 <1>   0.1500 
 41 H       -2.6610     3.2390    -0.7160 H     1 <1>   0.1500 
 42 H        5.4280     1.1640     0.3500 H     1 <1>   0.4570 
 43 H       -2.3460     3.9400     1.6230 H     1 <1>   0.1500 
 44 H        7.2160     1.6190     1.8640 H     1 <1>   0.1500 
 45 H        7.7910     7.2300    -0.4570 H     1 <1>   0.0800 
 46 H        9.1970     6.6210     0.3970 H     1 <1>   0.0800 
 47 H        7.5790     6.2100     0.9410 H     1 <1>   0.0800 
 48 H        9.5500     5.9620    -2.2470 H     1 <1>   0.0800 
 49 H        7.8510     6.1090    -2.6690 H     1 <1>   0.0800 
 50 H        8.6520     4.5580    -2.7760 H     1 <1>   0.0800 
 51 H        9.2250     2.9370     2.3240 H     1 <1>   0.0800 
 52 H        8.6750     4.5890     2.2350 H     1 <1>   0.0800 
 53 H        9.8500     3.9910     1.0850 H     1 <1>   0.0800 
@<TRIPOS>BOND
  1   1   2  ar  
  2   2   3  ar  
  3   2   4  1   
  4   4   5  1   
  5   4   6  1   
  6   4   7  1   
  7   5   8  1   
  8   5   9  1   
  9   5  28  1   
 10   6  10  1   
 11   6  29  1   
 12   6  30  1   
 13   7  11  1   
 14   7  31  1   
 15   7  32  1   
 16   8  33  1   
 17   9  12  1   
 18   9  34  1   
 19   9  35  1   
 20  10  12  1   
 21  10  36  1   
 22  10  37  1   
 23  11  13  ar  
 24  11  14  ar  
 25  12  15  1   
 26  13  16  ar  
 27  13  38  1   
 28  14  17  ar  
 29  14  39  1   
 30  15  18  ar  
 31  15  19  ar  
 32  16  20  ar  
 33  16  40  1   
 34  17  20  ar  
 35  17  41  1   
 36  18  21  ar  
 37  19  22  ar  
 38  19  42  1   
 39  20  43  1   
 40  21  23  1   
 41  21  24  ar  
 42  22  24  ar  
 43  22  44  1   
 44  23  25  1   
 45  23  26  1   
 46  24  27  1   
 47  25  45  1   
 48  25  46  1   
 49  25  47  1   
 50  26  48  1   
 51  26  49  1   
 52  26  50  1   
 53  27  51  1   
 54  27  52  1   
 55  27  53  1   
@<TRIPOS>SUBSTRUCTURE
  1 ****   3 GROUP 4 **** **** 0

# MOE 2024.06 (io_trps.svl 2023.06)
