@<TRIPOS>MOLECULE
NONAME
47 49 1 0 0 
SMALL
USER_CHARGES


@<TRIPOS>ATOM
  1 O       -0.7740    -1.2650    -0.0010 O.2   1 <1>  -0.5700 
  2 C        0.3830    -1.5830    -0.1400 C.2   1 <1>   0.5690 
  3 N        0.9930    -2.4810     0.6940 N.am  1 <1>  -0.6600 
  4 C        1.1400    -0.9700    -1.3070 C.3   1 <1>  -0.0990 
  5 C        2.4170    -2.9030     0.5730 C.3   1 <1>   0.1400 
  6 C        0.2590    -3.0870     1.8590 C.3   1 <1>   0.2010 
  7 C        2.6630    -1.1320    -1.2080 C.3   1 <1>  -0.1600 
  8 C        2.9980    -2.5690    -0.8040 C.3   1 <1>  -0.1600 
  9 C        0.0030    -4.5890     1.7000 C.2   1 <1>   0.5690 
 10 O        0.6970    -5.3520     2.3330 O.2   1 <1>  -0.5700 
 11 N       -0.9770    -5.0530     0.8640 N.am  1 <1>  -0.6600 
 12 C       -1.8730    -4.2250     0.0130 C.3   1 <1>   0.1400 
 13 C       -1.1730    -6.4930     0.5670 C.3   1 <1>   0.1400 
 14 C       -2.9500    -5.2010    -0.4570 C.3   1 <1>   0.2000 
 15 C       -2.1960    -6.5290    -0.5740 C.3   1 <1>  -0.0800 
 16 O       -3.9060    -5.2990     0.5440 O.3   1 <1>  -0.6800 
 17 C       -3.0730    -7.7940    -0.5830 C.3   1 <1>   0.0210 
 18 C       -2.2170    -9.0410    -0.6850 C.2   1 <1>   0.1080 
 19 N       -1.4740    -9.3040    -1.7150 N.2   1 <1>  -0.7070 
 20 C       -2.1200   -10.0220     0.2970 C.2   1 <1>  -0.1500 
 21 N       -0.8770   -10.4730    -1.4150 N.pl3 1 <1>   0.3000 
 22 C       -1.2520   -10.9270    -0.2000 C.2   1 <1>  -0.3320 
 23 C       -0.7480   -12.2170     0.4200 C.3   1 <1>  -0.0600 
 24 H        0.7900    -1.4480    -2.2030 H     1 <1>   0.0800 
 25 H        0.8920     0.0730    -1.3720 H     1 <1>   0.0800 
 26 H        2.9870    -2.4000     1.3350 H     1 <1>   0.0800 
 27 H        2.4990    -3.9650     0.7420 H     1 <1>   0.0800 
 28 H        0.8400    -2.9360     2.7490 H     1 <1>   0.0800 
 29 H       -0.6830    -2.5920     2.0080 H     1 <1>   0.0800 
 30 H        3.1190    -0.8930    -2.1540 H     1 <1>   0.0800 
 31 H        3.0490    -0.4520    -0.4670 H     1 <1>   0.0800 
 32 H        4.0650    -2.7030    -0.7760 H     1 <1>   0.0800 
 33 H        2.6020    -3.2580    -1.5310 H     1 <1>   0.0800 
 34 H       -2.2950    -3.3930     0.5490 H     1 <1>   0.0800 
 35 H       -1.3150    -3.8620    -0.8320 H     1 <1>   0.0800 
 36 H       -0.2450    -6.9560     0.2750 H     1 <1>   0.0800 
 37 H       -1.5540    -6.9850     1.4460 H     1 <1>   0.0800 
 38 H       -3.4330    -4.8960    -1.3690 H     1 <1>   0.0800 
 39 H       -1.6400    -6.5080    -1.4960 H     1 <1>   0.0800 
 40 H       -3.4430    -5.4020     1.4000 H     1 <1>   0.4000 
 41 H       -3.7390    -7.7630    -1.4260 H     1 <1>   0.0800 
 42 H       -3.6680    -7.8500     0.3100 H     1 <1>   0.0800 
 43 H       -2.6360   -10.0290     1.2400 H     1 <1>   0.1500 
 44 H       -0.2220   -10.9330    -2.0580 H     1 <1>   0.2700 
 45 H       -1.1910   -12.3580     1.3900 H     1 <1>   0.0800 
 46 H        0.3210   -12.1840     0.5340 H     1 <1>   0.0800 
 47 H       -1.0100   -13.0560    -0.2010 H     1 <1>   0.0800 
@<TRIPOS>BOND
  1   1   2  2   
  2   2   3  am  
  3   2   4  1   
  4   3   5  1   
  5   3   6  1   
  6   4   7  1   
  7   4  24  1   
  8   4  25  1   
  9   5   8  1   
 10   5  26  1   
 11   5  27  1   
 12   6   9  1   
 13   6  28  1   
 14   6  29  1   
 15   7   8  1   
 16   7  30  1   
 17   7  31  1   
 18   8  32  1   
 19   8  33  1   
 20   9  10  2   
 21   9  11  am  
 22  11  12  1   
 23  11  13  1   
 24  12  14  1   
 25  12  34  1   
 26  12  35  1   
 27  13  15  1   
 28  13  36  1   
 29  13  37  1   
 30  14  15  1   
 31  14  16  1   
 32  14  38  1   
 33  15  17  1   
 34  15  39  1   
 35  16  40  1   
 36  17  18  1   
 37  17  41  1   
 38  17  42  1   
 39  18  19  2   
 40  18  20  1   
 41  19  21  1   
 42  20  22  2   
 43  20  43  1   
 44  21  22  1   
 45  21  44  1   
 46  22  23  1   
 47  23  45  1   
 48  23  46  1   
 49  23  47  1   
@<TRIPOS>SUBSTRUCTURE
  1 ****  11 GROUP 4 **** **** 0

# MOE 2024.06 (io_trps.svl 2023.06)
