@<TRIPOS>MOLECULE
NONAME
51 54 1 0 0 
SMALL
USER_CHARGES


@<TRIPOS>ATOM
  1 O        3.4810    -0.7720     1.2880 O.2   1 <1>  -0.5700 
  2 C        2.5530    -1.4250     0.8320 C.2   1 <1>   0.5440 
  3 N        1.2740    -0.8890     0.7830 N.am  1 <1>  -0.2980 
  4 C        2.7290    -2.7620     0.3440 C.ar  1 <1>   0.0860 
  5 N        0.1880    -1.5310     0.2790 N.2   1 <1>  -0.5120 
  6 C        1.0500     0.4890     1.2800 C.3   1 <1>   0.0600 
  7 C        1.6060    -3.4350    -0.1680 C.ar  1 <1>   0.0860 
  8 C        3.9710    -3.4050     0.3790 C.ar  1 <1>  -0.1500 
  9 C        0.3330    -2.7420    -0.1990 C.2   1 <1>   0.3640 
 10 C        1.7910    -4.7590    -0.6030 C.ar  1 <1>  -0.1500 
 11 C        4.1200    -4.6980    -0.0660 C.ar  1 <1>  -0.1500 
 12 C       -0.8210    -3.4180    -0.7700 C.2   1 <1>   0.6300 
 13 C        3.0200    -5.3790    -0.5570 C.ar  1 <1>  -0.1500 
 14 O       -0.7600    -3.8580    -1.9100 O.2   1 <1>  -0.5700 
 15 N       -2.0070    -3.6030    -0.0660 N.am  1 <1>  -0.6600 
 16 C       -3.2430    -4.0620    -0.7710 C.3   1 <1>   0.2200 
 17 C       -2.1010    -3.2860     1.3940 C.3   1 <1>   0.0600 
 18 C       -3.6190    -5.4940    -0.4100 C.3   1 <1>  -0.1600 
 19 C       -4.4950    -3.2450    -0.4550 C.3   1 <1>  -0.1600 
 20 C       -5.0970    -5.6150    -0.8050 C.3   1 <1>  -0.0800 
 21 C       -5.6580    -4.1730    -0.8310 C.3   1 <1>  -0.0800 
 22 C       -5.8730    -6.6000     0.0900 C.3   1 <1>   0.1400 
 23 C       -6.9030    -3.9750     0.0530 C.3   1 <1>  -0.0990 
 24 N       -7.3340    -6.4000    -0.0800 N.am  1 <1>  -0.6600 
 25 C       -7.8620    -5.1380    -0.1010 C.2   1 <1>   0.5690 
 26 C       -8.1720    -7.6230    -0.1870 C.3   1 <1>   0.0600 
 27 O       -9.0420    -4.9130    -0.2270 O.2   1 <1>  -0.5700 
 28 H        1.3260     0.5450     2.3170 H     1 <1>   0.0800 
 29 H        0.0150     0.7580     1.1710 H     1 <1>   0.0800 
 30 H        1.6560     1.1750     0.7150 H     1 <1>   0.0800 
 31 H        4.8230    -2.8710     0.7670 H     1 <1>   0.1500 
 32 H        0.9630    -5.3260    -0.9910 H     1 <1>   0.1500 
 33 H        5.0830    -5.1810    -0.0320 H     1 <1>   0.1500 
 34 H        3.1320    -6.3930    -0.9040 H     1 <1>   0.1500 
 35 H       -3.0990    -4.0180    -1.8390 H     1 <1>   0.0800 
 36 H       -2.8180    -3.9240     1.8780 H     1 <1>   0.0800 
 37 H       -2.4020    -2.2600     1.5200 H     1 <1>   0.0800 
 38 H       -1.1500    -3.4280     1.8750 H     1 <1>   0.0800 
 39 H       -3.0070    -6.1990    -0.9440 H     1 <1>   0.0800 
 40 H       -3.5050    -5.6490     0.6470 H     1 <1>   0.0800 
 41 H       -4.5500    -3.0110     0.5910 H     1 <1>   0.0800 
 42 H       -4.5180    -2.3340    -1.0260 H     1 <1>   0.0800 
 43 H       -5.1390    -5.9950    -1.8120 H     1 <1>   0.0800 
 44 H       -5.9430    -3.9630    -1.8490 H     1 <1>   0.0800 
 45 H       -5.6290    -6.4340     1.1260 H     1 <1>   0.0800 
 46 H       -5.6020    -7.6110    -0.1640 H     1 <1>   0.0800 
 47 H       -7.4020    -3.0600    -0.2120 H     1 <1>   0.0800 
 48 H       -6.6280    -3.9200     1.0900 H     1 <1>   0.0800 
 49 H       -8.0450    -8.2300     0.6920 H     1 <1>   0.0800 
 50 H       -7.8820    -8.1870    -1.0560 H     1 <1>   0.0800 
 51 H       -9.2120    -7.3610    -0.2780 H     1 <1>   0.0800 
@<TRIPOS>BOND
  1   1   2  2   
  2   2   3  am  
  3   2   4  1   
  4   3   5  1   
  5   3   6  1   
  6   4   7  ar  
  7   4   8  ar  
  8   5   9  2   
  9   6  28  1   
 10   6  29  1   
 11   6  30  1   
 12   7   9  1   
 13   7  10  ar  
 14   8  11  ar  
 15   8  31  1   
 16   9  12  1   
 17  10  13  ar  
 18  10  32  1   
 19  11  13  ar  
 20  11  33  1   
 21  12  14  2   
 22  12  15  am  
 23  13  34  1   
 24  15  16  1   
 25  15  17  1   
 26  16  18  1   
 27  16  19  1   
 28  16  35  1   
 29  17  36  1   
 30  17  37  1   
 31  17  38  1   
 32  18  20  1   
 33  18  39  1   
 34  18  40  1   
 35  19  21  1   
 36  19  41  1   
 37  19  42  1   
 38  20  21  1   
 39  20  22  1   
 40  20  43  1   
 41  21  23  1   
 42  21  44  1   
 43  22  24  1   
 44  22  45  1   
 45  22  46  1   
 46  23  25  1   
 47  23  47  1   
 48  23  48  1   
 49  24  25  am  
 50  24  26  1   
 51  25  27  2   
 52  26  49  1   
 53  26  50  1   
 54  26  51  1   
@<TRIPOS>SUBSTRUCTURE
  1 ****  15 GROUP 4 **** **** 0

# MOE 2024.06 (io_trps.svl 2023.06)
