@<TRIPOS>MOLECULE
NONAME
48 50 1 0 0 
SMALL
USER_CHARGES


@<TRIPOS>ATOM
  1 S        0.9770     0.3500    -1.6720 S.o2  1 <1>   1.3330 
  2 O        1.2740    -1.0470    -1.8990 O.2   1 <1>  -0.6500 
  3 O        0.3900     1.1400    -2.7310 O.2   1 <1>  -0.6500 
  4 N       -0.0660     0.4500    -0.3340 N.am  1 <1>  -0.8490 
  5 C        2.4780     1.1500    -1.1030 C.3   1 <1>  -0.0550 
  6 C       -0.7250     1.7550    -0.2080 C.3   1 <1>   0.1160 
  7 C       -1.0740    -0.6140    -0.3410 C.3   1 <1>   0.1160 
  8 C        3.2610     0.3530    -0.0350 C.3   1 <1>  -0.0800 
  9 C        4.6070     0.9480     0.3500 C.3   1 <1>   0.2200 
 10 C        2.5560     0.2070     1.3200 C.3   1 <1>   0.1200 
 11 N        4.5020     2.4150     0.5250 N.am  1 <1>  -0.7300 
 12 C        4.8120     0.3080     1.7150 C.3   1 <1>   0.1200 
 13 O        3.5470     0.3020     2.3030 O.3   1 <1>  -0.5600 
 14 C        4.8420     3.3580    -0.3900 C.2   1 <1>   0.7150 
 15 O        5.2780     2.9880    -1.4620 O.2   1 <1>  -0.5700 
 16 C        4.6330     4.7480    -0.0660 C.2   1 <1>  -0.2370 
 17 N        4.7180     5.7920    -0.9710 N.pl3 1 <1>   0.0480 
 18 C        4.3140     5.2830     1.1510 C.2   1 <1>  -0.1500 
 19 C        4.4450     6.9690    -0.3110 C.ar  1 <1>  -0.1520 
 20 C        5.0290     5.6870    -2.4130 C.3   1 <1>   0.0160 
 21 C        4.1880     6.6730     1.0220 C.ar  1 <1>   0.0000 
 22 C        4.3960     8.2950    -0.7580 C.ar  1 <1>  -0.1500 
 23 C        3.8790     7.6980     1.9230 C.ar  1 <1>  -0.1500 
 24 C        4.0910     9.2960     0.1350 C.ar  1 <1>  -0.1500 
 25 C        3.8310     8.9970     1.4790 C.ar  1 <1>  -0.1500 
 26 H        3.1240     1.2880    -1.9490 H     1 <1>   0.0800 
 27 H        2.2360     2.1240    -0.7280 H     1 <1>   0.0800 
 28 H       -1.3030     1.7920     0.6990 H     1 <1>   0.0800 
 29 H       -1.3800     1.9300    -1.0470 H     1 <1>   0.0800 
 30 H        0.0080     2.5430    -0.1750 H     1 <1>   0.0800 
 31 H       -1.7110    -0.5320     0.5230 H     1 <1>   0.0800 
 32 H       -0.5940    -1.5780    -0.3140 H     1 <1>   0.0800 
 33 H       -1.6760    -0.5530    -1.2340 H     1 <1>   0.0800 
 34 H        3.4370    -0.6390    -0.4160 H     1 <1>   0.0800 
 35 H        5.3920     0.7000    -0.3450 H     1 <1>   0.0800 
 36 H        2.0580    -0.7430     1.4120 H     1 <1>   0.0800 
 37 H        1.8530     1.0030     1.4930 H     1 <1>   0.0800 
 38 H        4.0820     2.7090     1.4070 H     1 <1>   0.3700 
 39 H        5.5020     0.8530     2.3350 H     1 <1>   0.0800 
 40 H        5.1350    -0.7140     1.6140 H     1 <1>   0.0800 
 41 H        4.1740     4.7690     2.0850 H     1 <1>   0.1500 
 42 H        4.3410     5.0030    -2.8760 H     1 <1>   0.0800 
 43 H        6.0310     5.3160    -2.5310 H     1 <1>   0.0800 
 44 H        4.9450     6.6450    -2.8870 H     1 <1>   0.0800 
 45 H        4.5960     8.5320    -1.7860 H     1 <1>   0.1500 
 46 H        3.6840     7.4520     2.9510 H     1 <1>   0.1500 
 47 H        4.0480    10.3210    -0.1890 H     1 <1>   0.1500 
 48 H        3.5950     9.7980     2.1570 H     1 <1>   0.1500 
@<TRIPOS>BOND
  1   1   2  2   
  2   1   3  2   
  3   1   4  am  
  4   1   5  1   
  5   4   6  1   
  6   4   7  1   
  7   5   8  1   
  8   5  26  1   
  9   5  27  1   
 10   6  28  1   
 11   6  29  1   
 12   6  30  1   
 13   7  31  1   
 14   7  32  1   
 15   7  33  1   
 16   8   9  1   
 17   8  10  1   
 18   8  34  1   
 19   9  11  1   
 20   9  12  1   
 21   9  35  1   
 22  10  13  1   
 23  10  36  1   
 24  10  37  1   
 25  11  14  am  
 26  11  38  1   
 27  12  13  1   
 28  12  39  1   
 29  12  40  1   
 30  14  15  2   
 31  14  16  1   
 32  16  17  1   
 33  16  18  2   
 34  17  19  1   
 35  17  20  1   
 36  18  21  1   
 37  18  41  1   
 38  19  21  ar  
 39  19  22  ar  
 40  20  42  1   
 41  20  43  1   
 42  20  44  1   
 43  21  23  ar  
 44  22  24  ar  
 45  22  45  1   
 46  23  25  ar  
 47  23  46  1   
 48  24  25  ar  
 49  24  47  1   
 50  25  48  1   
@<TRIPOS>SUBSTRUCTURE
  1 ****  14 GROUP 4 **** **** 0

# MOE 2024.06 (io_trps.svl 2023.06)
