@<TRIPOS>MOLECULE
NONAME
42 44 1 0 0 
SMALL
USER_CHARGES


@<TRIPOS>ATOM
  1 F        0.0640    -1.0110     0.4680 F     1 <1>  -0.3400 
  2 C        0.0080    -1.9000    -0.5130 C.3   1 <1>   1.1640 
  3 F        1.0140    -1.6160    -1.3320 F     1 <1>  -0.3400 
  4 F       -1.1070    -1.6520    -1.1850 F     1 <1>  -0.3400 
  5 C        0.0620    -3.3440     0.0190 C.ar  1 <1>  -0.1440 
  6 C        1.0770    -4.2220    -0.3090 C.ar  1 <1>  -0.1500 
  7 C       -0.9550    -3.7930     0.8740 C.ar  1 <1>  -0.1500 
  8 C        1.1090    -5.5310     0.1950 C.ar  1 <1>   0.3610 
  9 C       -0.9550    -5.0760     1.3580 C.ar  1 <1>  -0.1500 
 10 N        2.1630    -6.3820    -0.0670 N.ar  1 <1>  -0.1790 
 11 C        0.0630    -5.9810     1.0170 C.ar  1 <1>   0.0000 
 12 C        2.2950    -7.5760     0.5390 C.ar  1 <1>   0.2180 
 13 C        0.0730    -7.3510     1.3860 C.ar  1 <1>   0.1000 
 14 C        1.2780    -8.0450     1.3270 C.ar  1 <1>  -0.1500 
 15 C        3.5260    -8.4150     0.2560 C.3   1 <1>  -0.0970 
 16 N       -1.0760    -8.0460     1.4250 N.pl3 1 <1>  -0.8690 
 17 C       -1.3160    -9.0610     0.3110 C.3   1 <1>   0.2630 
 18 C       -0.2630    -8.9770    -0.8820 C.2   1 <1>   0.9060 
 19 C       -1.3460   -10.4530     0.9660 C.3   1 <1>  -0.1600 
 20 C       -2.7240    -8.7740    -0.2370 C.3   1 <1>  -0.1600 
 21 O       -0.1850    -7.9420    -1.5730 O.co2 1 <1>  -0.9000 
 22 O        0.5890    -9.8670    -1.0430 O.co2 1 <1>  -0.9000 
 23 C       -1.9020   -11.5010    -0.0050 C.3   1 <1>   0.1200 
 24 C       -3.1830    -9.9110    -1.1560 C.3   1 <1>   0.1200 
 25 O       -3.1700   -11.1040    -0.4350 O.3   1 <1>  -0.5600 
 26 H        1.8720    -3.9100    -0.9630 H     1 <1>   0.1500 
 27 H       -1.7540    -3.1210     1.1490 H     1 <1>   0.1500 
 28 H       -1.7470    -5.4130     2.0050 H     1 <1>   0.1500 
 29 H        2.8210    -6.1230    -0.7990 H     1 <1>   0.4570 
 30 H        1.3360    -9.0160     1.7850 H     1 <1>   0.1500 
 31 H        4.4240    -7.8750     0.4980 H     1 <1>   0.0800 
 32 H        3.5390    -8.6930    -0.7840 H     1 <1>   0.0800 
 33 H        3.5020    -9.3210     0.8340 H     1 <1>   0.0800 
 34 H       -1.9560    -7.5740     1.6460 H     1 <1>   0.4000 
 35 H       -1.9630   -10.4380     1.8450 H     1 <1>   0.0800 
 36 H       -0.3510   -10.7380     1.2540 H     1 <1>   0.0800 
 37 H       -2.7140    -7.8540    -0.7940 H     1 <1>   0.0800 
 38 H       -3.4310    -8.6840     0.5670 H     1 <1>   0.0800 
 39 H       -2.0030   -12.4530     0.4860 H     1 <1>   0.0800 
 40 H       -1.2640   -11.6210    -0.8660 H     1 <1>   0.0800 
 41 H       -2.5390   -10.0140    -2.0140 H     1 <1>   0.0800 
 42 H       -4.1900    -9.7410    -1.4930 H     1 <1>   0.0800 
@<TRIPOS>BOND
  1   1   2  1   
  2   2   3  1   
  3   2   4  1   
  4   2   5  1   
  5   5   6  ar  
  6   5   7  ar  
  7   6   8  ar  
  8   6  26  1   
  9   7   9  ar  
 10   7  27  1   
 11   8  10  ar  
 12   8  11  ar  
 13   9  11  ar  
 14   9  28  1   
 15  10  12  ar  
 16  10  29  1   
 17  11  13  ar  
 18  12  14  ar  
 19  12  15  1   
 20  13  14  ar  
 21  13  16  1   
 22  14  30  1   
 23  15  31  1   
 24  15  32  1   
 25  15  33  1   
 26  16  17  1   
 27  16  34  1   
 28  17  18  1   
 29  17  19  1   
 30  17  20  1   
 31  18  21  ar  
 32  18  22  ar  
 33  19  23  1   
 34  19  35  1   
 35  19  36  1   
 36  20  24  1   
 37  20  37  1   
 38  20  38  1   
 39  23  25  1   
 40  23  39  1   
 41  23  40  1   
 42  24  25  1   
 43  24  41  1   
 44  24  42  1   
@<TRIPOS>SUBSTRUCTURE
  1 ****  11 GROUP 4 **** **** 0

# MOE 2024.06 (io_trps.svl 2023.06)
