@<TRIPOS>MOLECULE
Untitled Document
33 34 1 0 0 
SMALL
USER_CHARGES


@<TRIPOS>ATOM
  1 S       -0.0540    -0.4580    -1.0290 S.o2  1 <1>   1.4590 
  2 O        0.6230    -1.5090    -1.8400 O.co2 1 <1>  -0.8170 
  3 O       -0.6950     0.5720    -1.8790 O.co2 1 <1>  -0.8170 
  4 O        0.8670     0.1090    -0.0130 O.co2 1 <1>  -0.8170 
  5 C       -1.4130    -1.2530    -0.0630 C.ar  1 <1>  -0.0090 
  6 C       -1.3460    -2.5240     0.5470 C.ar  1 <1>   0.1000 
  7 C       -2.5860    -0.5230     0.1080 C.ar  1 <1>  -0.1500 
  8 N       -0.2680    -3.4150     0.4800 N.pl3 1 <1>  -0.8380 
  9 C       -2.4370    -2.9850     1.2760 C.ar  1 <1>  -0.1500 
 10 C       -3.6680    -0.9920     0.8320 C.ar  1 <1>  -0.1430 
 11 C        1.0110    -2.9140     1.0910 C.3   1 <1>   0.2090 
 12 C       -0.1290    -4.0940    -0.8540 C.3   1 <1>   0.2090 
 13 C       -3.5860    -2.2370     1.4220 C.ar  1 <1>  -0.1500 
 14 C       -4.9170    -0.1430     0.9770 C.3   1 <1>  -0.0970 
 15 C        2.1500    -3.9530     1.0650 C.3   1 <1>   0.3430 
 16 C        1.3430    -4.2820    -1.2780 C.3   1 <1>   0.3430 
 17 N        2.1490    -4.8560    -0.1440 N.4   1 <1>  -0.9060 
 18 H       -2.6440     0.4530    -0.3450 H     1 <1>   0.1500 
 19 H       -2.3750    -3.9530     1.7360 H     1 <1>   0.1500 
 20 H        0.8280    -2.5890     2.1000 H     1 <1>   0.0800 
 21 H        1.3720    -2.0670     0.5490 H     1 <1>   0.0800 
 22 H       -0.6510    -3.5370    -1.6140 H     1 <1>   0.0800 
 23 H       -0.6040    -5.0560    -0.7950 H     1 <1>   0.0800 
 24 H       -4.4110    -2.6240     1.9940 H     1 <1>   0.1500 
 25 H       -5.0760     0.4400     0.0870 H     1 <1>   0.0800 
 26 H       -4.8070     0.5230     1.8130 H     1 <1>   0.0800 
 27 H       -5.7810    -0.7640     1.1350 H     1 <1>   0.0800 
 28 H        2.0790    -4.5530     1.9570 H     1 <1>   0.0800 
 29 H        3.0820    -3.4130     1.1130 H     1 <1>   0.0800 
 30 H        1.7530    -3.3290    -1.5680 H     1 <1>   0.0800 
 31 H        1.3830    -4.9290    -2.1380 H     1 <1>   0.0800 
 32 H        1.7010    -5.7360     0.1300 H     1 <1>   0.4500 
 33 H        3.1070    -5.0460    -0.4520 H     1 <1>   0.4500 
@<TRIPOS>BOND
  1   1   2  ar  
  2   1   3  ar  
  3   1   4  ar  
  4   1   5  1   
  5   5   6  ar  
  6   5   7  ar  
  7   6   8  1   
  8   6   9  ar  
  9   7  10  ar  
 10   7  18  1   
 11   8  11  1   
 12   8  12  1   
 13   9  13  ar  
 14   9  19  1   
 15  10  13  ar  
 16  10  14  1   
 17  11  15  1   
 18  11  20  1   
 19  11  21  1   
 20  12  16  1   
 21  12  22  1   
 22  12  23  1   
 23  13  24  1   
 24  14  25  1   
 25  14  26  1   
 26  14  27  1   
 27  15  17  1   
 28  15  28  1   
 29  15  29  1   
 30  16  17  1   
 31  16  30  1   
 32  16  31  1   
 33  17  32  1   
 34  17  33  1   
@<TRIPOS>SUBSTRUCTURE
  1 ****   6 GROUP 4 **** **** 0

# MOE 2024.06 (io_trps.svl 2023.06)
