@<TRIPOS>MOLECULE
NONAME
51 54 1 0 0 
SMALL
USER_CHARGES


@<TRIPOS>ATOM
  1 O       -2.1280     0.6740    -1.7810 O.2   1 <1>  -0.5700 
  2 C       -2.5560    -0.2900    -1.1900 C.2   1 <1>   0.5690 
  3 N       -2.7770    -0.2730     0.1560 N.am  1 <1>  -0.6600 
  4 C       -2.8560    -1.5340    -1.9930 C.3   1 <1>  -0.0190 
  5 C       -3.2000    -1.4950     0.8960 C.3   1 <1>   0.2200 
  6 C       -2.5570     0.9520     0.9770 C.3   1 <1>   0.0600 
  7 C       -1.9030    -2.6920    -1.6250 C.3   1 <1>   0.1200 
  8 C       -4.3680    -1.8260    -1.9890 C.3   1 <1>   0.1400 
  9 C       -2.1360    -2.6110     0.7700 C.3   1 <1>   0.1200 
 10 C       -4.6500    -1.9050     0.5410 C.3   1 <1>   0.1400 
 11 O       -2.1910    -3.3440    -0.4200 O.3   1 <1>  -0.5600 
 12 N       -4.8390    -2.5780    -0.7880 N.am  1 <1>  -0.6600 
 13 C       -5.2330    -3.9010    -0.9040 C.2   1 <1>   0.5440 
 14 O       -5.3220    -4.4030    -2.0110 O.2   1 <1>  -0.5700 
 15 C       -5.4910    -4.7340     0.2510 C.ar  1 <1>   0.0860 
 16 C       -6.6780    -4.6470     0.9990 C.ar  1 <1>   0.0000 
 17 C       -4.5230    -5.6570     0.6400 C.ar  1 <1>  -0.1500 
 18 C       -7.7240    -3.7000     0.6800 C.ar  1 <1>   0.0000 
 19 C       -6.8470    -5.4880     2.0950 C.ar  1 <1>  -0.1500 
 20 C       -4.7040    -6.4810     1.7330 C.ar  1 <1>  -0.1500 
 21 C       -8.5790    -3.8430    -0.4180 C.ar  1 <1>  -0.1440 
 22 C       -7.9000    -2.5940     1.5090 C.ar  1 <1>  -0.1500 
 23 C       -5.8740    -6.3960     2.4640 C.ar  1 <1>  -0.1500 
 24 C       -9.5480    -2.8870    -0.6740 C.ar  1 <1>  -0.1500 
 25 C       -8.4860    -5.0350    -1.3640 C.3   1 <1>  -0.0970 
 26 C       -8.8710    -1.6450     1.2530 C.ar  1 <1>  -0.1500 
 27 C       -9.6960    -1.7890     0.1540 C.ar  1 <1>  -0.1500 
 28 H       -2.6180    -1.2780    -3.0090 H     1 <1>   0.0800 
 29 H       -3.2180    -1.2290     1.9380 H     1 <1>   0.0800 
 30 H       -3.4580     1.2030     1.5080 H     1 <1>   0.0800 
 31 H       -2.2860     1.7880     0.3530 H     1 <1>   0.0800 
 32 H       -1.7620     0.7810     1.6820 H     1 <1>   0.0800 
 33 H       -0.8870    -2.3380    -1.5800 H     1 <1>   0.0800 
 34 H       -1.9620    -3.4430    -2.3940 H     1 <1>   0.0800 
 35 H       -4.6030    -2.3780    -2.8820 H     1 <1>   0.0800 
 36 H       -4.9120    -0.8990    -2.0510 H     1 <1>   0.0800 
 37 H       -2.2910    -3.3210     1.5620 H     1 <1>   0.0800 
 38 H       -1.1460    -2.2030     0.8760 H     1 <1>   0.0800 
 39 H       -5.2750    -1.0300     0.5700 H     1 <1>   0.0800 
 40 H       -4.9930    -2.5540     1.3230 H     1 <1>   0.0800 
 41 H       -3.6140    -5.7180     0.0630 H     1 <1>   0.1500 
 42 H       -7.7590    -5.4270     2.6630 H     1 <1>   0.1500 
 43 H       -3.9410    -7.1880     2.0110 H     1 <1>   0.1500 
 44 H       -7.2660    -2.4790     2.3690 H     1 <1>   0.1500 
 45 H       -6.0260    -7.0390     3.3150 H     1 <1>   0.1500 
 46 H      -10.1970    -2.9930    -1.5250 H     1 <1>   0.1500 
 47 H       -9.4670    -5.3260    -1.6930 H     1 <1>   0.0800 
 48 H       -8.0310    -5.8840    -0.8880 H     1 <1>   0.0800 
 49 H       -7.9010    -4.7690    -2.2260 H     1 <1>   0.0800 
 50 H       -8.9870    -0.7970     1.9040 H     1 <1>   0.1500 
 51 H      -10.4520    -1.0530    -0.0560 H     1 <1>   0.1500 
@<TRIPOS>BOND
  1   1   2  2   
  2   2   3  am  
  3   2   4  1   
  4   3   5  1   
  5   3   6  1   
  6   4   7  1   
  7   4   8  1   
  8   4  28  1   
  9   5   9  1   
 10   5  10  1   
 11   5  29  1   
 12   6  30  1   
 13   6  31  1   
 14   6  32  1   
 15   7  11  1   
 16   7  33  1   
 17   7  34  1   
 18   8  12  1   
 19   8  35  1   
 20   8  36  1   
 21   9  11  1   
 22   9  37  1   
 23   9  38  1   
 24  10  12  1   
 25  10  39  1   
 26  10  40  1   
 27  12  13  am  
 28  13  14  2   
 29  13  15  1   
 30  15  16  ar  
 31  15  17  ar  
 32  16  18  1   
 33  16  19  ar  
 34  17  20  ar  
 35  17  41  1   
 36  18  21  ar  
 37  18  22  ar  
 38  19  23  ar  
 39  19  42  1   
 40  20  23  ar  
 41  20  43  1   
 42  21  24  ar  
 43  21  25  1   
 44  22  26  ar  
 45  22  44  1   
 46  23  45  1   
 47  24  27  ar  
 48  24  46  1   
 49  25  47  1   
 50  25  48  1   
 51  25  49  1   
 52  26  27  ar  
 53  26  50  1   
 54  27  51  1   
@<TRIPOS>SUBSTRUCTURE
  1 ****  12 GROUP 4 **** **** 0

# MOE 2024.06 (io_trps.svl 2023.06)
