@<TRIPOS>MOLECULE
NONAME
48 50 1 0 0 
SMALL
USER_CHARGES


@<TRIPOS>ATOM
  1 O       -0.3340     0.2620    -0.0910 O.2   1 <1>  -0.5700 
  2 C       -1.4080     0.8170    -0.0970 C.2   1 <1>   0.5690 
  3 N       -2.5760     0.1100    -0.1150 N.am  1 <1>  -0.6600 
  4 C       -1.4570     2.3380    -0.0880 C.3   1 <1>  -0.0990 
  5 C       -3.9490     0.6730    -0.1660 C.3   1 <1>   0.1400 
  6 C       -2.6140    -1.3720    -0.0920 C.3   1 <1>   0.1400 
  7 C       -0.0710     3.0050     0.0280 C.3   1 <1>  -0.0990 
  8 C       -4.8570    -0.5370    -0.3820 C.3   1 <1>   0.2000 
  9 C       -4.0780    -1.7300     0.1660 C.3   1 <1>  -0.0800 
 10 C       -0.1120     4.5310     0.0460 C.2   1 <1>   0.4230 
 11 O       -6.0610    -0.4000     0.2910 O.3   1 <1>  -0.6800 
 12 C       -4.5020    -3.0700    -0.4530 C.3   1 <1>   0.0210 
 13 O       -1.1930     5.0630    -0.0050 O.2   1 <1>  -0.5700 
 14 C        1.1290     5.2820     0.1230 C.ar  1 <1>   0.0860 
 15 C       -3.6240    -4.2010     0.0460 C.2   1 <1>   0.1080 
 16 C        1.1030     6.6800     0.1220 C.ar  1 <1>  -0.1500 
 17 C        2.3890     4.6780     0.2020 C.ar  1 <1>  -0.1500 
 18 N       -3.5410    -4.5250     1.2980 N.2   1 <1>  -0.7070 
 19 C       -2.8130    -4.9940    -0.7580 C.2   1 <1>  -0.1500 
 20 C        2.2590     7.4340     0.1940 C.ar  1 <1>  -0.1500 
 21 C        3.5500     5.4260     0.2740 C.ar  1 <1>  -0.1500 
 22 N       -2.6650    -5.5470     1.3270 N.pl3 1 <1>   0.3000 
 23 C       -2.2090    -5.8490     0.0930 C.2   1 <1>  -0.3320 
 24 C        3.4890     6.8070     0.2700 C.ar  1 <1>  -0.1500 
 25 C       -1.2070    -6.9510    -0.1990 C.3   1 <1>  -0.0600 
 26 H       -1.9290     2.6660    -0.9960 H     1 <1>   0.0800 
 27 H       -2.0650     2.6520     0.7400 H     1 <1>   0.0800 
 28 H       -4.1690     1.1540     0.7710 H     1 <1>   0.0800 
 29 H       -4.0450     1.3710    -0.9790 H     1 <1>   0.0800 
 30 H       -2.2850    -1.7440    -1.0480 H     1 <1>   0.0800 
 31 H       -1.9710    -1.7620     0.6800 H     1 <1>   0.0800 
 32 H        0.5310     2.6880    -0.8050 H     1 <1>   0.0800 
 33 H        0.3990     2.6640     0.9330 H     1 <1>   0.0800 
 34 H       -5.0660    -0.6510    -1.4320 H     1 <1>   0.0800 
 35 H       -4.2020    -1.7840     1.2340 H     1 <1>   0.0800 
 36 H       -5.9180    -0.4680     1.2550 H     1 <1>   0.4000 
 37 H       -4.4420    -3.0190    -1.5250 H     1 <1>   0.0800 
 38 H       -5.5220    -3.2820    -0.1850 H     1 <1>   0.0800 
 39 H        0.1530     7.1830     0.0630 H     1 <1>   0.1500 
 40 H        2.4830     3.6070     0.2080 H     1 <1>   0.1500 
 41 H       -2.7070    -4.9200    -1.8260 H     1 <1>   0.1500 
 42 H        2.2030     8.5090     0.1900 H     1 <1>   0.1500 
 43 H        4.5060     4.9340     0.3330 H     1 <1>   0.1500 
 44 H       -2.3990    -6.0140     2.2030 H     1 <1>   0.2700 
 45 H        4.3920     7.3910     0.3260 H     1 <1>   0.1500 
 46 H       -1.0040    -6.9940    -1.2550 H     1 <1>   0.0800 
 47 H       -1.5990    -7.9020     0.1130 H     1 <1>   0.0800 
 48 H       -0.2840    -6.7620     0.3190 H     1 <1>   0.0800 
@<TRIPOS>BOND
  1   1   2  2   
  2   2   3  am  
  3   2   4  1   
  4   3   5  1   
  5   3   6  1   
  6   4   7  1   
  7   4  26  1   
  8   4  27  1   
  9   5   8  1   
 10   5  28  1   
 11   5  29  1   
 12   6   9  1   
 13   6  30  1   
 14   6  31  1   
 15   7  10  1   
 16   7  32  1   
 17   7  33  1   
 18   8   9  1   
 19   8  11  1   
 20   8  34  1   
 21   9  12  1   
 22   9  35  1   
 23  10  13  2   
 24  10  14  1   
 25  11  36  1   
 26  12  15  1   
 27  12  37  1   
 28  12  38  1   
 29  14  16  ar  
 30  14  17  ar  
 31  15  18  2   
 32  15  19  1   
 33  16  20  ar  
 34  16  39  1   
 35  17  21  ar  
 36  17  40  1   
 37  18  22  1   
 38  19  23  2   
 39  19  41  1   
 40  20  24  ar  
 41  20  42  1   
 42  21  24  ar  
 43  21  43  1   
 44  22  23  1   
 45  22  44  1   
 46  23  25  1   
 47  24  45  1   
 48  25  46  1   
 49  25  47  1   
 50  25  48  1   
@<TRIPOS>SUBSTRUCTURE
  1 ****   2 GROUP 4 **** **** 0

# MOE 2024.06 (io_trps.svl 2023.06)
