@<TRIPOS>MOLECULE
NONAME
62 66 1 0 0 
SMALL
USER_CHARGES


@<TRIPOS>ATOM
  1 O        3.8870    -0.9780    -1.6100 O.2   1 <1>  -0.5700 
  2 C        4.7750    -1.2390    -0.8360 C.2   1 <1>   0.5690 
  3 N        5.8780    -0.4910    -0.6130 N.am  1 <1>  -0.6600 
  4 C        4.7850    -2.4720     0.0230 C.3   1 <1>  -0.0990 
  5 C        6.7970    -1.0920     0.3660 C.3   1 <1>   0.1400 
  6 C        6.2140     0.7640    -1.3270 C.3   1 <1>   0.1400 
  7 C        6.1940    -2.4780     0.6420 C.3   1 <1>  -0.1600 
  8 C        5.3550     1.9410    -0.8330 C.3   1 <1>  -0.0800 
  9 C        5.6660     3.1940    -1.6730 C.3   1 <1>  -0.1600 
 10 C        5.5600     2.2270     0.6690 C.3   1 <1>  -0.1600 
 11 C        4.9140     4.4280    -1.1680 C.3   1 <1>   0.1400 
 12 C        4.8040     3.4780     1.1270 C.3   1 <1>   0.1400 
 13 N        5.2140     4.6220     0.2740 N.am  1 <1>  -0.6600 
 14 C        5.9560     5.6770     0.7640 C.2   1 <1>   0.7160 
 15 O        6.0570     5.8260     1.9690 O.2   1 <1>  -0.5700 
 16 C        6.6780     6.5370    -0.1150 C.2   1 <1>  -0.0860 
 17 C        6.3100     7.8150    -0.5410 C.2   1 <1>   0.3720 
 18 C        7.8320     6.2950    -0.7860 C.2   1 <1>   0.0870 
 19 N        7.1610     8.2780    -1.3910 N.2   1 <1>  -0.4100 
 20 N        5.1590     8.4990    -0.1340 N.pl3 1 <1>  -0.8210 
 21 O        8.0730     7.3500    -1.5220 O.3   1 <1>  -0.0190 
 22 C        8.7050     5.1490    -0.8140 C.ar  1 <1>   0.0530 
 23 C        4.6930     9.5850    -1.0510 C.3   1 <1>   0.2090 
 24 C        5.2170     9.0060     1.2720 C.3   1 <1>   0.2090 
 25 C        9.3970     4.8050    -1.9750 C.ar  1 <1>  -0.1500 
 26 C        8.8750     4.3290     0.3020 C.ar  1 <1>  -0.1500 
 27 C        3.3800    10.2080    -0.5450 C.3   1 <1>   0.1200 
 28 C        3.8830     9.6570     1.6780 C.3   1 <1>   0.1200 
 29 C       10.2080     3.6860    -2.0270 C.ar  1 <1>  -0.1500 
 30 C        9.6830     3.2080     0.2570 C.ar  1 <1>  -0.1500 
 31 O        3.5170    10.6640     0.7730 O.3   1 <1>  -0.5600 
 32 C       10.3500     2.8820    -0.9110 C.ar  1 <1>  -0.1500 
 33 H        4.6040    -3.3470    -0.5730 H     1 <1>   0.0800 
 34 H        4.0270    -2.3760     0.7780 H     1 <1>   0.0800 
 35 H        6.8160    -0.4930     1.2600 H     1 <1>   0.0800 
 36 H        7.7890    -1.1730    -0.0450 H     1 <1>   0.0800 
 37 H        6.0360     0.6130    -2.3780 H     1 <1>   0.0800 
 38 H        7.2590     0.9880    -1.1930 H     1 <1>   0.0800 
 39 H        6.7990    -3.2250     0.1590 H     1 <1>   0.0800 
 40 H        6.1670    -2.6870     1.6970 H     1 <1>   0.0800 
 41 H        4.3200     1.6880    -0.9950 H     1 <1>   0.0800 
 42 H        5.3930     3.0170    -2.6980 H     1 <1>   0.0800 
 43 H        6.7210     3.3960    -1.6490 H     1 <1>   0.0800 
 44 H        6.6070     2.3600     0.8770 H     1 <1>   0.0800 
 45 H        5.2130     1.3890     1.2470 H     1 <1>   0.0800 
 46 H        3.8540     4.2820    -1.2860 H     1 <1>   0.0800 
 47 H        5.1920     5.2940    -1.7440 H     1 <1>   0.0800 
 48 H        5.0180     3.6740     2.1640 H     1 <1>   0.0800 
 49 H        3.7430     3.3250     1.0270 H     1 <1>   0.0800 
 50 H        4.5410     9.1780    -2.0360 H     1 <1>   0.0800 
 51 H        5.4450    10.3520    -1.1190 H     1 <1>   0.0800 
 52 H        6.0080     9.7300     1.3620 H     1 <1>   0.0800 
 53 H        5.4280     8.1990     1.9490 H     1 <1>   0.0800 
 54 H        9.2940     5.4230    -2.8510 H     1 <1>   0.1500 
 55 H        8.3740     4.5710     1.2220 H     1 <1>   0.1500 
 56 H        2.5860     9.4830    -0.5770 H     1 <1>   0.0800 
 57 H        3.1090    11.0490    -1.1570 H     1 <1>   0.0800 
 58 H        3.9710    10.1060     2.6510 H     1 <1>   0.0800 
 59 H        3.1010     8.9180     1.7060 H     1 <1>   0.0800 
 60 H       10.7300     3.4400    -2.9360 H     1 <1>   0.1500 
 61 H        9.7970     2.5920     1.1320 H     1 <1>   0.1500 
 62 H       10.9820     2.0120    -0.9480 H     1 <1>   0.1500 
@<TRIPOS>BOND
  1   1   2  2   
  2   2   3  am  
  3   2   4  1   
  4   3   5  1   
  5   3   6  1   
  6   4   7  1   
  7   4  33  1   
  8   4  34  1   
  9   5   7  1   
 10   5  35  1   
 11   5  36  1   
 12   6   8  1   
 13   6  37  1   
 14   6  38  1   
 15   7  39  1   
 16   7  40  1   
 17   8   9  1   
 18   8  10  1   
 19   8  41  1   
 20   9  11  1   
 21   9  42  1   
 22   9  43  1   
 23  10  12  1   
 24  10  44  1   
 25  10  45  1   
 26  11  13  1   
 27  11  46  1   
 28  11  47  1   
 29  12  13  1   
 30  12  48  1   
 31  12  49  1   
 32  13  14  am  
 33  14  15  2   
 34  14  16  1   
 35  16  17  1   
 36  16  18  2   
 37  17  19  2   
 38  17  20  1   
 39  18  21  1   
 40  18  22  1   
 41  19  21  1   
 42  20  23  1   
 43  20  24  1   
 44  22  25  ar  
 45  22  26  ar  
 46  23  27  1   
 47  23  50  1   
 48  23  51  1   
 49  24  28  1   
 50  24  52  1   
 51  24  53  1   
 52  25  29  ar  
 53  25  54  1   
 54  26  30  ar  
 55  26  55  1   
 56  27  31  1   
 57  27  56  1   
 58  27  57  1   
 59  28  31  1   
 60  28  58  1   
 61  28  59  1   
 62  29  32  ar  
 63  29  60  1   
 64  30  32  ar  
 65  30  61  1   
 66  32  62  1   
@<TRIPOS>SUBSTRUCTURE
  1 ****  13 GROUP 4 **** **** 0

# MOE 2024.06 (io_trps.svl 2023.06)
