@<TRIPOS>MOLECULE
NONAME
48 51 1 0 0 
SMALL
USER_CHARGES


@<TRIPOS>ATOM
  1 CL      -1.0260    -0.3190    -2.1340 Cl    1 <1>  -0.1770 
  2 C       -2.2630    -1.2000    -1.2720 C.ar  1 <1>   0.1770 
  3 C       -2.1520    -2.5710    -1.1480 C.ar  1 <1>  -0.1500 
  4 C       -3.3320    -0.5070    -0.7330 C.ar  1 <1>  -0.1500 
  5 C       -3.1310    -3.2840    -0.4640 C.ar  1 <1>   0.0280 
  6 C       -4.3110    -1.2070    -0.0500 C.ar  1 <1>  -0.1500 
  7 C       -4.2090    -2.5830     0.0880 C.ar  1 <1>   0.0830 
  8 C       -3.0970    -4.7120    -0.3110 C.2   1 <1>  -0.1780 
  9 O       -5.1930    -3.2340     0.7570 O.3   1 <1>  -0.3630 
 10 C       -3.9690    -5.3290     0.5000 C.2   1 <1>  -0.2760 
 11 C       -4.9780    -4.5210     1.3160 C.3   1 <1>   0.2580 
 12 C       -4.0450    -6.8220     0.7200 C.3   1 <1>   0.4810 
 13 N       -4.5600    -7.4520    -0.5240 N.4   1 <1>  -0.9590 
 14 C       -5.9360    -6.9750    -0.8740 C.3   1 <1>   0.3430 
 15 C       -4.6730    -8.9300    -0.3310 C.3   1 <1>   0.3430 
 16 C       -6.8930    -7.9440    -0.1770 C.3   1 <1>   0.2000 
 17 C       -6.1680    -9.2830    -0.3290 C.3   1 <1>  -0.0800 
 18 O       -6.9800    -7.5890     1.1690 O.3   1 <1>  -0.6800 
 19 C       -6.5180   -10.3680     0.7090 C.3   1 <1>   0.0210 
 20 C       -5.7660   -11.6550     0.4300 C.2   1 <1>   0.1080 
 21 N       -4.4700   -11.7290     0.4200 N.2   1 <1>  -0.7070 
 22 C       -6.3650   -12.8810     0.1630 C.2   1 <1>  -0.1500 
 23 N       -4.2060   -13.0270     0.1550 N.pl3 1 <1>   0.3000 
 24 C       -5.3400   -13.7400    -0.0100 C.2   1 <1>  -0.3320 
 25 C       -5.3730   -15.2250    -0.3210 C.3   1 <1>  -0.0600 
 26 H       -1.3080    -3.0730    -1.5820 H     1 <1>   0.1500 
 27 H       -3.3930     0.5610    -0.8480 H     1 <1>   0.1500 
 28 H       -5.1530    -0.6930     0.3780 H     1 <1>   0.1500 
 29 H       -2.3440    -5.2300    -0.8810 H     1 <1>   0.1500 
 30 H       -4.6210    -4.3830     2.3230 H     1 <1>   0.0800 
 31 H       -5.9360    -5.0090     1.3540 H     1 <1>   0.0800 
 32 H       -4.6910    -7.0480     1.5540 H     1 <1>   0.0800 
 33 H       -3.0610    -7.2040     0.9400 H     1 <1>   0.0800 
 34 H       -3.9060    -7.2190    -1.2800 H     1 <1>   0.4500 
 35 H       -6.1150    -5.9560    -0.5750 H     1 <1>   0.0800 
 36 H       -6.0780    -7.0540    -1.9390 H     1 <1>   0.0800 
 37 H       -4.1720    -9.4680    -1.1210 H     1 <1>   0.0800 
 38 H       -4.2290    -9.2230     0.6070 H     1 <1>   0.0800 
 39 H       -7.8800    -7.9310    -0.6080 H     1 <1>   0.0800 
 40 H       -6.3970    -9.6780    -1.3040 H     1 <1>   0.0800 
 41 H       -7.7360    -8.0380     1.6040 H     1 <1>   0.4000 
 42 H       -7.5750   -10.5660     0.6880 H     1 <1>   0.0800 
 43 H       -6.2580   -10.0430     1.7010 H     1 <1>   0.0800 
 44 H       -7.4210   -13.0830     0.1140 H     1 <1>   0.1500 
 45 H       -3.2500   -13.4000     0.0980 H     1 <1>   0.2700 
 46 H       -6.3910   -15.5640    -0.4020 H     1 <1>   0.0800 
 47 H       -4.8910   -15.7810     0.4640 H     1 <1>   0.0800 
 48 H       -4.8720   -15.4240    -1.2510 H     1 <1>   0.0800 
@<TRIPOS>BOND
  1   1   2  1   
  2   2   3  ar  
  3   2   4  ar  
  4   3   5  ar  
  5   3  26  1   
  6   4   6  ar  
  7   4  27  1   
  8   5   7  ar  
  9   5   8  1   
 10   6   7  ar  
 11   6  28  1   
 12   7   9  1   
 13   8  10  2   
 14   8  29  1   
 15   9  11  1   
 16  10  11  1   
 17  10  12  1   
 18  11  30  1   
 19  11  31  1   
 20  12  13  1   
 21  12  32  1   
 22  12  33  1   
 23  13  14  1   
 24  13  15  1   
 25  13  34  1   
 26  14  16  1   
 27  14  35  1   
 28  14  36  1   
 29  15  17  1   
 30  15  37  1   
 31  15  38  1   
 32  16  17  1   
 33  16  18  1   
 34  16  39  1   
 35  17  19  1   
 36  17  40  1   
 37  18  41  1   
 38  19  20  1   
 39  19  42  1   
 40  19  43  1   
 41  20  21  2   
 42  20  22  1   
 43  21  23  1   
 44  22  24  2   
 45  22  44  1   
 46  23  24  1   
 47  23  45  1   
 48  24  25  1   
 49  25  46  1   
 50  25  47  1   
 51  25  48  1   
@<TRIPOS>SUBSTRUCTURE
  1 ****  13 GROUP 4 **** **** 0

# MOE 2024.06 (io_trps.svl 2023.06)
