@<TRIPOS>MOLECULE
NONAME
50 54 1 0 0 
SMALL
USER_CHARGES


@<TRIPOS>ATOM
  1 S       -0.2650     0.0890    -1.2580 S.3   1 <1>  -0.0800 
  2 C       -1.1540     1.3190    -0.3720 C.2   1 <1>  -0.1400 
  3 C       -1.6440    -1.0020    -1.1890 C.2   1 <1>  -0.1100 
  4 C       -2.3890     0.8930    -0.0800 C.2   1 <1>  -0.1810 
  5 C       -0.5450     2.6700    -0.0030 C.3   1 <1>   0.4600 
  6 C       -2.6770    -0.4320    -0.5380 C.2   1 <1>  -0.1500 
  7 C       -3.3310     1.8010     0.6760 C.3   1 <1>   0.0210 
  8 O       -1.4610     3.3640     0.8220 O.3   1 <1>  -0.5600 
  9 C       -0.2860     3.5200    -1.2580 C.3   1 <1>  -0.1600 
 10 C        0.7190     2.4820     0.8560 C.3   1 <1>  -0.1600 
 11 C       -2.8390     3.2550     0.5450 C.3   1 <1>   0.1200 
 12 C        0.6980     4.6430    -0.9520 C.3   1 <1>   0.2090 
 13 C        2.0090     2.7030     0.0680 C.3   1 <1>   0.2090 
 14 N        2.0100     4.0680    -0.5370 N.pl3 1 <1>  -0.8380 
 15 C        3.1690     4.8110    -0.6370 C.ar  1 <1>   0.7200 
 16 N        3.0210     6.1230    -0.8100 N.ar  1 <1>  -0.6200 
 17 N        4.3210     4.1420    -0.5510 N.ar  1 <1>  -0.6200 
 18 C        4.1190     6.8460    -0.8960 C.ar  1 <1>   0.4100 
 19 C        5.4160     4.8690    -0.6450 C.ar  1 <1>   0.1600 
 20 N        3.9620     8.2190    -1.0520 N.pl3 1 <1>  -0.8380 
 21 C        5.3600     6.2230    -0.8140 C.ar  1 <1>   0.1900 
 22 C        4.4460     9.1140     0.0400 C.3   1 <1>   0.2090 
 23 C        2.7410     8.7630    -1.7230 C.3   1 <1>   0.2090 
 24 F        6.4820     6.9090    -0.8960 F     1 <1>  -0.1900 
 25 C        3.2900     9.5110     0.9780 C.3   1 <1>   0.1200 
 26 C        1.6800     9.1760    -0.6870 C.3   1 <1>   0.1200 
 27 O        2.2200    10.0590     0.2580 O.3   1 <1>  -0.5600 
 28 H       -1.5320    -1.9670    -1.6480 H     1 <1>   0.1500 
 29 H       -3.6340    -0.8900    -0.3590 H     1 <1>   0.1500 
 30 H       -3.3570     1.5160     1.7130 H     1 <1>   0.0800 
 31 H       -4.3240     1.7230     0.2740 H     1 <1>   0.0800 
 32 H       -1.2020     3.9230    -1.6410 H     1 <1>   0.0800 
 33 H        0.1390     2.9090    -2.0330 H     1 <1>   0.0800 
 34 H        0.7290     1.4950     1.2810 H     1 <1>   0.0800 
 35 H        0.7150     3.1850     1.6700 H     1 <1>   0.0800 
 36 H       -3.3620     3.8870     1.2410 H     1 <1>   0.0800 
 37 H       -3.0180     3.6190    -0.4500 H     1 <1>   0.0800 
 38 H        0.3170     5.2660    -0.1600 H     1 <1>   0.0800 
 39 H        0.8300     5.2500    -1.8320 H     1 <1>   0.0800 
 40 H        2.0990     1.9700    -0.7160 H     1 <1>   0.0800 
 41 H        2.8470     2.5870     0.7340 H     1 <1>   0.0800 
 42 H        6.3680     4.3730    -0.5840 H     1 <1>   0.1500 
 43 H        4.8740    10.0020    -0.3930 H     1 <1>   0.0800 
 44 H        5.2130     8.6230     0.6130 H     1 <1>   0.0800 
 45 H        2.3280     8.0280    -2.3920 H     1 <1>   0.0800 
 46 H        3.0150     9.6220    -2.3110 H     1 <1>   0.0800 
 47 H        3.6220    10.2480     1.6860 H     1 <1>   0.0800 
 48 H        2.9350     8.6480     1.5160 H     1 <1>   0.0800 
 49 H        1.3040     8.3080    -0.1740 H     1 <1>   0.0800 
 50 H        0.8610     9.6750    -1.1730 H     1 <1>   0.0800 
@<TRIPOS>BOND
  1   1   2  1   
  2   1   3  1   
  3   2   4  2   
  4   2   5  1   
  5   3   6  2   
  6   3  28  1   
  7   4   6  1   
  8   4   7  1   
  9   5   8  1   
 10   5   9  1   
 11   5  10  1   
 12   6  29  1   
 13   7  11  1   
 14   7  30  1   
 15   7  31  1   
 16   8  11  1   
 17   9  12  1   
 18   9  32  1   
 19   9  33  1   
 20  10  13  1   
 21  10  34  1   
 22  10  35  1   
 23  11  36  1   
 24  11  37  1   
 25  12  14  1   
 26  12  38  1   
 27  12  39  1   
 28  13  14  1   
 29  13  40  1   
 30  13  41  1   
 31  14  15  1   
 32  15  16  ar  
 33  15  17  ar  
 34  16  18  ar  
 35  17  19  ar  
 36  18  20  1   
 37  18  21  ar  
 38  19  21  ar  
 39  19  42  1   
 40  20  22  1   
 41  20  23  1   
 42  21  24  1   
 43  22  25  1   
 44  22  43  1   
 45  22  44  1   
 46  23  26  1   
 47  23  45  1   
 48  23  46  1   
 49  25  27  1   
 50  25  47  1   
 51  25  48  1   
 52  26  27  1   
 53  26  49  1   
 54  26  50  1   
@<TRIPOS>SUBSTRUCTURE
  1 ****  14 GROUP 4 **** **** 0

# MOE 2024.06 (io_trps.svl 2023.06)
