@<TRIPOS>MOLECULE
NONAME
51 53 1 0 0 
SMALL
USER_CHARGES


@<TRIPOS>ATOM
  1 O       -0.3050     1.0400    -1.7880 O.2   1 <1>  -0.5700 
  2 C       -0.9240     1.8070    -1.1030 C.2   1 <1>   0.6590 
  3 O       -2.1690     2.1640    -1.3370 O.3   1 <1>  -0.4300 
  4 C       -0.3990     2.4450     0.1500 C.3   1 <1>  -0.0990 
  5 C       -2.7130     2.9750    -0.3210 C.3   1 <1>   0.2800 
  6 C       -1.4700     3.5070     0.4340 C.3   1 <1>  -0.0190 
  7 C       -3.5650     2.0500     0.5750 C.3   1 <1>  -0.1600 
  8 C       -3.6180     4.0490    -0.9790 C.3   1 <1>  -0.1600 
  9 C       -1.0230     4.8790    -0.0570 C.2   1 <1>   0.5690 
 10 C       -4.6810     1.3150    -0.1970 C.3   1 <1>  -0.1600 
 11 C       -5.0780     3.6090    -1.2210 C.3   1 <1>  -0.1600 
 12 O       -0.5150     4.9770    -1.1470 O.2   1 <1>  -0.5700 
 13 N       -1.2210     5.9520     0.7700 N.am  1 <1>  -0.4940 
 14 C       -5.2030     2.0950    -1.4160 C.3   1 <1>  -0.1600 
 15 C       -1.0080     7.3320     0.5370 C.2   1 <1>  -0.0880 
 16 N        0.0470     7.9210    -0.1030 N.pl3 1 <1>   0.3140 
 17 C       -1.8280     8.3380     0.9290 C.2   1 <1>  -0.1810 
 18 N       -0.0960     9.2710    -0.1290 N.2   1 <1>  -0.7070 
 19 C        1.2510     7.2590    -0.6680 C.3   1 <1>   0.0960 
 20 C       -1.2120     9.5010     0.4860 C.2   1 <1>   0.1390 
 21 C       -3.1480     8.2810     1.6750 C.3   1 <1>  -0.0590 
 22 C        2.5370     8.0790    -0.4750 C.3   1 <1>  -0.1600 
 23 C        3.7640     7.3130    -0.9880 C.3   1 <1>  -0.1600 
 24 C        5.0430     8.1320    -0.7940 C.3   1 <1>  -0.2400 
 25 H        0.5800     2.8580    -0.0120 H     1 <1>   0.0800 
 26 H       -0.3640     1.7040     0.9260 H     1 <1>   0.0800 
 27 H       -1.6640     3.5670     1.4890 H     1 <1>   0.0800 
 28 H       -4.0250     2.6560     1.3360 H     1 <1>   0.0800 
 29 H       -2.9470     1.3270     1.0770 H     1 <1>   0.0800 
 30 H       -3.1730     4.3450    -1.9150 H     1 <1>   0.0800 
 31 H       -3.6610     4.9240    -0.3570 H     1 <1>   0.0800 
 32 H       -5.4960     1.1150     0.4780 H     1 <1>   0.0800 
 33 H       -4.3090     0.3640    -0.5420 H     1 <1>   0.0800 
 34 H       -5.4690     4.1220    -2.0830 H     1 <1>   0.0800 
 35 H       -5.6800     3.8930    -0.3750 H     1 <1>   0.0800 
 36 H       -1.7180     5.7600     1.6380 H     1 <1>   0.3700 
 37 H       -6.2290     1.8290    -1.6060 H     1 <1>   0.0800 
 38 H       -4.6330     1.8140    -2.2870 H     1 <1>   0.0800 
 39 H        1.0740     7.0880    -1.7140 H     1 <1>   0.0800 
 40 H        1.3720     6.3100    -0.1830 H     1 <1>   0.0800 
 41 H       -1.6070    10.4930     0.6300 H     1 <1>   0.1500 
 42 H       -3.4830     7.2670     1.7850 H     1 <1>   0.0800 
 43 H       -3.8950     8.8300     1.1300 H     1 <1>   0.0800 
 44 H       -3.0360     8.7210     2.6490 H     1 <1>   0.0800 
 45 H        2.6610     8.3000     0.5710 H     1 <1>   0.0800 
 46 H        2.4480     9.0090    -1.0120 H     1 <1>   0.0800 
 47 H        3.6400     7.0930    -2.0350 H     1 <1>   0.0800 
 48 H        3.8580     6.3800    -0.4590 H     1 <1>   0.0800 
 49 H        4.9780     9.0620    -1.3330 H     1 <1>   0.0800 
 50 H        5.8920     7.5830    -1.1610 H     1 <1>   0.0800 
 51 H        5.1980     8.3470     0.2480 H     1 <1>   0.0800 
@<TRIPOS>BOND
  1   1   2  2   
  2   2   3  1   
  3   2   4  1   
  4   3   5  1   
  5   4   6  1   
  6   4  25  1   
  7   4  26  1   
  8   5   6  1   
  9   5   7  1   
 10   5   8  1   
 11   6   9  1   
 12   6  27  1   
 13   7  10  1   
 14   7  28  1   
 15   7  29  1   
 16   8  11  1   
 17   8  30  1   
 18   8  31  1   
 19   9  12  2   
 20   9  13  am  
 21  10  14  1   
 22  10  32  1   
 23  10  33  1   
 24  11  14  1   
 25  11  34  1   
 26  11  35  1   
 27  13  15  1   
 28  13  36  1   
 29  14  37  1   
 30  14  38  1   
 31  15  16  1   
 32  15  17  2   
 33  16  18  1   
 34  16  19  1   
 35  17  20  1   
 36  17  21  1   
 37  18  20  2   
 38  19  22  1   
 39  19  39  1   
 40  19  40  1   
 41  20  41  1   
 42  21  42  1   
 43  21  43  1   
 44  21  44  1   
 45  22  23  1   
 46  22  45  1   
 47  22  46  1   
 48  23  24  1   
 49  23  47  1   
 50  23  48  1   
 51  24  49  1   
 52  24  50  1   
 53  24  51  1   
@<TRIPOS>SUBSTRUCTURE
  1 ****   9 GROUP 4 **** **** 0

# MOE 2024.06 (io_trps.svl 2023.06)
