@<TRIPOS>MOLECULE
NONAME
45 47 1 0 0 
SMALL
USER_CHARGES


@<TRIPOS>ATOM
  1 F        0.1520    -0.7600     1.0970 F     1 <1>  -0.3400 
  2 C        0.1690    -1.9160     0.4480 C.3   1 <1>   1.1640 
  3 F        1.2140    -2.5910     0.9130 F     1 <1>  -0.3400 
  4 F        0.4440    -1.6290    -0.8170 F     1 <1>  -0.3400 
  5 C       -1.1470    -2.6690     0.5900 C.ar  1 <1>  -0.1440 
  6 C       -2.3070    -2.0550     0.1500 C.ar  1 <1>   0.1600 
  7 C       -1.2410    -3.9390     1.1390 C.ar  1 <1>  -0.1500 
  8 N       -3.5170    -2.5830     0.2030 N.ar  1 <1>  -0.6200 
  9 C       -2.4940    -4.4990     1.2010 C.ar  1 <1>  -0.1500 
 10 C       -3.6000    -3.8020     0.7240 C.ar  1 <1>   0.4100 
 11 N       -4.8430    -4.3960     0.7710 N.pl3 1 <1>  -0.8380 
 12 C       -5.0770    -5.5230    -0.1830 C.3   1 <1>   0.2090 
 13 C       -6.0360    -3.5300     0.9900 C.3   1 <1>   0.2090 
 14 C       -6.3260    -6.3400     0.1900 C.3   1 <1>   0.2000 
 15 C       -7.2330    -4.3790     1.4250 C.3   1 <1>  -0.1600 
 16 O       -6.5500    -7.2880    -0.7980 O.3   1 <1>  -0.6800 
 17 C       -7.6010    -5.4880     0.3970 C.3   1 <1>  -0.1060 
 18 C       -8.6710    -6.4410     0.9500 C.2   1 <1>   0.9060 
 19 C       -8.1050    -4.8780    -0.9480 C.3   1 <1>  -0.0170 
 20 O       -9.2470    -6.2000     2.0160 O.co2 1 <1>  -0.9000 
 21 O       -8.9280    -7.4700     0.3020 O.co2 1 <1>  -0.9000 
 22 C       -9.1030    -3.7270    -0.8210 C.ar  1 <1>  -0.1430 
 23 C       -8.7570    -2.4520    -1.2440 C.ar  1 <1>  -0.1500 
 24 C      -10.3660    -3.9400    -0.2890 C.ar  1 <1>  -0.1500 
 25 C       -9.6560    -1.4050    -1.1340 C.ar  1 <1>  -0.1500 
 26 C      -11.2660    -2.8950    -0.1760 C.ar  1 <1>  -0.1500 
 27 C      -10.9130    -1.6260    -0.5990 C.ar  1 <1>  -0.1500 
 28 H       -2.2450    -1.0660    -0.2760 H     1 <1>   0.1500 
 29 H       -0.3790    -4.4740     1.5060 H     1 <1>   0.1500 
 30 H       -2.6480    -5.4760     1.6180 H     1 <1>   0.1500 
 31 H       -5.1860    -5.1200    -1.1730 H     1 <1>   0.0800 
 32 H       -4.2260    -6.1790    -0.1790 H     1 <1>   0.0800 
 33 H       -5.8140    -2.8060     1.7550 H     1 <1>   0.0800 
 34 H       -6.2630    -2.9980     0.0830 H     1 <1>   0.0800 
 35 H       -6.1180    -6.8790     1.0980 H     1 <1>   0.0800 
 36 H       -6.9940    -4.8370     2.3690 H     1 <1>   0.0800 
 37 H       -8.0810    -3.7430     1.6010 H     1 <1>   0.0800 
 38 H       -7.4630    -7.6560    -0.5980 H     1 <1>   0.4000 
 39 H       -7.2680    -4.5300    -1.5220 H     1 <1>   0.0800 
 40 H       -8.5650    -5.6540    -1.5370 H     1 <1>   0.0800 
 41 H       -7.7840    -2.2680    -1.6630 H     1 <1>   0.1500 
 42 H      -10.6520    -4.9240     0.0480 H     1 <1>   0.1500 
 43 H       -9.3760    -0.4210    -1.4630 H     1 <1>   0.1500 
 44 H      -12.2380    -3.0790     0.2450 H     1 <1>   0.1500 
 45 H      -11.6130    -0.8150    -0.5090 H     1 <1>   0.1500 
@<TRIPOS>BOND
  1   1   2  1   
  2   2   3  1   
  3   2   4  1   
  4   2   5  1   
  5   5   6  ar  
  6   5   7  ar  
  7   6   8  ar  
  8   6  28  1   
  9   7   9  ar  
 10   7  29  1   
 11   8  10  ar  
 12   9  10  ar  
 13   9  30  1   
 14  10  11  1   
 15  11  12  1   
 16  11  13  1   
 17  12  14  1   
 18  12  31  1   
 19  12  32  1   
 20  13  15  1   
 21  13  33  1   
 22  13  34  1   
 23  14  16  1   
 24  14  17  1   
 25  14  35  1   
 26  15  17  1   
 27  15  36  1   
 28  15  37  1   
 29  16  38  1   
 30  17  18  1   
 31  17  19  1   
 32  18  20  ar  
 33  18  21  ar  
 34  19  22  1   
 35  19  39  1   
 36  19  40  1   
 37  22  23  ar  
 38  22  24  ar  
 39  23  25  ar  
 40  23  41  1   
 41  24  26  ar  
 42  24  42  1   
 43  25  27  ar  
 44  25  43  1   
 45  26  27  ar  
 46  26  44  1   
 47  27  45  1   
@<TRIPOS>SUBSTRUCTURE
  1 ****  13 GROUP 4 **** **** 0

# MOE 2024.06 (io_trps.svl 2023.06)
