@<TRIPOS>MOLECULE
NONAME
45 47 1 0 0 
SMALL
USER_CHARGES


@<TRIPOS>ATOM
  1 O        0.4030     0.4470    -0.2430 O.3   1 <1>  -0.5600 
  2 C        0.4940     1.8440    -0.1920 C.3   1 <1>   0.2950 
  3 C        1.6400    -0.1990    -0.1440 C.3   1 <1>   0.2000 
  4 C       -0.9330     2.4000    -0.2370 C.3   1 <1>  -0.1950 
  5 C        1.3530     2.3740    -1.3620 C.3   1 <1>   0.2090 
  6 C        2.5480     0.2000    -1.3320 C.3   1 <1>   0.2090 
  7 C        1.3470    -1.7040    -0.0830 C.3   1 <1>  -0.1600 
  8 C       -1.2620     3.7250     0.3780 C.3   1 <1>  -0.2000 
  9 C       -1.7830     2.4560     0.9930 C.3   1 <1>  -0.2000 
 10 N        2.6810     1.6830    -1.4530 N.pl3 1 <1>  -0.8380 
 11 C        2.6020    -2.5520     0.1830 C.3   1 <1>  -0.1600 
 12 C        3.7640     2.2580    -0.8060 C.ar  1 <1>   0.4100 
 13 C        2.2410    -4.0340     0.3320 C.3   1 <1>  -0.1600 
 14 N        3.5630     2.8540     0.3770 N.ar  1 <1>  -0.3100 
 15 C        5.0180     2.1850    -1.3810 C.ar  1 <1>  -0.1500 
 16 C        3.4890    -4.8820     0.5940 C.3   1 <1>  -0.2400 
 17 N        4.5670     3.3910     1.0290 N.ar  1 <1>  -0.3100 
 18 C        6.0700     2.7460    -0.7000 C.ar  1 <1>  -0.1500 
 19 C        5.7880     3.3420     0.5110 C.ar  1 <1>   0.1670 
 20 C        6.8900     3.9870     1.3260 C.3   1 <1>  -0.0970 
 21 H        0.9540     2.1150     0.7430 H     1 <1>   0.0800 
 22 H        2.1030     0.1090     0.7790 H     1 <1>   0.0800 
 23 H       -1.4290     2.1540    -1.1610 H     1 <1>   0.1000 
 24 H        1.5000     3.4330    -1.2380 H     1 <1>   0.0800 
 25 H        0.8190     2.2270    -2.2840 H     1 <1>   0.0800 
 26 H        2.1320    -0.1920    -2.2440 H     1 <1>   0.0800 
 27 H        3.5220    -0.2360    -1.1990 H     1 <1>   0.0800 
 28 H        0.6420    -1.8730     0.7120 H     1 <1>   0.0800 
 29 H        0.8910    -2.0130    -1.0070 H     1 <1>   0.0800 
 30 H       -0.4950     4.2690     0.9030 H     1 <1>   0.1000 
 31 H       -1.9550     4.3750    -0.1290 H     1 <1>   0.1000 
 32 H       -2.8280     2.2190     0.9020 H     1 <1>   0.1000 
 33 H       -1.3620     2.1130     1.9220 H     1 <1>   0.1000 
 34 H        3.3000    -2.4440    -0.6280 H     1 <1>   0.0800 
 35 H        3.0800    -2.2100     1.0870 H     1 <1>   0.0800 
 36 H        1.5510    -4.1590     1.1500 H     1 <1>   0.0800 
 37 H        1.7580    -4.3820    -0.5660 H     1 <1>   0.0800 
 38 H        5.1440     1.7040    -2.3310 H     1 <1>   0.1500 
 39 H        3.9750    -4.5660     1.5000 H     1 <1>   0.0800 
 40 H        4.1840    -4.7920    -0.2230 H     1 <1>   0.0800 
 41 H        3.2150    -5.9170     0.6970 H     1 <1>   0.0800 
 42 H        7.0670     2.7210    -1.1000 H     1 <1>   0.1500 
 43 H        7.8410     3.8960     0.8340 H     1 <1>   0.0800 
 44 H        6.9500     3.5130     2.2890 H     1 <1>   0.0800 
 45 H        6.6700     5.0300     1.4670 H     1 <1>   0.0800 
@<TRIPOS>BOND
  1   1   2  1   
  2   1   3  1   
  3   2   4  1   
  4   2   5  1   
  5   2  21  1   
  6   3   6  1   
  7   3   7  1   
  8   3  22  1   
  9   4   8  1   
 10   4   9  1   
 11   4  23  1   
 12   5  10  1   
 13   5  24  1   
 14   5  25  1   
 15   6  10  1   
 16   6  26  1   
 17   6  27  1   
 18   7  11  1   
 19   7  28  1   
 20   7  29  1   
 21   8   9  1   
 22   8  30  1   
 23   8  31  1   
 24   9  32  1   
 25   9  33  1   
 26  10  12  1   
 27  11  13  1   
 28  11  34  1   
 29  11  35  1   
 30  12  14  ar  
 31  12  15  ar  
 32  13  16  1   
 33  13  36  1   
 34  13  37  1   
 35  14  17  ar  
 36  15  18  ar  
 37  15  38  1   
 38  16  39  1   
 39  16  40  1   
 40  16  41  1   
 41  17  19  ar  
 42  18  19  ar  
 43  18  42  1   
 44  19  20  1   
 45  20  43  1   
 46  20  44  1   
 47  20  45  1   
@<TRIPOS>SUBSTRUCTURE
  1 ****  10 GROUP 4 **** **** 0

# MOE 2024.06 (io_trps.svl 2023.06)
