@<TRIPOS>MOLECULE
NONAME
57 59 1 0 0 
SMALL
USER_CHARGES


@<TRIPOS>ATOM
  1 O        1.2140     1.9520    -1.9840 O.2   1 <1>  -0.5700 
  2 C        0.9920     2.9700    -1.3820 C.2   1 <1>   0.5690 
  3 N        0.1830     2.9800    -0.3020 N.am  1 <1>  -0.7300 
  4 C        1.6240     4.2840    -1.8460 C.3   1 <1>   0.1810 
  5 C       -0.0710     4.1800     0.5310 C.3   1 <1>   0.3640 
  6 O        1.7260     5.2370    -0.8050 O.3   1 <1>  -0.5600 
  7 C       -1.5710     4.3230     0.7710 C.ar  1 <1>  -0.1440 
  8 C        0.4910     5.4720    -0.1240 C.3   1 <1>   0.2610 
  9 C       -2.0280     4.7030     2.0250 C.ar  1 <1>  -0.1500 
 10 C       -2.4950     4.0980    -0.2420 C.ar  1 <1>  -0.1500 
 11 C        0.6800     6.5990     0.9040 C.2   1 <1>   0.5690 
 12 C       -3.3820     4.8560     2.2640 C.ar  1 <1>  -0.1500 
 13 C       -3.8500     4.2500    -0.0040 C.ar  1 <1>  -0.1500 
 14 O        0.8690     6.2970     2.0620 O.2   1 <1>  -0.5700 
 15 N        0.7630     7.9140     0.5010 N.am  1 <1>  -0.6600 
 16 C       -4.2950     4.6290     1.2500 C.ar  1 <1>  -0.1500 
 17 C        1.0280     8.3230    -0.8980 C.3   1 <1>   0.1400 
 18 C        1.0010     9.0300     1.4710 C.3   1 <1>   0.1400 
 19 C        2.5390     8.5690    -1.0580 C.3   1 <1>  -0.1600 
 20 C        2.2980     9.7920     1.1110 C.3   1 <1>  -0.1600 
 21 C        3.2830     8.9430     0.2640 C.3   1 <1>   0.0000 
 22 C        4.5230     9.7940    -0.0940 C.3   1 <1>   0.1200 
 23 C        3.7020     7.7280     1.1540 C.3   1 <1>   0.3430 
 24 O        5.3280     9.9660     1.0220 O.3   1 <1>  -0.6800 
 25 N        4.0520     6.4520     0.4490 N.4   1 <1>  -0.9590 
 26 C        4.0870     5.3460     1.4490 C.3   1 <1>   0.2630 
 27 C        5.3420     6.5390    -0.2920 C.3   1 <1>   0.2630 
 28 H       -0.2720     2.1090    -0.0160 H     1 <1>   0.3700 
 29 H        1.0310     4.7020    -2.6400 H     1 <1>   0.0800 
 30 H        2.6130     4.0880    -2.2180 H     1 <1>   0.0800 
 31 H        0.4150     4.0150     1.4770 H     1 <1>   0.0800 
 32 H       -0.2250     5.8060    -0.8530 H     1 <1>   0.0800 
 33 H       -1.3340     4.8890     2.8290 H     1 <1>   0.1500 
 34 H       -2.1740     3.8000    -1.2250 H     1 <1>   0.1500 
 35 H       -3.7260     5.1520     3.2400 H     1 <1>   0.1500 
 36 H       -4.5600     4.0720    -0.7930 H     1 <1>   0.1500 
 37 H       -5.3480     4.7470     1.4360 H     1 <1>   0.1500 
 38 H        0.6870     7.5950    -1.6110 H     1 <1>   0.0800 
 39 H        0.4890     9.2370    -1.0920 H     1 <1>   0.0800 
 40 H        0.1610     9.7050     1.4530 H     1 <1>   0.0800 
 41 H        1.0780     8.6430     2.4730 H     1 <1>   0.0800 
 42 H        2.9880     7.7190    -1.5350 H     1 <1>   0.0800 
 43 H        2.6370     9.3790    -1.7610 H     1 <1>   0.0800 
 44 H        2.0260    10.6780     0.5630 H     1 <1>   0.0800 
 45 H        2.7690    10.1270     2.0200 H     1 <1>   0.0800 
 46 H        4.2240    10.7680    -0.4450 H     1 <1>   0.0800 
 47 H        5.1160     9.3220    -0.8580 H     1 <1>   0.0800 
 48 H        2.8820     7.5130     1.8150 H     1 <1>   0.0800 
 49 H        4.5210     8.0190     1.7900 H     1 <1>   0.0800 
 50 H        5.9920    10.6730     0.8720 H     1 <1>   0.4000 
 51 H        3.2690     6.2300    -0.1990 H     1 <1>   0.4500 
 52 H        4.8700     5.5160     2.1700 H     1 <1>   0.0800 
 53 H        4.2630     4.4030     0.9570 H     1 <1>   0.0800 
 54 H        3.1440     5.2890     1.9700 H     1 <1>   0.0800 
 55 H        6.1370     6.8260     0.3770 H     1 <1>   0.0800 
 56 H        5.2730     7.2690    -1.0800 H     1 <1>   0.0800 
 57 H        5.5850     5.5840    -0.7310 H     1 <1>   0.0800 
@<TRIPOS>BOND
  1   1   2  2   
  2   2   3  am  
  3   2   4  1   
  4   3   5  1   
  5   3  28  1   
  6   4   6  1   
  7   4  29  1   
  8   4  30  1   
  9   5   7  1   
 10   5   8  1   
 11   5  31  1   
 12   6   8  1   
 13   7   9  ar  
 14   7  10  ar  
 15   8  11  1   
 16   8  32  1   
 17   9  12  ar  
 18   9  33  1   
 19  10  13  ar  
 20  10  34  1   
 21  11  14  2   
 22  11  15  am  
 23  12  16  ar  
 24  12  35  1   
 25  13  16  ar  
 26  13  36  1   
 27  15  17  1   
 28  15  18  1   
 29  16  37  1   
 30  17  19  1   
 31  17  38  1   
 32  17  39  1   
 33  18  20  1   
 34  18  40  1   
 35  18  41  1   
 36  19  21  1   
 37  19  42  1   
 38  19  43  1   
 39  20  21  1   
 40  20  44  1   
 41  20  45  1   
 42  21  22  1   
 43  21  23  1   
 44  22  24  1   
 45  22  46  1   
 46  22  47  1   
 47  23  25  1   
 48  23  48  1   
 49  23  49  1   
 50  24  50  1   
 51  25  26  1   
 52  25  27  1   
 53  25  51  1   
 54  26  52  1   
 55  26  53  1   
 56  26  54  1   
 57  27  55  1   
 58  27  56  1   
 59  27  57  1   
@<TRIPOS>SUBSTRUCTURE
  1 ****  11 GROUP 4 **** **** 0

# MOE 2024.06 (io_trps.svl 2023.06)
