@<TRIPOS>MOLECULE
NONAME
44 45 1 0 0 
SMALL
USER_CHARGES


@<TRIPOS>ATOM
  1 O        2.8210     1.2710    -0.7590 O.2   1 <1>  -0.5700 
  2 C        2.2650     0.4920    -0.0090 C.2   1 <1>   0.5440 
  3 N        1.4960     1.0070     0.9990 N.am  1 <1>  -0.7300 
  4 C        2.4070    -0.9440    -0.1800 C.ar  1 <1>   0.0860 
  5 C        1.2080     2.4480     1.2080 C.3   1 <1>   0.1400 
  6 C        2.6730    -1.4920    -1.4350 C.ar  1 <1>  -0.1500 
  7 C        2.2870    -1.8350     0.8890 C.ar  1 <1>  -0.1500 
  8 C        2.3950     3.1400     1.8890 C.3   1 <1>  -0.0990 
  9 C        2.7980    -2.8570    -1.6200 C.ar  1 <1>  -0.1500 
 10 C        2.4090    -3.2010     0.7100 C.ar  1 <1>  -0.1500 
 11 C        2.9370     4.2690     1.0410 C.2   1 <1>   0.5690 
 12 C        2.6620    -3.7210    -0.5480 C.ar  1 <1>  -0.1430 
 13 O        2.8820     5.3910     1.4790 O.2   1 <1>  -0.5700 
 14 N        3.4770     3.9570    -0.1610 N.am  1 <1>  -0.7300 
 15 C        2.7990    -5.2200    -0.7470 C.3   1 <1>  -0.0970 
 16 C        3.9880     4.8050    -1.2630 C.3   1 <1>   0.4000 
 17 C        5.5110     4.9160    -1.2440 C.2   1 <1>   0.0060 
 18 C        3.3040     6.1710    -1.3410 C.3   1 <1>  -0.2400 
 19 N        6.2400     4.6100    -2.2670 N.2   1 <1>  -0.3380 
 20 N        6.2690     5.3360    -0.2200 N.pl3 1 <1>   0.0480 
 21 N        7.5110     4.8230    -1.9300 N.2   1 <1>  -0.3380 
 22 C        7.5040     5.2500    -0.7170 C.2   1 <1>   0.0360 
 23 C        5.9110     5.7890     1.1370 C.3   1 <1>   0.0160 
 24 H        0.9500     0.3610     1.5720 H     1 <1>   0.3700 
 25 H        0.3280     2.5490     1.8210 H     1 <1>   0.0800 
 26 H        0.9970     2.9060     0.2550 H     1 <1>   0.0800 
 27 H        2.7840    -0.8320    -2.2790 H     1 <1>   0.1500 
 28 H        2.1030    -1.4580     1.8790 H     1 <1>   0.1500 
 29 H        3.1910     2.4450     2.0820 H     1 <1>   0.0800 
 30 H        2.0730     3.5460     2.8300 H     1 <1>   0.0800 
 31 H        3.0030    -3.2440    -2.6030 H     1 <1>   0.1500 
 32 H        2.3110    -3.8610     1.5540 H     1 <1>   0.1500 
 33 H        3.4510     2.9600    -0.4330 H     1 <1>   0.3700 
 34 H        2.4700    -5.5000    -1.7320 H     1 <1>   0.0800 
 35 H        2.2030    -5.7530    -0.0280 H     1 <1>   0.0800 
 36 H        3.8270    -5.5110    -0.6300 H     1 <1>   0.0800 
 37 H        3.7340     4.2910    -2.1750 H     1 <1>   0.0800 
 38 H        3.5790     6.7960    -0.5140 H     1 <1>   0.0800 
 39 H        2.2370     6.0490    -1.3590 H     1 <1>   0.0800 
 40 H        3.6080     6.6650    -2.2460 H     1 <1>   0.0800 
 41 H        8.3820     5.5120    -0.1570 H     1 <1>   0.1500 
 42 H        5.1550     6.5490     1.0790 H     1 <1>   0.0800 
 43 H        6.7790     6.1940     1.6260 H     1 <1>   0.0800 
 44 H        5.5420     4.9560     1.7050 H     1 <1>   0.0800 
@<TRIPOS>BOND
  1   1   2  2   
  2   2   3  am  
  3   2   4  1   
  4   3   5  1   
  5   3  24  1   
  6   4   6  ar  
  7   4   7  ar  
  8   5   8  1   
  9   5  25  1   
 10   5  26  1   
 11   6   9  ar  
 12   6  27  1   
 13   7  10  ar  
 14   7  28  1   
 15   8  11  1   
 16   8  29  1   
 17   8  30  1   
 18   9  12  ar  
 19   9  31  1   
 20  10  12  ar  
 21  10  32  1   
 22  11  13  2   
 23  11  14  am  
 24  12  15  1   
 25  14  16  1   
 26  14  33  1   
 27  15  34  1   
 28  15  35  1   
 29  15  36  1   
 30  16  17  1   
 31  16  18  1   
 32  16  37  1   
 33  17  19  2   
 34  17  20  1   
 35  18  38  1   
 36  18  39  1   
 37  18  40  1   
 38  19  21  1   
 39  20  22  1   
 40  20  23  1   
 41  21  22  2   
 42  22  41  1   
 43  23  42  1   
 44  23  43  1   
 45  23  44  1   
@<TRIPOS>SUBSTRUCTURE
  1 ****   1 GROUP 4 **** **** 0

# MOE 2024.06 (io_trps.svl 2023.06)
