@<TRIPOS>MOLECULE
NONAME
38 40 1 0 0 
SMALL
USER_CHARGES


@<TRIPOS>ATOM
  1 S        0.1020     0.9000    -0.8370 S.3   1 <1>  -0.0900 
  2 C        1.4680    -0.0190    -0.2150 C.2   1 <1>   0.4550 
  3 C        0.5330     2.2240     0.2080 C.2   1 <1>  -0.1200 
  4 N        2.1430     0.6150     0.6760 N.2   1 <1>  -0.5710 
  5 N        1.7490    -1.2640    -0.7160 N.pl3 1 <1>  -0.8260 
  6 C        1.6280     1.8790     0.9030 C.2   1 <1>   0.0360 
  7 C        0.8520    -2.0110    -1.6290 C.3   1 <1>   0.2000 
  8 C        2.7040    -2.1750    -0.0510 C.3   1 <1>   0.2000 
  9 C        2.3570     2.7570     1.9110 C.3   1 <1>   0.3410 
 10 C        1.1740    -3.4800    -1.3790 C.3   1 <1>  -0.1700 
 11 C        2.5960    -3.4800    -0.8280 C.3   1 <1>  -0.1700 
 12 N        3.5240     3.4820     1.3210 N.pl3 1 <1>  -0.7190 
 13 C        4.4150     3.0670     0.4030 C.cat 1 <1>   1.0680 
 14 N        4.4520     1.9020    -0.1860 N.pl3 1 <1>  -0.7050 
 15 N        5.4420     3.7690    -0.0830 N.pl3 1 <1>  -0.4640 
 16 C        5.5000     1.9080    -1.0420 C.2   1 <1>   0.4780 
 17 N        6.1280     3.0220    -1.0050 N.2   1 <1>  -0.2690 
 18 C        5.8910     5.1500     0.2110 C.3   1 <1>   0.2650 
 19 C        5.8220     0.7110    -1.9070 C.3   1 <1>  -0.0820 
 20 H       -0.0820     3.1060     0.1720 H     1 <1>   0.1400 
 21 H        1.0830    -1.7430    -2.6460 H     1 <1>   0.0700 
 22 H       -0.1850    -1.8060    -1.4230 H     1 <1>   0.0700 
 23 H        2.4000    -2.3200     0.9720 H     1 <1>   0.0700 
 24 H        3.7030    -1.7780    -0.0830 H     1 <1>   0.0700 
 25 H        2.6850     2.1520     2.7400 H     1 <1>   0.0700 
 26 H        1.6600     3.4840     2.2910 H     1 <1>   0.0700 
 27 H        1.0800    -4.0670    -2.2750 H     1 <1>   0.0700 
 28 H        0.4950    -3.8620    -0.6370 H     1 <1>   0.0700 
 29 H        2.7930    -4.3340    -0.2040 H     1 <1>   0.0700 
 30 H        3.3020    -3.4650    -1.6390 H     1 <1>   0.0700 
 31 H        3.6680     4.4020     1.7260 H     1 <1>   0.4430 
 32 H        3.7540     1.1620    -0.0350 H     1 <1>   0.4430 
 33 H        5.2140     5.6410     0.8870 H     1 <1>   0.0700 
 34 H        5.9400     5.7130    -0.7050 H     1 <1>   0.0700 
 35 H        6.8730     5.1220     0.6520 H     1 <1>   0.0700 
 36 H        4.9770     0.4690    -2.5260 H     1 <1>   0.0700 
 37 H        6.0570    -0.1350    -1.2880 H     1 <1>   0.0700 
 38 H        6.6650     0.9260    -2.5380 H     1 <1>   0.0700 
@<TRIPOS>BOND
  1   1   2  1   
  2   1   3  1   
  3   2   4  2   
  4   2   5  1   
  5   3   6  2   
  6   3  20  1   
  7   4   6  1   
  8   5   7  1   
  9   5   8  1   
 10   6   9  1   
 11   7  10  1   
 12   7  21  1   
 13   7  22  1   
 14   8  11  1   
 15   8  23  1   
 16   8  24  1   
 17   9  12  1   
 18   9  25  1   
 19   9  26  1   
 20  10  11  1   
 21  10  27  1   
 22  10  28  1   
 23  11  29  1   
 24  11  30  1   
 25  12  13  ar  
 26  12  31  1   
 27  13  14  ar  
 28  13  15  ar  
 29  14  16  1   
 30  14  32  1   
 31  15  17  1   
 32  15  18  1   
 33  16  17  2   
 34  16  19  1   
 35  18  33  1   
 36  18  34  1   
 37  18  35  1   
 38  19  36  1   
 39  19  37  1   
 40  19  38  1   
@<TRIPOS>SUBSTRUCTURE
  1 ****   4 GROUP 4 **** **** 0

# MOE 2024.06 (io_trps.svl 2023.06)
