@<TRIPOS>MOLECULE
NONAME
47 49 1 0 0 
SMALL
USER_CHARGES


@<TRIPOS>ATOM
  1 S       -0.4120     0.2880    -0.7160 S.o2  1 <1>   1.3330 
  2 O       -0.1070     1.0620    -1.8980 O.2   1 <1>  -0.6500 
  3 O       -1.2460    -0.8870    -0.8260 O.2   1 <1>  -0.6500 
  4 N        1.0580    -0.2090    -0.0210 N.am  1 <1>  -0.8490 
  5 C       -1.1070     1.3750     0.5380 C.3   1 <1>  -0.0550 
  6 C        2.0830    -0.5020    -1.0280 C.3   1 <1>   0.1160 
  7 C        0.9200    -1.3480     0.8940 C.3   1 <1>   0.1160 
  8 C       -0.5120     2.7960     0.6620 C.3   1 <1>  -0.0800 
  9 C       -0.9350     3.7540    -0.4560 C.3   1 <1>   0.2000 
 10 C        1.0120     2.9180     0.7040 C.3   1 <1>   0.1400 
 11 O       -2.1720     4.2960    -0.1410 O.3   1 <1>  -0.6800 
 12 C        0.1490     4.8360    -0.5110 C.3   1 <1>   0.1400 
 13 N        1.2650     4.3230     0.3250 N.am  1 <1>  -0.6600 
 14 C        2.3990     5.0270     0.6950 C.2   1 <1>   0.7160 
 15 O        3.2060     4.4410     1.4010 O.2   1 <1>  -0.5700 
 16 C        2.6730     6.4100     0.2940 C.2   1 <1>   0.2030 
 17 N        1.9280     7.2040    -0.4630 N.2   1 <1>  -0.7070 
 18 C        3.8260     7.0950     0.6910 C.2   1 <1>  -0.1500 
 19 N        2.6060     8.3570    -0.5350 N.pl3 1 <1>   0.3000 
 20 C        3.7660     8.3390     0.1520 C.2   1 <1>  -0.2050 
 21 C        4.6360     9.4830     0.1990 C.ar  1 <1>   0.3630 
 22 N        4.2360    10.5710    -0.4630 N.ar  1 <1>  -0.6200 
 23 C        5.8350     9.4390     0.9070 C.ar  1 <1>  -0.1500 
 24 C        5.0410    11.6190    -0.4140 C.ar  1 <1>   0.1600 
 25 C        6.6640    10.5370     0.9490 C.ar  1 <1>  -0.1500 
 26 C        6.2460    11.6570     0.2650 C.ar  1 <1>  -0.1500 
 27 H       -2.1560     1.4840     0.3430 H     1 <1>   0.0800 
 28 H       -1.0200     0.8900     1.4900 H     1 <1>   0.0800 
 29 H        3.0020    -0.7990    -0.5520 H     1 <1>   0.0800 
 30 H        2.2810     0.3750    -1.6210 H     1 <1>   0.0800 
 31 H        1.7490    -1.2920    -1.6820 H     1 <1>   0.0800 
 32 H        1.8620    -1.5510     1.3750 H     1 <1>   0.0800 
 33 H        0.6050    -2.2270     0.3550 H     1 <1>   0.0800 
 34 H        0.1900    -1.1300     1.6540 H     1 <1>   0.0800 
 35 H       -0.8610     3.2060     1.5940 H     1 <1>   0.0800 
 36 H       -1.0150     3.2670    -1.4120 H     1 <1>   0.0800 
 37 H        1.4890     2.2910    -0.0260 H     1 <1>   0.0800 
 38 H        1.4050     2.6950     1.6830 H     1 <1>   0.0800 
 39 H       -2.0960     4.8740     0.6420 H     1 <1>   0.4000 
 40 H       -0.2120     5.7670    -0.1100 H     1 <1>   0.0800 
 41 H        0.4880     4.9800    -1.5220 H     1 <1>   0.0800 
 42 H        4.5970     6.6740     1.3120 H     1 <1>   0.1500 
 43 H        2.2870     9.1840    -1.0590 H     1 <1>   0.2700 
 44 H        6.1130     8.5390     1.4230 H     1 <1>   0.1500 
 45 H        4.7240    12.5010    -0.9460 H     1 <1>   0.1500 
 46 H        7.5950    10.5220     1.4910 H     1 <1>   0.1500 
 47 H        6.8450    12.5490     0.2560 H     1 <1>   0.1500 
@<TRIPOS>BOND
  1   1   2  2   
  2   1   3  2   
  3   1   4  am  
  4   1   5  1   
  5   4   6  1   
  6   4   7  1   
  7   5   8  1   
  8   5  27  1   
  9   5  28  1   
 10   6  29  1   
 11   6  30  1   
 12   6  31  1   
 13   7  32  1   
 14   7  33  1   
 15   7  34  1   
 16   8   9  1   
 17   8  10  1   
 18   8  35  1   
 19   9  11  1   
 20   9  12  1   
 21   9  36  1   
 22  10  13  1   
 23  10  37  1   
 24  10  38  1   
 25  11  39  1   
 26  12  13  1   
 27  12  40  1   
 28  12  41  1   
 29  13  14  am  
 30  14  15  2   
 31  14  16  1   
 32  16  17  2   
 33  16  18  1   
 34  17  19  1   
 35  18  20  2   
 36  18  42  1   
 37  19  20  1   
 38  19  43  1   
 39  20  21  1   
 40  21  22  ar  
 41  21  23  ar  
 42  22  24  ar  
 43  23  25  ar  
 44  23  44  1   
 45  24  26  ar  
 46  24  45  1   
 47  25  26  ar  
 48  25  46  1   
 49  26  47  1   
@<TRIPOS>SUBSTRUCTURE
  1 ****  14 GROUP 4 **** **** 0

# MOE 2024.06 (io_trps.svl 2023.06)
