@<TRIPOS>MOLECULE
NONAME
37 38 1 0 0 
SMALL
USER_CHARGES


@<TRIPOS>ATOM
  1 CL       1.6830     0.8330     0.0870 Cl    1 <1>  -0.1770 
  2 C        1.0940     2.4780     0.0370 C.ar  1 <1>   0.1770 
  3 C        0.0310     2.8630     0.8340 C.ar  1 <1>   0.1600 
  4 C        1.6940     3.3910    -0.8030 C.ar  1 <1>  -0.1500 
  5 N       -0.4810     4.0870     0.8600 N.ar  1 <1>  -0.6200 
  6 C        1.1710     4.6650    -0.7830 C.ar  1 <1>  -0.1500 
  7 C        0.0950     4.9760     0.0500 C.ar  1 <1>   0.4100 
  8 N       -0.3960     6.2680     0.0350 N.3   1 <1>  -0.5900 
  9 C       -0.5560     6.9750     1.3640 C.3   1 <1>   0.2450 
 10 C       -1.8870     6.4520    -0.1590 C.3   1 <1>   0.2450 
 11 C       -1.7980     7.6820     0.7720 C.3   1 <1>   0.2250 
 12 N       -1.4600     8.9350     0.0460 N.am  1 <1>  -0.6550 
 13 C       -2.0840    10.1210     0.1780 C.2   1 <1>   0.7800 
 14 O       -3.0190    10.2860     0.9330 O.2   1 <1>  -0.5700 
 15 O       -1.6000    11.1010    -0.5820 O.3   1 <1>  -0.4300 
 16 C       -2.0600    12.4330    -0.6440 C.3   1 <1>   0.2800 
 17 C       -1.8920    13.1160     0.7180 C.3   1 <1>  -0.2400 
 18 C       -3.5090    12.4710    -1.1440 C.3   1 <1>  -0.2400 
 19 C       -1.1550    13.1210    -1.6680 C.3   1 <1>  -0.2400 
 20 H       -0.4160     2.1270     1.4780 H     1 <1>   0.1500 
 21 H        2.5220     3.1130    -1.4310 H     1 <1>   0.1500 
 22 H        1.5790     5.4380    -1.4070 H     1 <1>   0.1500 
 23 H        0.2630     7.6390     1.5770 H     1 <1>   0.0000 
 24 H       -0.7930     6.3010     2.1690 H     1 <1>   0.0000 
 25 H       -2.4630     5.6430     0.2560 H     1 <1>   0.0000 
 26 H       -2.1410     6.6920    -1.1760 H     1 <1>   0.0000 
 27 H       -2.6220     7.7900     1.4550 H     1 <1>   0.0000 
 28 H       -0.6820     8.8690    -0.6080 H     1 <1>   0.3700 
 29 H       -2.5660    12.7030     1.4460 H     1 <1>   0.0800 
 30 H       -2.1130    14.1650     0.6320 H     1 <1>   0.0800 
 31 H       -0.8820    13.0090     1.0690 H     1 <1>   0.0800 
 32 H       -4.1820    12.0580    -0.4160 H     1 <1>   0.0800 
 33 H       -3.6020    11.9230    -2.0640 H     1 <1>   0.0800 
 34 H       -3.8090    13.4880    -1.3210 H     1 <1>   0.0800 
 35 H       -0.1300    13.0820    -1.3460 H     1 <1>   0.0800 
 36 H       -1.4360    14.1520    -1.7820 H     1 <1>   0.0800 
 37 H       -1.2410    12.6390    -2.6250 H     1 <1>   0.0800 
@<TRIPOS>BOND
  1   1   2  1   
  2   2   3  ar  
  3   2   4  ar  
  4   3   5  ar  
  5   3  20  1   
  6   4   6  ar  
  7   4  21  1   
  8   5   7  ar  
  9   6   7  ar  
 10   6  22  1   
 11   7   8  1   
 12   8   9  1   
 13   8  10  1   
 14   9  11  1   
 15   9  23  1   
 16   9  24  1   
 17  10  11  1   
 18  10  25  1   
 19  10  26  1   
 20  11  12  1   
 21  11  27  1   
 22  12  13  am  
 23  12  28  1   
 24  13  14  2   
 25  13  15  1   
 26  15  16  1   
 27  16  17  1   
 28  16  18  1   
 29  16  19  1   
 30  17  29  1   
 31  17  30  1   
 32  17  31  1   
 33  18  32  1   
 34  18  33  1   
 35  18  34  1   
 36  19  35  1   
 37  19  36  1   
 38  19  37  1   
@<TRIPOS>SUBSTRUCTURE
  1 ****  11 GROUP 4 **** **** 0

# MOE 2024.06 (io_trps.svl 2023.06)
