@<TRIPOS>MOLECULE
NONAME
41 42 1 0 0 
SMALL
USER_CHARGES


@<TRIPOS>ATOM
  1 O        2.6750     2.5760    -1.8420 O.3   1 <1>  -0.5320 
  2 C        1.6600     3.1340    -1.1690 C.ar  1 <1>   0.0830 
  3 C        1.9510     4.0090    -0.1410 C.ar  1 <1>  -0.1500 
  4 C        0.3470     2.8450    -1.4990 C.ar  1 <1>  -0.1500 
  5 C        0.9250     4.6260     0.5580 C.ar  1 <1>  -0.1430 
  6 C       -0.6790     3.4460    -0.7920 C.ar  1 <1>  -0.1500 
  7 C       -0.3930     4.3360     0.2320 C.ar  1 <1>  -0.1500 
  8 C        1.2640     5.6210     1.6450 C.3   1 <1>   0.4860 
  9 N        1.6900     6.8530     0.9430 N.4   1 <1>  -0.9590 
 10 C        2.7840     7.5670     1.6320 C.3   1 <1>   0.5230 
 11 C        0.5360     7.7490     0.6170 C.3   1 <1>   0.2630 
 12 C        3.3660     8.5240     0.6260 C.2   1 <1>  -0.3320 
 13 N        4.1270     8.1900    -0.4460 N.pl3 1 <1>   0.0480 
 14 C        3.2320     9.8690     0.6040 C.2   1 <1>   0.0770 
 15 C        4.3770     9.3740    -1.0530 C.2   1 <1>   0.0360 
 16 C        4.6090     6.8500    -0.8860 C.3   1 <1>   0.1760 
 17 N        3.8570    10.3960    -0.4570 N.2   1 <1>  -0.5650 
 18 C        6.1170     6.8740    -1.1600 C.3   1 <1>  -0.2400 
 19 C        3.8340     6.3900    -2.1250 C.3   1 <1>  -0.2400 
 20 H        2.3860     1.9270    -2.5100 H     1 <1>   0.4500 
 21 H        2.9860     4.1860     0.0920 H     1 <1>   0.1500 
 22 H        0.1190     2.1580    -2.2950 H     1 <1>   0.1500 
 23 H       -1.7030     3.2200    -1.0400 H     1 <1>   0.1500 
 24 H       -1.2110     4.7900     0.7660 H     1 <1>   0.1500 
 25 H        2.0670     5.2250     2.2450 H     1 <1>   0.0800 
 26 H        0.4110     5.8090     2.2780 H     1 <1>   0.0800 
 27 H        2.0730     6.5390     0.0430 H     1 <1>   0.4500 
 28 H        3.5450     6.8790     1.9640 H     1 <1>   0.0800 
 29 H        2.4030     8.1060     2.4860 H     1 <1>   0.0800 
 30 H        0.0830     8.1280     1.5180 H     1 <1>   0.0800 
 31 H       -0.2080     7.2090     0.0530 H     1 <1>   0.0800 
 32 H        0.8700     8.5850     0.0220 H     1 <1>   0.0800 
 33 H        2.7080    10.5070     1.2970 H     1 <1>   0.1500 
 34 H        4.9620     9.4440    -1.9540 H     1 <1>   0.1500 
 35 H        4.4340     6.1510    -0.0890 H     1 <1>   0.0800 
 36 H        6.3510     7.5130    -1.9930 H     1 <1>   0.0800 
 37 H        6.4630     5.8820    -1.3950 H     1 <1>   0.0800 
 38 H        6.6520     7.2170    -0.2920 H     1 <1>   0.0800 
 39 H        4.0290     7.0420    -2.9590 H     1 <1>   0.0800 
 40 H        2.7760     6.3720    -1.9390 H     1 <1>   0.0800 
 41 H        4.1400     5.3950    -2.4020 H     1 <1>   0.0800 
@<TRIPOS>BOND
  1   1   2  1   
  2   1  20  1   
  3   2   3  ar  
  4   2   4  ar  
  5   3   5  ar  
  6   3  21  1   
  7   4   6  ar  
  8   4  22  1   
  9   5   7  ar  
 10   5   8  1   
 11   6   7  ar  
 12   6  23  1   
 13   7  24  1   
 14   8   9  1   
 15   8  25  1   
 16   8  26  1   
 17   9  10  1   
 18   9  11  1   
 19   9  27  1   
 20  10  12  1   
 21  10  28  1   
 22  10  29  1   
 23  11  30  1   
 24  11  31  1   
 25  11  32  1   
 26  12  13  1   
 27  12  14  2   
 28  13  15  1   
 29  13  16  1   
 30  14  17  1   
 31  14  33  1   
 32  15  17  2   
 33  15  34  1   
 34  16  18  1   
 35  16  19  1   
 36  16  35  1   
 37  18  36  1   
 38  18  37  1   
 39  18  38  1   
 40  19  39  1   
 41  19  40  1   
 42  19  41  1   
@<TRIPOS>SUBSTRUCTURE
  1 ****   9 GROUP 4 **** **** 0

# MOE 2024.06 (io_trps.svl 2023.06)
