@<TRIPOS>MOLECULE
NONAME
52 55 1 0 0 
SMALL
USER_CHARGES


@<TRIPOS>ATOM
  1 O        0.4260     2.6220     1.2210 O.co2 1 <1>  -0.9000 
  2 C        1.4510     3.2120     1.6010 C.2   1 <1>   0.9790 
  3 O        1.4850     3.6690     2.7560 O.co2 1 <1>  -0.9000 
  4 C        2.5890     3.3180     0.7090 C.ar  1 <1>  -0.1790 
  5 C        3.4360     4.4280     0.6560 C.ar  1 <1>   0.1660 
  6 C        2.8720     2.2660    -0.1540 C.ar  1 <1>  -0.1500 
  7 N        4.4950     4.5270    -0.1290 N.ar  1 <1>  -0.6200 
  8 C        3.1810     5.6480     1.5240 C.3   1 <1>  -0.0960 
  9 C        3.9640     2.3480    -0.9880 C.ar  1 <1>   0.0730 
 10 C        4.7530     3.5020    -0.9340 C.ar  1 <1>   0.4100 
 11 C        4.2940     1.2820    -1.8810 C.1   1 <1>   0.4840 
 12 N        5.8910     3.6430    -1.7110 N.pl3 1 <1>  -0.8380 
 13 N        4.5850     0.4220    -2.5760 N.1   1 <1>  -0.5570 
 14 C        6.0650     4.8470    -2.5450 C.3   1 <1>   0.2090 
 15 C        7.1340     3.0060    -1.2510 C.3   1 <1>   0.2090 
 16 C        6.8520     5.8990    -1.7630 C.3   1 <1>  -0.1600 
 17 C        7.8780     4.0080    -0.3760 C.3   1 <1>  -0.1600 
 18 C        8.1270     5.3420    -1.1040 C.3   1 <1>   0.4230 
 19 N        8.6590     6.3490    -0.1290 N.4   1 <1>  -0.9590 
 20 C        8.9000     7.6960    -0.7350 C.3   1 <1>   0.4860 
 21 C        9.8950     5.9240     0.6020 C.3   1 <1>   0.3430 
 22 C        9.3560     8.6960     0.3150 C.ar  1 <1>  -0.1440 
 23 C       10.1220     6.8130     1.8260 C.3   1 <1>  -0.0170 
 24 C        9.9390     8.2880     1.5100 C.ar  1 <1>  -0.1440 
 25 C        9.1930    10.0510     0.0640 C.ar  1 <1>  -0.1500 
 26 C       10.3500     9.2330     2.4350 C.ar  1 <1>  -0.1500 
 27 C        9.6060    10.9900     0.9910 C.ar  1 <1>  -0.1500 
 28 C       10.1850    10.5810     2.1770 C.ar  1 <1>  -0.1500 
 29 H        2.2280     1.4010    -0.1550 H     1 <1>   0.1500 
 30 H        2.1370     5.9040     1.5060 H     1 <1>   0.0800 
 31 H        3.7440     6.4940     1.1760 H     1 <1>   0.0800 
 32 H        3.4620     5.4310     2.5380 H     1 <1>   0.0800 
 33 H        5.0980     5.2390    -2.8170 H     1 <1>   0.0800 
 34 H        6.5830     4.5760    -3.4490 H     1 <1>   0.0800 
 35 H        7.7260     2.7150    -2.1030 H     1 <1>   0.0800 
 36 H        6.9030     2.1200    -0.6820 H     1 <1>   0.0800 
 37 H        6.1990     6.3030    -1.0100 H     1 <1>   0.0800 
 38 H        7.0940     6.6840    -2.4540 H     1 <1>   0.0800 
 39 H        8.8040     3.5470    -0.0940 H     1 <1>   0.0800 
 40 H        7.2880     4.1740     0.5090 H     1 <1>   0.0800 
 41 H        8.8570     5.1670    -1.8790 H     1 <1>   0.0800 
 42 H        7.9210     6.4890     0.5750 H     1 <1>   0.4500 
 43 H        7.9940     8.0680    -1.1820 H     1 <1>   0.0800 
 44 H        9.6530     7.6240    -1.5020 H     1 <1>   0.0800 
 45 H       10.7460     5.9990    -0.0560 H     1 <1>   0.0800 
 46 H        9.8160     4.9050     0.9370 H     1 <1>   0.0800 
 47 H       11.1170     6.6440     2.2000 H     1 <1>   0.0800 
 48 H        9.4320     6.5320     2.6020 H     1 <1>   0.0800 
 49 H        8.7450    10.3950    -0.8540 H     1 <1>   0.1500 
 50 H       10.8000     8.9300     3.3650 H     1 <1>   0.1500 
 51 H        9.4780    12.0410     0.7920 H     1 <1>   0.1500 
 52 H       10.5070    11.3130     2.8990 H     1 <1>   0.1500 
@<TRIPOS>BOND
  1   1   2  ar  
  2   2   3  ar  
  3   2   4  1   
  4   4   5  ar  
  5   4   6  ar  
  6   5   7  ar  
  7   5   8  1   
  8   6   9  ar  
  9   6  29  1   
 10   7  10  ar  
 11   8  30  1   
 12   8  31  1   
 13   8  32  1   
 14   9  10  ar  
 15   9  11  1   
 16  10  12  1   
 17  11  13  3   
 18  12  14  1   
 19  12  15  1   
 20  14  16  1   
 21  14  33  1   
 22  14  34  1   
 23  15  17  1   
 24  15  35  1   
 25  15  36  1   
 26  16  18  1   
 27  16  37  1   
 28  16  38  1   
 29  17  18  1   
 30  17  39  1   
 31  17  40  1   
 32  18  19  1   
 33  18  41  1   
 34  19  20  1   
 35  19  21  1   
 36  19  42  1   
 37  20  22  1   
 38  20  43  1   
 39  20  44  1   
 40  21  23  1   
 41  21  45  1   
 42  21  46  1   
 43  22  24  ar  
 44  22  25  ar  
 45  23  24  1   
 46  23  47  1   
 47  23  48  1   
 48  24  26  ar  
 49  25  27  ar  
 50  25  49  1   
 51  26  28  ar  
 52  26  50  1   
 53  27  28  ar  
 54  27  51  1   
 55  28  52  1   
@<TRIPOS>SUBSTRUCTURE
  1 ****   7 GROUP 4 **** **** 0

# MOE 2024.06 (io_trps.svl 2023.06)
