@<TRIPOS>MOLECULE
NONAME
44 46 1 0 0 
SMALL
USER_CHARGES


@<TRIPOS>ATOM
  1 S       -0.2260    -0.0600    -1.1290 S.3   1 <1>  -0.0800 
  2 C       -0.4840     1.4040    -0.2090 C.2   1 <1>   0.4620 
  3 C       -1.2580    -0.9380    -0.0170 C.2   1 <1>  -0.0450 
  4 N       -1.2480     1.2590     0.8100 N.2   1 <1>  -0.5650 
  5 N        0.1110     2.5460    -0.6100 N.pl3 1 <1>  -0.8840 
  6 C       -1.5050    -2.3380    -0.2140 C.2   1 <1>   0.7150 
  7 C       -1.6640    -0.0420     0.9130 C.2   1 <1>   0.0770 
  8 O       -0.7610    -3.0120    -0.9040 O.2   1 <1>  -0.5700 
  9 N       -2.5920    -2.9570     0.3620 N.am  1 <1>  -0.6600 
 10 C       -2.6410    -4.4450     0.5190 C.3   1 <1>   0.1400 
 11 C       -3.9540    -2.3420     0.3500 C.3   1 <1>   0.1400 
 12 C       -3.6200    -5.0740    -0.4870 C.3   1 <1>   0.3430 
 13 C       -4.8780    -3.0810    -0.6480 C.3   1 <1>   0.2000 
 14 O       -4.8770    -4.4550    -0.3780 O.3   1 <1>  -0.5600 
 15 C       -3.7630    -6.5710    -0.2280 C.ar  1 <1>  -0.1430 
 16 C       -6.3460    -2.5930    -0.6360 C.3   1 <1>  -0.0800 
 17 C       -2.9380    -7.4630    -0.8990 C.ar  1 <1>  -0.1500 
 18 C       -4.6930    -7.0650     0.6770 C.ar  1 <1>  -0.1500 
 19 C       -6.4650    -1.1200    -1.0570 C.3   1 <1>  -0.2400 
 20 C       -7.0570    -2.8040     0.7120 C.3   1 <1>  -0.2400 
 21 C       -3.0390    -8.8240    -0.6680 C.ar  1 <1>  -0.1500 
 22 C       -4.7960    -8.4250     0.9090 C.ar  1 <1>  -0.1500 
 23 C       -3.9680    -9.3060     0.2370 C.ar  1 <1>  -0.1500 
 24 H        0.7350     2.5930    -1.4160 H     1 <1>   0.4000 
 25 H       -0.0120     3.4040    -0.0710 H     1 <1>   0.4000 
 26 H       -2.3020    -0.2920     1.7440 H     1 <1>   0.1500 
 27 H       -1.6640    -4.8740     0.3780 H     1 <1>   0.0800 
 28 H       -2.9600    -4.6880     1.5170 H     1 <1>   0.0800 
 29 H       -4.3700    -2.3960     1.3400 H     1 <1>   0.0800 
 30 H       -3.8950    -1.3070     0.0680 H     1 <1>   0.0800 
 31 H       -3.2590    -4.9190    -1.4890 H     1 <1>   0.0800 
 32 H       -4.4890    -2.9470    -1.6430 H     1 <1>   0.0800 
 33 H       -6.8670    -3.1770    -1.3760 H     1 <1>   0.0800 
 34 H       -2.2090    -7.1030    -1.6050 H     1 <1>   0.1500 
 35 H       -5.3440    -6.3870     1.2020 H     1 <1>   0.1500 
 36 H       -6.0300    -0.4660    -0.3220 H     1 <1>   0.0800 
 37 H       -7.5020    -0.8530    -1.1690 H     1 <1>   0.0800 
 38 H       -5.9760    -0.9570    -2.0010 H     1 <1>   0.0800 
 39 H       -6.6270    -2.1920     1.4840 H     1 <1>   0.0800 
 40 H       -6.9910    -3.8360     1.0120 H     1 <1>   0.0800 
 41 H       -8.0990    -2.5520     0.6220 H     1 <1>   0.0800 
 42 H       -2.3950    -9.5080    -1.1930 H     1 <1>   0.1500 
 43 H       -5.5210    -8.7970     1.6110 H     1 <1>   0.1500 
 44 H       -4.0470   -10.3640     0.4160 H     1 <1>   0.1500 
@<TRIPOS>BOND
  1   1   2  1   
  2   1   3  1   
  3   2   4  2   
  4   2   5  1   
  5   3   6  1   
  6   3   7  2   
  7   4   7  1   
  8   5  24  1   
  9   5  25  1   
 10   6   8  2   
 11   6   9  am  
 12   7  26  1   
 13   9  10  1   
 14   9  11  1   
 15  10  12  1   
 16  10  27  1   
 17  10  28  1   
 18  11  13  1   
 19  11  29  1   
 20  11  30  1   
 21  12  14  1   
 22  12  15  1   
 23  12  31  1   
 24  13  14  1   
 25  13  16  1   
 26  13  32  1   
 27  15  17  ar  
 28  15  18  ar  
 29  16  19  1   
 30  16  20  1   
 31  16  33  1   
 32  17  21  ar  
 33  17  34  1   
 34  18  22  ar  
 35  18  35  1   
 36  19  36  1   
 37  19  37  1   
 38  19  38  1   
 39  20  39  1   
 40  20  40  1   
 41  20  41  1   
 42  21  23  ar  
 43  21  42  1   
 44  22  23  ar  
 45  22  43  1   
 46  23  44  1   
@<TRIPOS>SUBSTRUCTURE
  1 ****   9 GROUP 4 **** **** 0

# MOE 2024.06 (io_trps.svl 2023.06)
