@<TRIPOS>MOLECULE
NONAME
45 47 1 0 0 
SMALL
USER_CHARGES


@<TRIPOS>ATOM
  1 CL       0.2770     0.3520    -0.8600 Cl    1 <1>  -0.1770 
  2 C       -1.2120     1.1890    -0.4390 C.ar  1 <1>   0.1770 
  3 C       -1.2150     2.6060    -0.4330 C.ar  1 <1>   0.4100 
  4 C       -2.3480     0.5100    -0.1210 C.ar  1 <1>   0.2170 
  5 N       -2.3010     3.2910    -0.1170 N.ar  1 <1>  -0.6200 
  6 N       -0.0970     3.2980    -0.7550 N.pl3 1 <1>  -0.8690 
  7 N       -3.4380     1.2620     0.1910 N.ar  1 <1>  -0.1790 
  8 C       -2.4940    -1.0070    -0.0870 C.3   1 <1>  -0.0970 
  9 C       -3.3870     2.6080     0.1850 C.ar  1 <1>   0.7710 
 10 C        0.0850     4.7730    -0.8010 C.3   1 <1>   0.2090 
 11 N       -4.4650     3.3210     0.4950 N.pl3 1 <1>  -0.9000 
 12 C        1.1640     5.2090     0.2020 C.3   1 <1>  -0.0800 
 13 C        1.2740     6.7460     0.2220 C.3   1 <1>  -0.1600 
 14 C        2.5420     4.5860    -0.1120 C.3   1 <1>  -0.1600 
 15 C        2.3770     7.2250     1.1700 C.3   1 <1>   0.1400 
 16 C        3.6340     5.1040     0.8290 C.3   1 <1>   0.1400 
 17 N        3.6630     6.5890     0.7810 N.am  1 <1>  -0.6600 
 18 C        4.7910     7.2690     0.3890 C.2   1 <1>   0.6300 
 19 O        5.8260     6.6990     0.1320 O.2   1 <1>  -0.5700 
 20 C        4.7730     8.7910     0.2710 C.3   1 <1>  -0.1000 
 21 C        3.9990     9.4790    -0.8190 C.3   1 <1>  -0.2000 
 22 C        5.4940     9.4900    -0.8470 C.3   1 <1>  -0.2000 
 23 H        0.7510     2.7810    -1.0140 H     1 <1>   0.4000 
 24 H       -4.3270     0.8380     0.4380 H     1 <1>   0.4570 
 25 H       -1.5750    -1.4980    -0.3500 H     1 <1>   0.0800 
 26 H       -3.2480    -1.3270    -0.7840 H     1 <1>   0.0800 
 27 H       -2.7700    -1.3350     0.9000 H     1 <1>   0.0800 
 28 H       -0.8410     5.2720    -0.5690 H     1 <1>   0.0800 
 29 H        0.3740     5.0610    -1.7980 H     1 <1>   0.0800 
 30 H       -5.4000     3.0030     0.7540 H     1 <1>   0.4000 
 31 H       -4.3720     4.3430     0.4750 H     1 <1>   0.4000 
 32 H        0.8550     4.8870     1.1820 H     1 <1>   0.0800 
 33 H        0.3380     7.1740     0.5350 H     1 <1>   0.0800 
 34 H        1.4900     7.1140    -0.7670 H     1 <1>   0.0800 
 35 H        2.8290     4.8150    -1.1240 H     1 <1>   0.0800 
 36 H        2.4960     3.5160    -0.0170 H     1 <1>   0.0800 
 37 H        2.1400     6.9400     2.1800 H     1 <1>   0.0800 
 38 H        2.4430     8.2970     1.1370 H     1 <1>   0.0800 
 39 H        4.5860     4.6930     0.5360 H     1 <1>   0.0800 
 40 H        3.4340     4.7880     1.8380 H     1 <1>   0.0800 
 41 H        4.8220     9.2580     1.2370 H     1 <1>   0.1000 
 42 H        3.4790    10.3920    -0.5890 H     1 <1>   0.1000 
 43 H        3.4810     8.8770    -1.5450 H     1 <1>   0.1000 
 44 H        6.0090     8.8850    -1.5740 H     1 <1>   0.1000 
 45 H        6.0170    10.4040    -0.6260 H     1 <1>   0.1000 
@<TRIPOS>BOND
  1   1   2  1   
  2   2   3  ar  
  3   2   4  ar  
  4   3   5  ar  
  5   3   6  1   
  6   4   7  ar  
  7   4   8  1   
  8   5   9  ar  
  9   6  10  1   
 10   6  23  1   
 11   7   9  ar  
 12   7  24  1   
 13   8  25  1   
 14   8  26  1   
 15   8  27  1   
 16   9  11  1   
 17  10  12  1   
 18  10  28  1   
 19  10  29  1   
 20  11  30  1   
 21  11  31  1   
 22  12  13  1   
 23  12  14  1   
 24  12  32  1   
 25  13  15  1   
 26  13  33  1   
 27  13  34  1   
 28  14  16  1   
 29  14  35  1   
 30  14  36  1   
 31  15  17  1   
 32  15  37  1   
 33  15  38  1   
 34  16  17  1   
 35  16  39  1   
 36  16  40  1   
 37  17  18  am  
 38  18  19  2   
 39  18  20  1   
 40  20  21  1   
 41  20  22  1   
 42  20  41  1   
 43  21  22  1   
 44  21  42  1   
 45  21  43  1   
 46  22  44  1   
 47  22  45  1   
@<TRIPOS>SUBSTRUCTURE
  1 ****  12 GROUP 4 **** **** 0

# MOE 2024.06 (io_trps.svl 2023.06)
