@<TRIPOS>MOLECULE
NONAME
51 54 1 0 0 
SMALL
USER_CHARGES


@<TRIPOS>ATOM
  1 O       -3.7340    -0.0200    -2.5460 O.2   1 <1>  -0.5700 
  2 C       -3.4640    -0.6080    -1.5360 C.2   1 <1>   0.5690 
  3 N       -3.3580     0.0550    -0.3710 N.am  1 <1>  -0.7300 
  4 C       -3.2780    -2.1010    -1.5690 C.3   1 <1>  -0.0190 
  5 C       -3.0260    -0.5500     0.9400 C.3   1 <1>   0.2200 
  6 C       -1.8480    -2.5030    -1.1410 C.3   1 <1>   0.1200 
  7 C       -4.4390    -2.7570    -0.8080 C.3   1 <1>   0.3430 
  8 C       -1.6340    -1.2290     0.8820 C.3   1 <1>   0.1200 
  9 C       -4.1670    -1.5000     1.4050 C.3   1 <1>   0.3430 
 10 O       -1.6580    -2.4850     0.2500 O.3   1 <1>  -0.5600 
 11 N       -4.2350    -2.8190     0.6800 N.4   1 <1>  -0.9590 
 12 C       -5.1420    -3.7930     1.3390 C.3   1 <1>   0.4860 
 13 C       -4.8510    -5.1720     0.7790 C.ar  1 <1>  -0.1440 
 14 C       -5.7940    -5.8010    -0.0180 C.ar  1 <1>  -0.1500 
 15 C       -3.6500    -5.8110     1.0450 C.ar  1 <1>  -0.1500 
 16 C       -5.5530    -7.0580    -0.5510 C.ar  1 <1>  -0.1440 
 17 C       -3.3960    -7.0620     0.5130 C.ar  1 <1>  -0.1500 
 18 C       -4.3430    -7.6930    -0.2880 C.ar  1 <1>   0.0820 
 19 C       -6.6250    -7.7260    -1.4150 C.3   1 <1>   0.2390 
 20 O       -4.1420    -8.9190    -0.8360 O.3   1 <1>  -0.3620 
 21 N       -7.9300    -7.7450    -0.7200 N.pl3 1 <1>   0.3140 
 22 C       -2.9940    -9.6880    -0.5470 C.3   1 <1>   0.0400 
 23 N       -8.8770    -6.8060    -0.9360 N.2   1 <1>  -0.7070 
 24 C       -8.3450    -8.6510     0.1890 C.2   1 <1>  -0.3020 
 25 C       -9.8670    -7.1490    -0.1680 C.2   1 <1>   0.1390 
 26 C       -9.5920    -8.2960     0.5640 C.2   1 <1>  -0.1500 
 27 H       -3.4390     1.0770    -0.4280 H     1 <1>   0.3700 
 28 H       -3.3840    -2.3850    -2.6010 H     1 <1>   0.0800 
 29 H       -2.9640     0.2590     1.6470 H     1 <1>   0.0800 
 30 H       -1.1150    -1.8580    -1.5990 H     1 <1>   0.0800 
 31 H       -1.6500    -3.5100    -1.4670 H     1 <1>   0.0800 
 32 H       -4.5400    -3.7620    -1.1850 H     1 <1>   0.0800 
 33 H       -5.3550    -2.2350    -1.0330 H     1 <1>   0.0800 
 34 H       -1.2820    -1.3980     1.8850 H     1 <1>   0.0800 
 35 H       -0.9170    -0.5980     0.3840 H     1 <1>   0.0800 
 36 H       -5.1070    -0.9820     1.3090 H     1 <1>   0.0800 
 37 H       -4.0130    -1.6980     2.4530 H     1 <1>   0.0800 
 38 H       -3.2740    -3.2090     0.7630 H     1 <1>   0.4500 
 39 H       -4.9720    -3.8030     2.4030 H     1 <1>   0.0800 
 40 H       -6.1720    -3.5290     1.1580 H     1 <1>   0.0800 
 41 H       -6.7360    -5.3170    -0.2260 H     1 <1>   0.1500 
 42 H       -2.9000    -5.3510     1.6670 H     1 <1>   0.1500 
 43 H       -2.4560    -7.5320     0.7350 H     1 <1>   0.1500 
 44 H       -6.3680    -8.7380    -1.6600 H     1 <1>   0.0800 
 45 H       -6.7410    -7.1790    -2.3310 H     1 <1>   0.0800 
 46 H       -3.0840   -10.6290    -1.0610 H     1 <1>   0.0800 
 47 H       -2.9430    -9.8570     0.5140 H     1 <1>   0.0800 
 48 H       -2.1220    -9.1650    -0.8980 H     1 <1>   0.0800 
 49 H       -7.7400    -9.4800     0.5100 H     1 <1>   0.1500 
 50 H      -10.7930    -6.6000    -0.1120 H     1 <1>   0.1500 
 51 H      -10.2500    -8.7740     1.2680 H     1 <1>   0.1500 
@<TRIPOS>BOND
  1   1   2  2   
  2   2   3  am  
  3   2   4  1   
  4   3   5  1   
  5   3  27  1   
  6   4   6  1   
  7   4   7  1   
  8   4  28  1   
  9   5   8  1   
 10   5   9  1   
 11   5  29  1   
 12   6  10  1   
 13   6  30  1   
 14   6  31  1   
 15   7  11  1   
 16   7  32  1   
 17   7  33  1   
 18   8  10  1   
 19   8  34  1   
 20   8  35  1   
 21   9  11  1   
 22   9  36  1   
 23   9  37  1   
 24  11  12  1   
 25  11  38  1   
 26  12  13  1   
 27  12  39  1   
 28  12  40  1   
 29  13  14  ar  
 30  13  15  ar  
 31  14  16  ar  
 32  14  41  1   
 33  15  17  ar  
 34  15  42  1   
 35  16  18  ar  
 36  16  19  1   
 37  17  18  ar  
 38  17  43  1   
 39  18  20  1   
 40  19  21  1   
 41  19  44  1   
 42  19  45  1   
 43  20  22  1   
 44  21  23  1   
 45  21  24  1   
 46  22  46  1   
 47  22  47  1   
 48  22  48  1   
 49  23  25  2   
 50  24  26  2   
 51  24  49  1   
 52  25  26  1   
 53  25  50  1   
 54  26  51  1   
@<TRIPOS>SUBSTRUCTURE
  1 ****  13 GROUP 4 **** **** 0

# MOE 2024.06 (io_trps.svl 2023.06)
