@<TRIPOS>MOLECULE
NONAME
39 39 1 0 0 
SMALL
USER_CHARGES


@<TRIPOS>ATOM
  1 O       -0.4650    -0.0920    -0.8380 O.2   1 <1>  -0.5700 
  2 C       -1.3930    -0.6300    -0.2640 C.2   1 <1>   0.7800 
  3 O       -1.3130    -1.9050     0.1280 O.3   1 <1>  -0.4300 
  4 N       -2.5570     0.0380     0.0110 N.am  1 <1>  -0.6600 
  5 C       -0.2230    -2.7850    -0.0340 C.3   1 <1>   0.2800 
  6 C       -2.6860     1.4870    -0.3210 C.3   1 <1>   0.1400 
  7 C       -3.7230    -0.6280     0.6580 C.3   1 <1>   0.1400 
  8 C        0.0610    -3.0130    -1.5240 C.3   1 <1>  -0.2400 
  9 C       -0.6770    -4.1010     0.5980 C.3   1 <1>  -0.2400 
 10 C        1.0020    -2.2580     0.7220 C.3   1 <1>  -0.2400 
 11 C       -3.7510     2.1570     0.5600 C.3   1 <1>  -0.0800 
 12 C       -5.0230    -0.0270     0.1200 C.3   1 <1>  -0.1600 
 13 C       -5.1470     1.4970     0.3750 C.3   1 <1>  -0.0800 
 14 C       -3.7400     3.6830     0.3630 C.3   1 <1>  -0.2400 
 15 C       -6.0020     2.1620    -0.7220 C.3   1 <1>   0.1200 
 16 O       -7.2300     1.5270    -0.8100 O.3   1 <1>  -0.6800 
 17 H       -2.9490     1.5860    -1.3600 H     1 <1>   0.0800 
 18 H       -1.7350     1.9700    -0.1690 H     1 <1>   0.0800 
 19 H       -3.6620    -0.4900     1.7240 H     1 <1>   0.0800 
 20 H       -3.7090    -1.6850     0.4530 H     1 <1>   0.0800 
 21 H       -0.8360    -3.3120    -2.0340 H     1 <1>   0.0800 
 22 H        0.7970    -3.7870    -1.6430 H     1 <1>   0.0800 
 23 H        0.4490    -2.1230    -1.9850 H     1 <1>   0.0800 
 24 H       -1.5510    -4.4740     0.0960 H     1 <1>   0.0800 
 25 H       -0.9040    -3.9560     1.6390 H     1 <1>   0.0800 
 26 H        0.1000    -4.8410     0.5210 H     1 <1>   0.0800 
 27 H        1.3910    -1.3700     0.2600 H     1 <1>   0.0800 
 28 H        1.7830    -2.9950     0.7150 H     1 <1>   0.0800 
 29 H        0.7470    -2.0420     1.7440 H     1 <1>   0.0800 
 30 H       -3.4480     1.9880     1.5810 H     1 <1>   0.0800 
 31 H       -5.8590    -0.5330     0.5710 H     1 <1>   0.0800 
 32 H       -5.0520    -0.2310    -0.9360 H     1 <1>   0.0800 
 33 H       -5.6720     1.6410     1.3050 H     1 <1>   0.0800 
 34 H       -3.9190     3.9470    -0.6640 H     1 <1>   0.0800 
 35 H       -2.7820     4.0820     0.6480 H     1 <1>   0.0800 
 36 H       -4.4900     4.1460     0.9810 H     1 <1>   0.0800 
 37 H       -5.5190     2.0980    -1.6820 H     1 <1>   0.0800 
 38 H       -6.1970     3.1950    -0.4920 H     1 <1>   0.0800 
 39 H       -7.1080     0.5830    -1.0220 H     1 <1>   0.4000 
@<TRIPOS>BOND
  1   1   2  2   
  2   2   3  1   
  3   2   4  am  
  4   3   5  1   
  5   4   6  1   
  6   4   7  1   
  7   5   8  1   
  8   5   9  1   
  9   5  10  1   
 10   6  11  1   
 11   6  17  1   
 12   6  18  1   
 13   7  12  1   
 14   7  19  1   
 15   7  20  1   
 16   8  21  1   
 17   8  22  1   
 18   8  23  1   
 19   9  24  1   
 20   9  25  1   
 21   9  26  1   
 22  10  27  1   
 23  10  28  1   
 24  10  29  1   
 25  11  13  1   
 26  11  14  1   
 27  11  30  1   
 28  12  13  1   
 29  12  31  1   
 30  12  32  1   
 31  13  15  1   
 32  13  33  1   
 33  14  34  1   
 34  14  35  1   
 35  14  36  1   
 36  15  16  1   
 37  15  37  1   
 38  15  38  1   
 39  16  39  1   
@<TRIPOS>SUBSTRUCTURE
  1 ****   4 GROUP 4 **** **** 0

# MOE 2024.06 (io_trps.svl 2023.06)
