@<TRIPOS>MOLECULE
NONAME
49 50 1 0 0 
SMALL
USER_CHARGES


@<TRIPOS>ATOM
  1 S        0.4410     0.0520    -1.0560 S.o2  1 <1>   1.3330 
  2 O        0.1810    -0.0500    -2.4740 O.2   1 <1>  -0.6500 
  3 O        1.8010     0.2250    -0.5960 O.2   1 <1>  -0.6500 
  4 N       -0.2060    -1.3170    -0.2890 N.am  1 <1>  -0.8490 
  5 C       -0.5630     1.3920    -0.4210 C.3   1 <1>  -0.0550 
  6 C        0.3050    -1.5220     1.0700 C.3   1 <1>   0.1160 
  7 C       -0.0190    -2.5360    -1.0820 C.3   1 <1>   0.1160 
  8 C       -0.2080     2.7520    -1.0550 C.3   1 <1>  -0.0800 
  9 C       -1.1100     3.9120    -0.6420 C.3   1 <1>   0.2000 
 10 C        1.2170     3.2410    -0.7360 C.3   1 <1>   0.1100 
 11 O       -1.3430     3.8440     0.7200 O.3   1 <1>  -0.6800 
 12 C       -0.2070     5.1130    -0.8910 C.3   1 <1>   0.1100 
 13 N        1.1140     4.6740    -0.3980 N.3   1 <1>  -0.8100 
 14 C        2.2520     5.4680    -0.9390 C.3   1 <1>   0.2540 
 15 C        2.3660     6.8730    -0.3190 C.cat 1 <1>   0.6560 
 16 N        1.7570     7.2080     0.8040 N.pl3 1 <1>  -0.7000 
 17 N        3.0570     7.9150    -0.7840 N.pl3 1 <1>  -0.7640 
 18 C        2.0510     8.5070     1.0900 C.2   1 <1>   0.1820 
 19 C        2.8610     8.9540     0.1010 C.2   1 <1>   0.1820 
 20 C        3.9000     7.9890    -2.0110 C.3   1 <1>   0.2740 
 21 C        1.4890     9.1780     2.3280 C.3   1 <1>  -0.0720 
 22 C        3.4950    10.3210    -0.0950 C.3   1 <1>  -0.0720 
 23 H       -1.5940     1.1770    -0.6260 H     1 <1>   0.0800 
 24 H       -0.4490     1.4470     0.6430 H     1 <1>   0.0800 
 25 H       -0.2040    -2.3490     1.5350 H     1 <1>   0.0800 
 26 H        0.1360    -0.6430     1.6680 H     1 <1>   0.0800 
 27 H        1.3630    -1.7280     1.0490 H     1 <1>   0.0800 
 28 H       -0.4570    -3.3800    -0.5770 H     1 <1>   0.0800 
 29 H        1.0300    -2.7220    -1.2410 H     1 <1>   0.0800 
 30 H       -0.5020    -2.4300    -2.0390 H     1 <1>   0.0800 
 31 H       -0.2820     2.6500    -2.1240 H     1 <1>   0.0800 
 32 H       -2.0510     3.9490    -1.1640 H     1 <1>   0.0800 
 33 H        1.8550     3.0750    -1.5890 H     1 <1>   0.0800 
 34 H        1.6310     2.7140     0.1090 H     1 <1>   0.0800 
 35 H       -0.4770     3.9360     1.1660 H     1 <1>   0.4000 
 36 H       -0.5650     5.9890    -0.3780 H     1 <1>   0.0800 
 37 H       -0.1670     5.3090    -1.9500 H     1 <1>   0.0800 
 38 H        3.1690     4.9490    -0.7230 H     1 <1>   0.0800 
 39 H        2.1590     5.5530    -2.0070 H     1 <1>   0.0800 
 40 H        1.1710     6.5480     1.3240 H     1 <1>   0.4500 
 41 H        3.5020     8.7300    -2.6840 H     1 <1>   0.0800 
 42 H        3.9280     7.0410    -2.5180 H     1 <1>   0.0800 
 43 H        4.9070     8.2650    -1.7450 H     1 <1>   0.0800 
 44 H        1.8210    10.1970     2.3990 H     1 <1>   0.0800 
 45 H        1.8130     8.6510     3.2080 H     1 <1>   0.0800 
 46 H        0.4140     9.1690     2.2940 H     1 <1>   0.0800 
 47 H        3.2160    10.9890     0.6980 H     1 <1>   0.0800 
 48 H        3.1690    10.7470    -1.0270 H     1 <1>   0.0800 
 49 H        4.5660    10.2320    -0.1040 H     1 <1>   0.0800 
@<TRIPOS>BOND
  1   1   2  2   
  2   1   3  2   
  3   1   4  am  
  4   1   5  1   
  5   4   6  1   
  6   4   7  1   
  7   5   8  1   
  8   5  23  1   
  9   5  24  1   
 10   6  25  1   
 11   6  26  1   
 12   6  27  1   
 13   7  28  1   
 14   7  29  1   
 15   7  30  1   
 16   8   9  1   
 17   8  10  1   
 18   8  31  1   
 19   9  11  1   
 20   9  12  1   
 21   9  32  1   
 22  10  13  1   
 23  10  33  1   
 24  10  34  1   
 25  11  35  1   
 26  12  13  1   
 27  12  36  1   
 28  12  37  1   
 29  13  14  1   
 30  14  15  1   
 31  14  38  1   
 32  14  39  1   
 33  15  16  ar  
 34  15  17  ar  
 35  16  18  1   
 36  16  40  1   
 37  17  19  1   
 38  17  20  1   
 39  18  19  2   
 40  18  21  1   
 41  19  22  1   
 42  20  41  1   
 43  20  42  1   
 44  20  43  1   
 45  21  44  1   
 46  21  45  1   
 47  21  46  1   
 48  22  47  1   
 49  22  48  1   
 50  22  49  1   
@<TRIPOS>SUBSTRUCTURE
  1 ****  13 GROUP 4 **** **** 0

# MOE 2024.06 (io_trps.svl 2023.06)
