@<TRIPOS>MOLECULE
NONAME
59 60 1 0 0 
SMALL
USER_CHARGES


@<TRIPOS>ATOM
  1 O       -0.7240     0.2380     1.2830 O.2   1 <1>  -0.5700 
  2 C       -1.4730     0.9620     0.6530 C.2   1 <1>   0.5440 
  3 N       -2.4090     0.3830    -0.1780 N.am  1 <1>  -0.6600 
  4 C       -1.3650     2.4000     0.8070 C.ar  1 <1>   0.0860 
  5 C       -3.7170     1.0190    -0.5220 C.3   1 <1>   0.1400 
  6 C       -2.3560    -1.0660    -0.5460 C.3   1 <1>   0.1400 
  7 C       -1.3980     3.2640    -0.2890 C.ar  1 <1>  -0.1500 
  8 C       -1.2140     2.9780     2.0680 C.ar  1 <1>  -0.1500 
  9 C       -4.8940     0.1620    -0.0040 C.3   1 <1>   0.2000 
 10 C       -3.6050    -1.8110    -0.0310 C.3   1 <1>   0.2000 
 11 C       -1.2980     4.6320    -0.1320 C.ar  1 <1>  -0.1500 
 12 C       -1.1100     4.3470     2.2280 C.ar  1 <1>  -0.1500 
 13 O       -4.7640    -1.1550    -0.4650 O.3   1 <1>  -0.5600 
 14 C       -6.2910     0.6800    -0.4190 C.3   1 <1>  -0.0800 
 15 C       -3.7000    -3.2550    -0.5390 C.3   1 <1>  -0.1600 
 16 C       -1.1440     5.1940     1.1290 C.ar  1 <1>   0.1170 
 17 C       -6.5160     0.7050    -1.9410 C.3   1 <1>  -0.2400 
 18 C       -6.5860     2.0690     0.1690 C.3   1 <1>  -0.2400 
 19 C       -2.5650    -4.1520    -0.0180 C.3   1 <1>  -0.1600 
 20 N       -1.0340     6.5710     1.3090 N.am  1 <1>  -0.5470 
 21 C       -2.7590    -5.6030    -0.4730 C.3   1 <1>  -0.1600 
 22 C       -0.1480     7.4640     0.7800 C.2   1 <1>   0.5690 
 23 C       -1.6280    -6.4980     0.0420 C.3   1 <1>  -0.2400 
 24 O       -0.2200     8.6220     1.1090 O.2   1 <1>  -0.5700 
 25 C        0.9800     7.0190    -0.1550 C.3   1 <1>   0.1810 
 26 O        0.5370     6.8370    -1.4770 O.3   1 <1>  -0.5600 
 27 C        1.5440     6.4730    -2.3640 C.3   1 <1>   0.0400 
 28 H       -3.7820     1.9980    -0.0860 H     1 <1>   0.0800 
 29 H       -3.7840     1.1210    -1.5900 H     1 <1>   0.0800 
 30 H       -2.3070    -1.1540    -1.6160 H     1 <1>   0.0800 
 31 H       -1.4720    -1.5220    -0.1400 H     1 <1>   0.0800 
 32 H       -1.5020     2.8490    -1.2770 H     1 <1>   0.1500 
 33 H       -1.1730     2.3310     2.9290 H     1 <1>   0.1500 
 34 H       -4.8520     0.1330     1.0710 H     1 <1>   0.0800 
 35 H       -3.6040    -1.8120     1.0460 H     1 <1>   0.0800 
 36 H       -1.3420     5.2740    -0.9950 H     1 <1>   0.1500 
 37 H       -0.9920     4.7620     3.2130 H     1 <1>   0.1500 
 38 H       -7.0080    -0.0030     0.0070 H     1 <1>   0.0800 
 39 H       -4.6400    -3.6630    -0.2110 H     1 <1>   0.0800 
 40 H       -3.6930    -3.2530    -1.6150 H     1 <1>   0.0800 
 41 H       -5.8770     1.4240    -2.4200 H     1 <1>   0.0800 
 42 H       -7.5370     0.9610    -2.1590 H     1 <1>   0.0800 
 43 H       -6.3190    -0.2660    -2.3620 H     1 <1>   0.0800 
 44 H       -5.9520     2.8200    -0.2670 H     1 <1>   0.0800 
 45 H       -6.4380     2.0650     1.2340 H     1 <1>   0.0800 
 46 H       -7.6090     2.3400    -0.0260 H     1 <1>   0.0800 
 47 H       -1.6170    -3.7960    -0.3820 H     1 <1>   0.0800 
 48 H       -2.5450    -4.1160     1.0580 H     1 <1>   0.0800 
 49 H       -1.6670     7.0040     1.9820 H     1 <1>   0.3700 
 50 H       -3.7000    -5.9760    -0.1050 H     1 <1>   0.0800 
 51 H       -2.7820    -5.6460    -1.5490 H     1 <1>   0.0800 
 52 H       -1.6000    -6.4880     1.1180 H     1 <1>   0.0800 
 53 H       -0.6780    -6.1580    -0.3330 H     1 <1>   0.0800 
 54 H       -1.7820    -7.5110    -0.2860 H     1 <1>   0.0800 
 55 H        1.3930     6.0910     0.1980 H     1 <1>   0.0800 
 56 H        1.7460     7.7730    -0.1560 H     1 <1>   0.0800 
 57 H        1.1060     6.3620    -3.3400 H     1 <1>   0.0800 
 58 H        1.9740     5.5370    -2.0500 H     1 <1>   0.0800 
 59 H        2.2930     7.2460    -2.3900 H     1 <1>   0.0800 
@<TRIPOS>BOND
  1   1   2  2   
  2   2   3  am  
  3   2   4  1   
  4   3   5  1   
  5   3   6  1   
  6   4   7  ar  
  7   4   8  ar  
  8   5   9  1   
  9   5  28  1   
 10   5  29  1   
 11   6  10  1   
 12   6  30  1   
 13   6  31  1   
 14   7  11  ar  
 15   7  32  1   
 16   8  12  ar  
 17   8  33  1   
 18   9  13  1   
 19   9  14  1   
 20   9  34  1   
 21  10  13  1   
 22  10  15  1   
 23  10  35  1   
 24  11  16  ar  
 25  11  36  1   
 26  12  16  ar  
 27  12  37  1   
 28  14  17  1   
 29  14  18  1   
 30  14  38  1   
 31  15  19  1   
 32  15  39  1   
 33  15  40  1   
 34  16  20  1   
 35  17  41  1   
 36  17  42  1   
 37  17  43  1   
 38  18  44  1   
 39  18  45  1   
 40  18  46  1   
 41  19  21  1   
 42  19  47  1   
 43  19  48  1   
 44  20  22  am  
 45  20  49  1   
 46  21  23  1   
 47  21  50  1   
 48  21  51  1   
 49  22  24  2   
 50  22  25  1   
 51  23  52  1   
 52  23  53  1   
 53  23  54  1   
 54  25  26  1   
 55  25  55  1   
 56  25  56  1   
 57  26  27  1   
 58  27  57  1   
 59  27  58  1   
 60  27  59  1   
@<TRIPOS>SUBSTRUCTURE
  1 ****   2 GROUP 4 **** **** 0

# MOE 2024.06 (io_trps.svl 2023.06)
