@<TRIPOS>MOLECULE
NONAME
24 24 1 0 0 
SMALL
USER_CHARGES


@<TRIPOS>ATOM
  1 CL       1.8630     0.0780    -2.5720 Cl    1 <1>  -0.1770 
  2 C        2.2260    -0.7400    -1.0710 C.ar  1 <1>   0.1770 
  3 C        2.4680     0.0070     0.0730 C.ar  1 <1>  -0.1440 
  4 C        2.2830    -2.1200    -1.0710 C.ar  1 <1>  -0.1500 
  5 C        2.7820    -0.6770     1.2440 C.ar  1 <1>  -0.1500 
  6 C        2.3800     1.5220    -0.0280 C.3   1 <1>   0.5660 
  7 C        2.5950    -2.7900     0.0980 C.ar  1 <1>  -0.1440 
  8 C        2.8440    -2.0610     1.2500 C.ar  1 <1>  -0.1500 
  9 N        3.6350     1.9840    -0.6170 N.4   1 <1>  -0.8530 
 10 C        2.1840     2.2470     1.2990 C.3   1 <1>  -0.2400 
 11 C        2.6580    -4.3080     0.1060 C.3   1 <1>  -0.0970 
 12 H        2.0870    -2.6640    -1.9790 H     1 <1>   0.1500 
 13 H        2.9800    -0.1660     2.1700 H     1 <1>   0.1500 
 14 H        1.5580     1.7760    -0.6800 H     1 <1>   0.0800 
 15 H        3.0850    -2.5760     2.1660 H     1 <1>   0.1500 
 16 H        4.4170     1.6620    -0.0410 H     1 <1>   0.4500 
 17 H        3.6550     3.0030    -0.6960 H     1 <1>   0.4500 
 18 H        3.7320     1.5670    -1.5500 H     1 <1>   0.4500 
 19 H        3.0230     2.1150     1.9580 H     1 <1>   0.0800 
 20 H        1.3050     1.8620     1.7880 H     1 <1>   0.0800 
 21 H        2.0260     3.2980     1.1330 H     1 <1>   0.0800 
 22 H        2.8990    -4.6810     1.0850 H     1 <1>   0.0800 
 23 H        3.4100    -4.6490    -0.5830 H     1 <1>   0.0800 
 24 H        1.7080    -4.7170    -0.1890 H     1 <1>   0.0800 
@<TRIPOS>BOND
  1   1   2  1   
  2   2   3  ar  
  3   2   4  ar  
  4   3   5  ar  
  5   3   6  1   
  6   4   7  ar  
  7   4  12  1   
  8   5   8  ar  
  9   5  13  1   
 10   6   9  1   
 11   6  10  1   
 12   6  14  1   
 13   7   8  ar  
 14   7  11  1   
 15   8  15  1   
 16   9  16  1   
 17   9  17  1   
 18   9  18  1   
 19  10  19  1   
 20  10  20  1   
 21  10  21  1   
 22  11  22  1   
 23  11  23  1   
 24  11  24  1   
@<TRIPOS>SUBSTRUCTURE
  1 ****   3 GROUP 4 **** **** 0

# MOE 2024.06 (io_trps.svl 2023.06)
