@<TRIPOS>MOLECULE
NONAME
56 57 1 0 0 
SMALL
USER_CHARGES


@<TRIPOS>ATOM
  1 CL      -0.0660     0.6420     1.3290 Cl    1 <1>  -0.1770 
  2 C        1.3050    -0.4100     1.0970 C.ar  1 <1>   0.1770 
  3 C        1.9160    -0.4650    -0.1400 C.ar  1 <1>  -0.1500 
  4 C        1.7570    -1.1760     2.1540 C.ar  1 <1>  -0.1500 
  5 C        2.9930    -1.3150    -0.3270 C.ar  1 <1>  -0.1500 
  6 C        2.8320    -2.0260     1.9610 C.ar  1 <1>  -0.1500 
  7 C        3.4470    -2.1120     0.7180 C.ar  1 <1>  -0.1430 
  8 C        4.6210    -3.0750     0.5040 C.3   1 <1>   0.1250 
  9 C        4.1900    -4.5180     0.8240 C.2   1 <1>   0.5690 
 10 C        5.8870    -2.6230     1.2810 C.3   1 <1>  -0.0800 
 11 O        4.2940    -4.9290     1.9560 O.2   1 <1>  -0.5700 
 12 N        3.6600    -5.3320    -0.1470 N.am  1 <1>  -0.6600 
 13 C        6.2750    -1.1690     0.9600 C.3   1 <1>  -0.2400 
 14 C        7.0930    -3.5300     0.9790 C.3   1 <1>  -0.2400 
 15 C        3.9570    -6.7950    -0.0980 C.3   1 <1>   0.3200 
 16 C        2.7680    -4.8320    -1.2450 C.3   1 <1>   0.1400 
 17 C        2.6620    -7.5510     0.0970 C.2   1 <1>  -0.3320 
 18 C        1.4030    -4.2880    -0.7460 C.3   1 <1>   0.3430 
 19 N        1.9700    -8.1770    -0.8760 N.pl3 1 <1>   0.0330 
 20 C        1.9700    -7.7330     1.2410 C.2   1 <1>   0.0770 
 21 N        0.7390    -5.1700     0.2660 N.4   1 <1>  -0.9590 
 22 C        0.8610    -8.6470    -0.2660 C.2   1 <1>   0.0060 
 23 N        0.8130    -8.3730     0.9960 N.2   1 <1>  -0.5650 
 24 C       -0.6910    -5.4560    -0.0360 C.3   1 <1>   0.2630 
 25 C        0.8810    -4.6340     1.6520 C.3   1 <1>   0.2630 
 26 C       -0.2070    -9.4350    -0.9960 C.3   1 <1>  -0.0600 
 27 H        1.5550     0.1590    -0.9390 H     1 <1>   0.1500 
 28 H        1.2770    -1.0980     3.1140 H     1 <1>   0.1500 
 29 H        3.4780    -1.3400    -1.2890 H     1 <1>   0.1500 
 30 H        3.1950    -2.6160     2.7890 H     1 <1>   0.1500 
 31 H        4.8890    -3.0530    -0.5360 H     1 <1>   0.0800 
 32 H        5.6820    -2.6840     2.3370 H     1 <1>   0.0800 
 33 H        6.4630    -1.0440    -0.0920 H     1 <1>   0.0800 
 34 H        7.1650    -0.8940     1.4980 H     1 <1>   0.0800 
 35 H        5.4960    -0.4880     1.2540 H     1 <1>   0.0800 
 36 H        7.3350    -3.5130    -0.0690 H     1 <1>   0.0800 
 37 H        6.8960    -4.5450     1.2750 H     1 <1>   0.0800 
 38 H        7.9540    -3.1950     1.5300 H     1 <1>   0.0800 
 39 H        4.6230    -7.0130     0.7220 H     1 <1>   0.0800 
 40 H        4.4460    -7.1010    -1.0070 H     1 <1>   0.0800 
 41 H        2.5840    -5.6280    -1.9450 H     1 <1>   0.0800 
 42 H        3.2720    -4.0550    -1.7920 H     1 <1>   0.0800 
 43 H        0.7560    -4.1710    -1.6000 H     1 <1>   0.0800 
 44 H        1.5420    -3.3090    -0.3220 H     1 <1>   0.0800 
 45 H        2.2310    -8.3200    -1.8580 H     1 <1>   0.2700 
 46 H        2.2380    -7.4120     2.2370 H     1 <1>   0.1500 
 47 H        1.2390    -6.0850     0.2690 H     1 <1>   0.4500 
 48 H       -1.2750    -4.5510     0.0100 H     1 <1>   0.0800 
 49 H       -1.0820    -6.1610     0.6810 H     1 <1>   0.0800 
 50 H       -0.7870    -5.8870    -1.0190 H     1 <1>   0.0800 
 51 H        0.4230    -3.6610     1.7300 H     1 <1>   0.0800 
 52 H        1.9220    -4.5500     1.9160 H     1 <1>   0.0800 
 53 H        0.4090    -5.3000     2.3560 H     1 <1>   0.0800 
 54 H       -0.6160    -8.8600    -1.8050 H     1 <1>   0.0800 
 55 H       -1.0010    -9.6890    -0.3160 H     1 <1>   0.0800 
 56 H        0.2100   -10.3470    -1.3830 H     1 <1>   0.0800 
@<TRIPOS>BOND
  1   1   2  1   
  2   2   3  ar  
  3   2   4  ar  
  4   3   5  ar  
  5   3  27  1   
  6   4   6  ar  
  7   4  28  1   
  8   5   7  ar  
  9   5  29  1   
 10   6   7  ar  
 11   6  30  1   
 12   7   8  1   
 13   8   9  1   
 14   8  10  1   
 15   8  31  1   
 16   9  11  2   
 17   9  12  am  
 18  10  13  1   
 19  10  14  1   
 20  10  32  1   
 21  12  15  1   
 22  12  16  1   
 23  13  33  1   
 24  13  34  1   
 25  13  35  1   
 26  14  36  1   
 27  14  37  1   
 28  14  38  1   
 29  15  17  1   
 30  15  39  1   
 31  15  40  1   
 32  16  18  1   
 33  16  41  1   
 34  16  42  1   
 35  17  19  1   
 36  17  20  2   
 37  18  21  1   
 38  18  43  1   
 39  18  44  1   
 40  19  22  1   
 41  19  45  1   
 42  20  23  1   
 43  20  46  1   
 44  21  24  1   
 45  21  25  1   
 46  21  47  1   
 47  22  23  2   
 48  22  26  1   
 49  24  48  1   
 50  24  49  1   
 51  24  50  1   
 52  25  51  1   
 53  25  52  1   
 54  25  53  1   
 55  26  54  1   
 56  26  55  1   
 57  26  56  1   
@<TRIPOS>SUBSTRUCTURE
  1 ****  12 GROUP 4 **** **** 0

# MOE 2024.06 (io_trps.svl 2023.06)
