@<TRIPOS>MOLECULE
NONAME
53 56 1 0 0 
SMALL
USER_CHARGES


@<TRIPOS>ATOM
  1 O       -0.6890     2.5900    -3.5190 O.2   1 <1>  -0.5700 
  2 C       -1.3450     2.6700    -2.4970 C.2   1 <1>   0.5440 
  3 N       -2.0520     1.5440    -2.1010 N.am  1 <1>  -0.6600 
  4 C       -1.3340     3.9160    -1.7380 C.ar  1 <1>   0.3960 
  5 C       -1.6260     0.1780    -2.5280 C.3   1 <1>   0.1400 
  6 C       -3.0140     1.5220    -0.9600 C.3   1 <1>   0.1400 
  7 N       -1.2090     3.8780    -0.4000 N.ar  1 <1>  -0.6200 
  8 C       -1.4510     5.1200    -2.4360 C.ar  1 <1>   0.1600 
  9 C       -0.9870    -0.5580    -1.3320 C.3   1 <1>   0.3430 
 10 C       -2.3590     0.8230     0.2460 C.3   1 <1>   0.3430 
 11 C       -1.2440     5.0710     0.1650 C.ar  1 <1>   0.4100 
 12 N       -1.4850     6.3240    -1.8840 N.ar  1 <1>  -0.6200 
 13 N       -1.8780    -0.5670    -0.1090 N.4   1 <1>  -0.9590 
 14 N       -1.1100     5.0620     1.5400 N.pl3 1 <1>  -0.8380 
 15 C       -1.3810     6.2600    -0.5730 C.ar  1 <1>   0.1600 
 16 C       -1.1790    -1.1950     1.0520 C.3   1 <1>   0.2630 
 17 C        0.2940     5.0170     2.0380 C.3   1 <1>   0.3890 
 18 C       -2.0390     5.8910     2.3610 C.3   1 <1>   0.1290 
 19 C        1.0350     6.2840     1.6480 C.2   1 <1>  -0.0400 
 20 O        0.8650     7.3780     2.3370 O.3   1 <1>  -0.0190 
 21 C        1.8890     6.5570     0.6540 C.2   1 <1>  -0.1500 
 22 N        1.5530     8.3680     1.8560 N.2   1 <1>  -0.4100 
 23 C        2.1910     7.9150     0.8210 C.2   1 <1>   0.2350 
 24 C        3.0700     8.6970    -0.0220 C.ar  1 <1>   0.0540 
 25 C        3.2830     8.3710    -1.3620 C.ar  1 <1>   0.1600 
 26 C        3.7390     9.8100     0.4660 C.ar  1 <1>  -0.1500 
 27 N        4.0780     9.0150    -2.2030 N.ar  1 <1>  -0.6200 
 28 C        4.5680    10.5000    -0.3910 C.ar  1 <1>  -0.1500 
 29 C        4.7030    10.0660    -1.6980 C.ar  1 <1>   0.1600 
 30 H       -0.9110     0.2320    -3.3320 H     1 <1>   0.0800 
 31 H       -2.4790    -0.3690    -2.8900 H     1 <1>   0.0800 
 32 H       -3.9030     0.9910    -1.2520 H     1 <1>   0.0800 
 33 H       -3.3170     2.5180    -0.6880 H     1 <1>   0.0800 
 34 H       -1.5230     5.0760    -3.5100 H     1 <1>   0.1500 
 35 H       -0.0590    -0.0640    -1.0970 H     1 <1>   0.0800 
 36 H       -0.7550    -1.5690    -1.6250 H     1 <1>   0.0800 
 37 H       -3.0690     0.7720     1.0540 H     1 <1>   0.0800 
 38 H       -1.5290     1.4280     0.5740 H     1 <1>   0.0800 
 39 H       -2.7080    -1.1310    -0.3380 H     1 <1>   0.4500 
 40 H       -1.3870     7.1880    -0.0300 H     1 <1>   0.1500 
 41 H       -0.3030    -0.6230     1.3150 H     1 <1>   0.0800 
 42 H       -0.8740    -2.2000     0.8080 H     1 <1>   0.0800 
 43 H       -1.8330    -1.2340     1.9080 H     1 <1>   0.0800 
 44 H        0.7910     4.1690     1.5990 H     1 <1>   0.0800 
 45 H        0.3070     4.8960     3.1080 H     1 <1>   0.0800 
 46 H       -3.0190     5.8960     1.9160 H     1 <1>   0.0800 
 47 H       -1.6840     6.9060     2.4280 H     1 <1>   0.0800 
 48 H       -2.1160     5.4820     3.3530 H     1 <1>   0.0800 
 49 H        2.2690     5.9100    -0.1140 H     1 <1>   0.1500 
 50 H        2.7580     7.5250    -1.7690 H     1 <1>   0.1500 
 51 H        3.6110    10.1210     1.4890 H     1 <1>   0.1500 
 52 H        5.1060    11.3670    -0.0530 H     1 <1>   0.1500 
 53 H        5.3540    10.6100    -2.3620 H     1 <1>   0.1500 
@<TRIPOS>BOND
  1   1   2  2   
  2   2   3  am  
  3   2   4  1   
  4   3   5  1   
  5   3   6  1   
  6   4   7  ar  
  7   4   8  ar  
  8   5   9  1   
  9   5  30  1   
 10   5  31  1   
 11   6  10  1   
 12   6  32  1   
 13   6  33  1   
 14   7  11  ar  
 15   8  12  ar  
 16   8  34  1   
 17   9  13  1   
 18   9  35  1   
 19   9  36  1   
 20  10  13  1   
 21  10  37  1   
 22  10  38  1   
 23  11  14  1   
 24  11  15  ar  
 25  12  15  ar  
 26  13  16  1   
 27  13  39  1   
 28  14  17  1   
 29  14  18  1   
 30  15  40  1   
 31  16  41  1   
 32  16  42  1   
 33  16  43  1   
 34  17  19  1   
 35  17  44  1   
 36  17  45  1   
 37  18  46  1   
 38  18  47  1   
 39  18  48  1   
 40  19  20  1   
 41  19  21  2   
 42  20  22  1   
 43  21  23  1   
 44  21  49  1   
 45  22  23  2   
 46  23  24  1   
 47  24  25  ar  
 48  24  26  ar  
 49  25  27  ar  
 50  25  50  1   
 51  26  28  ar  
 52  26  51  1   
 53  27  29  ar  
 54  28  29  ar  
 55  28  52  1   
 56  29  53  1   
@<TRIPOS>SUBSTRUCTURE
  1 ****  11 GROUP 4 **** **** 0

# MOE 2024.06 (io_trps.svl 2023.06)
