@<TRIPOS>MOLECULE
NONAME
49 53 1 0 0 
SMALL
USER_CHARGES


@<TRIPOS>ATOM
  1 O        0.2960     1.7590     0.8160 O.2   1 <1>  -0.5700 
  2 C       -0.4520     2.2640    -0.0030 C.2   1 <1>   0.7150 
  3 N       -1.7780     1.8930    -0.0080 N.am  1 <1>  -0.6600 
  4 C        0.0830     3.2480    -0.9070 C.2   1 <1>  -0.2370 
  5 C       -2.8880     2.8310    -0.3630 C.3   1 <1>   0.1400 
  6 C       -2.2270     0.6030     0.5840 C.3   1 <1>   0.1400 
  7 N        1.2540     3.8920    -0.6200 N.pl3 1 <1>   0.0330 
  8 C       -0.3480     3.7190    -2.1240 C.2   1 <1>  -0.1500 
  9 C       -3.7830     3.1240     0.8570 C.3   1 <1>   0.1440 
 10 C       -3.1080     0.8620     1.8120 C.3   1 <1>  -0.1600 
 11 C        1.5360     4.7580    -1.6220 C.2   1 <1>  -0.3020 
 12 C        0.5630     4.6750    -2.5670 C.2   1 <1>  -0.1500 
 13 C       -4.9240     4.0170     0.4060 C.ar  1 <1>   0.1670 
 14 C       -4.2800     1.8010     1.4800 C.3   1 <1>  -0.1600 
 15 C       -3.0530     4.0170     1.8980 C.3   1 <1>  -0.1600 
 16 N       -5.9440     3.6350    -0.3240 N.ar  1 <1>  -0.6200 
 17 C       -4.7600     5.2970     0.8350 C.ar  1 <1>  -0.1440 
 18 C       -3.4900     5.4680     1.6310 C.3   1 <1>  -0.0160 
 19 C       -6.8430     4.5840    -0.6170 C.ar  1 <1>   0.6200 
 20 C       -5.7210     6.2120     0.4920 C.ar  1 <1>   0.1600 
 21 N       -6.7630     5.8660    -0.2280 N.ar  1 <1>  -0.6200 
 22 C       -7.9930     4.1940    -1.4220 C.ar  1 <1>   0.0000 
 23 C       -9.2160     4.8660    -1.3290 C.ar  1 <1>  -0.1500 
 24 C       -7.9290     3.1290    -2.3260 C.ar  1 <1>  -0.1500 
 25 C      -10.3100     4.4990    -2.0910 C.ar  1 <1>  -0.1500 
 26 C       -9.0190     2.7550    -3.0910 C.ar  1 <1>  -0.1500 
 27 C      -10.2140     3.4410    -2.9760 C.ar  1 <1>  -0.1500 
 28 H       -3.4820     2.3870    -1.1430 H     1 <1>   0.0800 
 29 H       -2.5000     3.7630    -0.7310 H     1 <1>   0.0800 
 30 H       -1.3800    -0.0010     0.8630 H     1 <1>   0.0800 
 31 H       -2.7890     0.0590    -0.1570 H     1 <1>   0.0800 
 32 H        1.8140     3.7020     0.2210 H     1 <1>   0.2700 
 33 H       -1.2250     3.4130    -2.6670 H     1 <1>   0.1500 
 34 H       -2.4980     1.2850     2.5910 H     1 <1>   0.0800 
 35 H       -3.4900    -0.0760     2.1740 H     1 <1>   0.0800 
 36 H        2.4110     5.3840    -1.6180 H     1 <1>   0.1500 
 37 H        0.4930     5.2250    -3.4900 H     1 <1>   0.1500 
 38 H       -4.9290     1.3080     0.7770 H     1 <1>   0.0800 
 39 H       -4.8580     2.0020     2.3640 H     1 <1>   0.0800 
 40 H       -1.9830     3.9110     1.8580 H     1 <1>   0.0800 
 41 H       -3.3770     3.7500     2.8880 H     1 <1>   0.0800 
 42 H       -2.7550     5.9820     1.0360 H     1 <1>   0.0800 
 43 H       -3.6620     6.0040     2.5480 H     1 <1>   0.0800 
 44 H       -5.6360     7.2380     0.8100 H     1 <1>   0.1500 
 45 H       -9.3110     5.6920    -0.6450 H     1 <1>   0.1500 
 46 H       -7.0080     2.5830    -2.4310 H     1 <1>   0.1500 
 47 H      -11.2370     5.0380    -1.9960 H     1 <1>   0.1500 
 48 H       -8.9370     1.9310    -3.7770 H     1 <1>   0.1500 
 49 H      -11.0640     3.1530    -3.5700 H     1 <1>   0.1500 
@<TRIPOS>BOND
  1   1   2  2   
  2   2   3  am  
  3   2   4  1   
  4   3   5  1   
  5   3   6  1   
  6   4   7  1   
  7   4   8  2   
  8   5   9  1   
  9   5  28  1   
 10   5  29  1   
 11   6  10  1   
 12   6  30  1   
 13   6  31  1   
 14   7  11  1   
 15   7  32  1   
 16   8  12  1   
 17   8  33  1   
 18   9  13  1   
 19   9  14  1   
 20   9  15  1   
 21  10  14  1   
 22  10  34  1   
 23  10  35  1   
 24  11  12  2   
 25  11  36  1   
 26  12  37  1   
 27  13  16  ar  
 28  13  17  ar  
 29  14  38  1   
 30  14  39  1   
 31  15  18  1   
 32  15  40  1   
 33  15  41  1   
 34  16  19  ar  
 35  17  18  1   
 36  17  20  ar  
 37  18  42  1   
 38  18  43  1   
 39  19  21  ar  
 40  19  22  1   
 41  20  21  ar  
 42  20  44  1   
 43  22  23  ar  
 44  22  24  ar  
 45  23  25  ar  
 46  23  45  1   
 47  24  26  ar  
 48  24  46  1   
 49  25  27  ar  
 50  25  47  1   
 51  26  27  ar  
 52  26  48  1   
 53  27  49  1   
@<TRIPOS>SUBSTRUCTURE
  1 ****  13 GROUP 4 **** **** 0

# MOE 2024.06 (io_trps.svl 2023.06)
