@<TRIPOS>MOLECULE
NONAME
41 42 1 0 0 
SMALL
USER_CHARGES


@<TRIPOS>ATOM
  1 O        3.4680    -0.8310     1.0030 O.2   1 <1>  -0.5700 
  2 C        2.3120    -1.1730     1.0720 C.2   1 <1>   0.5690 
  3 N        1.2400    -0.3270     1.0160 N.am  1 <1>  -0.5470 
  4 C        1.9820    -2.6590     1.2160 C.3   1 <1>   0.1710 
  5 C        1.1080     1.0590     0.8560 C.ar  1 <1>   0.1170 
  6 N        0.6730    -3.0230     0.5950 N.3   1 <1>  -0.8100 
  7 C        2.1900     1.9320     0.7930 C.ar  1 <1>  -0.1500 
  8 C       -0.1730     1.5900     0.7510 C.ar  1 <1>  -0.1500 
  9 C        0.1440    -4.2930     1.1530 C.3   1 <1>   0.2900 
 10 C        0.7510    -3.0170    -0.8820 C.3   1 <1>   0.1100 
 11 C        1.9980     3.2920     0.6270 C.ar  1 <1>  -0.1500 
 12 C       -0.3710     2.9490     0.5850 C.ar  1 <1>  -0.1500 
 13 C       -1.3530    -4.4730     0.9150 C.2   1 <1>   0.0070 
 14 C       -0.4870    -2.3550    -1.4980 C.3   1 <1>   0.1200 
 15 C        0.7160     3.8030     0.5220 C.ar  1 <1>  -0.1500 
 16 N       -2.2470    -3.9700     1.7090 N.2   1 <1>  -0.5650 
 17 N       -1.8860    -5.1790    -0.1180 N.pl3 1 <1>   0.0480 
 18 O       -0.4540    -2.5440    -2.8730 O.3   1 <1>  -0.6800 
 19 C       -3.4160    -4.3520     1.1690 C.2   1 <1>   0.0770 
 20 C       -3.2160    -5.0880     0.0560 C.2   1 <1>  -0.3020 
 21 C       -1.2320    -5.8870    -1.2350 C.3   1 <1>   0.0160 
 22 H        0.3610    -0.8560     1.0440 H     1 <1>   0.3700 
 23 H        1.9550    -2.8690     2.2700 H     1 <1>   0.0800 
 24 H        2.7750    -3.2420     0.7800 H     1 <1>   0.0800 
 25 H        3.1930     1.5550     0.8750 H     1 <1>   0.1500 
 26 H       -1.0250     0.9360     0.8020 H     1 <1>   0.1500 
 27 H        0.2810    -4.2860     2.2210 H     1 <1>   0.0800 
 28 H        0.6950    -5.1310     0.7650 H     1 <1>   0.0800 
 29 H        0.8550    -4.0210    -1.2510 H     1 <1>   0.0800 
 30 H        1.6130    -2.4560    -1.2040 H     1 <1>   0.0800 
 31 H        2.8470     3.9510     0.5810 H     1 <1>   0.1500 
 32 H       -1.3690     3.3430     0.5060 H     1 <1>   0.1500 
 33 H       -0.4990    -1.2980    -1.2970 H     1 <1>   0.0800 
 34 H       -1.3940    -2.7960    -1.1290 H     1 <1>   0.0800 
 35 H        0.5670     4.8610     0.3930 H     1 <1>   0.1500 
 36 H        0.1980    -1.9440    -3.2860 H     1 <1>   0.4000 
 37 H       -4.3550    -4.0720     1.6160 H     1 <1>   0.1500 
 38 H       -3.9340    -5.5380    -0.6040 H     1 <1>   0.1500 
 39 H       -0.2700    -6.2510    -0.9280 H     1 <1>   0.0800 
 40 H       -1.1190    -5.2120    -2.0640 H     1 <1>   0.0800 
 41 H       -1.8440    -6.7180    -1.5350 H     1 <1>   0.0800 
@<TRIPOS>BOND
  1   1   2  2   
  2   2   3  am  
  3   2   4  1   
  4   3   5  1   
  5   3  22  1   
  6   4   6  1   
  7   4  23  1   
  8   4  24  1   
  9   5   7  ar  
 10   5   8  ar  
 11   6   9  1   
 12   6  10  1   
 13   7  11  ar  
 14   7  25  1   
 15   8  12  ar  
 16   8  26  1   
 17   9  13  1   
 18   9  27  1   
 19   9  28  1   
 20  10  14  1   
 21  10  29  1   
 22  10  30  1   
 23  11  15  ar  
 24  11  31  1   
 25  12  15  ar  
 26  12  32  1   
 27  13  16  2   
 28  13  17  1   
 29  14  18  1   
 30  14  33  1   
 31  14  34  1   
 32  15  35  1   
 33  16  19  1   
 34  17  20  1   
 35  17  21  1   
 36  18  36  1   
 37  19  20  2   
 38  19  37  1   
 39  20  38  1   
 40  21  39  1   
 41  21  40  1   
 42  21  41  1   
@<TRIPOS>SUBSTRUCTURE
  1 ****   6 GROUP 4 **** **** 0

# MOE 2024.06 (io_trps.svl 2023.06)
