@<TRIPOS>MOLECULE
NONAME
44 47 1 0 0 
SMALL
USER_CHARGES


@<TRIPOS>ATOM
  1 O       -1.2450     0.4680     2.7360 O.2   1 <1>  -0.5700 
  2 C       -1.6730     0.9950     1.7280 C.2   1 <1>   0.5440 
  3 N       -2.5130     0.2710     0.9160 N.am  1 <1>  -0.6600 
  4 C       -1.3200     2.3600     1.4110 C.ar  1 <1>   0.0860 
  5 C       -3.3850     0.8410    -0.1430 C.3   1 <1>   0.1400 
  6 C       -2.8450    -1.1530     1.1570 C.3   1 <1>   0.1400 
  7 C       -0.5600     2.6670     0.2480 C.ar  1 <1>   0.0000 
  8 C       -1.7360     3.3860     2.2330 C.ar  1 <1>  -0.1500 
  9 C       -4.5130    -0.1800    -0.2900 C.3   1 <1>   0.2000 
 10 C       -3.8670    -1.5220     0.0710 C.3   1 <1>  -0.0800 
 11 C       -0.3100     4.0200    -0.0760 C.ar  1 <1>   0.3100 
 12 C       -0.0200     1.6900    -0.6140 C.ar  1 <1>  -0.1500 
 13 C       -1.4670     4.7190     1.9280 C.ar  1 <1>  -0.1500 
 14 O       -5.4800     0.0980     0.6620 O.3   1 <1>  -0.6800 
 15 C       -3.1820    -2.1460    -1.1590 C.3   1 <1>   0.0200 
 16 N        0.3660     4.4010    -1.1890 N.ar  1 <1>  -0.6200 
 17 C       -0.7730     5.0220     0.7890 C.ar  1 <1>  -0.1500 
 18 C        0.6710     2.0980    -1.7140 C.ar  1 <1>  -0.1500 
 19 C       -2.5740    -3.5090    -0.8820 C.2   1 <1>  -0.0400 
 20 C        0.8310     3.4670    -1.9590 C.ar  1 <1>   0.1600 
 21 O       -1.8350    -4.0640    -1.8050 O.3   1 <1>  -0.0190 
 22 C       -2.6160    -4.3490     0.1650 C.2   1 <1>  -0.1500 
 23 N       -1.3780    -5.2240    -1.4330 N.2   1 <1>  -0.4100 
 24 C       -1.8320    -5.4220    -0.2480 C.2   1 <1>   0.1080 
 25 C       -1.5480    -6.6580     0.5760 C.3   1 <1>  -0.0590 
 26 H       -3.7610     1.8140     0.1220 H     1 <1>   0.0800 
 27 H       -2.8260     0.9080    -1.0600 H     1 <1>   0.0800 
 28 H       -1.9540    -1.7570     1.1140 H     1 <1>   0.0800 
 29 H       -3.2830    -1.2490     2.1360 H     1 <1>   0.0800 
 30 H       -2.2860     3.1580     3.1310 H     1 <1>   0.1500 
 31 H       -4.9810    -0.1640    -1.2600 H     1 <1>   0.0800 
 32 H       -4.6030    -2.2130     0.4430 H     1 <1>   0.0800 
 33 H       -0.1460     0.6430    -0.4000 H     1 <1>   0.1500 
 34 H       -1.8090     5.4960     2.5900 H     1 <1>   0.1500 
 35 H       -5.0480     0.2110     1.5320 H     1 <1>   0.4000 
 36 H       -2.4020    -1.4950    -1.5140 H     1 <1>   0.0800 
 37 H       -3.9010    -2.2600    -1.9520 H     1 <1>   0.0800 
 38 H       -0.5580     6.0420     0.5260 H     1 <1>   0.1500 
 39 H        1.1020     1.3910    -2.4010 H     1 <1>   0.1500 
 40 H        1.3760     3.7610    -2.8410 H     1 <1>   0.1500 
 41 H       -3.1170    -4.2600     1.1110 H     1 <1>   0.1500 
 42 H       -1.0600    -6.3820     1.4920 H     1 <1>   0.0800 
 43 H       -0.9080    -7.3250     0.0270 H     1 <1>   0.0800 
 44 H       -2.4680    -7.1660     0.8010 H     1 <1>   0.0800 
@<TRIPOS>BOND
  1   1   2  2   
  2   2   3  am  
  3   2   4  1   
  4   3   5  1   
  5   3   6  1   
  6   4   7  ar  
  7   4   8  ar  
  8   5   9  1   
  9   5  26  1   
 10   5  27  1   
 11   6  10  1   
 12   6  28  1   
 13   6  29  1   
 14   7  11  ar  
 15   7  12  ar  
 16   8  13  ar  
 17   8  30  1   
 18   9  10  1   
 19   9  14  1   
 20   9  31  1   
 21  10  15  1   
 22  10  32  1   
 23  11  16  ar  
 24  11  17  ar  
 25  12  18  ar  
 26  12  33  1   
 27  13  17  ar  
 28  13  34  1   
 29  14  35  1   
 30  15  19  1   
 31  15  36  1   
 32  15  37  1   
 33  16  20  ar  
 34  17  38  1   
 35  18  20  ar  
 36  18  39  1   
 37  19  21  1   
 38  19  22  2   
 39  20  40  1   
 40  21  23  1   
 41  22  24  1   
 42  22  41  1   
 43  23  24  2   
 44  24  25  1   
 45  25  42  1   
 46  25  43  1   
 47  25  44  1   
@<TRIPOS>SUBSTRUCTURE
  1 ****   3 GROUP 4 **** **** 0

# MOE 2024.06 (io_trps.svl 2023.06)
