@<TRIPOS>MOLECULE
NONAME
42 44 1 0 0 
SMALL
USER_CHARGES


@<TRIPOS>ATOM
  1 S       -0.1780    -0.5370    -1.3810 S.3   1 <1>  -0.0800 
  2 C        0.8580    -1.6740    -0.5600 C.2   1 <1>  -0.1400 
  3 C        1.0460     0.6920    -1.1680 C.2   1 <1>   0.1980 
  4 C        1.9960    -1.0480    -0.2190 C.2   1 <1>   0.0460 
  5 C        0.3700    -3.0910    -0.3790 C.3   1 <1>   0.5230 
  6 N        2.0850     0.2870    -0.5600 N.2   1 <1>  -0.5650 
  7 C        0.7590     2.0720    -1.7110 C.3   1 <1>  -0.0600 
  8 C        3.2030    -1.6230     0.4930 C.3   1 <1>  -0.0590 
  9 N       -0.5640    -3.1340     0.7850 N.4   1 <1>  -0.9590 
 10 C       -1.9320    -2.6120     0.4460 C.3   1 <1>   0.3430 
 11 C       -0.7340    -4.5320     1.2780 C.3   1 <1>   0.3430 
 12 C       -2.9290    -3.7110     0.8440 C.3   1 <1>   0.2000 
 13 C       -2.1090    -4.9970     0.7890 C.3   1 <1>  -0.0800 
 14 O       -3.3640    -3.5090     2.1480 O.3   1 <1>  -0.6800 
 15 C       -2.0980    -5.5710    -0.6490 C.3   1 <1>  -0.0160 
 16 C       -0.9740    -6.5660    -0.8940 C.ar  1 <1>   0.1670 
 17 N        0.2100    -6.0470    -1.1940 N.ar  1 <1>  -0.6200 
 18 C       -1.2190    -7.9350    -0.8070 C.ar  1 <1>   0.1600 
 19 C        1.1160    -6.9890    -1.4210 C.ar  1 <1>   0.1600 
 20 N       -0.3070    -8.8680    -1.0100 N.ar  1 <1>  -0.6200 
 21 C        0.8660    -8.3530    -1.3300 C.ar  1 <1>   0.1600 
 22 H        1.2170    -3.7270    -0.1860 H     1 <1>   0.0800 
 23 H       -0.1120    -3.4430    -1.2770 H     1 <1>   0.0800 
 24 H        1.5940     2.7200    -1.5130 H     1 <1>   0.0800 
 25 H       -0.1170     2.4780    -1.2390 H     1 <1>   0.0800 
 26 H        0.6020     2.0220    -2.7730 H     1 <1>   0.0800 
 27 H        3.0660    -2.6610     0.7280 H     1 <1>   0.0800 
 28 H        3.3790    -1.0770     1.4030 H     1 <1>   0.0800 
 29 H        4.0700    -1.5210    -0.1350 H     1 <1>   0.0800 
 30 H       -0.1420    -2.5410     1.5130 H     1 <1>   0.4500 
 31 H       -2.1510    -1.6900     0.9590 H     1 <1>   0.0800 
 32 H       -2.0040    -2.4450    -0.6160 H     1 <1>   0.0800 
 33 H        0.0620    -5.1800     0.9520 H     1 <1>   0.0800 
 34 H       -0.7380    -4.5270     2.3560 H     1 <1>   0.0800 
 35 H       -3.7990    -3.7260     0.2080 H     1 <1>   0.0800 
 36 H       -2.5070    -5.7480     1.4510 H     1 <1>   0.0800 
 37 H       -2.6420    -3.4660     2.8030 H     1 <1>   0.4000 
 38 H       -2.0010    -4.7840    -1.3760 H     1 <1>   0.0800 
 39 H       -3.0440    -6.0490    -0.8410 H     1 <1>   0.0800 
 40 H       -2.2090    -8.2790    -0.5590 H     1 <1>   0.1500 
 41 H        2.1080    -6.6730    -1.6940 H     1 <1>   0.1500 
 42 H        1.6670    -9.0440    -1.5300 H     1 <1>   0.1500 
@<TRIPOS>BOND
  1   1   2  1   
  2   1   3  1   
  3   2   4  2   
  4   2   5  1   
  5   3   6  2   
  6   3   7  1   
  7   4   6  1   
  8   4   8  1   
  9   5   9  1   
 10   5  22  1   
 11   5  23  1   
 12   7  24  1   
 13   7  25  1   
 14   7  26  1   
 15   8  27  1   
 16   8  28  1   
 17   8  29  1   
 18   9  10  1   
 19   9  11  1   
 20   9  30  1   
 21  10  12  1   
 22  10  31  1   
 23  10  32  1   
 24  11  13  1   
 25  11  33  1   
 26  11  34  1   
 27  12  13  1   
 28  12  14  1   
 29  12  35  1   
 30  13  15  1   
 31  13  36  1   
 32  14  37  1   
 33  15  16  1   
 34  15  38  1   
 35  15  39  1   
 36  16  17  ar  
 37  16  18  ar  
 38  17  19  ar  
 39  18  20  ar  
 40  18  40  1   
 41  19  21  ar  
 42  19  41  1   
 43  20  21  ar  
 44  21  42  1   
@<TRIPOS>SUBSTRUCTURE
  1 ****   5 GROUP 4 **** **** 0

# MOE 2024.06 (io_trps.svl 2023.06)
