@<TRIPOS>MOLECULE
NONAME
47 49 1 0 0 
SMALL
USER_CHARGES


@<TRIPOS>ATOM
  1 CL      -1.0720    -1.3210    -2.4500 Cl    1 <1>  -0.1770 
  2 C       -1.9480    -1.6480    -0.9720 C.ar  1 <1>   0.1770 
  3 C       -2.4950    -0.6180    -0.2140 C.ar  1 <1>   0.0820 
  4 C       -2.0970    -2.9670    -0.5870 C.ar  1 <1>  -0.1500 
  5 O       -2.3860     0.6800    -0.5720 O.3   1 <1>  -0.3630 
  6 C       -3.2020    -0.9280     0.9360 C.ar  1 <1>  -0.1500 
  7 C       -2.8130    -3.2750     0.5620 C.ar  1 <1>  -0.1430 
  8 C       -1.1440     1.3070    -0.3340 C.3   1 <1>   0.0400 
  9 C       -3.3580    -2.2480     1.3250 C.ar  1 <1>  -0.1500 
 10 C       -3.0040    -4.7240     0.9630 C.3   1 <1>   0.4870 
 11 N       -4.0570    -5.2970     0.0850 N.4   1 <1>  -0.9590 
 12 C       -4.0360    -6.7950     0.1210 C.3   1 <1>   0.5660 
 13 C       -5.4200    -4.7520     0.3970 C.3   1 <1>   0.3430 
 14 C       -2.7160    -7.2500    -0.4870 C.ar  1 <1>  -0.1430 
 15 C       -5.2440    -7.4500    -0.6030 C.3   1 <1>   0.2000 
 16 C       -6.5080    -5.4470    -0.4390 C.3   1 <1>   0.1200 
 17 C       -1.8520    -8.0200     0.2780 C.ar  1 <1>  -0.1500 
 18 C       -2.3500    -6.9040    -1.7840 C.ar  1 <1>  -0.1500 
 19 O       -6.4540    -6.8280    -0.2380 O.3   1 <1>  -0.5600 
 20 C       -5.3350    -8.9420    -0.2450 C.3   1 <1>   0.1200 
 21 C       -0.6350    -8.4280    -0.2370 C.ar  1 <1>  -0.1500 
 22 C       -1.1310    -7.3120    -2.2970 C.ar  1 <1>  -0.1500 
 23 O       -5.1980    -9.1160     1.1300 O.3   1 <1>  -0.6800 
 24 C       -0.2730    -8.0710    -1.5230 C.ar  1 <1>  -0.1500 
 25 H       -1.6470    -3.7330    -1.1960 H     1 <1>   0.1500 
 26 H       -3.6270    -0.1280     1.5190 H     1 <1>   0.1500 
 27 H       -1.2260     2.3360    -0.6340 H     1 <1>   0.0800 
 28 H       -0.3800     0.8180    -0.9120 H     1 <1>   0.0800 
 29 H       -0.9180     1.2460     0.7150 H     1 <1>   0.0800 
 30 H       -3.9070    -2.4580     2.2280 H     1 <1>   0.1500 
 31 H       -3.2920    -4.7980     1.9990 H     1 <1>   0.0800 
 32 H       -2.0720    -5.2510     0.8260 H     1 <1>   0.0800 
 33 H       -3.8100    -5.0260    -0.8700 H     1 <1>   0.4500 
 34 H       -4.0680    -7.1150     1.1490 H     1 <1>   0.0800 
 35 H       -5.6460    -4.9040     1.4400 H     1 <1>   0.0800 
 36 H       -5.4450    -3.6910     0.2020 H     1 <1>   0.0800 
 37 H       -5.1420    -7.3550    -1.6690 H     1 <1>   0.0800 
 38 H       -6.3920    -5.2400    -1.4890 H     1 <1>   0.0800 
 39 H       -7.4830    -5.1120    -0.1280 H     1 <1>   0.0800 
 40 H       -2.1170    -8.3180     1.2810 H     1 <1>   0.1500 
 41 H       -2.9970    -6.3220    -2.4180 H     1 <1>   0.1500 
 42 H       -4.5470    -9.4970    -0.7270 H     1 <1>   0.0800 
 43 H       -6.2870    -9.3400    -0.5550 H     1 <1>   0.0800 
 44 H        0.0340    -9.0260     0.3600 H     1 <1>   0.1500 
 45 H       -0.8460    -7.0440    -3.3010 H     1 <1>   0.1500 
 46 H       -5.4940   -10.0130     1.3950 H     1 <1>   0.4000 
 47 H        0.6750    -8.3900    -1.9230 H     1 <1>   0.1500 
@<TRIPOS>BOND
  1   1   2  1   
  2   2   3  ar  
  3   2   4  ar  
  4   3   5  1   
  5   3   6  ar  
  6   4   7  ar  
  7   4  25  1   
  8   5   8  1   
  9   6   9  ar  
 10   6  26  1   
 11   7   9  ar  
 12   7  10  1   
 13   8  27  1   
 14   8  28  1   
 15   8  29  1   
 16   9  30  1   
 17  10  11  1   
 18  10  31  1   
 19  10  32  1   
 20  11  12  1   
 21  11  13  1   
 22  11  33  1   
 23  12  14  1   
 24  12  15  1   
 25  12  34  1   
 26  13  16  1   
 27  13  35  1   
 28  13  36  1   
 29  14  17  ar  
 30  14  18  ar  
 31  15  19  1   
 32  15  20  1   
 33  15  37  1   
 34  16  19  1   
 35  16  38  1   
 36  16  39  1   
 37  17  21  ar  
 38  17  40  1   
 39  18  22  ar  
 40  18  41  1   
 41  20  23  1   
 42  20  42  1   
 43  20  43  1   
 44  21  24  ar  
 45  21  44  1   
 46  22  24  ar  
 47  22  45  1   
 48  23  46  1   
 49  24  47  1   
@<TRIPOS>SUBSTRUCTURE
  1 ****  11 GROUP 4 **** **** 0

# MOE 2024.06 (io_trps.svl 2023.06)
