@<TRIPOS>MOLECULE
NONAME
39 42 1 0 0 
SMALL
USER_CHARGES


@<TRIPOS>ATOM
  1 O        2.9630     0.5880    -1.9410 O.2   1 <1>  -0.5700 
  2 C        2.7990    -0.3490    -1.1730 C.2   1 <1>   0.5650 
  3 N        2.8380    -0.2020     0.2370 N.pl3 1 <1>   0.5610 
  4 C        2.5550    -1.6630    -1.6790 C.2   1 <1>  -0.1360 
  5 N        3.0190     0.8660     1.0520 N.2   1 <1>  -0.7070 
  6 C        2.6400    -1.2780     1.0390 C.2   1 <1>   0.2700 
  7 C        2.3730    -2.7320    -0.8580 C.2   1 <1>  -0.0380 
  8 C        2.9160     0.3440     2.2270 C.2   1 <1>   0.3660 
  9 N        2.6800    -0.9760     2.2870 N.2   1 <1>  -0.5650 
 10 N        2.4190    -2.5370     0.5030 N.pl3 1 <1>  -0.5840 
 11 C        2.1250    -4.1580    -1.3490 C.3   1 <1>   0.2480 
 12 N        1.1370    -4.8540    -0.5030 N.3   1 <1>  -0.8100 
 13 C        1.1210    -6.3060    -0.8070 C.3   1 <1>   0.1100 
 14 C       -0.2270    -4.2930    -0.6700 C.3   1 <1>   0.1100 
 15 C        0.0970    -7.0780     0.0470 C.3   1 <1>   0.2090 
 16 C       -1.2740    -5.0310     0.1900 C.3   1 <1>   0.2090 
 17 N       -1.2720    -6.4950    -0.1010 N.pl3 1 <1>  -0.8380 
 18 C       -2.3720    -7.2470     0.2940 C.ar  1 <1>   0.4100 
 19 N       -2.1620    -8.2010     1.1950 N.ar  1 <1>  -0.6200 
 20 C       -3.6480    -6.9960    -0.2420 C.ar  1 <1>   0.1600 
 21 C       -3.2680    -8.8490     1.5170 C.ar  1 <1>   0.1600 
 22 N       -4.7560    -7.6370     0.0820 N.ar  1 <1>  -0.6200 
 23 C       -4.5210    -8.5780     0.9850 C.ar  1 <1>   0.1600 
 24 H        2.5300    -1.7540    -2.7490 H     1 <1>   0.1500 
 25 H        3.0100     0.9200     3.1350 H     1 <1>   0.1500 
 26 H        2.1980    -3.3220     1.1340 H     1 <1>   0.4000 
 27 H        3.0600    -4.6890    -1.2960 H     1 <1>   0.0800 
 28 H        1.7990    -4.1540    -2.3750 H     1 <1>   0.0800 
 29 H        2.0970    -6.7190    -0.6220 H     1 <1>   0.0800 
 30 H        0.8830    -6.4600    -1.8450 H     1 <1>   0.0800 
 31 H       -0.5250    -4.3580    -1.7020 H     1 <1>   0.0800 
 32 H       -0.2260    -3.2550    -0.3870 H     1 <1>   0.0800 
 33 H        0.3920    -7.0410     1.0810 H     1 <1>   0.0800 
 34 H        0.0820    -8.1100    -0.2600 H     1 <1>   0.0800 
 35 H       -2.2480    -4.6180    -0.0040 H     1 <1>   0.0800 
 36 H       -1.0480    -4.8770     1.2310 H     1 <1>   0.0800 
 37 H       -3.7240    -6.2200    -0.9790 H     1 <1>   0.1500 
 38 H       -3.1780    -9.6360     2.2440 H     1 <1>   0.1500 
 39 H       -5.3630    -9.1610     1.3140 H     1 <1>   0.1500 
@<TRIPOS>BOND
  1   1   2  2   
  2   2   3  1   
  3   2   4  1   
  4   3   5  1   
  5   3   6  1   
  6   4   7  2   
  7   4  24  1   
  8   5   8  2   
  9   6   9  2   
 10   6  10  1   
 11   7  10  1   
 12   7  11  1   
 13   8   9  1   
 14   8  25  1   
 15  10  26  1   
 16  11  12  1   
 17  11  27  1   
 18  11  28  1   
 19  12  13  1   
 20  12  14  1   
 21  13  15  1   
 22  13  29  1   
 23  13  30  1   
 24  14  16  1   
 25  14  31  1   
 26  14  32  1   
 27  15  17  1   
 28  15  33  1   
 29  15  34  1   
 30  16  17  1   
 31  16  35  1   
 32  16  36  1   
 33  17  18  1   
 34  18  19  ar  
 35  18  20  ar  
 36  19  21  ar  
 37  20  22  ar  
 38  20  37  1   
 39  21  23  ar  
 40  21  38  1   
 41  22  23  ar  
 42  23  39  1   
@<TRIPOS>SUBSTRUCTURE
  1 ****  14 GROUP 4 **** **** 0

# MOE 2024.06 (io_trps.svl 2023.06)
