@<TRIPOS>MOLECULE
NONAME
52 54 1 0 0 
SMALL
USER_CHARGES


@<TRIPOS>ATOM
  1 O        0.9010    -0.1900    -0.9890 O.2   1 <1>  -0.5700 
  2 C        1.7830    -0.6410    -0.2900 C.2   1 <1>   0.5690 
  3 N        2.7960     0.1530     0.2020 N.am  1 <1>  -0.6600 
  4 C        1.6660    -2.1550     0.0280 C.3   1 <1>   0.4840 
  5 C        3.9160    -0.3510     1.0630 C.3   1 <1>   0.1400 
  6 C        2.7610     1.6330    -0.0510 C.3   1 <1>   0.1400 
  7 N        0.2650    -2.6740    -0.1270 N.4   1 <1>  -0.9590 
  8 C        2.4630    -3.0300    -0.9340 C.3   1 <1>  -0.1600 
  9 C        5.1660    -0.6780     0.2320 C.3   1 <1>   0.1400 
 10 C        4.1280     2.2870    -0.3000 C.3   1 <1>  -0.1600 
 11 C        0.3130    -4.1080    -0.5150 C.3   1 <1>   0.3430 
 12 C       -0.6150    -2.3780     1.0400 C.3   1 <1>   0.2630 
 13 C        1.7600    -4.3860    -0.9100 C.3   1 <1>  -0.1600 
 14 N        5.8750     0.5580    -0.2070 N.am  1 <1>  -0.6600 
 15 C        5.1020     1.4410    -1.1240 C.3   1 <1>   0.1400 
 16 C        7.1240     0.8550     0.2850 C.2   1 <1>   0.5690 
 17 O        7.6790     0.1230     1.0700 O.2   1 <1>  -0.5700 
 18 C        7.8330     2.1350    -0.1360 C.3   1 <1>  -0.0990 
 19 C        9.1560     2.3860     0.6000 C.3   1 <1>   0.0210 
 20 C        9.7610     3.7000     0.1440 C.2   1 <1>  -0.1810 
 21 C        9.3420     4.9760     0.5070 C.2   1 <1>   0.1390 
 22 C       10.8010     3.9060    -0.6910 C.2   1 <1>  -0.3020 
 23 N       10.0510     5.9060    -0.0560 N.2   1 <1>  -0.7070 
 24 N       10.9580     5.2400    -0.7950 N.pl3 1 <1>   0.3000 
 25 H        1.9970    -2.3390     1.0340 H     1 <1>   0.0800 
 26 H        4.1680     0.3820     1.8110 H     1 <1>   0.0800 
 27 H        3.6110    -1.2380     1.5860 H     1 <1>   0.0800 
 28 H        2.1490     1.8290    -0.9160 H     1 <1>   0.0800 
 29 H        2.2870     2.1180     0.7860 H     1 <1>   0.0800 
 30 H       -0.0900    -2.1200    -0.9300 H     1 <1>   0.4500 
 31 H        2.4160    -2.6090    -1.9240 H     1 <1>   0.0800 
 32 H        3.4940    -3.1100    -0.6410 H     1 <1>   0.0800 
 33 H        4.9020    -1.2570    -0.6340 H     1 <1>   0.0800 
 34 H        5.8230    -1.2840     0.8320 H     1 <1>   0.0800 
 35 H        3.9470     3.2050    -0.8300 H     1 <1>   0.0800 
 36 H        4.5800     2.5620     0.6370 H     1 <1>   0.0800 
 37 H        0.0300    -4.7400     0.3130 H     1 <1>   0.0800 
 38 H       -0.3530    -4.2940    -1.3440 H     1 <1>   0.0800 
 39 H       -0.2560    -2.8830     1.9220 H     1 <1>   0.0800 
 40 H       -1.6230    -2.7060     0.8400 H     1 <1>   0.0800 
 41 H       -0.6360    -1.3160     1.2310 H     1 <1>   0.0800 
 42 H        2.2060    -5.0270    -0.1690 H     1 <1>   0.0800 
 43 H        1.8150    -4.8830    -1.8640 H     1 <1>   0.0800 
 44 H        5.7680     2.0870    -1.6670 H     1 <1>   0.0800 
 45 H        4.5700     0.8480    -1.8490 H     1 <1>   0.0800 
 46 H        8.0340     2.0820    -1.1900 H     1 <1>   0.0800 
 47 H        7.1780     2.9650     0.0460 H     1 <1>   0.0800 
 48 H        9.8440     1.5830     0.3960 H     1 <1>   0.0800 
 49 H        8.9890     2.4180     1.6630 H     1 <1>   0.0800 
 50 H        8.5240     5.1830     1.1770 H     1 <1>   0.1500 
 51 H       11.4230     3.1970    -1.2040 H     1 <1>   0.1500 
 52 H       11.6680     5.7260    -1.3570 H     1 <1>   0.2700 
@<TRIPOS>BOND
  1   1   2  2   
  2   2   3  am  
  3   2   4  1   
  4   3   5  1   
  5   3   6  1   
  6   4   7  1   
  7   4   8  1   
  8   4  25  1   
  9   5   9  1   
 10   5  26  1   
 11   5  27  1   
 12   6  10  1   
 13   6  28  1   
 14   6  29  1   
 15   7  11  1   
 16   7  12  1   
 17   7  30  1   
 18   8  13  1   
 19   8  31  1   
 20   8  32  1   
 21   9  14  1   
 22   9  33  1   
 23   9  34  1   
 24  10  15  1   
 25  10  35  1   
 26  10  36  1   
 27  11  13  1   
 28  11  37  1   
 29  11  38  1   
 30  12  39  1   
 31  12  40  1   
 32  12  41  1   
 33  13  42  1   
 34  13  43  1   
 35  14  15  1   
 36  14  16  am  
 37  15  44  1   
 38  15  45  1   
 39  16  17  2   
 40  16  18  1   
 41  18  19  1   
 42  18  46  1   
 43  18  47  1   
 44  19  20  1   
 45  19  48  1   
 46  19  49  1   
 47  20  21  1   
 48  20  22  2   
 49  21  23  2   
 50  21  50  1   
 51  22  24  1   
 52  22  51  1   
 53  23  24  1   
 54  24  52  1   
@<TRIPOS>SUBSTRUCTURE
  1 ****  14 GROUP 4 **** **** 0

# MOE 2024.06 (io_trps.svl 2023.06)
