@<TRIPOS>MOLECULE
NONAME
43 44 1 0 0 
SMALL
USER_CHARGES


@<TRIPOS>ATOM
  1 CL      -0.2500     0.2740     0.5940 Cl    1 <1>  -0.1770 
  2 C        1.2730     1.0290     0.1630 C.ar  1 <1>   0.1770 
  3 C        2.4540     0.3190    -0.0990 C.ar  1 <1>   0.0820 
  4 C        1.2490     2.4080     0.0970 C.ar  1 <1>  -0.1500 
  5 O        2.6450    -1.0250    -0.0760 O.3   1 <1>  -0.3630 
  6 C        3.5840     1.0520    -0.4280 C.ar  1 <1>  -0.1500 
  7 C        2.3870     3.1490    -0.2220 C.ar  1 <1>   0.0860 
  8 C        1.6390    -1.9820     0.1500 C.3   1 <1>   0.1200 
  9 C        3.5540     2.4320    -0.4930 C.ar  1 <1>  -0.1500 
 10 C        2.3390     4.5980    -0.2650 C.2   1 <1>   0.5440 
 11 C        2.2690    -3.3650     0.0160 C.3   1 <1>  -0.2400 
 12 O        1.3130     5.1650    -0.5710 O.2   1 <1>  -0.5700 
 13 N        3.4510     5.3260     0.0810 N.am  1 <1>  -0.4940 
 14 C        3.6850     6.6800    -0.0400 C.2   1 <1>   0.4420 
 15 S        5.1380     7.2880     0.6890 S.3   1 <1>  -0.0800 
 16 N        3.0160     7.6100    -0.6200 N.2   1 <1>  -0.3380 
 17 C        4.6820     8.8550     0.1170 C.2   1 <1>   0.1980 
 18 N        3.5880     8.8460    -0.5260 N.2   1 <1>  -0.3380 
 19 C        5.5790    10.0340     0.4190 C.3   1 <1>   0.0200 
 20 C        4.9270    11.3060    -0.1390 C.3   1 <1>   0.3430 
 21 N        5.7070    12.5520     0.1660 N.4   1 <1>  -0.9590 
 22 C        4.8780    13.7530    -0.1650 C.3   1 <1>   0.2630 
 23 C        7.0090    12.6110    -0.5740 C.3   1 <1>   0.2630 
 24 H        0.3270     2.9260     0.2990 H     1 <1>   0.1500 
 25 H        4.4960     0.5200    -0.6410 H     1 <1>   0.1500 
 26 H        0.8660    -1.8480    -0.5870 H     1 <1>   0.0800 
 27 H        1.2490    -1.8420     1.1430 H     1 <1>   0.0800 
 28 H        4.4530     2.9530    -0.7720 H     1 <1>   0.1500 
 29 H        2.6730    -3.4940    -0.9730 H     1 <1>   0.0800 
 30 H        1.5240    -4.1210     0.1840 H     1 <1>   0.0800 
 31 H        3.0520    -3.4870     0.7430 H     1 <1>   0.0800 
 32 H        4.1930     4.7990     0.5310 H     1 <1>   0.3700 
 33 H        6.5340     9.8620    -0.0390 H     1 <1>   0.0800 
 34 H        5.6960    10.1140     1.4850 H     1 <1>   0.0800 
 35 H        3.9390    11.3890     0.2870 H     1 <1>   0.0800 
 36 H        4.8070    11.2000    -1.2060 H     1 <1>   0.0800 
 37 H        5.9000    12.5780     1.1810 H     1 <1>   0.4500 
 38 H        4.6440    13.7690    -1.2170 H     1 <1>   0.0800 
 39 H        5.4100    14.6570     0.0840 H     1 <1>   0.0800 
 40 H        3.9540    13.7360     0.3920 H     1 <1>   0.0800 
 41 H        6.8380    12.5720    -1.6380 H     1 <1>   0.0800 
 42 H        7.6420    11.7850    -0.2960 H     1 <1>   0.0800 
 43 H        7.5280    13.5280    -0.3440 H     1 <1>   0.0800 
@<TRIPOS>BOND
  1   1   2  1   
  2   2   3  ar  
  3   2   4  ar  
  4   3   5  1   
  5   3   6  ar  
  6   4   7  ar  
  7   4  24  1   
  8   5   8  1   
  9   6   9  ar  
 10   6  25  1   
 11   7   9  ar  
 12   7  10  1   
 13   8  11  1   
 14   8  26  1   
 15   8  27  1   
 16   9  28  1   
 17  10  12  2   
 18  10  13  am  
 19  11  29  1   
 20  11  30  1   
 21  11  31  1   
 22  13  14  1   
 23  13  32  1   
 24  14  15  1   
 25  14  16  2   
 26  15  17  1   
 27  16  18  1   
 28  17  18  2   
 29  17  19  1   
 30  19  20  1   
 31  19  33  1   
 32  19  34  1   
 33  20  21  1   
 34  20  35  1   
 35  20  36  1   
 36  21  22  1   
 37  21  23  1   
 38  21  37  1   
 39  22  38  1   
 40  22  39  1   
 41  22  40  1   
 42  23  41  1   
 43  23  42  1   
 44  23  43  1   
@<TRIPOS>SUBSTRUCTURE
  1 ****  13 GROUP 4 **** **** 0

# MOE 2024.06 (io_trps.svl 2023.06)
