@<TRIPOS>MOLECULE
NONAME
50 52 1 0 0 
SMALL
USER_CHARGES


@<TRIPOS>ATOM
  1 O       -0.7420    -2.1340     1.2560 O.3   1 <1>  -0.6800 
  2 C       -1.3920    -1.3800     0.3170 C.3   1 <1>   0.2800 
  3 C       -2.8480    -1.8610     0.2770 C.3   1 <1>  -0.1600 
  4 C       -0.6610    -1.5930    -1.0080 C.3   1 <1>  -0.2400 
  5 C       -1.2980     0.0760     0.7640 C.3   1 <1>  -0.2400 
  6 C       -2.9400    -3.3840     0.1690 C.3   1 <1>   0.3430 
  7 N       -4.3600    -3.8240     0.2420 N.4   1 <1>  -0.9590 
  8 C       -5.2240    -3.4440    -0.9060 C.3   1 <1>   0.3430 
  9 C       -4.5320    -5.2950     0.4100 C.3   1 <1>   0.3430 
 10 C       -6.4590    -4.3250    -0.7240 C.3   1 <1>   0.2000 
 11 C       -5.8790    -5.6580    -0.2410 C.3   1 <1>  -0.0800 
 12 O       -7.2130    -3.7840     0.3100 O.3   1 <1>  -0.6800 
 13 C       -5.7000    -6.6570    -1.4030 C.3   1 <1>  -0.0170 
 14 C       -4.9370    -7.9010    -0.9570 C.ar  1 <1>  -0.1440 
 15 C       -5.5110    -8.8830    -0.1140 C.ar  1 <1>   0.0000 
 16 C       -3.6490    -8.0960    -1.3650 C.ar  1 <1>  -0.1500 
 17 C       -4.6860    -9.9580     0.3000 C.ar  1 <1>   0.3100 
 18 C       -6.8520    -8.8720     0.3370 C.ar  1 <1>  -0.1500 
 19 C       -2.9280    -9.2110    -0.9190 C.ar  1 <1>   0.1600 
 20 N       -3.4020   -10.1020    -0.1100 N.ar  1 <1>  -0.6200 
 21 C       -5.2110   -10.9260     1.1690 C.ar  1 <1>  -0.1500 
 22 C       -7.3360    -9.8350     1.1800 C.ar  1 <1>  -0.1500 
 23 C       -6.5060   -10.8730     1.6080 C.ar  1 <1>  -0.1500 
 24 H        0.1480    -1.7600     1.4110 H     1 <1>   0.4000 
 25 H       -3.3350    -1.5440     1.1820 H     1 <1>   0.0800 
 26 H       -3.3420    -1.3920    -0.5540 H     1 <1>   0.0800 
 27 H       -1.1520    -1.0440    -1.7920 H     1 <1>   0.0800 
 28 H       -0.6380    -2.6320    -1.2820 H     1 <1>   0.0800 
 29 H        0.3500    -1.2330    -0.9420 H     1 <1>   0.0800 
 30 H       -1.8160     0.7100     0.0670 H     1 <1>   0.0800 
 31 H       -0.2730     0.3990     0.8080 H     1 <1>   0.0800 
 32 H       -1.7470     0.2060     1.7340 H     1 <1>   0.0800 
 33 H       -2.3870    -3.8210     0.9860 H     1 <1>   0.0800 
 34 H       -2.4930    -3.7170    -0.7530 H     1 <1>   0.0800 
 35 H       -4.8040    -3.3890     1.0660 H     1 <1>   0.4500 
 36 H       -5.4860    -2.3990    -0.8910 H     1 <1>   0.0800 
 37 H       -4.7340    -3.6870    -1.8340 H     1 <1>   0.0800 
 38 H       -3.7310    -5.8220    -0.0800 H     1 <1>   0.0800 
 39 H       -4.5310    -5.5590     1.4560 H     1 <1>   0.0800 
 40 H       -7.0700    -4.3900    -1.6100 H     1 <1>   0.0800 
 41 H       -6.5180    -6.1010     0.5020 H     1 <1>   0.0800 
 42 H       -8.0920    -4.2130     0.3780 H     1 <1>   0.4000 
 43 H       -5.1650    -6.1860    -2.2090 H     1 <1>   0.0800 
 44 H       -6.6600    -6.9480    -1.7950 H     1 <1>   0.0800 
 45 H       -3.1480    -7.4150    -2.0290 H     1 <1>   0.1500 
 46 H       -7.5200    -8.0990     0.0090 H     1 <1>   0.1500 
 47 H       -1.9150    -9.3330    -1.2650 H     1 <1>   0.1500 
 48 H       -4.5570   -11.7220     1.4780 H     1 <1>   0.1500 
 49 H       -8.3580    -9.8140     1.5200 H     1 <1>   0.1500 
 50 H       -6.8950   -11.6230     2.2750 H     1 <1>   0.1500 
@<TRIPOS>BOND
  1   1   2  1   
  2   1  24  1   
  3   2   3  1   
  4   2   4  1   
  5   2   5  1   
  6   3   6  1   
  7   3  25  1   
  8   3  26  1   
  9   4  27  1   
 10   4  28  1   
 11   4  29  1   
 12   5  30  1   
 13   5  31  1   
 14   5  32  1   
 15   6   7  1   
 16   6  33  1   
 17   6  34  1   
 18   7   8  1   
 19   7   9  1   
 20   7  35  1   
 21   8  10  1   
 22   8  36  1   
 23   8  37  1   
 24   9  11  1   
 25   9  38  1   
 26   9  39  1   
 27  10  11  1   
 28  10  12  1   
 29  10  40  1   
 30  11  13  1   
 31  11  41  1   
 32  12  42  1   
 33  13  14  1   
 34  13  43  1   
 35  13  44  1   
 36  14  15  ar  
 37  14  16  ar  
 38  15  17  ar  
 39  15  18  ar  
 40  16  19  ar  
 41  16  45  1   
 42  17  20  ar  
 43  17  21  ar  
 44  18  22  ar  
 45  18  46  1   
 46  19  20  ar  
 47  19  47  1   
 48  21  23  ar  
 49  21  48  1   
 50  22  23  ar  
 51  22  49  1   
 52  23  50  1   
@<TRIPOS>SUBSTRUCTURE
  1 ****   9 GROUP 4 **** **** 0

# MOE 2024.06 (io_trps.svl 2023.06)
