@<TRIPOS>MOLECULE
NONAME
48 50 1 0 0 
SMALL
USER_CHARGES


@<TRIPOS>ATOM
  1 O       -3.8740     1.2900    -2.4400 O.2   1 <1>  -0.5700 
  2 C       -3.0220     1.3340    -1.5840 C.2   1 <1>   0.5690 
  3 N       -2.4850     0.2060    -1.0560 N.am  1 <1>  -0.7300 
  4 C       -2.5440     2.6900    -1.0700 C.3   1 <1>   0.1810 
  5 C       -2.8760    -1.1760    -1.4020 C.3   1 <1>   0.2200 
  6 O       -1.6770     2.5490     0.0350 O.3   1 <1>  -0.5600 
  7 C       -3.9280    -1.6520    -0.4170 C.3   1 <1>  -0.0800 
  8 C       -1.7180    -2.1400    -1.1410 C.3   1 <1>   0.1200 
  9 C       -1.2010     3.7370     0.5710 C.3   1 <1>   0.2000 
 10 C       -3.0620    -2.1630     0.7320 C.3   1 <1>   0.1200 
 11 C       -4.8060    -2.7630    -1.0270 C.3   1 <1>  -0.0160 
 12 O       -1.8860    -2.6450     0.1530 O.3   1 <1>  -0.5600 
 13 C        0.0390     4.1680    -0.2120 C.3   1 <1>  -0.2400 
 14 C       -0.8590     3.4490     2.0290 C.3   1 <1>  -0.2400 
 15 C       -5.9230    -3.1790    -0.0750 C.ar  1 <1>  -0.1440 
 16 C       -7.0800    -2.3890     0.1260 C.ar  1 <1>   0.0000 
 17 C       -5.8290    -4.3490     0.6200 C.ar  1 <1>  -0.1500 
 18 C       -8.0470    -2.8640     1.0450 C.ar  1 <1>   0.3100 
 19 C       -7.3350    -1.1610    -0.5290 C.ar  1 <1>  -0.1500 
 20 C       -6.8470    -4.7290     1.5020 C.ar  1 <1>   0.1600 
 21 N       -7.9170    -4.0320     1.7230 N.ar  1 <1>  -0.6200 
 22 C       -9.2030    -2.0980     1.2710 C.ar  1 <1>  -0.1500 
 23 C       -8.4720    -0.4400    -0.2860 C.ar  1 <1>  -0.1500 
 24 C       -9.4200    -0.9110     0.6250 C.ar  1 <1>  -0.1500 
 25 H       -1.8210     0.3260    -0.2820 H     1 <1>   0.3700 
 26 H       -3.3980     3.2680    -0.7660 H     1 <1>   0.0800 
 27 H       -2.0260     3.1980    -1.8610 H     1 <1>   0.0800 
 28 H       -3.2090    -1.2110    -2.4260 H     1 <1>   0.0800 
 29 H       -4.5540    -0.8410    -0.0910 H     1 <1>   0.0800 
 30 H       -0.7590    -1.6600    -1.2180 H     1 <1>   0.0800 
 31 H       -1.7630    -2.9740    -1.8190 H     1 <1>   0.0800 
 32 H       -1.9720     4.4890     0.5230 H     1 <1>   0.0800 
 33 H       -3.5260    -2.9480     1.3020 H     1 <1>   0.0800 
 34 H       -2.7920    -1.3540     1.3890 H     1 <1>   0.0800 
 35 H       -4.1950    -3.6180    -1.2610 H     1 <1>   0.0800 
 36 H       -5.2390    -2.4250    -1.9520 H     1 <1>   0.0800 
 37 H        0.7750     3.3830    -0.2060 H     1 <1>   0.0800 
 38 H        0.4700     5.0420     0.2420 H     1 <1>   0.0800 
 39 H       -0.2140     4.4130    -1.2260 H     1 <1>   0.0800 
 40 H       -0.1090     2.6810     2.0930 H     1 <1>   0.0800 
 41 H       -1.7400     3.1300     2.5550 H     1 <1>   0.0800 
 42 H       -0.4830     4.3380     2.5020 H     1 <1>   0.0800 
 43 H       -4.9810    -5.0010     0.5140 H     1 <1>   0.1500 
 44 H       -6.6220    -0.7770    -1.2360 H     1 <1>   0.1500 
 45 H       -6.7320    -5.6590     2.0310 H     1 <1>   0.1500 
 46 H       -9.9180    -2.4820     1.9750 H     1 <1>   0.1500 
 47 H       -8.6510     0.4940    -0.7910 H     1 <1>   0.1500 
 48 H      -10.3100    -0.3360     0.8090 H     1 <1>   0.1500 
@<TRIPOS>BOND
  1   1   2  2   
  2   2   3  am  
  3   2   4  1   
  4   3   5  1   
  5   3  25  1   
  6   4   6  1   
  7   4  26  1   
  8   4  27  1   
  9   5   7  1   
 10   5   8  1   
 11   5  28  1   
 12   6   9  1   
 13   7  10  1   
 14   7  11  1   
 15   7  29  1   
 16   8  12  1   
 17   8  30  1   
 18   8  31  1   
 19   9  13  1   
 20   9  14  1   
 21   9  32  1   
 22  10  12  1   
 23  10  33  1   
 24  10  34  1   
 25  11  15  1   
 26  11  35  1   
 27  11  36  1   
 28  13  37  1   
 29  13  38  1   
 30  13  39  1   
 31  14  40  1   
 32  14  41  1   
 33  14  42  1   
 34  15  16  ar  
 35  15  17  ar  
 36  16  18  ar  
 37  16  19  ar  
 38  17  20  ar  
 39  17  43  1   
 40  18  21  ar  
 41  18  22  ar  
 42  19  23  ar  
 43  19  44  1   
 44  20  21  ar  
 45  20  45  1   
 46  22  24  ar  
 47  22  46  1   
 48  23  24  ar  
 49  23  47  1   
 50  24  48  1   
@<TRIPOS>SUBSTRUCTURE
  1 ****   7 GROUP 4 **** **** 0

# MOE 2024.06 (io_trps.svl 2023.06)
