@<TRIPOS>MOLECULE
NONAME
40 43 1 0 0 
SMALL
USER_CHARGES


@<TRIPOS>ATOM
  1 S       -0.3670     1.0670    -2.3050 S.3   1 <1>  -0.0800 
  2 C       -0.2210     2.1930    -0.9720 C.2   1 <1>  -0.1400 
  3 C        1.2420     1.4970    -2.8690 C.2   1 <1>  -0.1100 
  4 C        0.9670     2.8110    -0.9680 C.2   1 <1>  -0.1810 
  5 C       -1.3210     2.4270     0.0270 C.3   1 <1>   0.0200 
  6 C        1.8050     2.4210    -2.0660 C.2   1 <1>  -0.1500 
  7 C        1.3330     3.8260     0.1200 C.3   1 <1>   0.4610 
  8 C       -1.0150     3.7600     0.7290 C.3   1 <1>   0.1200 
  9 O        0.3320     3.8220     1.1280 O.3   1 <1>  -0.5600 
 10 C        2.6350     3.4120     0.8140 C.3   1 <1>  -0.1600 
 11 C        1.4670     5.2370    -0.4650 C.3   1 <1>  -0.1600 
 12 C        3.0610     4.4350     1.8660 C.3   1 <1>   0.1400 
 13 C        1.9420     6.2550     0.5740 C.3   1 <1>   0.1400 
 14 N        3.1910     5.7660     1.2190 N.am  1 <1>  -0.6600 
 15 C        4.4250     6.4080     1.0550 C.2   1 <1>   0.5440 
 16 O        5.3930     5.8740     1.6020 O.2   1 <1>  -0.5700 
 17 C        4.5850     7.6800     0.3710 C.ar  1 <1>   0.3960 
 18 N        4.9380     8.7610     1.1110 N.ar  1 <1>  -0.6200 
 19 C        4.3590     7.8000    -1.0380 C.ar  1 <1>  -0.1710 
 20 C        5.0850     9.9050     0.4880 C.ar  1 <1>   0.1600 
 21 O        4.0060     6.8490    -1.7780 O.3   1 <1>  -0.8290 
 22 C        4.5290     9.0430    -1.6520 C.ar  1 <1>  -0.1500 
 23 C        4.8960    10.1000    -0.8780 C.ar  1 <1>  -0.1500 
 24 H        1.6020     1.0100    -3.7570 H     1 <1>   0.1500 
 25 H       -1.3470     1.6250     0.7410 H     1 <1>   0.0800 
 26 H       -2.2730     2.4860    -0.4690 H     1 <1>   0.0800 
 27 H        2.7810     2.8590    -2.1980 H     1 <1>   0.1500 
 28 H       -1.6230     3.8670     1.6090 H     1 <1>   0.0800 
 29 H       -1.2130     4.5870     0.0700 H     1 <1>   0.0800 
 30 H        3.4240     3.3360     0.0880 H     1 <1>   0.0800 
 31 H        2.5080     2.4470     1.2660 H     1 <1>   0.0800 
 32 H        0.5440     5.5590    -0.9040 H     1 <1>   0.0800 
 33 H        2.1930     5.2140    -1.2570 H     1 <1>   0.0800 
 34 H        3.9920     4.1300     2.3100 H     1 <1>   0.0800 
 35 H        2.3240     4.4960     2.6470 H     1 <1>   0.0800 
 36 H        1.1890     6.3850     1.3310 H     1 <1>   0.0800 
 37 H        2.1010     7.2040     0.0950 H     1 <1>   0.0800 
 38 H        5.3730    10.7520     1.0820 H     1 <1>   0.1500 
 39 H        4.3630     9.1110    -2.7110 H     1 <1>   0.1500 
 40 H        5.0410    11.0730    -1.3040 H     1 <1>   0.1500 
@<TRIPOS>BOND
  1   1   2  1   
  2   1   3  1   
  3   2   4  2   
  4   2   5  1   
  5   3   6  2   
  6   3  24  1   
  7   4   6  1   
  8   4   7  1   
  9   5   8  1   
 10   5  25  1   
 11   5  26  1   
 12   6  27  1   
 13   7   9  1   
 14   7  10  1   
 15   7  11  1   
 16   8   9  1   
 17   8  28  1   
 18   8  29  1   
 19  10  12  1   
 20  10  30  1   
 21  10  31  1   
 22  11  13  1   
 23  11  32  1   
 24  11  33  1   
 25  12  14  1   
 26  12  34  1   
 27  12  35  1   
 28  13  14  1   
 29  13  36  1   
 30  13  37  1   
 31  14  15  am  
 32  15  16  2   
 33  15  17  1   
 34  17  18  ar  
 35  17  19  ar  
 36  18  20  ar  
 37  19  21  1   
 38  19  22  ar  
 39  20  23  ar  
 40  20  38  1   
 41  22  23  ar  
 42  22  39  1   
 43  23  40  1   
@<TRIPOS>SUBSTRUCTURE
  1 ****  11 GROUP 4 **** **** 0

# MOE 2024.06 (io_trps.svl 2023.06)
