@<TRIPOS>MOLECULE
NONAME
49 51 1 0 0 
SMALL
USER_CHARGES


@<TRIPOS>ATOM
  1 S       -0.1610    -0.3120     0.9540 S.3   1 <1>  -0.0800 
  2 C       -1.5480    -0.9640     0.1190 C.2   1 <1>  -0.1400 
  3 C       -0.4370     1.2270     0.1850 C.2   1 <1>   0.2280 
  4 C       -2.0770     0.0180    -0.6420 C.2   1 <1>   0.0460 
  5 C       -1.8070    -2.4320     0.4480 C.3   1 <1>   0.0200 
  6 N       -1.4390     1.2470    -0.5950 N.2   1 <1>  -0.5650 
  7 C       -3.2820     0.0080    -1.5640 C.3   1 <1>  -0.0590 
  8 C       -2.9760    -3.0680    -0.3070 C.3   1 <1>   0.1100 
  9 N       -3.0850    -4.5070    -0.0160 N.3   1 <1>  -0.8100 
 10 C       -3.7660    -5.2360    -1.1300 C.3   1 <1>   0.1710 
 11 C       -3.6570    -4.7820     1.3110 C.3   1 <1>   0.0300 
 12 C       -3.8670    -6.7710    -0.9910 C.2   1 <1>   0.5690 
 13 O       -2.8830    -7.3960    -1.3150 O.2   1 <1>  -0.5700 
 14 N       -5.0260    -7.4030    -0.5440 N.am  1 <1>  -0.4770 
 15 C       -5.0770    -8.7960    -0.2850 C.ar  1 <1>   0.1170 
 16 C       -6.2520    -6.6170    -0.1810 C.3   1 <1>   0.2200 
 17 C       -5.6640    -9.2430     0.9010 C.ar  1 <1>  -0.1430 
 18 C       -4.5670    -9.7390    -1.1790 C.ar  1 <1>  -0.1500 
 19 C       -7.0950    -7.2670     0.9390 C.3   1 <1>  -0.1600 
 20 C       -7.1010    -6.4130    -1.4400 C.3   1 <1>  -0.2400 
 21 C       -5.7140   -10.5940     1.2030 C.ar  1 <1>  -0.1500 
 22 C       -6.2730    -8.2070     1.8230 C.3   1 <1>  -0.0170 
 23 C       -4.6130   -11.0920    -0.8920 C.ar  1 <1>  -0.1500 
 24 C       -5.1830   -11.4940     0.3000 C.ar  1 <1>   0.1900 
 25 F       -5.2290   -12.7710     0.5790 F     1 <1>  -0.1900 
 26 H        0.2440     2.0250     0.4210 H     1 <1>   0.1500 
 27 H       -1.9810    -2.5040     1.5050 H     1 <1>   0.0800 
 28 H       -0.9180    -2.9910     0.2170 H     1 <1>   0.0800 
 29 H       -3.7950    -0.9290    -1.5680 H     1 <1>   0.0800 
 30 H       -2.9620     0.2290    -2.5660 H     1 <1>   0.0800 
 31 H       -3.9720     0.7700    -1.2510 H     1 <1>   0.0800 
 32 H       -2.7900    -2.9370    -1.3590 H     1 <1>   0.0800 
 33 H       -3.8970    -2.5720    -0.0520 H     1 <1>   0.0800 
 34 H       -3.1970    -5.0620    -2.0260 H     1 <1>   0.0800 
 35 H       -4.7340    -4.8080    -1.2980 H     1 <1>   0.0800 
 36 H       -3.0320    -4.3630     2.0790 H     1 <1>   0.0800 
 37 H       -3.7060    -5.8440     1.4830 H     1 <1>   0.0800 
 38 H       -4.6420    -4.3590     1.3970 H     1 <1>   0.0800 
 39 H       -5.9520    -5.6560     0.1890 H     1 <1>   0.0800 
 40 H       -4.1260    -9.4090    -2.1020 H     1 <1>   0.1500 
 41 H       -7.8940    -7.8400     0.5010 H     1 <1>   0.0800 
 42 H       -7.5490    -6.4980     1.5380 H     1 <1>   0.0800 
 43 H       -7.4240    -7.3640    -1.8260 H     1 <1>   0.0800 
 44 H       -6.5420    -5.9030    -2.2020 H     1 <1>   0.0800 
 45 H       -7.9710    -5.8260    -1.2080 H     1 <1>   0.0800 
 46 H       -6.1560   -10.9540     2.1140 H     1 <1>   0.1500 
 47 H       -5.4920    -7.6670     2.3280 H     1 <1>   0.0800 
 48 H       -6.9060    -8.6720     2.5580 H     1 <1>   0.0800 
 49 H       -4.2130   -11.8200    -1.5740 H     1 <1>   0.1500 
@<TRIPOS>BOND
  1   1   2  1   
  2   1   3  1   
  3   2   4  2   
  4   2   5  1   
  5   3   6  2   
  6   3  26  1   
  7   4   6  1   
  8   4   7  1   
  9   5   8  1   
 10   5  27  1   
 11   5  28  1   
 12   7  29  1   
 13   7  30  1   
 14   7  31  1   
 15   8   9  1   
 16   8  32  1   
 17   8  33  1   
 18   9  10  1   
 19   9  11  1   
 20  10  12  1   
 21  10  34  1   
 22  10  35  1   
 23  11  36  1   
 24  11  37  1   
 25  11  38  1   
 26  12  13  2   
 27  12  14  am  
 28  14  15  1   
 29  14  16  1   
 30  15  17  ar  
 31  15  18  ar  
 32  16  19  1   
 33  16  20  1   
 34  16  39  1   
 35  17  21  ar  
 36  17  22  1   
 37  18  23  ar  
 38  18  40  1   
 39  19  22  1   
 40  19  41  1   
 41  19  42  1   
 42  20  43  1   
 43  20  44  1   
 44  20  45  1   
 45  21  24  ar  
 46  21  46  1   
 47  22  47  1   
 48  22  48  1   
 49  23  24  ar  
 50  23  49  1   
 51  24  25  1   
@<TRIPOS>SUBSTRUCTURE
  1 ****  10 GROUP 4 **** **** 0

# MOE 2024.06 (io_trps.svl 2023.06)
