@<TRIPOS>MOLECULE
NONAME
45 47 1 0 0 
SMALL
USER_CHARGES


@<TRIPOS>ATOM
  1 S        1.5860     1.2120     0.8000 S.o2  1 <1>   1.4470 
  2 O        1.9640     2.2330    -0.1450 O.2   1 <1>  -0.6500 
  3 O        1.7660     1.4050     2.2160 O.2   1 <1>  -0.6500 
  4 N       -0.0590     1.1650     0.6430 N.am  1 <1>  -0.9780 
  5 C        2.1190    -0.4390     0.2630 C.ar  1 <1>  -0.0090 
  6 C        1.8370    -1.5590     1.0360 C.ar  1 <1>  -0.1500 
  7 C        2.7920    -0.6230    -0.9420 C.ar  1 <1>  -0.1500 
  8 C        2.1730    -2.8520     0.6370 C.ar  1 <1>   0.0860 
  9 C        3.1650    -1.8870    -1.3630 C.ar  1 <1>  -0.1500 
 10 C        2.8500    -2.9740    -0.5730 C.ar  1 <1>   0.1900 
 11 C        1.8120    -3.9940     1.4450 C.2   1 <1>   0.5440 
 12 F        3.2010    -4.1560    -0.9990 F     1 <1>  -0.1900 
 13 O        2.2720    -4.0690     2.5680 O.2   1 <1>  -0.5700 
 14 N        0.9560    -4.9910     1.0100 N.am  1 <1>  -0.6600 
 15 C       -0.0500    -4.8600    -0.0980 C.3   1 <1>   0.2200 
 16 C        1.1400    -6.3670     1.5660 C.3   1 <1>   0.0600 
 17 C       -1.3050    -5.6970     0.1720 C.3   1 <1>  -0.1600 
 18 C       -0.6270    -3.4510    -0.2660 C.3   1 <1>  -0.1600 
 19 C       -2.4100    -5.0900    -0.7010 C.3   1 <1>  -0.0800 
 20 C       -1.9820    -3.6280    -0.9570 C.3   1 <1>  -0.0800 
 21 C       -3.8180    -5.2760    -0.1000 C.3   1 <1>   0.1400 
 22 C       -3.0160    -2.5690    -0.5240 C.3   1 <1>  -0.0990 
 23 N       -4.7460    -4.2890    -0.6900 N.am  1 <1>  -0.7300 
 24 C       -4.4140    -3.0010    -0.9090 C.2   1 <1>   0.5690 
 25 O       -5.1970    -2.2180    -1.3820 O.2   1 <1>  -0.5700 
 26 H       -0.2490     1.9100    -0.0240 H     1 <1>   0.4200 
 27 H       -0.3850     1.5090     1.5440 H     1 <1>   0.4200 
 28 H        1.3300    -1.4350     1.9790 H     1 <1>   0.1500 
 29 H        3.0250     0.2320    -1.5570 H     1 <1>   0.1500 
 30 H        3.6910    -2.0310    -2.2920 H     1 <1>   0.1500 
 31 H        0.3960    -5.1790    -1.0250 H     1 <1>   0.0800 
 32 H        1.1190    -7.0940     0.7730 H     1 <1>   0.0800 
 33 H        0.3600    -6.5820     2.2750 H     1 <1>   0.0800 
 34 H        2.0890    -6.4490     2.0700 H     1 <1>   0.0800 
 35 H       -1.1540    -6.7350    -0.0650 H     1 <1>   0.0800 
 36 H       -1.5730    -5.5950     1.2090 H     1 <1>   0.0800 
 37 H       -0.7680    -3.0100     0.7050 H     1 <1>   0.0800 
 38 H        0.0040    -2.8240    -0.8690 H     1 <1>   0.0800 
 39 H       -2.3970    -5.5990    -1.6500 H     1 <1>   0.0800 
 40 H       -1.8380    -3.5240    -2.0200 H     1 <1>   0.0800 
 41 H       -3.7950    -5.1210     0.9660 H     1 <1>   0.0800 
 42 H       -4.1730    -6.2740    -0.2930 H     1 <1>   0.0800 
 43 H       -2.7930    -1.6220    -0.9810 H     1 <1>   0.0800 
 44 H       -3.0020    -2.4400     0.5420 H     1 <1>   0.0800 
 45 H       -5.7010    -4.5760    -0.9130 H     1 <1>   0.3700 
@<TRIPOS>BOND
  1   1   2  2   
  2   1   3  2   
  3   1   4  am  
  4   1   5  1   
  5   4  26  1   
  6   4  27  1   
  7   5   6  ar  
  8   5   7  ar  
  9   6   8  ar  
 10   6  28  1   
 11   7   9  ar  
 12   7  29  1   
 13   8  10  ar  
 14   8  11  1   
 15   9  10  ar  
 16   9  30  1   
 17  10  12  1   
 18  11  13  2   
 19  11  14  am  
 20  14  15  1   
 21  14  16  1   
 22  15  17  1   
 23  15  18  1   
 24  15  31  1   
 25  16  32  1   
 26  16  33  1   
 27  16  34  1   
 28  17  19  1   
 29  17  35  1   
 30  17  36  1   
 31  18  20  1   
 32  18  37  1   
 33  18  38  1   
 34  19  20  1   
 35  19  21  1   
 36  19  39  1   
 37  20  22  1   
 38  20  40  1   
 39  21  23  1   
 40  21  41  1   
 41  21  42  1   
 42  22  24  1   
 43  22  43  1   
 44  22  44  1   
 45  23  24  am  
 46  23  45  1   
 47  24  25  2   
@<TRIPOS>SUBSTRUCTURE
  1 ****  18 GROUP 4 **** **** 0

# MOE 2024.06 (io_trps.svl 2023.06)
