@<TRIPOS>MOLECULE
NONAME
44 46 1 0 0 
SMALL
USER_CHARGES


@<TRIPOS>ATOM
  1 F        2.2090    -0.0630    -1.9080 F     1 <1>  -0.1900 
  2 C        2.5740    -0.7050    -0.8280 C.ar  1 <1>   0.1900 
  3 C        2.9070     0.0090     0.3130 C.ar  1 <1>  -0.1440 
  4 C        2.6050    -2.0840    -0.8860 C.ar  1 <1>  -0.1500 
  5 C        3.2560    -0.7210     1.4390 C.ar  1 <1>  -0.1500 
  6 C        2.8760     1.5350     0.3600 C.3   1 <1>   0.2540 
  7 C        2.9790    -2.8070     0.2430 C.ar  1 <1>   0.0830 
  8 C        3.2950    -2.1070     1.4220 C.ar  1 <1>   0.0830 
  9 N        4.1760     2.1470     0.0190 N.3   1 <1>  -0.8100 
 10 O        3.0580    -4.1700     0.2180 O.3   1 <1>  -0.3630 
 11 O        3.6620    -2.6790     2.6040 O.3   1 <1>  -0.3630 
 12 C        5.2460     1.8390     1.0020 C.3   1 <1>   0.1100 
 13 C        4.5370     1.9800    -1.4000 C.3   1 <1>   0.1100 
 14 C        2.8130    -4.9170    -0.9540 C.3   1 <1>   0.0400 
 15 C        3.0860    -3.8970     3.0260 C.3   1 <1>   0.0400 
 16 C        6.6140     2.5090     0.7320 C.3   1 <1>   0.2200 
 17 C        5.5730     3.0010    -1.9310 C.3   1 <1>  -0.0190 
 18 N        6.4250     3.8940     0.2190 N.am  1 <1>  -0.7300 
 19 C        7.4920     1.6190    -0.1920 C.3   1 <1>   0.1200 
 20 C        5.8730     4.1550    -0.9870 C.2   1 <1>   0.5690 
 21 C        6.8760     2.3220    -2.3950 C.3   1 <1>   0.1200 
 22 O        7.8540     2.2280    -1.3990 O.3   1 <1>  -0.5600 
 23 O        5.6340     5.2890    -1.3240 O.2   1 <1>  -0.5700 
 24 H        2.3390    -2.5560    -1.8100 H     1 <1>   0.1500 
 25 H        3.5040    -0.2160     2.3550 H     1 <1>   0.1500 
 26 H        2.5930     1.8540     1.3480 H     1 <1>   0.0800 
 27 H        2.1230     1.9080    -0.3140 H     1 <1>   0.0800 
 28 H        4.9090     2.1690     1.9690 H     1 <1>   0.0800 
 29 H        5.3900     0.7750     1.0650 H     1 <1>   0.0800 
 30 H        4.8760     0.9720    -1.5650 H     1 <1>   0.0800 
 31 H        3.6440     2.1120    -1.9870 H     1 <1>   0.0800 
 32 H        2.9610    -5.9570    -0.7230 H     1 <1>   0.0800 
 33 H        3.5070    -4.6110    -1.7170 H     1 <1>   0.0800 
 34 H        1.7960    -4.7550    -1.2660 H     1 <1>   0.0800 
 35 H        3.1940    -3.9660     4.0930 H     1 <1>   0.0800 
 36 H        3.6090    -4.7100     2.5550 H     1 <1>   0.0800 
 37 H        2.0440    -3.9070     2.7590 H     1 <1>   0.0800 
 38 H        7.1250     2.5700     1.6770 H     1 <1>   0.0800 
 39 H        5.1350     3.4260    -2.8150 H     1 <1>   0.0800 
 40 H        6.5760     4.6820     0.8450 H     1 <1>   0.3700 
 41 H        7.0140     0.6820    -0.4130 H     1 <1>   0.0800 
 42 H        8.4090     1.3960     0.3230 H     1 <1>   0.0800 
 43 H        7.3110     2.9130    -3.1820 H     1 <1>   0.0800 
 44 H        6.6900     1.3360    -2.7840 H     1 <1>   0.0800 
@<TRIPOS>BOND
  1   1   2  1   
  2   2   3  ar  
  3   2   4  ar  
  4   3   5  ar  
  5   3   6  1   
  6   4   7  ar  
  7   4  24  1   
  8   5   8  ar  
  9   5  25  1   
 10   6   9  1   
 11   6  26  1   
 12   6  27  1   
 13   7   8  ar  
 14   7  10  1   
 15   8  11  1   
 16   9  12  1   
 17   9  13  1   
 18  10  14  1   
 19  11  15  1   
 20  12  16  1   
 21  12  28  1   
 22  12  29  1   
 23  13  17  1   
 24  13  30  1   
 25  13  31  1   
 26  14  32  1   
 27  14  33  1   
 28  14  34  1   
 29  15  35  1   
 30  15  36  1   
 31  15  37  1   
 32  16  18  1   
 33  16  19  1   
 34  16  38  1   
 35  17  20  1   
 36  17  21  1   
 37  17  39  1   
 38  18  20  am  
 39  18  40  1   
 40  19  22  1   
 41  19  41  1   
 42  19  42  1   
 43  20  23  2   
 44  21  22  1   
 45  21  43  1   
 46  21  44  1   
@<TRIPOS>SUBSTRUCTURE
  1 ****   3 GROUP 4 **** **** 0

# MOE 2024.06 (io_trps.svl 2023.06)
