@<TRIPOS>MOLECULE
NONAME
48 50 1 0 0 
SMALL
USER_CHARGES


@<TRIPOS>ATOM
  1 O        0.7780    -0.1310    -0.1930 O.3   1 <1>  -0.5600 
  2 C        0.9530     0.8930    -1.1260 C.3   1 <1>   0.2000 
  3 C        1.9060    -0.3800     0.5950 C.3   1 <1>   0.2000 
  4 C        1.2790     2.2280    -0.4170 C.3   1 <1>   0.2090 
  5 C       -0.3350     0.9740    -1.9420 C.3   1 <1>  -0.2400 
  6 C        2.2810     0.8770     1.4090 C.3   1 <1>   0.2090 
  7 C        1.5700    -1.5700     1.4900 C.3   1 <1>  -0.2400 
  8 N        2.4340     2.0750     0.5220 N.pl3 1 <1>  -0.8380 
  9 C        3.6470     2.6140     0.2570 C.ar  1 <1>   0.4100 
 10 N        4.6210     1.7630     0.0050 N.ar  1 <1>  -0.6200 
 11 C        3.8510     4.0150     0.2470 C.ar  1 <1>  -0.1430 
 12 C        5.8150     2.2450    -0.2970 C.ar  1 <1>   0.7710 
 13 C        5.0860     4.4800    -0.0800 C.ar  1 <1>   0.2180 
 14 C        2.7150     4.9720     0.6200 C.3   1 <1>  -0.0160 
 15 N        6.0460     3.5660    -0.3530 N.ar  1 <1>  -0.1790 
 16 N        6.8390     1.3860    -0.5650 N.pl3 1 <1>  -0.8380 
 17 C        5.4550     5.9600    -0.1370 C.3   1 <1>  -0.0170 
 18 C        3.2220     6.3800     0.9610 C.3   1 <1>  -0.1600 
 19 C        6.5960    -0.0920    -0.6820 C.3   1 <1>   0.1290 
 20 C        8.2900     1.7280    -0.7070 C.3   1 <1>   0.1290 
 21 C        4.2200     6.8700    -0.0930 C.3   1 <1>  -0.1600 
 22 H        1.7690     0.6210    -1.7740 H     1 <1>   0.0800 
 23 H        2.7230    -0.6410    -0.0580 H     1 <1>   0.0800 
 24 H        0.4160     2.5580     0.1330 H     1 <1>   0.0800 
 25 H        1.5060     2.9680    -1.1630 H     1 <1>   0.0800 
 26 H       -1.1680     1.2090    -1.3030 H     1 <1>   0.0800 
 27 H       -0.5170     0.0310    -2.4250 H     1 <1>   0.0800 
 28 H       -0.2510     1.7330    -2.6980 H     1 <1>   0.0800 
 29 H        3.1960     0.6960     1.9450 H     1 <1>   0.0800 
 30 H        1.5100     1.0720     2.1330 H     1 <1>   0.0800 
 31 H        0.7340    -1.3350     2.1240 H     1 <1>   0.0800 
 32 H        2.4140    -1.8200     2.1060 H     1 <1>   0.0800 
 33 H        1.3250    -2.4230     0.8830 H     1 <1>   0.0800 
 34 H        2.0290     5.0380    -0.2050 H     1 <1>   0.0800 
 35 H        2.1740     4.5850     1.4670 H     1 <1>   0.0800 
 36 H        6.9830     3.8280    -0.6220 H     1 <1>   0.4570 
 37 H        6.0850     6.1890     0.7050 H     1 <1>   0.0800 
 38 H        6.0080     6.1730    -1.0360 H     1 <1>   0.0800 
 39 H        2.3850     7.0560     1.0140 H     1 <1>   0.0800 
 40 H        3.6930     6.3680     1.9290 H     1 <1>   0.0800 
 41 H        7.2330    -0.5160    -1.4400 H     1 <1>   0.0800 
 42 H        5.5760    -0.3040    -0.9550 H     1 <1>   0.0800 
 43 H        6.8070    -0.5710     0.2590 H     1 <1>   0.0800 
 44 H        8.8880     0.9930    -0.1920 H     1 <1>   0.0800 
 45 H        8.5200     2.6880    -0.2830 H     1 <1>   0.0800 
 46 H        8.5670     1.7200    -1.7490 H     1 <1>   0.0800 
 47 H        4.5210     7.8800     0.1300 H     1 <1>   0.0800 
 48 H        3.7400     6.8770    -1.0580 H     1 <1>   0.0800 
@<TRIPOS>BOND
  1   1   2  1   
  2   1   3  1   
  3   2   4  1   
  4   2   5  1   
  5   2  22  1   
  6   3   6  1   
  7   3   7  1   
  8   3  23  1   
  9   4   8  1   
 10   4  24  1   
 11   4  25  1   
 12   5  26  1   
 13   5  27  1   
 14   5  28  1   
 15   6   8  1   
 16   6  29  1   
 17   6  30  1   
 18   7  31  1   
 19   7  32  1   
 20   7  33  1   
 21   8   9  1   
 22   9  10  ar  
 23   9  11  ar  
 24  10  12  ar  
 25  11  13  ar  
 26  11  14  1   
 27  12  15  ar  
 28  12  16  1   
 29  13  15  ar  
 30  13  17  1   
 31  14  18  1   
 32  14  34  1   
 33  14  35  1   
 34  15  36  1   
 35  16  19  1   
 36  16  20  1   
 37  17  21  1   
 38  17  37  1   
 39  17  38  1   
 40  18  21  1   
 41  18  39  1   
 42  18  40  1   
 43  19  41  1   
 44  19  42  1   
 45  19  43  1   
 46  20  44  1   
 47  20  45  1   
 48  20  46  1   
 49  21  47  1   
 50  21  48  1   
@<TRIPOS>SUBSTRUCTURE
  1 ****   9 GROUP 4 **** **** 0

# MOE 2024.06 (io_trps.svl 2023.06)
