@<TRIPOS>MOLECULE
NONAME
51 55 1 0 0 
SMALL
USER_CHARGES


@<TRIPOS>ATOM
  1 O        0.2170     1.4220    -0.2880 O.2   1 <1>  -0.5700 
  2 C       -0.6480     2.2090     0.0220 C.2   1 <1>   0.5770 
  3 N       -1.9770     1.8530    -0.0060 N.am  1 <1>  -0.6600 
  4 C       -0.2310     3.6230     0.4310 C.3   1 <1>   0.0530 
  5 C       -3.1240     2.7760     0.2720 C.3   1 <1>   0.1400 
  6 C       -2.4020     0.4670    -0.3560 C.3   1 <1>   0.1400 
  7 C        1.2920     3.8840     0.6130 C.3   1 <1>   0.0000 
  8 C       -0.3740     3.9230     1.9480 C.3   1 <1>   0.0000 
  9 C       -4.0720     2.8580    -0.9400 C.3   1 <1>   0.1440 
 10 C       -3.3460     0.4970    -1.5650 C.3   1 <1>  -0.1600 
 11 C        0.9110     4.7800     1.8190 C.3   1 <1>   0.0000 
 12 C       -5.2290     3.7710    -0.5790 C.ar  1 <1>   0.1660 
 13 C       -4.5400     1.4400    -1.3330 C.3   1 <1>  -0.1600 
 14 C       -3.4170     3.6050    -2.1340 C.3   1 <1>  -0.1600 
 15 N       -6.2020     3.4730     0.2470 N.ar  1 <1>  -0.6200 
 16 C       -5.1350     4.9740    -1.2080 C.ar  1 <1>  -0.1440 
 17 C       -3.9090     5.0620    -2.0810 C.3   1 <1>  -0.0170 
 18 C       -7.1260     4.4250     0.4340 C.ar  1 <1>   0.6200 
 19 C       -6.1170     5.8980    -0.9650 C.ar  1 <1>   0.1600 
 20 N       -7.1120     5.6340    -0.1490 N.ar  1 <1>  -0.6200 
 21 C       -8.2260     4.1240     1.3410 C.ar  1 <1>   0.0000 
 22 C       -8.6510     2.8120     1.5690 C.ar  1 <1>  -0.1500 
 23 C       -8.9100     5.1330     2.0280 C.ar  1 <1>  -0.1500 
 24 C       -9.6940     2.5210     2.4300 C.ar  1 <1>  -0.1500 
 25 C       -9.9540     4.8500     2.8900 C.ar  1 <1>  -0.1500 
 26 C      -10.3490     3.5410     3.0940 C.ar  1 <1>  -0.1500 
 27 H       -0.6850     4.3870    -0.1780 H     1 <1>   0.0000 
 28 H       -2.7860     3.7640     0.5200 H     1 <1>   0.0800 
 29 H       -3.6710     2.3990     1.1200 H     1 <1>   0.0800 
 30 H       -2.9070     0.0340     0.4900 H     1 <1>   0.0800 
 31 H       -1.5490    -0.1510    -0.5820 H     1 <1>   0.0800 
 32 H        1.7430     4.4230    -0.2010 H     1 <1>   0.0000 
 33 H        1.8540     3.0180     0.9200 H     1 <1>   0.0000 
 34 H       -0.2300     3.0520     2.5660 H     1 <1>   0.0000 
 35 H       -1.2490     4.4920     2.2040 H     1 <1>   0.0000 
 36 H       -3.7060    -0.4990    -1.7530 H     1 <1>   0.0800 
 37 H       -2.7880     0.8080    -2.4310 H     1 <1>   0.0800 
 38 H        0.7050     5.7980     1.5340 H     1 <1>   0.0000 
 39 H        1.5800     4.6930     2.6570 H     1 <1>   0.0000 
 40 H       -5.1570     1.4820    -2.2130 H     1 <1>   0.0800 
 41 H       -5.1440     1.0400    -0.5360 H     1 <1>   0.0800 
 42 H       -3.7600     3.1730    -3.0580 H     1 <1>   0.0800 
 43 H       -2.3430     3.5470    -2.1210 H     1 <1>   0.0800 
 44 H       -4.1440     5.4350    -3.0630 H     1 <1>   0.0800 
 45 H       -3.1750     5.6950    -1.6140 H     1 <1>   0.0800 
 46 H       -6.0880     6.8640    -1.4400 H     1 <1>   0.1500 
 47 H       -8.1560     2.0020     1.0600 H     1 <1>   0.1500 
 48 H       -8.6170     6.1580     1.8830 H     1 <1>   0.1500 
 49 H       -9.9960     1.5000     2.5830 H     1 <1>   0.1500 
 50 H      -10.4590     5.6500     3.4020 H     1 <1>   0.1500 
 51 H      -11.1610     3.3190     3.7640 H     1 <1>   0.1500 
@<TRIPOS>BOND
  1   1   2  2   
  2   2   3  am  
  3   2   4  1   
  4   3   5  1   
  5   3   6  1   
  6   4   7  1   
  7   4   8  1   
  8   4  27  1   
  9   5   9  1   
 10   5  28  1   
 11   5  29  1   
 12   6  10  1   
 13   6  30  1   
 14   6  31  1   
 15   7  11  1   
 16   7  32  1   
 17   7  33  1   
 18   8  11  1   
 19   8  34  1   
 20   8  35  1   
 21   9  12  1   
 22   9  13  1   
 23   9  14  1   
 24  10  13  1   
 25  10  36  1   
 26  10  37  1   
 27  11  38  1   
 28  11  39  1   
 29  12  15  ar  
 30  12  16  ar  
 31  13  40  1   
 32  13  41  1   
 33  14  17  1   
 34  14  42  1   
 35  14  43  1   
 36  15  18  ar  
 37  16  17  1   
 38  16  19  ar  
 39  17  44  1   
 40  17  45  1   
 41  18  20  ar  
 42  18  21  1   
 43  19  20  ar  
 44  19  46  1   
 45  21  22  ar  
 46  21  23  ar  
 47  22  24  ar  
 48  22  47  1   
 49  23  25  ar  
 50  23  48  1   
 51  24  26  ar  
 52  24  49  1   
 53  25  26  ar  
 54  25  50  1   
 55  26  51  1   
@<TRIPOS>SUBSTRUCTURE
  1 ****  12 GROUP 4 **** **** 0

# MOE 2024.06 (io_trps.svl 2023.06)
