@<TRIPOS>MOLECULE
NONAME
48 51 1 0 0 
SMALL
USER_CHARGES


@<TRIPOS>ATOM
  1 O       -0.3930     5.0400    -1.3670 O.2   1 <1>  -0.5700 
  2 C       -0.4160     3.8740    -0.9730 C.2   1 <1>   0.5440 
  3 N       -1.6690     3.3500    -0.6820 N.am  1 <1>  -0.6600 
  4 C        0.8400     3.2020    -0.7270 C.ar  1 <1>   0.0860 
  5 C       -2.9370     4.0580    -1.0040 C.3   1 <1>   0.1400 
  6 C       -1.8520     2.0600     0.0440 C.3   1 <1>   0.1400 
  7 C        1.1590     1.8460    -0.9890 C.ar  1 <1>  -0.1710 
  8 C        1.8920     3.9310    -0.1720 C.ar  1 <1>  -0.1500 
  9 C       -3.6440     4.4980     0.2970 C.3   1 <1>   0.1440 
 10 C       -3.1390     2.0600     0.8910 C.3   1 <1>  -0.1600 
 11 O        0.3570     1.0470    -1.5320 O.3   1 <1>  -0.8290 
 12 C        2.4400     1.3710    -0.6420 C.ar  1 <1>   0.1600 
 13 C        3.1060     3.3540     0.1160 C.ar  1 <1>   0.1600 
 14 C       -5.1030     4.7550    -0.0380 C.ar  1 <1>   0.1660 
 15 C       -3.4600     3.4610     1.4400 C.3   1 <1>  -0.1600 
 16 C       -3.1650     5.9050     0.7410 C.3   1 <1>  -0.1600 
 17 N        3.4040     2.0730    -0.1010 N.ar  1 <1>  -0.6200 
 18 N       -6.0160     3.8340    -0.2290 N.ar  1 <1>  -0.6200 
 19 C       -5.3660     6.0880    -0.1380 C.ar  1 <1>  -0.1430 
 20 C       -4.1350     6.9210     0.1170 C.3   1 <1>  -0.0170 
 21 C       -7.2340     4.2900    -0.5270 C.ar  1 <1>   0.7200 
 22 C       -6.6480     6.4640    -0.4470 C.ar  1 <1>   0.1600 
 23 N       -7.5920     5.5730    -0.6420 N.ar  1 <1>  -0.6200 
 24 N       -8.2170     3.3420    -0.7390 N.pl3 1 <1>  -0.8380 
 25 C       -9.6640     3.6930    -0.7730 C.3   1 <1>   0.1290 
 26 C       -7.8870     1.9070    -0.9570 C.3   1 <1>   0.1290 
 27 H       -3.5680     3.3740    -1.5440 H     1 <1>   0.0800 
 28 H       -2.7590     4.9020    -1.6450 H     1 <1>   0.0800 
 29 H       -1.0010     1.8920     0.6820 H     1 <1>   0.0800 
 30 H       -1.8880     1.2550    -0.6700 H     1 <1>   0.0800 
 31 H        1.7390     4.9720     0.0350 H     1 <1>   0.1500 
 32 H       -3.0280     1.3580     1.6980 H     1 <1>   0.0800 
 33 H       -3.9580     1.7200     0.2810 H     1 <1>   0.0800 
 34 H        2.6180     0.3340    -0.8550 H     1 <1>   0.1500 
 35 H        3.8860     3.9570     0.5450 H     1 <1>   0.1500 
 36 H       -4.3420     3.4280     2.0550 H     1 <1>   0.0800 
 37 H       -2.6330     3.7570     2.0610 H     1 <1>   0.0800 
 38 H       -2.1440     6.0910     0.4550 H     1 <1>   0.0800 
 39 H       -3.2400     5.9880     1.8110 H     1 <1>   0.0800 
 40 H       -3.7450     7.2890    -0.8170 H     1 <1>   0.0800 
 41 H       -4.3330     7.7420     0.7830 H     1 <1>   0.0800 
 42 H       -6.9030     7.5060    -0.5360 H     1 <1>   0.1500 
 43 H       -9.8550     4.5660    -0.1710 H     1 <1>   0.0800 
 44 H      -10.2510     2.8800    -0.3840 H     1 <1>   0.0800 
 45 H       -9.9600     3.8960    -1.7870 H     1 <1>   0.0800 
 46 H       -6.9350     1.8110    -1.4500 H     1 <1>   0.0800 
 47 H       -8.6360     1.4420    -1.5740 H     1 <1>   0.0800 
 48 H       -7.8410     1.4010    -0.0090 H     1 <1>   0.0800 
@<TRIPOS>BOND
  1   1   2  2   
  2   2   3  am  
  3   2   4  1   
  4   3   5  1   
  5   3   6  1   
  6   4   7  ar  
  7   4   8  ar  
  8   5   9  1   
  9   5  27  1   
 10   5  28  1   
 11   6  10  1   
 12   6  29  1   
 13   6  30  1   
 14   7  11  1   
 15   7  12  ar  
 16   8  13  ar  
 17   8  31  1   
 18   9  14  1   
 19   9  15  1   
 20   9  16  1   
 21  10  15  1   
 22  10  32  1   
 23  10  33  1   
 24  12  17  ar  
 25  12  34  1   
 26  13  17  ar  
 27  13  35  1   
 28  14  18  ar  
 29  14  19  ar  
 30  15  36  1   
 31  15  37  1   
 32  16  20  1   
 33  16  38  1   
 34  16  39  1   
 35  18  21  ar  
 36  19  20  1   
 37  19  22  ar  
 38  20  40  1   
 39  20  41  1   
 40  21  23  ar  
 41  21  24  1   
 42  22  23  ar  
 43  22  42  1   
 44  24  25  1   
 45  24  26  1   
 46  25  43  1   
 47  25  44  1   
 48  25  45  1   
 49  26  46  1   
 50  26  47  1   
 51  26  48  1   
@<TRIPOS>SUBSTRUCTURE
  1 ****   5 GROUP 4 **** **** 0

# MOE 2024.06 (io_trps.svl 2023.06)
