@<TRIPOS>MOLECULE
NONAME
52 53 1 0 0 
SMALL
USER_CHARGES


@<TRIPOS>ATOM
  1 O        0.5340    -0.6500     0.8210 O.co2 1 <1>  -0.9000 
  2 C        1.4360    -0.3630     0.0260 C.2   1 <1>   0.9060 
  3 O        1.5980    -1.0110    -1.0220 O.co2 1 <1>  -0.9000 
  4 C        2.4040     0.7950     0.3120 C.3   1 <1>  -0.1060 
  5 C        3.8270     0.1940     0.2580 C.3   1 <1>   0.2000 
  6 C        2.2290     1.3630     1.7470 C.3   1 <1>  -0.1600 
  7 C        2.2070     1.9030    -0.7700 C.3   1 <1>  -0.0160 
  8 O        4.1110    -0.2220    -1.0330 O.3   1 <1>  -0.6800 
  9 C        4.9260     1.1700     0.7070 C.3   1 <1>   0.1100 
 10 C        3.3180     2.3740     2.1200 C.3   1 <1>   0.1100 
 11 C        0.9910     2.8080    -0.5750 C.ar  1 <1>  -0.1430 
 12 N        4.6520     1.7530     2.0410 N.3   1 <1>  -0.8100 
 13 C        1.1560     4.1500    -0.2620 C.ar  1 <1>  -0.1500 
 14 C       -0.2930     2.3030    -0.7140 C.ar  1 <1>  -0.1500 
 15 C        5.7100     2.7000     2.4940 C.3   1 <1>   0.1710 
 16 C        0.0570     4.9730    -0.0900 C.ar  1 <1>  -0.1500 
 17 C       -1.3940     3.1240    -0.5410 C.ar  1 <1>  -0.1500 
 18 C        5.8210     4.0240     1.7190 C.2   1 <1>   0.5690 
 19 C       -1.2210     4.4610    -0.2300 C.ar  1 <1>  -0.1500 
 20 O        5.3930     5.0330     2.2300 O.2   1 <1>  -0.5700 
 21 N        6.4030     4.0100     0.4860 N.am  1 <1>  -0.7300 
 22 C        6.4910     5.0830    -0.5050 C.3   1 <1>   0.3000 
 23 C        7.2020     4.4920    -1.7200 C.3   1 <1>  -0.2400 
 24 C        7.3090     6.2460     0.0550 C.3   1 <1>  -0.2400 
 25 C        5.0820     5.5270    -0.9020 C.3   1 <1>  -0.2400 
 26 H        3.8640    -0.6800     0.8870 H     1 <1>   0.0800 
 27 H        2.2590     0.5530     2.4560 H     1 <1>   0.0800 
 28 H        1.2600     1.8190     1.8470 H     1 <1>   0.0800 
 29 H        3.0780     2.5260    -0.8150 H     1 <1>   0.0800 
 30 H        2.1240     1.4400    -1.7380 H     1 <1>   0.0800 
 31 H        3.2800    -0.6960    -1.3370 H     1 <1>   0.4000 
 32 H        4.9990     1.9500    -0.0250 H     1 <1>   0.0800 
 33 H        5.8580     0.6360     0.7410 H     1 <1>   0.0800 
 34 H        3.1430     2.7160     3.1260 H     1 <1>   0.0800 
 35 H        3.2630     3.2260     1.4660 H     1 <1>   0.0800 
 36 H        2.1430     4.5600    -0.1490 H     1 <1>   0.1500 
 37 H       -0.4400     1.2610    -0.9500 H     1 <1>   0.1500 
 38 H        5.5240     2.9420     3.5250 H     1 <1>   0.0800 
 39 H        6.6610     2.2030     2.4560 H     1 <1>   0.0800 
 40 H        0.1980     6.0110     0.1550 H     1 <1>   0.1500 
 41 H       -2.3810     2.7110    -0.6460 H     1 <1>   0.1500 
 42 H       -2.0770     5.0960    -0.0940 H     1 <1>   0.1500 
 43 H        6.6750     3.1030     0.1120 H     1 <1>   0.3700 
 44 H        7.2970     5.2360    -2.4900 H     1 <1>   0.0800 
 45 H        6.6430     3.6650    -2.1230 H     1 <1>   0.0800 
 46 H        8.1900     4.1580    -1.4550 H     1 <1>   0.0800 
 47 H        7.4450     7.0000    -0.6980 H     1 <1>   0.0800 
 48 H        8.2770     5.9050     0.3770 H     1 <1>   0.0800 
 49 H        6.8050     6.6990     0.8890 H     1 <1>   0.0800 
 50 H        5.1320     6.2670    -1.6790 H     1 <1>   0.0800 
 51 H        4.5720     5.9620    -0.0620 H     1 <1>   0.0800 
 52 H        4.5120     4.6900    -1.2630 H     1 <1>   0.0800 
@<TRIPOS>BOND
  1   1   2  ar  
  2   2   3  ar  
  3   2   4  1   
  4   4   5  1   
  5   4   6  1   
  6   4   7  1   
  7   5   8  1   
  8   5   9  1   
  9   5  26  1   
 10   6  10  1   
 11   6  27  1   
 12   6  28  1   
 13   7  11  1   
 14   7  29  1   
 15   7  30  1   
 16   8  31  1   
 17   9  12  1   
 18   9  32  1   
 19   9  33  1   
 20  10  12  1   
 21  10  34  1   
 22  10  35  1   
 23  11  13  ar  
 24  11  14  ar  
 25  12  15  1   
 26  13  16  ar  
 27  13  36  1   
 28  14  17  ar  
 29  14  37  1   
 30  15  18  1   
 31  15  38  1   
 32  15  39  1   
 33  16  19  ar  
 34  16  40  1   
 35  17  19  ar  
 36  17  41  1   
 37  18  20  2   
 38  18  21  am  
 39  19  42  1   
 40  21  22  1   
 41  21  43  1   
 42  22  23  1   
 43  22  24  1   
 44  22  25  1   
 45  23  44  1   
 46  23  45  1   
 47  23  46  1   
 48  24  47  1   
 49  24  48  1   
 50  24  49  1   
 51  25  50  1   
 52  25  51  1   
 53  25  52  1   
@<TRIPOS>SUBSTRUCTURE
  1 ****   7 GROUP 4 **** **** 0

# MOE 2024.06 (io_trps.svl 2023.06)
