@<TRIPOS>MOLECULE
NONAME
45 47 1 0 0 
SMALL
USER_CHARGES


@<TRIPOS>ATOM
  1 O       -0.5170    -0.9300    -0.8660 O.2   1 <1>  -0.5700 
  2 C        0.2890    -1.7280    -0.4560 C.2   1 <1>   0.5690 
  3 N       -0.0400    -2.8050     0.3210 N.am  1 <1>  -0.6600 
  4 C        1.7510    -1.5440    -0.8090 C.3   1 <1>  -0.0990 
  5 C        1.0030    -3.7430     0.7980 C.3   1 <1>   0.1400 
  6 C       -1.4350    -3.0650     0.7720 C.3   1 <1>   0.0600 
  7 C        2.3700    -2.8840    -1.2500 C.3   1 <1>  -0.0800 
  8 C        1.9720    -4.0820    -0.3540 C.3   1 <1>  -0.0800 
  9 C        3.9040    -2.8600    -1.2910 C.3   1 <1>  -0.1600 
 10 C        3.2900    -4.7080     0.1260 C.3   1 <1>  -0.1600 
 11 C        4.3060    -4.2840    -0.9340 C.3   1 <1>   0.4230 
 12 N        5.7440    -4.4400    -0.5460 N.4   1 <1>  -0.9590 
 13 C        6.1940    -3.7980     0.7330 C.3   1 <1>   0.4860 
 14 C        6.1150    -5.8910    -0.5530 C.3   1 <1>   0.2630 
 15 C        6.7330    -2.4130     0.4610 C.ar  1 <1>  -0.1440 
 16 C        7.8300    -2.2030    -0.3470 C.ar  1 <1>   0.1600 
 17 C        6.1550    -1.2950     1.0230 C.ar  1 <1>   0.1600 
 18 N        8.2800    -1.0050    -0.6150 N.ar  1 <1>  -0.6200 
 19 N        6.5880    -0.0860     0.7730 N.ar  1 <1>  -0.6200 
 20 C        7.6210    -0.0090    -0.0480 C.ar  1 <1>   0.7200 
 21 N        8.0600     1.2170    -0.3250 N.pl3 1 <1>  -0.9000 
 22 H        1.8390    -0.8170    -1.5970 H     1 <1>   0.0800 
 23 H        2.2460    -1.1550     0.0610 H     1 <1>   0.0800 
 24 H        1.5280    -3.2710     1.6110 H     1 <1>   0.0800 
 25 H        0.5470    -4.6460     1.1690 H     1 <1>   0.0800 
 26 H       -1.7630    -4.0240     0.4110 H     1 <1>   0.0800 
 27 H       -2.1020    -2.3100     0.3920 H     1 <1>   0.0800 
 28 H       -1.4790    -3.0530     1.8460 H     1 <1>   0.0800 
 29 H        2.0030    -3.0940    -2.2430 H     1 <1>   0.0800 
 30 H        1.4710    -4.7990    -0.9830 H     1 <1>   0.0800 
 31 H        4.2560    -2.1620    -0.5600 H     1 <1>   0.0800 
 32 H        4.2600    -2.5720    -2.2650 H     1 <1>   0.0800 
 33 H        3.2020    -5.7780     0.1930 H     1 <1>   0.0800 
 34 H        3.5370    -4.3020     1.0880 H     1 <1>   0.0800 
 35 H        4.1210    -4.8850    -1.8120 H     1 <1>   0.0800 
 36 H        6.2760    -3.9780    -1.2980 H     1 <1>   0.4500 
 37 H        5.3870    -3.7480     1.4440 H     1 <1>   0.0800 
 38 H        6.9840    -4.3820     1.1760 H     1 <1>   0.0800 
 39 H        5.5800    -6.4200     0.2190 H     1 <1>   0.0800 
 40 H        7.1730    -6.0110    -0.3850 H     1 <1>   0.0800 
 41 H        5.8700    -6.3350    -1.5050 H     1 <1>   0.0800 
 42 H        8.3580    -3.0300    -0.7920 H     1 <1>   0.1500 
 43 H        5.3120    -1.3820     1.6900 H     1 <1>   0.1500 
 44 H        7.7690     1.9520     0.3150 H     1 <1>   0.4000 
 45 H        9.0050     1.2810    -0.6950 H     1 <1>   0.4000 
@<TRIPOS>BOND
  1   1   2  2   
  2   2   3  am  
  3   2   4  1   
  4   3   5  1   
  5   3   6  1   
  6   4   7  1   
  7   4  22  1   
  8   4  23  1   
  9   5   8  1   
 10   5  24  1   
 11   5  25  1   
 12   6  26  1   
 13   6  27  1   
 14   6  28  1   
 15   7   8  1   
 16   7   9  1   
 17   7  29  1   
 18   8  10  1   
 19   8  30  1   
 20   9  11  1   
 21   9  31  1   
 22   9  32  1   
 23  10  11  1   
 24  10  33  1   
 25  10  34  1   
 26  11  12  1   
 27  11  35  1   
 28  12  13  1   
 29  12  14  1   
 30  12  36  1   
 31  13  15  1   
 32  13  37  1   
 33  13  38  1   
 34  14  39  1   
 35  14  40  1   
 36  14  41  1   
 37  15  16  ar  
 38  15  17  ar  
 39  16  18  ar  
 40  16  42  1   
 41  17  19  ar  
 42  17  43  1   
 43  18  20  ar  
 44  19  20  ar  
 45  20  21  1   
 46  21  44  1   
 47  21  45  1   
@<TRIPOS>SUBSTRUCTURE
  1 ****   9 GROUP 4 **** **** 0

# MOE 2024.06 (io_trps.svl 2023.06)
