@<TRIPOS>MOLECULE
NONAME
46 48 1 0 0 
SMALL
USER_CHARGES


@<TRIPOS>ATOM
  1 O       -1.6810     1.2260    -2.7360 O.2   1 <1>  -0.5700 
  2 C       -1.8740     1.4670    -1.5590 C.2   1 <1>   0.5440 
  3 N       -2.5660     0.5480    -0.8300 N.am  1 <1>  -0.7300 
  4 C       -1.3760     2.6860    -0.9460 C.ar  1 <1>   0.0860 
  5 C       -2.8850    -0.8230    -1.2760 C.3   1 <1>   0.2200 
  6 C       -1.0720     2.8010     0.4230 C.ar  1 <1>   0.0820 
  7 C       -1.1870     3.8210    -1.7370 C.ar  1 <1>  -0.1500 
  8 C       -3.9600    -1.3990    -0.3720 C.3   1 <1>  -0.0800 
  9 C       -1.7050    -1.7460    -0.9830 C.3   1 <1>   0.1200 
 10 O       -1.1910     1.7390     1.2520 O.3   1 <1>  -0.3630 
 11 C       -0.6490     4.0110     0.9710 C.ar  1 <1>  -0.1440 
 12 C       -0.7490     5.0160    -1.2030 C.ar  1 <1>  -0.1500 
 13 C       -3.1360    -1.9000     0.8190 C.3   1 <1>   0.1200 
 14 C       -4.7320    -2.5370    -1.0670 C.3   1 <1>  -0.0170 
 15 O       -1.8470    -2.1640     0.3450 O.3   1 <1>  -0.5600 
 16 C       -0.1070     0.8330     1.2900 C.3   1 <1>   0.0400 
 17 C       -0.4850     5.1130     0.1510 C.ar  1 <1>  -0.1500 
 18 C       -0.3620     4.1430     2.4610 C.3   1 <1>  -0.0970 
 19 C       -5.8250    -3.0950    -0.1690 C.ar  1 <1>  -0.1430 
 20 C       -5.7040    -4.3180     0.4600 C.ar  1 <1>  -0.1500 
 21 C       -6.9970    -2.4040     0.0640 C.ar  1 <1>  -0.1500 
 22 C       -6.7300    -4.7750     1.2710 C.ar  1 <1>   0.1600 
 23 C       -7.9610    -2.9510     0.8940 C.ar  1 <1>   0.1600 
 24 N       -7.8550    -4.1190     1.5040 N.ar  1 <1>  -0.6200 
 25 H       -2.5260     0.6740     0.1870 H     1 <1>   0.3700 
 26 H       -3.1530    -0.8200    -2.3200 H     1 <1>   0.0800 
 27 H       -1.3950     3.7600    -2.7920 H     1 <1>   0.1500 
 28 H       -4.6600    -0.6410    -0.0670 H     1 <1>   0.0800 
 29 H       -0.7570    -1.2560    -1.1130 H     1 <1>   0.0800 
 30 H       -1.7460    -2.6220    -1.6060 H     1 <1>   0.0800 
 31 H       -0.6150     5.8740    -1.8390 H     1 <1>   0.1500 
 32 H       -3.5350    -2.7930     1.2680 H     1 <1>   0.0800 
 33 H       -3.0520    -1.1340     1.5700 H     1 <1>   0.0800 
 34 H       -4.0590    -3.3280    -1.3490 H     1 <1>   0.0800 
 35 H       -5.1870    -2.1620    -1.9670 H     1 <1>   0.0800 
 36 H       -0.3840    -0.0020     1.9090 H     1 <1>   0.0800 
 37 H        0.7500     1.3340     1.7040 H     1 <1>   0.0800 
 38 H        0.1070     0.4930     0.2930 H     1 <1>   0.0800 
 39 H       -0.1520     6.0520     0.5570 H     1 <1>   0.1500 
 40 H       -0.2500     5.1740     2.7440 H     1 <1>   0.0800 
 41 H        0.5440     3.6190     2.7080 H     1 <1>   0.0800 
 42 H       -1.1710     3.7240     3.0320 H     1 <1>   0.0800 
 43 H       -4.8240    -4.9210     0.3290 H     1 <1>   0.1500 
 44 H       -7.1690    -1.4460    -0.3920 H     1 <1>   0.1500 
 45 H       -6.6180    -5.7310     1.7540 H     1 <1>   0.1500 
 46 H       -8.8690    -2.3970     1.0640 H     1 <1>   0.1500 
@<TRIPOS>BOND
  1   1   2  2   
  2   2   3  am  
  3   2   4  1   
  4   3   5  1   
  5   3  25  1   
  6   4   6  ar  
  7   4   7  ar  
  8   5   8  1   
  9   5   9  1   
 10   5  26  1   
 11   6  10  1   
 12   6  11  ar  
 13   7  12  ar  
 14   7  27  1   
 15   8  13  1   
 16   8  14  1   
 17   8  28  1   
 18   9  15  1   
 19   9  29  1   
 20   9  30  1   
 21  10  16  1   
 22  11  17  ar  
 23  11  18  1   
 24  12  17  ar  
 25  12  31  1   
 26  13  15  1   
 27  13  32  1   
 28  13  33  1   
 29  14  19  1   
 30  14  34  1   
 31  14  35  1   
 32  16  36  1   
 33  16  37  1   
 34  16  38  1   
 35  17  39  1   
 36  18  40  1   
 37  18  41  1   
 38  18  42  1   
 39  19  20  ar  
 40  19  21  ar  
 41  20  22  ar  
 42  20  43  1   
 43  21  23  ar  
 44  21  44  1   
 45  22  24  ar  
 46  22  45  1   
 47  23  24  ar  
 48  23  46  1   
@<TRIPOS>SUBSTRUCTURE
  1 ****   3 GROUP 4 **** **** 0

# MOE 2024.06 (io_trps.svl 2023.06)
