@<TRIPOS>MOLECULE
NONAME
44 45 1 0 0 
SMALL
USER_CHARGES


@<TRIPOS>ATOM
  1 O        1.1210     0.6990     0.3160 O.3   1 <1>  -0.6800 
  2 C        1.1180    -0.3360     1.2600 C.3   1 <1>   0.1200 
  3 C        2.5640    -0.7650     1.5790 C.3   1 <1>   0.3430 
  4 N        3.4030    -0.6220     0.3510 N.4   1 <1>  -0.9590 
  5 C        3.7840    -1.9370    -0.2560 C.3   1 <1>   0.5240 
  6 C        4.5450     0.3110     0.5700 C.3   1 <1>   0.3430 
  7 C        2.5560    -2.7600    -0.6300 C.2   1 <1>   0.0460 
  8 C        5.1630     0.8260    -0.7420 C.3   1 <1>   0.0630 
  9 N        1.8410    -3.4170     0.3070 N.2   1 <1>  -0.5650 
 10 C        2.0290    -2.9620    -1.8590 C.2   1 <1>  -0.3020 
 11 C        6.2120     1.8740    -0.3900 C.ar  1 <1>  -0.1440 
 12 C        4.1240     1.4060    -1.7180 C.3   1 <1>  -0.2400 
 13 C        0.9080    -4.0070    -0.3650 C.2   1 <1>   0.0060 
 14 N        0.9650    -3.7680    -1.6920 N.pl3 1 <1>   0.0330 
 15 C        5.8490     3.0870     0.1820 C.ar  1 <1>  -0.1500 
 16 C        7.5560     1.6180    -0.6290 C.ar  1 <1>  -0.1500 
 17 C       -0.1520    -4.8910     0.2590 C.3   1 <1>  -0.0600 
 18 C        6.8120     4.0230     0.5140 C.ar  1 <1>  -0.1500 
 19 C        8.5190     2.5550    -0.2970 C.ar  1 <1>  -0.1500 
 20 C        8.1480     3.7570     0.2760 C.ar  1 <1>  -0.1500 
 21 H        0.2070     1.0210     0.1550 H     1 <1>   0.4000 
 22 H        0.5630    -1.1630     0.8490 H     1 <1>   0.0800 
 23 H        0.6210     0.0050     2.1520 H     1 <1>   0.0800 
 24 H        2.5740    -1.7800     1.9430 H     1 <1>   0.0800 
 25 H        2.9440    -0.1290     2.3610 H     1 <1>   0.0800 
 26 H        2.7420    -0.1520    -0.2950 H     1 <1>   0.4500 
 27 H        4.3840    -2.5040     0.4360 H     1 <1>   0.0800 
 28 H        4.3620    -1.7690    -1.1480 H     1 <1>   0.0800 
 29 H        5.3080    -0.1670     1.1620 H     1 <1>   0.0800 
 30 H        4.1910     1.1670     1.1230 H     1 <1>   0.0800 
 31 H        5.6620     0.0090    -1.2310 H     1 <1>   0.0800 
 32 H        2.3390    -2.5970    -2.8240 H     1 <1>   0.1500 
 33 H        3.5160     2.1540    -1.2390 H     1 <1>   0.0800 
 34 H        3.4800     0.6370    -2.1060 H     1 <1>   0.0800 
 35 H        4.6280     1.8660    -2.5510 H     1 <1>   0.0800 
 36 H        0.3350    -4.1380    -2.4120 H     1 <1>   0.2700 
 37 H        4.8170     3.3230     0.3730 H     1 <1>   0.1500 
 38 H        7.8720     0.6920    -1.0770 H     1 <1>   0.1500 
 39 H       -0.0040    -4.9480     1.3230 H     1 <1>   0.0800 
 40 H       -0.0910    -5.8840    -0.1470 H     1 <1>   0.0800 
 41 H       -1.1310    -4.4900     0.0690 H     1 <1>   0.0800 
 42 H        6.5240     4.9620     0.9550 H     1 <1>   0.1500 
 43 H        9.5590     2.3500    -0.4850 H     1 <1>   0.1500 
 44 H        8.8970     4.4860     0.5330 H     1 <1>   0.1500 
@<TRIPOS>BOND
  1   1   2  1   
  2   1  21  1   
  3   2   3  1   
  4   2  22  1   
  5   2  23  1   
  6   3   4  1   
  7   3  24  1   
  8   3  25  1   
  9   4   5  1   
 10   4   6  1   
 11   4  26  1   
 12   5   7  1   
 13   5  27  1   
 14   5  28  1   
 15   6   8  1   
 16   6  29  1   
 17   6  30  1   
 18   7   9  1   
 19   7  10  2   
 20   8  11  1   
 21   8  12  1   
 22   8  31  1   
 23   9  13  2   
 24  10  14  1   
 25  10  32  1   
 26  11  15  ar  
 27  11  16  ar  
 28  12  33  1   
 29  12  34  1   
 30  12  35  1   
 31  13  14  1   
 32  13  17  1   
 33  14  36  1   
 34  15  18  ar  
 35  15  37  1   
 36  16  19  ar  
 37  16  38  1   
 38  17  39  1   
 39  17  40  1   
 40  17  41  1   
 41  18  20  ar  
 42  18  42  1   
 43  19  20  ar  
 44  19  43  1   
 45  20  44  1   
@<TRIPOS>SUBSTRUCTURE
  1 ****   4 GROUP 4 **** **** 0

# MOE 2024.06 (io_trps.svl 2023.06)
