@<TRIPOS>MOLECULE
NONAME
37 39 1 0 0 
SMALL
USER_CHARGES


@<TRIPOS>ATOM
  1 O        2.0480     1.3440     1.9810 O.2   1 <1>  -0.5700 
  2 C        2.1840     0.6130     1.0300 C.2   1 <1>   0.5690 
  3 N        2.7980     0.9420    -0.1270 N.am  1 <1>  -0.6600 
  4 C        1.6920    -0.8060     0.9890 C.3   1 <1>  -0.0990 
  5 C        2.8190    -0.1590    -1.1030 C.3   1 <1>   0.1400 
  6 C        3.3170     2.2870    -0.4520 C.3   1 <1>   0.1400 
  7 C        2.3080    -1.3680    -0.3050 C.3   1 <1>  -0.1600 
  8 C        4.6740     2.4800     0.2200 C.3   1 <1>  -0.0990 
  9 C        5.1020     3.9210     0.1020 C.2   1 <1>   0.5690 
 10 O        5.7250     4.2600    -0.8720 O.2   1 <1>  -0.5700 
 11 N        4.7390     4.7810     1.0930 N.am  1 <1>  -0.4940 
 12 C        4.9330     6.1630     1.2050 C.2   1 <1>   0.2500 
 13 N        4.0710     6.8960     1.8360 N.2   1 <1>  -0.3380 
 14 N        5.9680     6.8980     0.7360 N.pl3 1 <1>   0.3340 
 15 N        4.4980     8.1560     1.7860 N.2   1 <1>  -0.3380 
 16 C        5.6240     8.1580     1.1340 C.2   1 <1>   0.3120 
 17 C        7.1980     6.6970     0.1180 C.2   1 <1>  -0.1810 
 18 N        6.4020     9.2660     0.8770 N.2   1 <1>  -0.5760 
 19 C        7.9740     7.7820    -0.1230 C.2   1 <1>  -0.1360 
 20 C        7.5220     9.0730     0.2710 C.2   1 <1>   0.3750 
 21 C        8.4040    10.2640    -0.0320 C.3   1 <1>  -0.1790 
 22 H        0.6190    -0.8010     0.9400 H     1 <1>   0.0800 
 23 H        2.0200    -1.3450     1.8590 H     1 <1>   0.0800 
 24 H        3.8170    -0.3230    -1.4730 H     1 <1>   0.0800 
 25 H        2.1560     0.0720    -1.9200 H     1 <1>   0.0800 
 26 H        2.6190     3.0210    -0.0840 H     1 <1>   0.0800 
 27 H        3.4040     2.4060    -1.5190 H     1 <1>   0.0800 
 28 H        1.5960    -1.9400    -0.8740 H     1 <1>   0.0800 
 29 H        3.1430    -2.0030    -0.0630 H     1 <1>   0.0800 
 30 H        5.4060     1.8530    -0.2550 H     1 <1>   0.0800 
 31 H        4.6140     2.2130     1.2590 H     1 <1>   0.0800 
 32 H        4.0740     4.4190     1.7790 H     1 <1>   0.3700 
 33 H        7.4740     5.6920    -0.1380 H     1 <1>   0.1500 
 34 H        8.9320     7.7030    -0.6060 H     1 <1>   0.1500 
 35 H        9.3500    10.1540     0.4630 H     1 <1>   0.0800 
 36 H        7.9370    11.1690     0.3140 H     1 <1>   0.0800 
 37 H        8.5610    10.3420    -1.0920 H     1 <1>   0.0800 
@<TRIPOS>BOND
  1   1   2  2   
  2   2   3  am  
  3   2   4  1   
  4   3   5  1   
  5   3   6  1   
  6   4   7  1   
  7   4  22  1   
  8   4  23  1   
  9   5   7  1   
 10   5  24  1   
 11   5  25  1   
 12   6   8  1   
 13   6  26  1   
 14   6  27  1   
 15   7  28  1   
 16   7  29  1   
 17   8   9  1   
 18   8  30  1   
 19   8  31  1   
 20   9  10  2   
 21   9  11  am  
 22  11  12  1   
 23  11  32  1   
 24  12  13  2   
 25  12  14  1   
 26  13  15  1   
 27  14  16  1   
 28  14  17  1   
 29  15  16  2   
 30  16  18  1   
 31  17  19  2   
 32  17  33  1   
 33  18  20  2   
 34  19  20  1   
 35  19  34  1   
 36  20  21  1   
 37  21  35  1   
 38  21  36  1   
 39  21  37  1   
@<TRIPOS>SUBSTRUCTURE
  1 ****  11 GROUP 4 **** **** 0

# MOE 2024.06 (io_trps.svl 2023.06)
