@<TRIPOS>MOLECULE
NONAME
47 49 1 0 0 
SMALL
USER_CHARGES


@<TRIPOS>ATOM
  1 O        0.4240    -1.0660     2.3750 O.2   1 <1>  -0.5700 
  2 C        0.2300    -1.8720     1.4900 C.2   1 <1>   0.5440 
  3 N       -1.0690    -2.1510     1.2230 N.am  1 <1>  -0.8000 
  4 C        1.3210    -2.4570     0.7470 C.ar  1 <1>   0.0860 
  5 C        1.3230    -3.8030     0.3360 C.ar  1 <1>   0.4100 
  6 C        2.4200    -1.6820     0.4070 C.ar  1 <1>  -0.1500 
  7 N        2.2890    -4.3410    -0.4010 N.ar  1 <1>  -0.6200 
  8 N        0.3090    -4.6640     0.7070 N.pl3 1 <1>  -0.8690 
  9 C        3.4330    -2.2430    -0.3400 C.ar  1 <1>  -0.1430 
 10 C        3.3090    -3.5740    -0.7250 C.ar  1 <1>   0.1670 
 11 C        0.2700    -6.1160     0.4050 C.3   1 <1>   0.2890 
 12 C        4.6400    -1.3910    -0.7120 C.3   1 <1>  -0.0970 
 13 C        4.3800    -4.2490    -1.5630 C.3   1 <1>  -0.0970 
 14 C       -1.1900    -6.5890     0.2950 C.3   1 <1>   0.1400 
 15 C        1.0130    -6.8620     1.5190 C.3   1 <1>  -0.1600 
 16 N       -1.2810    -8.0810     0.1830 N.am  1 <1>  -0.6600 
 17 C        0.8830    -8.3840     1.3440 C.3   1 <1>  -0.1600 
 18 C       -1.9660    -8.6690    -0.8510 C.2   1 <1>   0.6300 
 19 C       -0.5830    -8.8240     1.2700 C.3   1 <1>   0.1400 
 20 O       -2.5010    -8.0160    -1.7160 O.2   1 <1>  -0.5700 
 21 C       -2.0720   -10.1890    -0.9440 C.3   1 <1>  -0.1000 
 22 C       -3.3380   -10.8510    -1.4100 C.3   1 <1>  -0.2000 
 23 C       -2.9190   -10.9720     0.0200 C.3   1 <1>  -0.2000 
 24 H       -1.7990    -1.6200     1.6990 H     1 <1>   0.3700 
 25 H       -1.3460    -2.7210     0.4210 H     1 <1>   0.3700 
 26 H        2.4620    -0.6550     0.7280 H     1 <1>   0.1500 
 27 H       -0.2330    -4.3870     1.5300 H     1 <1>   0.4000 
 28 H        0.7510    -6.3050    -0.5400 H     1 <1>   0.0800 
 29 H        4.6100    -0.4410    -0.2080 H     1 <1>   0.0800 
 30 H        4.6520    -1.2120    -1.7720 H     1 <1>   0.0800 
 31 H        5.5490    -1.8900    -0.4290 H     1 <1>   0.0800 
 32 H        4.0080    -5.1730    -1.9680 H     1 <1>   0.0800 
 33 H        5.2350    -4.4640    -0.9500 H     1 <1>   0.0800 
 34 H        4.6730    -3.6200    -2.3820 H     1 <1>   0.0800 
 35 H       -1.6370    -6.1170    -0.5620 H     1 <1>   0.0800 
 36 H       -1.7320    -6.2820     1.1710 H     1 <1>   0.0800 
 37 H        0.6060    -6.5800     2.4740 H     1 <1>   0.0800 
 38 H        2.0520    -6.5850     1.4940 H     1 <1>   0.0800 
 39 H        1.3630    -8.8810     2.1680 H     1 <1>   0.0800 
 40 H        1.3860    -8.6880     0.4420 H     1 <1>   0.0800 
 41 H       -0.6220    -9.8860     1.1060 H     1 <1>   0.0800 
 42 H       -1.0740    -8.6140     2.2050 H     1 <1>   0.0800 
 43 H       -1.1510   -10.6240    -1.2860 H     1 <1>   0.1000 
 44 H       -3.2590   -11.7080    -2.0550 H     1 <1>   0.1000 
 45 H       -4.1770   -10.2240    -1.6590 H     1 <1>   0.1000 
 46 H       -3.4860   -10.4390     0.7640 H     1 <1>   0.1000 
 47 H       -2.5590   -11.9230     0.3750 H     1 <1>   0.1000 
@<TRIPOS>BOND
  1   1   2  2   
  2   2   3  am  
  3   2   4  1   
  4   3  24  1   
  5   3  25  1   
  6   4   5  ar  
  7   4   6  ar  
  8   5   7  ar  
  9   5   8  1   
 10   6   9  ar  
 11   6  26  1   
 12   7  10  ar  
 13   8  11  1   
 14   8  27  1   
 15   9  10  ar  
 16   9  12  1   
 17  10  13  1   
 18  11  14  1   
 19  11  15  1   
 20  11  28  1   
 21  12  29  1   
 22  12  30  1   
 23  12  31  1   
 24  13  32  1   
 25  13  33  1   
 26  13  34  1   
 27  14  16  1   
 28  14  35  1   
 29  14  36  1   
 30  15  17  1   
 31  15  37  1   
 32  15  38  1   
 33  16  18  am  
 34  16  19  1   
 35  17  19  1   
 36  17  39  1   
 37  17  40  1   
 38  18  20  2   
 39  18  21  1   
 40  19  41  1   
 41  19  42  1   
 42  21  22  1   
 43  21  23  1   
 44  21  43  1   
 45  22  23  1   
 46  22  44  1   
 47  22  45  1   
 48  23  46  1   
 49  23  47  1   
@<TRIPOS>SUBSTRUCTURE
  1 ****  11 GROUP 4 **** **** 0

# MOE 2024.06 (io_trps.svl 2023.06)
