@<TRIPOS>MOLECULE
NONAME
50 52 1 0 0 
SMALL
USER_CHARGES


@<TRIPOS>ATOM
  1 F       -1.4270    -0.5300    -1.5150 F     1 <1>  -0.1900 
  2 C       -1.9800     0.3030    -0.6730 C.ar  1 <1>   0.1900 
  3 C       -2.7170    -0.1900     0.3990 C.ar  1 <1>  -0.1440 
  4 C       -1.7940     1.6540    -0.8930 C.ar  1 <1>  -0.1500 
  5 C       -3.2790     0.7210     1.2890 C.ar  1 <1>  -0.1500 
  6 C       -2.9040    -1.6870     0.6060 C.3   1 <1>   0.2540 
  7 C       -2.3730     2.5230     0.0090 C.ar  1 <1>   0.1900 
  8 C       -3.1100     2.0840     1.0950 C.ar  1 <1>  -0.1500 
  9 N       -3.9310    -2.2330    -0.3050 N.3   1 <1>  -0.8100 
 10 F       -2.2190     3.8070    -0.1670 F     1 <1>  -0.1900 
 11 C       -4.0360    -3.7130    -0.2020 C.3   1 <1>   0.3330 
 12 C       -5.2540    -1.6120    -0.0880 C.3   1 <1>   0.1100 
 13 C       -2.6990    -4.3750    -0.5420 C.ar  1 <1>  -0.1430 
 14 C       -5.1690    -4.2610    -1.1160 C.3   1 <1>   0.2000 
 15 C       -6.3260    -2.2320    -0.9980 C.3   1 <1>   0.1200 
 16 C       -2.1680    -5.3410     0.3010 C.ar  1 <1>  -0.1500 
 17 C       -2.0100    -4.0340    -1.6980 C.ar  1 <1>  -0.1500 
 18 O       -6.3780    -3.6160    -0.8110 O.3   1 <1>  -0.5600 
 19 C       -5.4110    -5.7720    -0.9620 C.3   1 <1>   0.1200 
 20 C       -0.9740    -5.9690    -0.0070 C.ar  1 <1>   0.0830 
 21 C       -0.8060    -4.6430    -2.0050 C.ar  1 <1>  -0.1500 
 22 O       -4.4170    -6.5160    -1.5950 O.3   1 <1>  -0.6800 
 23 O       -0.5460    -6.9370     0.8400 O.3   1 <1>  -0.3630 
 24 C       -0.2730    -5.6000    -1.1600 C.ar  1 <1>   0.0830 
 25 C       -0.5090    -8.2490     0.3200 C.3   1 <1>   0.0400 
 26 O        0.9250    -6.1380    -1.4960 O.3   1 <1>  -0.3630 
 27 C        2.0060    -5.8320    -0.6430 C.3   1 <1>   0.0400 
 28 H       -1.2240     2.0110    -1.7290 H     1 <1>   0.1500 
 29 H       -3.8510     0.3730     2.1320 H     1 <1>   0.1500 
 30 H       -3.1810    -1.8870     1.6270 H     1 <1>   0.0800 
 31 H       -1.9570    -2.1670     0.4260 H     1 <1>   0.0800 
 32 H       -3.5400     2.7990     1.7740 H     1 <1>   0.1500 
 33 H       -4.2920    -3.9650     0.8120 H     1 <1>   0.0800 
 34 H       -5.5560    -1.7300     0.9390 H     1 <1>   0.0800 
 35 H       -5.2000    -0.5590    -0.3040 H     1 <1>   0.0800 
 36 H       -4.9420    -4.0530    -2.1470 H     1 <1>   0.0800 
 37 H       -6.1080    -2.0280    -2.0330 H     1 <1>   0.0800 
 38 H       -7.2950    -1.8310    -0.7620 H     1 <1>   0.0800 
 39 H       -2.6780    -5.6280     1.2040 H     1 <1>   0.1500 
 40 H       -2.4100    -3.2810    -2.3580 H     1 <1>   0.1500 
 41 H       -6.3470    -6.0400    -1.4210 H     1 <1>   0.0800 
 42 H       -5.4320    -6.0500     0.0770 H     1 <1>   0.0800 
 43 H       -0.2720    -4.3710    -2.8980 H     1 <1>   0.1500 
 44 H       -3.5240    -6.1930    -1.3420 H     1 <1>   0.4000 
 45 H       -0.2670    -8.9220     1.1220 H     1 <1>   0.0800 
 46 H        0.2410    -8.3090    -0.4470 H     1 <1>   0.0800 
 47 H       -1.4770    -8.4890    -0.0850 H     1 <1>   0.0800 
 48 H        2.9010    -6.2410    -1.0740 H     1 <1>   0.0800 
 49 H        1.8320    -6.2700     0.3240 H     1 <1>   0.0800 
 50 H        2.0900    -4.7630    -0.5600 H     1 <1>   0.0800 
@<TRIPOS>BOND
  1   1   2  1   
  2   2   3  ar  
  3   2   4  ar  
  4   3   5  ar  
  5   3   6  1   
  6   4   7  ar  
  7   4  28  1   
  8   5   8  ar  
  9   5  29  1   
 10   6   9  1   
 11   6  30  1   
 12   6  31  1   
 13   7   8  ar  
 14   7  10  1   
 15   8  32  1   
 16   9  11  1   
 17   9  12  1   
 18  11  13  1   
 19  11  14  1   
 20  11  33  1   
 21  12  15  1   
 22  12  34  1   
 23  12  35  1   
 24  13  16  ar  
 25  13  17  ar  
 26  14  18  1   
 27  14  19  1   
 28  14  36  1   
 29  15  18  1   
 30  15  37  1   
 31  15  38  1   
 32  16  20  ar  
 33  16  39  1   
 34  17  21  ar  
 35  17  40  1   
 36  19  22  1   
 37  19  41  1   
 38  19  42  1   
 39  20  23  1   
 40  20  24  ar  
 41  21  24  ar  
 42  21  43  1   
 43  22  44  1   
 44  23  25  1   
 45  24  26  1   
 46  25  45  1   
 47  25  46  1   
 48  25  47  1   
 49  26  27  1   
 50  27  48  1   
 51  27  49  1   
 52  27  50  1   
@<TRIPOS>SUBSTRUCTURE
  1 ****  13 GROUP 4 **** **** 0

# MOE 2024.06 (io_trps.svl 2023.06)
