@<TRIPOS>MOLECULE
NONAME
41 42 1 0 0 
SMALL
USER_CHARGES


@<TRIPOS>ATOM
  1 CL      -0.1070    -0.1800    -0.7470 Cl    1 <1>  -0.1770 
  2 C       -0.0370     1.5610    -0.7740 C.ar  1 <1>   0.1770 
  3 C       -0.6790     2.2530    -1.7830 C.ar  1 <1>  -0.1500 
  4 C        0.6570     2.2320     0.2130 C.ar  1 <1>  -0.1500 
  5 C       -0.6180     3.6350    -1.7990 C.ar  1 <1>  -0.1500 
  6 C        0.7100     3.6150     0.1870 C.ar  1 <1>  -0.1500 
  7 C        0.0790     4.3530    -0.8210 C.ar  1 <1>   0.0860 
  8 C        0.1310     5.8060    -0.8690 C.2   1 <1>   0.5440 
  9 O       -0.7350     6.4290    -1.4530 O.2   1 <1>  -0.5700 
 10 N        1.1530     6.4840    -0.2680 N.am  1 <1>  -0.7300 
 11 C        1.2850     7.9160     0.1110 C.3   1 <1>   0.4050 
 12 C        2.6240     8.0430     0.9370 C.cat 1 <1>   0.6040 
 13 C        1.3520     8.7490    -1.2050 C.3   1 <1>  -0.1600 
 14 C        0.0760     8.2580     1.0190 C.3   1 <1>  -0.1600 
 15 N        3.4340     9.1060     0.7860 N.pl3 1 <1>  -0.7540 
 16 N        3.0330     7.1200     1.7870 N.pl3 1 <1>  -0.8240 
 17 C        1.1190    10.2750    -1.1330 C.3   1 <1>  -0.1600 
 18 C        0.0650     9.6740     1.6240 C.3   1 <1>  -0.1600 
 19 O        2.4330     6.0070     2.1010 O.3   1 <1>  -0.4800 
 20 C       -0.3300    10.6250    -0.7720 C.3   1 <1>  -0.1600 
 21 C       -0.5970    10.7380     0.7350 C.3   1 <1>  -0.1600 
 22 H       -1.2180     1.7150    -2.5410 H     1 <1>   0.1500 
 23 H        1.1490     1.6780     0.9940 H     1 <1>   0.1500 
 24 H       -1.1200     4.1790    -2.5820 H     1 <1>   0.1500 
 25 H        1.2460     4.1230     0.9690 H     1 <1>   0.1500 
 26 H        1.7350     5.9550     0.4080 H     1 <1>   0.3700 
 27 H        0.6240     8.3710    -1.8960 H     1 <1>   0.0800 
 28 H        2.3070     8.5670    -1.6650 H     1 <1>   0.0800 
 29 H        0.0950     7.5600     1.8390 H     1 <1>   0.0800 
 30 H       -0.8450     8.0960     0.4890 H     1 <1>   0.0800 
 31 H        4.3060     9.1860     1.3020 H     1 <1>   0.4500 
 32 H        3.2260     9.8520     0.1250 H     1 <1>   0.4500 
 33 H        3.9090     7.2350     2.3040 H     1 <1>   0.4500 
 34 H        1.3080    10.6690    -2.1170 H     1 <1>   0.0800 
 35 H        1.7910    10.7740    -0.4620 H     1 <1>   0.0800 
 36 H        1.0590     9.9850     1.8830 H     1 <1>   0.0800 
 37 H       -0.4880     9.6390     2.5480 H     1 <1>   0.0800 
 38 H       -0.9970     9.8950    -1.2020 H     1 <1>   0.0800 
 39 H       -0.5820    11.5710    -1.2220 H     1 <1>   0.0800 
 40 H       -0.2790    11.7080     1.0770 H     1 <1>   0.0800 
 41 H       -1.6640    10.6910     0.8810 H     1 <1>   0.0800 
@<TRIPOS>BOND
  1   1   2  1   
  2   2   3  ar  
  3   2   4  ar  
  4   3   5  ar  
  5   3  22  1   
  6   4   6  ar  
  7   4  23  1   
  8   5   7  ar  
  9   5  24  1   
 10   6   7  ar  
 11   6  25  1   
 12   7   8  1   
 13   8   9  2   
 14   8  10  am  
 15  10  11  1   
 16  10  26  1   
 17  11  12  1   
 18  11  13  1   
 19  11  14  1   
 20  12  15  ar  
 21  12  16  ar  
 22  13  17  1   
 23  13  27  1   
 24  13  28  1   
 25  14  18  1   
 26  14  29  1   
 27  14  30  1   
 28  15  31  1   
 29  15  32  1   
 30  16  19  1   
 31  16  33  1   
 32  17  20  1   
 33  17  34  1   
 34  17  35  1   
 35  18  21  1   
 36  18  36  1   
 37  18  37  1   
 38  20  21  1   
 39  20  38  1   
 40  20  39  1   
 41  21  40  1   
 42  21  41  1   
@<TRIPOS>SUBSTRUCTURE
  1 ****  10 GROUP 4 **** **** 0

# MOE 2024.06 (io_trps.svl 2023.06)
