@<TRIPOS>MOLECULE
NONAME
39 41 1 0 0 
SMALL
USER_CHARGES


@<TRIPOS>ATOM
  1 O       -0.0150     0.5630    -0.8230 O.3   1 <1>  -0.3630 
  2 C       -1.1400     0.1510    -0.2170 C.ar  1 <1>   0.0830 
  3 C        0.4150     1.7980    -0.2550 C.3   1 <1>   0.2000 
  4 C       -1.6130     1.0510     0.7010 C.ar  1 <1>  -0.1440 
  5 C       -1.7890    -1.0450    -0.4560 C.ar  1 <1>  -0.1500 
  6 C       -0.7000     2.2410     0.7160 C.3   1 <1>  -0.0170 
  7 C        0.7110     2.7890    -1.3930 C.3   1 <1>   0.2090 
  8 C       -2.7610     0.7840     1.4220 C.ar  1 <1>  -0.1500 
  9 C       -2.9430    -1.3240     0.2610 C.ar  1 <1>  -0.1500 
 10 N        0.9760     4.1770    -0.8890 N.pl3 1 <1>  -0.8380 
 11 C       -3.4250    -0.4150     1.1960 C.ar  1 <1>  -0.1500 
 12 C        2.2070     4.5230    -0.3610 C.ar  1 <1>   0.7200 
 13 C        0.0090     5.2210    -1.3340 C.3   1 <1>   0.1290 
 14 N        3.0350     3.5260    -0.0540 N.ar  1 <1>  -0.6200 
 15 N        2.4570     5.8220    -0.2000 N.ar  1 <1>  -0.6200 
 16 C        4.1950     3.8610     0.4480 C.ar  1 <1>   0.1670 
 17 C        3.6230     6.1360     0.3020 C.ar  1 <1>   0.1670 
 18 C        4.5430     5.1750     0.6490 C.ar  1 <1>  -0.1500 
 19 C        5.1410     2.7330     0.7990 C.3   1 <1>  -0.0970 
 20 C        3.9160     7.6090     0.4870 C.3   1 <1>  -0.0970 
 21 H        1.3150     1.5890     0.2930 H     1 <1>   0.0800 
 22 H       -1.3960    -1.7320    -1.1820 H     1 <1>   0.1500 
 23 H       -1.2140     3.1160     0.3660 H     1 <1>   0.0800 
 24 H       -0.2970     2.4280     1.6950 H     1 <1>   0.0800 
 25 H       -0.1280     2.8040    -2.0660 H     1 <1>   0.0800 
 26 H        1.5700     2.4430    -1.9410 H     1 <1>   0.0800 
 27 H       -3.1320     1.4900     2.1440 H     1 <1>   0.1500 
 28 H       -3.4650    -2.2500     0.0940 H     1 <1>   0.1500 
 29 H       -4.3200    -0.6420     1.7480 H     1 <1>   0.1500 
 30 H       -0.9740     4.8010    -1.4510 H     1 <1>   0.0800 
 31 H        0.3330     5.6350    -2.2730 H     1 <1>   0.0800 
 32 H       -0.0460     6.0120    -0.6050 H     1 <1>   0.0800 
 33 H        5.4960     5.4420     1.0610 H     1 <1>   0.1500 
 34 H        4.6780     2.0890     1.5250 H     1 <1>   0.0800 
 35 H        6.0610     3.1110     1.2050 H     1 <1>   0.0800 
 36 H        5.3580     2.1590    -0.0830 H     1 <1>   0.0800 
 37 H        3.1850     8.0400     1.1470 H     1 <1>   0.0800 
 38 H        3.8600     8.1070    -0.4640 H     1 <1>   0.0800 
 39 H        4.8940     7.7610     0.9030 H     1 <1>   0.0800 
@<TRIPOS>BOND
  1   1   2  1   
  2   1   3  1   
  3   2   4  ar  
  4   2   5  ar  
  5   3   6  1   
  6   3   7  1   
  7   3  21  1   
  8   4   6  1   
  9   4   8  ar  
 10   5   9  ar  
 11   5  22  1   
 12   6  23  1   
 13   6  24  1   
 14   7  10  1   
 15   7  25  1   
 16   7  26  1   
 17   8  11  ar  
 18   8  27  1   
 19   9  11  ar  
 20   9  28  1   
 21  10  12  1   
 22  10  13  1   
 23  11  29  1   
 24  12  14  ar  
 25  12  15  ar  
 26  13  30  1   
 27  13  31  1   
 28  13  32  1   
 29  14  16  ar  
 30  15  17  ar  
 31  16  18  ar  
 32  16  19  1   
 33  17  18  ar  
 34  17  20  1   
 35  18  33  1   
 36  19  34  1   
 37  19  35  1   
 38  19  36  1   
 39  20  37  1   
 40  20  38  1   
 41  20  39  1   
@<TRIPOS>SUBSTRUCTURE
  1 ****   3 GROUP 4 **** **** 0

# MOE 2024.06 (io_trps.svl 2023.06)
