@<TRIPOS>MOLECULE
NONAME
45 47 1 0 0 
SMALL
USER_CHARGES


@<TRIPOS>ATOM
  1 CL       2.6960     0.4210     1.2660 Cl    1 <1>  -0.1770 
  2 C        2.2990     2.1140     1.1340 C.ar  1 <1>   0.1770 
  3 C        1.4820     2.5600     0.1110 C.ar  1 <1>   0.1600 
  4 C        2.8000     3.0070     2.0510 C.ar  1 <1>  -0.1500 
  5 N        1.1310     3.8250    -0.0650 N.ar  1 <1>  -0.6200 
  6 C        2.4380     4.3260     1.8760 C.ar  1 <1>  -0.1500 
  7 C        1.6110     4.7240     0.8200 C.ar  1 <1>   0.3960 
  8 C        1.2670     6.1460     0.7040 C.2   1 <1>   0.5440 
  9 O        1.0110     6.7710     1.7220 O.2   1 <1>  -0.5700 
 10 N        1.2410     6.8350    -0.5010 N.am  1 <1>  -0.6600 
 11 C        1.8380     6.2620    -1.7540 C.3   1 <1>   0.1400 
 12 C        0.6720     8.2110    -0.5770 C.3   1 <1>   0.1400 
 13 C        2.5510     7.2860    -2.6510 C.3   1 <1>   0.1400 
 14 C        1.7560     9.2640    -0.3080 C.3   1 <1>  -0.1600 
 15 N        3.4080     8.2100    -1.8530 N.am  1 <1>  -0.6600 
 16 C        2.7400     9.4800    -1.4640 C.3   1 <1>   0.1400 
 17 C        4.6380     7.7940    -1.4130 C.2   1 <1>   0.5690 
 18 O        5.0870     6.7170    -1.7340 O.2   1 <1>  -0.5700 
 19 C        5.4670     8.6880    -0.5020 C.3   1 <1>  -0.0990 
 20 C        6.7350     8.0130     0.0390 C.3   1 <1>   0.0210 
 21 C        7.4960     8.9700     0.9360 C.2   1 <1>  -0.1810 
 22 C        8.3390    10.0010     0.5290 C.2   1 <1>   0.1390 
 23 C        7.5150     9.0270     2.2840 C.2   1 <1>  -0.3020 
 24 N        8.8420    10.6520     1.5330 N.2   1 <1>  -0.7070 
 25 N        8.3310    10.0450     2.6210 N.pl3 1 <1>   0.3000 
 26 H        1.1040     1.8360    -0.5890 H     1 <1>   0.1500 
 27 H        3.4360     2.6840     2.8570 H     1 <1>   0.1500 
 28 H        2.7930     5.0750     2.5630 H     1 <1>   0.1500 
 29 H        1.0640     5.7730    -2.3180 H     1 <1>   0.0800 
 30 H        2.5660     5.5150    -1.4920 H     1 <1>   0.0800 
 31 H       -0.1010     8.3090     0.1670 H     1 <1>   0.0800 
 32 H        0.2140     8.3690    -1.5370 H     1 <1>   0.0800 
 33 H        1.8240     7.8470    -3.2090 H     1 <1>   0.0800 
 34 H        3.1610     6.7590    -3.3640 H     1 <1>   0.0800 
 35 H        2.2920     9.0020     0.5880 H     1 <1>   0.0800 
 36 H        1.2660    10.2010    -0.1160 H     1 <1>   0.0800 
 37 H        3.4710    10.2160    -1.1780 H     1 <1>   0.0800 
 38 H        2.2130     9.8750    -2.3160 H     1 <1>   0.0800 
 39 H        4.8610     8.9850     0.3330 H     1 <1>   0.0800 
 40 H        5.7460     9.5660    -1.0530 H     1 <1>   0.0800 
 41 H        7.3680     7.7060    -0.7760 H     1 <1>   0.0800 
 42 H        6.4640     7.1350     0.5990 H     1 <1>   0.0800 
 43 H        8.5580    10.2400    -0.4990 H     1 <1>   0.1500 
 44 H        7.0060     8.4150     3.0060 H     1 <1>   0.1500 
 45 H        8.5580    10.3500     3.5750 H     1 <1>   0.2700 
@<TRIPOS>BOND
  1   1   2  1   
  2   2   3  ar  
  3   2   4  ar  
  4   3   5  ar  
  5   3  26  1   
  6   4   6  ar  
  7   4  27  1   
  8   5   7  ar  
  9   6   7  ar  
 10   6  28  1   
 11   7   8  1   
 12   8   9  2   
 13   8  10  am  
 14  10  11  1   
 15  10  12  1   
 16  11  13  1   
 17  11  29  1   
 18  11  30  1   
 19  12  14  1   
 20  12  31  1   
 21  12  32  1   
 22  13  15  1   
 23  13  33  1   
 24  13  34  1   
 25  14  16  1   
 26  14  35  1   
 27  14  36  1   
 28  15  16  1   
 29  15  17  am  
 30  16  37  1   
 31  16  38  1   
 32  17  18  2   
 33  17  19  1   
 34  19  20  1   
 35  19  39  1   
 36  19  40  1   
 37  20  21  1   
 38  20  41  1   
 39  20  42  1   
 40  21  22  1   
 41  21  23  2   
 42  22  24  2   
 43  22  43  1   
 44  23  25  1   
 45  23  44  1   
 46  24  25  1   
 47  25  45  1   
@<TRIPOS>SUBSTRUCTURE
  1 ****  17 GROUP 4 **** **** 0

# MOE 2024.06 (io_trps.svl 2023.06)
