@<TRIPOS>MOLECULE
NONAME
48 51 1 0 0 
SMALL
USER_CHARGES


@<TRIPOS>ATOM
  1 N       -0.0380    -0.0280     2.9010 N.2   1 <1>  -0.5650 
  2 C        1.1940     0.0040     2.5140 C.2   1 <1>   0.0360 
  3 C       -0.3470    -1.3290     2.8920 C.2   1 <1>   0.0770 
  4 N        1.7170    -1.2100     2.2290 N.pl3 1 <1>   0.0480 
  5 C        0.6950    -2.0720     2.4560 C.2   1 <1>  -0.3320 
  6 C        3.1440    -1.4450     1.8790 C.3   1 <1>   0.0960 
  7 C        0.7190    -3.5610     2.2500 C.3   1 <1>   0.5230 
  8 C        3.3480    -2.0650     0.4820 C.3   1 <1>  -0.0800 
  9 N        0.4100    -3.7890     0.8080 N.4   1 <1>  -0.9590 
 10 C        4.8460    -2.1260     0.1620 C.3   1 <1>  -0.2400 
 11 C        2.6280    -1.2770    -0.6240 C.3   1 <1>  -0.2400 
 12 C       -0.8500    -3.2280     0.2910 C.3   1 <1>   0.4230 
 13 C        0.2140    -5.1680     0.3430 C.3   1 <1>   0.4230 
 14 C       -1.9010    -4.1690     0.9240 C.3   1 <1>  -0.0800 
 15 C       -0.6400    -3.5370    -1.1990 C.3   1 <1>  -0.1600 
 16 C       -1.1670    -5.5190     0.9530 C.3   1 <1>  -0.0800 
 17 C        0.1070    -4.8850    -1.1620 C.3   1 <1>  -0.1600 
 18 C       -3.2110    -4.3890     0.1590 C.3   1 <1>   0.3430 
 19 C       -2.0550    -6.5170     0.1970 C.3   1 <1>   0.3430 
 20 N       -3.0710    -5.7040    -0.5280 N.4   1 <1>  -0.9060 
 21 H        1.7700     0.9110     2.4300 H     1 <1>   0.1500 
 22 H       -1.3280    -1.6480     3.2040 H     1 <1>   0.1500 
 23 H        3.6550    -0.4980     1.9190 H     1 <1>   0.0800 
 24 H        3.5800    -2.0780     2.6300 H     1 <1>   0.0800 
 25 H       -0.0240    -4.0240     2.8780 H     1 <1>   0.0800 
 26 H        1.6880    -3.9600     2.5060 H     1 <1>   0.0800 
 27 H        2.9960    -3.0790     0.4930 H     1 <1>   0.0800 
 28 H        1.1680    -3.3420     0.2770 H     1 <1>   0.4500 
 29 H        5.2720    -1.1370     0.1260 H     1 <1>   0.0800 
 30 H        5.0110    -2.5960    -0.7930 H     1 <1>   0.0800 
 31 H        5.3740    -2.6950     0.9080 H     1 <1>   0.0800 
 32 H        3.0080    -0.2700    -0.6700 H     1 <1>   0.0800 
 33 H        1.5690    -1.2210    -0.4520 H     1 <1>   0.0800 
 34 H        2.7940    -1.7360    -1.5830 H     1 <1>   0.0800 
 35 H       -0.9890    -2.1780     0.5040 H     1 <1>   0.0800 
 36 H        1.0140    -5.8450     0.6060 H     1 <1>   0.0800 
 37 H       -2.1320    -3.8200     1.9160 H     1 <1>   0.0800 
 38 H       -1.5540    -3.5720    -1.7630 H     1 <1>   0.0800 
 39 H       -0.0190    -2.7750    -1.6430 H     1 <1>   0.0800 
 40 H       -1.0280    -5.8720     1.9610 H     1 <1>   0.0800 
 41 H        1.0940    -4.7780    -1.5820 H     1 <1>   0.0800 
 42 H       -0.3940    -5.6620    -1.7110 H     1 <1>   0.0800 
 43 H       -3.4140    -3.5920    -0.5400 H     1 <1>   0.0800 
 44 H       -4.0260    -4.4420     0.8660 H     1 <1>   0.0800 
 45 H       -2.5540    -7.1540     0.9120 H     1 <1>   0.0800 
 46 H       -1.4870    -7.1390    -0.4780 H     1 <1>   0.0800 
 47 H       -2.7990    -5.5710    -1.5120 H     1 <1>   0.4500 
 48 H       -3.9790    -6.1960    -0.5550 H     1 <1>   0.4500 
@<TRIPOS>BOND
  1   1   2  2   
  2   1   3  1   
  3   2   4  1   
  4   2  21  1   
  5   3   5  2   
  6   3  22  1   
  7   4   5  1   
  8   4   6  1   
  9   5   7  1   
 10   6   8  1   
 11   6  23  1   
 12   6  24  1   
 13   7   9  1   
 14   7  25  1   
 15   7  26  1   
 16   8  10  1   
 17   8  11  1   
 18   8  27  1   
 19   9  12  1   
 20   9  13  1   
 21   9  28  1   
 22  10  29  1   
 23  10  30  1   
 24  10  31  1   
 25  11  32  1   
 26  11  33  1   
 27  11  34  1   
 28  12  14  1   
 29  12  15  1   
 30  12  35  1   
 31  13  16  1   
 32  13  17  1   
 33  13  36  1   
 34  14  16  1   
 35  14  18  1   
 36  14  37  1   
 37  15  17  1   
 38  15  38  1   
 39  15  39  1   
 40  16  19  1   
 41  16  40  1   
 42  17  41  1   
 43  17  42  1   
 44  18  20  1   
 45  18  43  1   
 46  18  44  1   
 47  19  20  1   
 48  19  45  1   
 49  19  46  1   
 50  20  47  1   
 51  20  48  1   
@<TRIPOS>SUBSTRUCTURE
  1 ****   9 GROUP 4 **** **** 0

# MOE 2024.06 (io_trps.svl 2023.06)
