@<TRIPOS>MOLECULE
NONAME
53 56 1 0 0 
SMALL
USER_CHARGES


@<TRIPOS>ATOM
  1 O       -2.3560     1.0410    -2.6050 O.2   1 <1>  -0.5700 
  2 C       -2.1540     1.3670    -1.4630 C.2   1 <1>   0.5690 
  3 N       -2.1440     0.4710    -0.4490 N.am  1 <1>  -0.7300 
  4 C       -1.8890     2.8220    -1.1550 C.3   1 <1>  -0.0990 
  5 C       -2.3520    -0.9850    -0.6040 C.3   1 <1>   0.2200 
  6 C       -0.5030     3.2350    -1.6620 C.3   1 <1>   0.0200 
  7 C       -3.7030    -1.3620    -0.0170 C.3   1 <1>  -0.0800 
  8 C       -1.3980    -1.7310     0.3200 C.3   1 <1>   0.1200 
  9 C       -0.1930     4.6680    -1.2820 C.2   1 <1>   0.2980 
 10 C       -3.3800    -1.5400     1.4730 C.3   1 <1>   0.1200 
 11 C       -4.2540    -2.6520    -0.6550 C.3   1 <1>  -0.0170 
 12 O       -1.9940    -1.6950     1.5810 O.3   1 <1>  -0.5600 
 13 O       -0.8100     5.6360    -1.9070 O.3   1 <1>  -0.0190 
 14 N        0.6220     5.0300    -0.3820 N.2   1 <1>  -0.5650 
 15 C       -5.6150    -3.0200    -0.0830 C.ar  1 <1>  -0.1440 
 16 N       -0.3500     6.7120    -1.3510 N.2   1 <1>  -0.4100 
 17 C        0.5010     6.3600    -0.4530 C.2   1 <1>   0.4620 
 18 C       -5.7790    -4.0570     0.8140 C.ar  1 <1>  -0.1500 
 19 C       -6.7590    -2.3330    -0.4360 C.ar  1 <1>  -0.1500 
 20 C        1.2250     7.2740     0.4130 C.ar  1 <1>   0.0540 
 21 C       -7.0430    -4.3440     1.3040 C.ar  1 <1>   0.1600 
 22 C       -7.9760    -2.7010     0.1130 C.ar  1 <1>   0.1600 
 23 C        2.6050     7.1950     0.6550 C.ar  1 <1>  -0.1440 
 24 C        0.5160     8.2970     1.0440 C.ar  1 <1>  -0.1500 
 25 N       -8.1450    -3.6900     0.9770 N.ar  1 <1>  -0.6200 
 26 C        3.2190     8.0990     1.5090 C.ar  1 <1>  -0.1500 
 27 C        3.4720     6.1320    -0.0100 C.3   1 <1>  -0.0970 
 28 C        1.1320     9.1980     1.8910 C.ar  1 <1>  -0.1500 
 29 C        2.4890     9.0970     2.1270 C.ar  1 <1>  -0.1500 
 30 H       -1.9710     0.7640     0.5160 H     1 <1>   0.3700 
 31 H       -2.6440     3.4170    -1.6360 H     1 <1>   0.0800 
 32 H       -1.9530     2.9880    -0.0950 H     1 <1>   0.0800 
 33 H       -2.2360    -1.2760    -1.6350 H     1 <1>   0.0800 
 34 H       -0.4550     3.1330    -2.7320 H     1 <1>   0.0800 
 35 H        0.2450     2.5930    -1.2310 H     1 <1>   0.0800 
 36 H       -4.4210    -0.5740    -0.1640 H     1 <1>   0.0800 
 37 H       -0.4230    -1.2800     0.3650 H     1 <1>   0.0800 
 38 H       -1.3100    -2.7630     0.0280 H     1 <1>   0.0800 
 39 H       -3.8590    -2.3990     1.9080 H     1 <1>   0.0800 
 40 H       -3.6530    -0.6610     2.0310 H     1 <1>   0.0800 
 41 H       -3.5670    -3.4670    -0.5030 H     1 <1>   0.0800 
 42 H       -4.3560    -2.5090    -1.7170 H     1 <1>   0.0800 
 43 H       -4.9400    -4.6450     1.1370 H     1 <1>   0.1500 
 44 H       -6.7160    -1.5160    -1.1330 H     1 <1>   0.1500 
 45 H       -7.1520    -5.1550     2.0030 H     1 <1>   0.1500 
 46 H       -8.8570    -2.1540    -0.1740 H     1 <1>   0.1500 
 47 H       -0.5420     8.3830     0.8650 H     1 <1>   0.1500 
 48 H        4.2760     8.0340     1.6990 H     1 <1>   0.1500 
 49 H        4.5170     6.3610     0.0980 H     1 <1>   0.0800 
 50 H        3.2500     6.0740    -1.0600 H     1 <1>   0.0800 
 51 H        3.2840     5.1740     0.4400 H     1 <1>   0.0800 
 52 H        0.5580     9.9750     2.3650 H     1 <1>   0.1500 
 53 H        2.9760     9.7930     2.7870 H     1 <1>   0.1500 
@<TRIPOS>BOND
  1   1   2  2   
  2   2   3  am  
  3   2   4  1   
  4   3   5  1   
  5   3  30  1   
  6   4   6  1   
  7   4  31  1   
  8   4  32  1   
  9   5   7  1   
 10   5   8  1   
 11   5  33  1   
 12   6   9  1   
 13   6  34  1   
 14   6  35  1   
 15   7  10  1   
 16   7  11  1   
 17   7  36  1   
 18   8  12  1   
 19   8  37  1   
 20   8  38  1   
 21   9  13  1   
 22   9  14  2   
 23  10  12  1   
 24  10  39  1   
 25  10  40  1   
 26  11  15  1   
 27  11  41  1   
 28  11  42  1   
 29  13  16  1   
 30  14  17  1   
 31  15  18  ar  
 32  15  19  ar  
 33  16  17  2   
 34  17  20  1   
 35  18  21  ar  
 36  18  43  1   
 37  19  22  ar  
 38  19  44  1   
 39  20  23  ar  
 40  20  24  ar  
 41  21  25  ar  
 42  21  45  1   
 43  22  25  ar  
 44  22  46  1   
 45  23  26  ar  
 46  23  27  1   
 47  24  28  ar  
 48  24  47  1   
 49  26  29  ar  
 50  26  48  1   
 51  27  49  1   
 52  27  50  1   
 53  27  51  1   
 54  28  29  ar  
 55  28  52  1   
 56  29  53  1   
@<TRIPOS>SUBSTRUCTURE
  1 ****   4 GROUP 4 **** **** 0

# MOE 2024.06 (io_trps.svl 2023.06)
