@<TRIPOS>MOLECULE
NONAME
51 53 1 0 0 
SMALL
USER_CHARGES


@<TRIPOS>ATOM
  1 O        0.2410     1.3130     1.7160 O.2   1 <1>  -0.5700 
  2 C       -0.2180     1.9970     0.8150 C.2   1 <1>   0.5440 
  3 N       -0.2920     1.4280    -0.4510 N.am  1 <1>  -0.6600 
  4 C       -0.6840     3.3540     1.1260 C.ar  1 <1>   0.3960 
  5 C        0.3740     0.1360    -0.7780 C.3   1 <1>   0.0600 
  6 C       -1.0620     2.0270    -1.5760 C.3   1 <1>   0.0600 
  7 N       -0.4580     4.3650     0.2680 N.ar  1 <1>  -0.6200 
  8 C       -1.3530     3.5610     2.3330 C.ar  1 <1>  -0.1500 
  9 C       -0.8960     5.5550     0.6170 C.ar  1 <1>   0.4100 
 10 C       -1.8200     4.8100     2.6860 C.ar  1 <1>  -0.1500 
 11 N       -0.6080     6.5280    -0.2930 N.pl3 1 <1>  -0.8690 
 12 C       -1.5830     5.8250     1.7950 C.ar  1 <1>  -0.1500 
 13 C        0.1360     7.7410     0.1160 C.3   1 <1>   0.2090 
 14 C        1.5800     7.3870     0.4950 C.3   1 <1>  -0.0800 
 15 C        2.4110     8.6260     0.8230 C.3   1 <1>   0.2090 
 16 C        2.3680     6.6860    -0.6120 C.3   1 <1>  -0.1600 
 17 N        3.7950     8.3170     0.3900 N.pl3 1 <1>  -0.8380 
 18 C        3.8210     7.0010    -0.2920 C.3   1 <1>   0.2090 
 19 C        4.5060     9.3580    -0.2100 C.ar  1 <1>   0.1000 
 20 C        5.5620     9.9800     0.4600 C.ar  1 <1>  -0.1430 
 21 C        4.1720     9.7990    -1.4870 C.ar  1 <1>  -0.1500 
 22 C        6.2530    11.0150    -0.1480 C.ar  1 <1>  -0.1500 
 23 C        5.9590     9.5240     1.8560 C.3   1 <1>  -0.0970 
 24 C        4.8650    10.8310    -2.0900 C.ar  1 <1>  -0.1500 
 25 C        5.9090    11.4420    -1.4190 C.ar  1 <1>  -0.1500 
 26 H        1.0760    -0.1380    -0.0090 H     1 <1>   0.0800 
 27 H        0.9070     0.2250    -1.7070 H     1 <1>   0.0800 
 28 H       -0.3650    -0.6400    -0.8630 H     1 <1>   0.0800 
 29 H       -1.8580     2.6470    -1.2010 H     1 <1>   0.0800 
 30 H       -1.4940     1.2520    -2.1830 H     1 <1>   0.0800 
 31 H       -0.4060     2.6280    -2.1800 H     1 <1>   0.0800 
 32 H       -1.5040     2.7270     2.9950 H     1 <1>   0.1500 
 33 H       -2.3440     4.9760     3.6130 H     1 <1>   0.1500 
 34 H       -0.1800     6.0920    -1.1140 H     1 <1>   0.4000 
 35 H       -1.9230     6.8230     1.9910 H     1 <1>   0.1500 
 36 H       -0.3580     8.2080     0.9510 H     1 <1>   0.0800 
 37 H        0.1350     8.4390    -0.7040 H     1 <1>   0.0800 
 38 H        1.5740     6.7620     1.3710 H     1 <1>   0.0800 
 39 H        2.3940     8.8360     1.8790 H     1 <1>   0.0800 
 40 H        2.0510     9.4880     0.2870 H     1 <1>   0.0800 
 41 H        2.1260     7.1040    -1.5720 H     1 <1>   0.0800 
 42 H        2.1870     5.6260    -0.6300 H     1 <1>   0.0800 
 43 H        4.4300     7.0270    -1.1810 H     1 <1>   0.0800 
 44 H        4.2210     6.2690     0.3890 H     1 <1>   0.0800 
 45 H        3.3610     9.3250    -2.0070 H     1 <1>   0.1500 
 46 H        7.0670    11.4960     0.3650 H     1 <1>   0.1500 
 47 H        6.2180     8.4810     1.8340 H     1 <1>   0.0800 
 48 H        5.1310     9.6570     2.5280 H     1 <1>   0.0800 
 49 H        6.8000    10.0820     2.2260 H     1 <1>   0.0800 
 50 H        4.5940    11.1600    -3.0780 H     1 <1>   0.1500 
 51 H        6.4520    12.2460    -1.8830 H     1 <1>   0.1500 
@<TRIPOS>BOND
  1   1   2  2   
  2   2   3  am  
  3   2   4  1   
  4   3   5  1   
  5   3   6  1   
  6   4   7  ar  
  7   4   8  ar  
  8   5  26  1   
  9   5  27  1   
 10   5  28  1   
 11   6  29  1   
 12   6  30  1   
 13   6  31  1   
 14   7   9  ar  
 15   8  10  ar  
 16   8  32  1   
 17   9  11  1   
 18   9  12  ar  
 19  10  12  ar  
 20  10  33  1   
 21  11  13  1   
 22  11  34  1   
 23  12  35  1   
 24  13  14  1   
 25  13  36  1   
 26  13  37  1   
 27  14  15  1   
 28  14  16  1   
 29  14  38  1   
 30  15  17  1   
 31  15  39  1   
 32  15  40  1   
 33  16  18  1   
 34  16  41  1   
 35  16  42  1   
 36  17  18  1   
 37  17  19  1   
 38  18  43  1   
 39  18  44  1   
 40  19  20  ar  
 41  19  21  ar  
 42  20  22  ar  
 43  20  23  1   
 44  21  24  ar  
 45  21  45  1   
 46  22  25  ar  
 47  22  46  1   
 48  23  47  1   
 49  23  48  1   
 50  23  49  1   
 51  24  25  ar  
 52  24  50  1   
 53  25  51  1   
@<TRIPOS>SUBSTRUCTURE
  1 ****  14 GROUP 4 **** **** 0

# MOE 2024.06 (io_trps.svl 2023.06)
