@<TRIPOS>MOLECULE
NONAME
55 56 1 0 0 
SMALL
USER_CHARGES


@<TRIPOS>ATOM
  1 N       -1.3240    -1.5950    -0.0620 N.2   1 <1>  -0.7070 
  2 N       -1.7040    -0.3530     0.3100 N.pl3 1 <1>   0.3140 
  3 C       -1.1740    -1.5260    -1.3480 C.2   1 <1>   0.1080 
  4 C       -1.8400     0.4570    -0.7630 C.2   1 <1>  -0.3320 
  5 C       -1.9090    -0.0060     1.7270 C.3   1 <1>   0.0960 
  6 C       -1.5010    -0.2730    -1.8450 C.2   1 <1>  -0.1500 
  7 C       -0.6700    -2.6750    -2.1930 C.3   1 <1>  -0.0590 
  8 C       -2.2490     1.9220    -0.7310 C.3   1 <1>  -0.0600 
  9 C       -2.5770    -1.1590     2.5090 C.3   1 <1>   0.4230 
 10 N       -3.9910    -1.5290     2.1070 N.4   1 <1>  -0.9590 
 11 C       -2.5940    -0.8420     4.0040 C.3   1 <1>  -0.2400 
 12 C       -3.9610    -2.3170     0.8170 C.3   1 <1>   0.3430 
 13 C       -4.9150    -0.3440     2.0320 C.3   1 <1>   0.2630 
 14 C       -5.2200    -3.1550     0.4790 C.3   1 <1>   0.3430 
 15 N       -5.1510    -3.8130    -0.8780 N.4   1 <1>  -0.9590 
 16 C       -6.4400    -4.5270    -1.1820 C.3   1 <1>   0.4230 
 17 C       -3.9250    -4.6740    -1.0480 C.3   1 <1>   0.2630 
 18 C       -6.6100    -5.8350    -0.4060 C.3   1 <1>  -0.1600 
 19 C       -6.5060    -4.9460    -2.6500 C.3   1 <1>  -0.1600 
 20 C       -6.1080    -6.9700    -1.3060 C.3   1 <1>  -0.1600 
 21 C       -6.0770    -6.4170    -2.7340 C.3   1 <1>  -0.1600 
 22 H       -2.4820     0.8970     1.8040 H     1 <1>   0.0800 
 23 H       -0.9370     0.1840     2.1440 H     1 <1>   0.0800 
 24 H       -1.4600     0.0300    -2.8780 H     1 <1>   0.1500 
 25 H       -0.6430    -3.5810    -1.6160 H     1 <1>   0.0800 
 26 H        0.3280    -2.4560    -2.5280 H     1 <1>   0.0800 
 27 H       -1.3010    -2.8130    -3.0510 H     1 <1>   0.0800 
 28 H       -1.5580     2.4900    -0.1330 H     1 <1>   0.0800 
 29 H       -3.2400     2.0370    -0.3320 H     1 <1>   0.0800 
 30 H       -2.2370     2.3290    -1.7280 H     1 <1>   0.0800 
 31 H       -1.9460    -2.0270     2.3820 H     1 <1>   0.0800 
 32 H       -4.3180    -2.1420     2.8690 H     1 <1>   0.4500 
 33 H       -3.1430     0.0580     4.2170 H     1 <1>   0.0800 
 34 H       -1.5850    -0.6960     4.3510 H     1 <1>   0.0800 
 35 H       -3.0100    -1.6590     4.5660 H     1 <1>   0.0800 
 36 H       -3.1190    -2.9890     0.8530 H     1 <1>   0.0800 
 37 H       -3.7880    -1.6330     0.0030 H     1 <1>   0.0800 
 38 H       -4.6070     0.3250     1.2440 H     1 <1>   0.0800 
 39 H       -4.9080     0.1990     2.9640 H     1 <1>   0.0800 
 40 H       -5.9260    -0.6620     1.8370 H     1 <1>   0.0800 
 41 H       -6.0830    -2.5110     0.5080 H     1 <1>   0.0800 
 42 H       -5.3410    -3.9160     1.2320 H     1 <1>   0.0800 
 43 H       -5.0900    -3.0780    -1.5990 H     1 <1>   0.4500 
 44 H       -7.2660    -3.8670    -0.9680 H     1 <1>   0.0800 
 45 H       -3.9270    -5.4800    -0.3330 H     1 <1>   0.0800 
 46 H       -3.0270    -4.0920    -0.9150 H     1 <1>   0.0800 
 47 H       -3.9020    -5.1000    -2.0380 H     1 <1>   0.0800 
 48 H       -7.6650    -5.9860    -0.2510 H     1 <1>   0.0800 
 49 H       -6.1330    -5.8390     0.5570 H     1 <1>   0.0800 
 50 H       -5.9290    -4.3130    -3.3010 H     1 <1>   0.0800 
 51 H       -7.5350    -4.8870    -2.9610 H     1 <1>   0.0800 
 52 H       -6.7620    -7.8260    -1.2400 H     1 <1>   0.0800 
 53 H       -5.1220    -7.2850    -1.0110 H     1 <1>   0.0800 
 54 H       -5.0870    -6.5060    -3.1470 H     1 <1>   0.0800 
 55 H       -6.7520    -6.9680    -3.3690 H     1 <1>   0.0800 
@<TRIPOS>BOND
  1   1   2  1   
  2   1   3  2   
  3   2   4  1   
  4   2   5  1   
  5   3   6  1   
  6   3   7  1   
  7   4   6  2   
  8   4   8  1   
  9   5   9  1   
 10   5  22  1   
 11   5  23  1   
 12   6  24  1   
 13   7  25  1   
 14   7  26  1   
 15   7  27  1   
 16   8  28  1   
 17   8  29  1   
 18   8  30  1   
 19   9  10  1   
 20   9  11  1   
 21   9  31  1   
 22  10  12  1   
 23  10  13  1   
 24  10  32  1   
 25  11  33  1   
 26  11  34  1   
 27  11  35  1   
 28  12  14  1   
 29  12  36  1   
 30  12  37  1   
 31  13  38  1   
 32  13  39  1   
 33  13  40  1   
 34  14  15  1   
 35  14  41  1   
 36  14  42  1   
 37  15  16  1   
 38  15  17  1   
 39  15  43  1   
 40  16  18  1   
 41  16  19  1   
 42  16  44  1   
 43  17  45  1   
 44  17  46  1   
 45  17  47  1   
 46  18  20  1   
 47  18  48  1   
 48  18  49  1   
 49  19  21  1   
 50  19  50  1   
 51  19  51  1   
 52  20  21  1   
 53  20  52  1   
 54  20  53  1   
 55  21  54  1   
 56  21  55  1   
@<TRIPOS>SUBSTRUCTURE
  1 ****  12 GROUP 4 **** **** 0

# MOE 2024.06 (io_trps.svl 2023.06)
