@<TRIPOS>MOLECULE
NONAME
57 59 1 0 0 
SMALL
USER_CHARGES


@<TRIPOS>ATOM
  1 O        0.5070    -0.4130    -1.1220 O.2   1 <1>  -0.5700 
  2 C        1.1700    -1.2960    -0.6360 C.2   1 <1>   0.5690 
  3 N        0.6630    -2.2420     0.2120 N.am  1 <1>  -0.6600 
  4 C        2.6450    -1.3760    -0.9710 C.3   1 <1>  -0.0990 
  5 C        1.5500    -3.2620     0.8230 C.3   1 <1>   0.1400 
  6 C       -0.7640    -2.2520     0.6350 C.3   1 <1>   0.0600 
  7 C        3.0410    -2.8320    -1.2780 C.3   1 <1>  -0.0800 
  8 C        2.5090    -3.8450    -0.2370 C.3   1 <1>  -0.0800 
  9 C        4.5610    -3.0340    -1.3610 C.3   1 <1>  -0.1600 
 10 C        3.7520    -4.5030     0.3780 C.3   1 <1>  -0.1600 
 11 C        4.8090    -4.3940    -0.7190 C.3   1 <1>   0.4230 
 12 N        6.2230    -4.6060    -0.2830 N.4   1 <1>  -0.9590 
 13 C        6.6510    -4.0990     1.0580 C.3   1 <1>   0.4860 
 14 C        6.6120    -6.0370    -0.4380 C.3   1 <1>   0.2630 
 15 C        6.7430    -2.5860     1.0370 C.ar  1 <1>  -0.1430 
 16 C        7.6060    -1.9510     0.1460 C.ar  1 <1>   0.0820 
 17 C        5.9540    -1.8420     1.9010 C.ar  1 <1>  -0.1500 
 18 O        8.3510    -2.7820    -0.6480 O.3   1 <1>  -0.3630 
 19 C        7.6440    -0.5480     0.0970 C.ar  1 <1>   0.0820 
 20 C        5.9860    -0.4630     1.8530 C.ar  1 <1>  -0.1500 
 21 C        9.6520    -2.4290    -1.0750 C.3   1 <1>   0.0400 
 22 O        8.4590     0.0930    -0.7900 O.3   1 <1>  -0.3630 
 23 C        6.8030     0.1840     0.9430 C.ar  1 <1>   0.0820 
 24 C        9.4370     0.9680    -0.2600 C.3   1 <1>   0.0400 
 25 O        6.7300     1.5360     0.9160 O.3   1 <1>  -0.3630 
 26 C        6.0490     2.0980    -0.1850 C.3   1 <1>   0.0400 
 27 H        2.8520    -0.7490    -1.8200 H     1 <1>   0.0800 
 28 H        3.1940    -0.9970    -0.1290 H     1 <1>   0.0800 
 29 H        2.1050    -2.7850     1.6120 H     1 <1>   0.0800 
 30 H        0.9610    -4.0530     1.2550 H     1 <1>   0.0800 
 31 H       -1.2180    -3.1900     0.3650 H     1 <1>   0.0800 
 32 H       -1.3070    -1.4580     0.1520 H     1 <1>   0.0800 
 33 H       -0.8310    -2.1160     1.7000 H     1 <1>   0.0800 
 34 H        2.6040    -3.0900    -2.2310 H     1 <1>   0.0800 
 35 H        1.9640    -4.6030    -0.7760 H     1 <1>   0.0800 
 36 H        5.0480    -2.2470    -0.8220 H     1 <1>   0.0800 
 37 H        4.8950    -3.0160    -2.3830 H     1 <1>   0.0800 
 38 H        3.5590    -5.5260     0.6480 H     1 <1>   0.0800 
 39 H        4.0370    -3.9410     1.2460 H     1 <1>   0.0800 
 40 H        4.5670    -5.1300    -1.4700 H     1 <1>   0.0800 
 41 H        6.8120    -4.0450    -0.9260 H     1 <1>   0.4500 
 42 H        5.9700    -4.4280     1.8240 H     1 <1>   0.0800 
 43 H        7.6290    -4.4850     1.2920 H     1 <1>   0.0800 
 44 H        6.0440    -6.6550     0.2380 H     1 <1>   0.0800 
 45 H        7.6620    -6.1640    -0.2270 H     1 <1>   0.0800 
 46 H        6.4270    -6.3670    -1.4470 H     1 <1>   0.0800 
 47 H        5.3030    -2.3190     2.6150 H     1 <1>   0.1500 
 48 H        5.3730     0.1250     2.5140 H     1 <1>   0.1500 
 49 H       10.1700    -3.3240    -1.3680 H     1 <1>   0.0800 
 50 H       10.1750    -1.9520    -0.2650 H     1 <1>   0.0800 
 51 H        9.5770    -1.7670    -1.9200 H     1 <1>   0.0800 
 52 H       10.1780     1.1430    -1.0190 H     1 <1>   0.0800 
 53 H        9.8910     0.5120     0.6020 H     1 <1>   0.0800 
 54 H        8.9750     1.9000     0.0110 H     1 <1>   0.0800 
 55 H        6.0460     3.1660    -0.0680 H     1 <1>   0.0800 
 56 H        5.0400     1.7250    -0.1980 H     1 <1>   0.0800 
 57 H        6.5600     1.8300    -1.0930 H     1 <1>   0.0800 
@<TRIPOS>BOND
  1   1   2  2   
  2   2   3  am  
  3   2   4  1   
  4   3   5  1   
  5   3   6  1   
  6   4   7  1   
  7   4  27  1   
  8   4  28  1   
  9   5   8  1   
 10   5  29  1   
 11   5  30  1   
 12   6  31  1   
 13   6  32  1   
 14   6  33  1   
 15   7   8  1   
 16   7   9  1   
 17   7  34  1   
 18   8  10  1   
 19   8  35  1   
 20   9  11  1   
 21   9  36  1   
 22   9  37  1   
 23  10  11  1   
 24  10  38  1   
 25  10  39  1   
 26  11  12  1   
 27  11  40  1   
 28  12  13  1   
 29  12  14  1   
 30  12  41  1   
 31  13  15  1   
 32  13  42  1   
 33  13  43  1   
 34  14  44  1   
 35  14  45  1   
 36  14  46  1   
 37  15  16  ar  
 38  15  17  ar  
 39  16  18  1   
 40  16  19  ar  
 41  17  20  ar  
 42  17  47  1   
 43  18  21  1   
 44  19  22  1   
 45  19  23  ar  
 46  20  23  ar  
 47  20  48  1   
 48  21  49  1   
 49  21  50  1   
 50  21  51  1   
 51  22  24  1   
 52  23  25  1   
 53  24  52  1   
 54  24  53  1   
 55  24  54  1   
 56  25  26  1   
 57  26  55  1   
 58  26  56  1   
 59  26  57  1   
@<TRIPOS>SUBSTRUCTURE
  1 ****   9 GROUP 4 **** **** 0

# MOE 2024.06 (io_trps.svl 2023.06)
