@<TRIPOS>MOLECULE
NONAME
49 51 1 0 0 
SMALL
USER_CHARGES


@<TRIPOS>ATOM
  1 O       -0.6790     0.1040     1.3210 O.2   1 <1>  -0.5700 
  2 C       -1.3800     0.7550     0.5820 C.2   1 <1>   0.5690 
  3 N       -2.3250     0.1260    -0.1920 N.am  1 <1>  -0.6600 
  4 C       -1.1560     2.2750     0.5820 C.3   1 <1>  -0.0190 
  5 C       -3.3570     0.7130    -1.0870 C.3   1 <1>   0.1400 
  6 C       -2.5180    -1.3490    -0.1270 C.3   1 <1>   0.1400 
  7 C       -2.2960     3.0220     1.3140 C.3   1 <1>  -0.1600 
  8 C       -0.7940     2.8210    -0.8170 C.3   1 <1>  -0.1600 
  9 C       -4.4980    -0.3000    -1.0550 C.3   1 <1>   0.2000 
 10 C       -3.7660    -1.6410    -0.9690 C.3   1 <1>  -0.0800 
 11 C       -1.8880     4.4250     1.7890 C.3   1 <1>  -0.1600 
 12 C       -0.4690     4.3230    -0.8680 C.3   1 <1>  -0.1600 
 13 O       -5.2210    -0.0870     0.1100 O.3   1 <1>  -0.6800 
 14 C       -4.6040    -2.8230    -0.4490 C.3   1 <1>   0.0210 
 15 C       -2.0810     5.5400     0.7490 C.3   1 <1>  -0.1600 
 16 C       -1.7210     5.1970    -0.7040 C.3   1 <1>  -0.1600 
 17 C       -3.7770    -4.0940    -0.4200 C.2   1 <1>   0.1080 
 18 N       -3.3000    -4.6460    -1.4920 N.2   1 <1>  -0.7070 
 19 C       -3.4320    -4.7930     0.7310 C.2   1 <1>  -0.1500 
 20 N       -2.6310    -5.7270    -1.0480 N.pl3 1 <1>   0.3000 
 21 C       -2.6940    -5.8360     0.2960 C.2   1 <1>  -0.3320 
 22 C       -2.0360    -6.9470     1.0940 C.3   1 <1>  -0.0600 
 23 H       -0.2750     2.4180     1.1830 H     1 <1>   0.0800 
 24 H       -3.6890     1.6830    -0.7720 H     1 <1>   0.0800 
 25 H       -2.9590     0.7740    -2.0840 H     1 <1>   0.0800 
 26 H       -1.6560    -1.8630    -0.5180 H     1 <1>   0.0800 
 27 H       -2.6660    -1.6410     0.8990 H     1 <1>   0.0800 
 28 H       -3.1830     3.0860     0.7130 H     1 <1>   0.0800 
 29 H       -2.5460     2.4470     2.1890 H     1 <1>   0.0800 
 30 H        0.0720     2.2810    -1.1610 H     1 <1>   0.0800 
 31 H       -1.5820     2.6210    -1.5160 H     1 <1>   0.0800 
 32 H       -5.1640    -0.2250    -1.8970 H     1 <1>   0.0800 
 33 H       -3.4270    -1.8900    -1.9600 H     1 <1>   0.0800 
 34 H       -2.4780     4.6800     2.6530 H     1 <1>   0.0800 
 35 H       -0.8620     4.4130     2.1140 H     1 <1>   0.0800 
 36 H        0.2770     4.5800    -0.1350 H     1 <1>   0.0800 
 37 H       -0.0470     4.5300    -1.8360 H     1 <1>   0.0800 
 38 H       -4.5870    -0.0270     0.8540 H     1 <1>   0.4000 
 39 H       -5.4490    -2.9770    -1.0940 H     1 <1>   0.0800 
 40 H       -4.9720    -2.6210     0.5410 H     1 <1>   0.0800 
 41 H       -3.1100     5.8560     0.7690 H     1 <1>   0.0800 
 42 H       -1.4900     6.3850     1.0600 H     1 <1>   0.0800 
 43 H       -1.5630     6.1240    -1.2280 H     1 <1>   0.0800 
 44 H       -2.5600     4.7160    -1.1760 H     1 <1>   0.0800 
 45 H       -3.7060    -4.5340     1.7380 H     1 <1>   0.1500 
 46 H       -2.1420    -6.3670    -1.6850 H     1 <1>   0.2700 
 47 H       -2.2310    -6.8130     2.1430 H     1 <1>   0.0800 
 48 H       -0.9720    -6.9350     0.9390 H     1 <1>   0.0800 
 49 H       -2.4260    -7.9030     0.7920 H     1 <1>   0.0800 
@<TRIPOS>BOND
  1   1   2  2   
  2   2   3  am  
  3   2   4  1   
  4   3   5  1   
  5   3   6  1   
  6   4   7  1   
  7   4   8  1   
  8   4  23  1   
  9   5   9  1   
 10   5  24  1   
 11   5  25  1   
 12   6  10  1   
 13   6  26  1   
 14   6  27  1   
 15   7  11  1   
 16   7  28  1   
 17   7  29  1   
 18   8  12  1   
 19   8  30  1   
 20   8  31  1   
 21   9  10  1   
 22   9  13  1   
 23   9  32  1   
 24  10  14  1   
 25  10  33  1   
 26  11  15  1   
 27  11  34  1   
 28  11  35  1   
 29  12  16  1   
 30  12  36  1   
 31  12  37  1   
 32  13  38  1   
 33  14  17  1   
 34  14  39  1   
 35  14  40  1   
 36  15  16  1   
 37  15  41  1   
 38  15  42  1   
 39  16  43  1   
 40  16  44  1   
 41  17  18  2   
 42  17  19  1   
 43  18  20  1   
 44  19  21  2   
 45  19  45  1   
 46  20  21  1   
 47  20  46  1   
 48  21  22  1   
 49  22  47  1   
 50  22  48  1   
 51  22  49  1   
@<TRIPOS>SUBSTRUCTURE
  1 ****   3 GROUP 4 **** **** 0

# MOE 2024.06 (io_trps.svl 2023.06)
