@<TRIPOS>MOLECULE
NONAME
53 55 1 0 0 
SMALL
USER_CHARGES


@<TRIPOS>ATOM
  1 CL       1.4740     1.1750    -2.3490 Cl    1 <1>  -0.1770 
  2 C        0.7090     2.1150    -1.0870 C.ar  1 <1>   0.1770 
  3 C        1.4090     2.5220     0.0470 C.ar  1 <1>  -0.1440 
  4 C       -0.6230     2.4390    -1.2680 C.ar  1 <1>  -0.1500 
  5 C        0.7280     3.2690     1.0000 C.ar  1 <1>  -0.1500 
  6 C        2.8790     2.1910     0.2880 C.3   1 <1>   0.3640 
  7 C       -1.2850     3.1830    -0.3090 C.ar  1 <1>  -0.1500 
  8 C       -0.6070     3.5970     0.8240 C.ar  1 <1>  -0.1500 
  9 N        3.0590     0.7220     0.3400 N.am  1 <1>  -0.7300 
 10 C        3.8240     2.8790    -0.7350 C.3   1 <1>   0.2610 
 11 C        4.0270     0.0640    -0.3360 C.2   1 <1>   0.5690 
 12 O        5.0760     2.2140    -0.8510 O.3   1 <1>  -0.5600 
 13 C        4.0060     4.3540    -0.3560 C.2   1 <1>   0.5690 
 14 O        4.1510    -1.1290    -0.2280 O.2   1 <1>  -0.5700 
 15 C        4.9650     0.8600    -1.2460 C.3   1 <1>   0.1810 
 16 O        3.4930     5.1770    -1.0770 O.2   1 <1>  -0.5700 
 17 N        4.7480     4.7740     0.7310 N.am  1 <1>  -0.6600 
 18 C        4.8450     6.2350     1.0210 C.3   1 <1>   0.1400 
 19 C        5.7080     3.9340     1.4960 C.3   1 <1>   0.1400 
 20 C        5.8410     6.9200     0.0680 C.3   1 <1>   0.3430 
 21 C        7.1070     3.9630     0.8580 C.3   1 <1>  -0.1600 
 22 N        7.2440     6.3590     0.1460 N.4   1 <1>  -0.9590 
 23 C        7.3040     4.9360    -0.3110 C.3   1 <1>   0.3430 
 24 C        8.2470     7.1760    -0.5880 C.3   1 <1>   0.4230 
 25 C        8.4650     8.4910     0.1540 C.3   1 <1>  -0.2400 
 26 C        7.8360     7.4230    -2.0410 C.3   1 <1>  -0.2400 
 27 H       -1.1360     2.1090    -2.1540 H     1 <1>   0.1500 
 28 H        1.2250     3.6070     1.8940 H     1 <1>   0.1500 
 29 H        3.1390     2.5620     1.2630 H     1 <1>   0.0800 
 30 H       -2.3220     3.4400    -0.4430 H     1 <1>   0.1500 
 31 H       -1.1210     4.1780     1.5710 H     1 <1>   0.1500 
 32 H        2.3900     0.1750     0.8840 H     1 <1>   0.3700 
 33 H        3.3720     2.8590    -1.7090 H     1 <1>   0.0800 
 34 H        4.6000     0.8250    -2.2560 H     1 <1>   0.0800 
 35 H        5.9470     0.4240    -1.2140 H     1 <1>   0.0800 
 36 H        3.8750     6.6850     0.8860 H     1 <1>   0.0800 
 37 H        5.1330     6.4000     2.0440 H     1 <1>   0.0800 
 38 H        5.7640     4.2940     2.5100 H     1 <1>   0.0800 
 39 H        5.3590     2.9170     1.5490 H     1 <1>   0.0800 
 40 H        5.8570     7.9700     0.3040 H     1 <1>   0.0800 
 41 H        5.4650     6.8200    -0.9370 H     1 <1>   0.0800 
 42 H        7.2990     2.9740     0.4790 H     1 <1>   0.0800 
 43 H        7.8490     4.1370     1.6150 H     1 <1>   0.0800 
 44 H        7.5290     6.3660     1.1310 H     1 <1>   0.4500 
 45 H        6.5580     4.7570    -1.0700 H     1 <1>   0.0800 
 46 H        8.2690     4.7400    -0.7500 H     1 <1>   0.0800 
 47 H        9.1860     6.6430    -0.5900 H     1 <1>   0.0800 
 48 H        7.5930     9.1190     0.1240 H     1 <1>   0.0800 
 49 H        9.2690     9.0310    -0.3140 H     1 <1>   0.0800 
 50 H        8.7470     8.3110     1.1760 H     1 <1>   0.0800 
 51 H        6.9640     8.0480    -2.1110 H     1 <1>   0.0800 
 52 H        7.6560     6.4980    -2.5590 H     1 <1>   0.0800 
 53 H        8.6360     7.9290    -2.5520 H     1 <1>   0.0800 
@<TRIPOS>BOND
  1   1   2  1   
  2   2   3  ar  
  3   2   4  ar  
  4   3   5  ar  
  5   3   6  1   
  6   4   7  ar  
  7   4  27  1   
  8   5   8  ar  
  9   5  28  1   
 10   6   9  1   
 11   6  10  1   
 12   6  29  1   
 13   7   8  ar  
 14   7  30  1   
 15   8  31  1   
 16   9  11  am  
 17   9  32  1   
 18  10  12  1   
 19  10  13  1   
 20  10  33  1   
 21  11  14  2   
 22  11  15  1   
 23  12  15  1   
 24  13  16  2   
 25  13  17  am  
 26  15  34  1   
 27  15  35  1   
 28  17  18  1   
 29  17  19  1   
 30  18  20  1   
 31  18  36  1   
 32  18  37  1   
 33  19  21  1   
 34  19  38  1   
 35  19  39  1   
 36  20  22  1   
 37  20  40  1   
 38  20  41  1   
 39  21  23  1   
 40  21  42  1   
 41  21  43  1   
 42  22  23  1   
 43  22  24  1   
 44  22  44  1   
 45  23  45  1   
 46  23  46  1   
 47  24  25  1   
 48  24  26  1   
 49  24  47  1   
 50  25  48  1   
 51  25  49  1   
 52  25  50  1   
 53  26  51  1   
 54  26  52  1   
 55  26  53  1   
@<TRIPOS>SUBSTRUCTURE
  1 ****  13 GROUP 4 **** **** 0

# MOE 2024.06 (io_trps.svl 2023.06)
