@<TRIPOS>MOLECULE
Untitled Document
40 42 1 0 0 
SMALL
USER_CHARGES


@<TRIPOS>ATOM
  1 O        2.3690    -0.4910    -0.2970 O.2   1 <1>  -0.5700 
  2 C        1.4520    -1.1270     0.1810 C.2   1 <1>   0.6900 
  3 N        1.1070    -2.3790    -0.2980 N.am  1 <1>  -0.4770 
  4 N        0.8000    -0.5650     1.2070 N.am  1 <1>  -0.8000 
  5 C       -0.1150    -3.0480    -0.0900 C.ar  1 <1>   0.4270 
  6 C        2.1300    -3.0770    -1.1260 C.3   1 <1>   0.1400 
  7 N       -1.1670    -2.3260     0.3070 N.ar  1 <1>  -0.6200 
  8 C       -0.2190    -4.4310    -0.3130 C.ar  1 <1>  -0.1430 
  9 C        2.2810    -4.5180    -0.6480 C.3   1 <1>  -0.1600 
 10 C       -2.3050    -2.9670     0.4920 C.ar  1 <1>   0.1600 
 11 C       -1.4190    -5.0740    -0.1110 C.ar  1 <1>  -0.1500 
 12 C        0.9580    -5.2640    -0.8040 C.3   1 <1>  -0.0170 
 13 C       -2.5080    -4.3280     0.3070 C.ar  1 <1>   0.0000 
 14 C       -3.7970    -4.9360     0.5340 C.ar  1 <1>   0.0000 
 15 C       -3.9600    -5.9660     1.4570 C.ar  1 <1>   0.1600 
 16 C       -4.9210    -4.5150    -0.1590 C.ar  1 <1>  -0.1500 
 17 N       -5.0970    -6.5780     1.7360 N.ar  1 <1>  -0.6200 
 18 C       -6.1230    -5.1340     0.1130 C.ar  1 <1>  -0.1430 
 19 C       -6.1530    -6.1430     1.0640 C.ar  1 <1>   0.1600 
 20 C       -7.3930    -4.7320    -0.6160 C.3   1 <1>   0.2630 
 21 O       -8.4010    -4.5220     0.3200 O.3   1 <1>  -0.5600 
 22 C       -9.6190    -4.1340    -0.2300 C.3   1 <1>   0.0400 
 23 H        0.9680     0.4180     1.3990 H     1 <1>   0.3700 
 24 H       -0.1400    -0.9250     1.3930 H     1 <1>   0.3700 
 25 H        3.0870    -2.5890    -1.0500 H     1 <1>   0.0800 
 26 H        1.8220    -3.0510    -2.1570 H     1 <1>   0.0800 
 27 H        2.5830    -4.5140     0.3860 H     1 <1>   0.0800 
 28 H        3.0480    -5.0130    -1.2170 H     1 <1>   0.0800 
 29 H       -3.1450    -2.3770     0.8170 H     1 <1>   0.1500 
 30 H       -1.5250    -6.1320    -0.2790 H     1 <1>   0.1500 
 31 H        0.8020    -5.4910    -1.8440 H     1 <1>   0.0800 
 32 H        1.0060    -6.1930    -0.2630 H     1 <1>   0.0800 
 33 H       -3.0920    -6.2970     2.0000 H     1 <1>   0.1500 
 34 H       -4.8480    -3.7280    -0.8890 H     1 <1>   0.1500 
 35 H       -7.0970    -6.6140     1.2830 H     1 <1>   0.1500 
 36 H       -7.7010    -5.5180    -1.2850 H     1 <1>   0.0800 
 37 H       -7.2430    -3.8200    -1.1680 H     1 <1>   0.0800 
 38 H      -10.3210    -4.0030     0.5750 H     1 <1>   0.0800 
 39 H       -9.9720    -4.9020    -0.8960 H     1 <1>   0.0800 
 40 H       -9.4930    -3.2020    -0.7540 H     1 <1>   0.0800 
@<TRIPOS>BOND
  1   1   2  2   
  2   2   3  am  
  3   2   4  am  
  4   3   5  1   
  5   3   6  1   
  6   4  23  1   
  7   4  24  1   
  8   5   7  ar  
  9   5   8  ar  
 10   6   9  1   
 11   6  25  1   
 12   6  26  1   
 13   7  10  ar  
 14   8  11  ar  
 15   8  12  1   
 16   9  12  1   
 17   9  27  1   
 18   9  28  1   
 19  10  13  ar  
 20  10  29  1   
 21  11  13  ar  
 22  11  30  1   
 23  12  31  1   
 24  12  32  1   
 25  13  14  1   
 26  14  15  ar  
 27  14  16  ar  
 28  15  17  ar  
 29  15  33  1   
 30  16  18  ar  
 31  16  34  1   
 32  17  19  ar  
 33  18  19  ar  
 34  18  20  1   
 35  19  35  1   
 36  20  21  1   
 37  20  36  1   
 38  20  37  1   
 39  21  22  1   
 40  22  38  1   
 41  22  39  1   
 42  22  40  1   
@<TRIPOS>SUBSTRUCTURE
  1 ****  13 GROUP 4 **** **** 0

# MOE 2024.06 (io_trps.svl 2023.06)
