@<TRIPOS>MOLECULE
NONAME
57 59 1 0 0 
SMALL
USER_CHARGES


@<TRIPOS>ATOM
  1 O       -0.1490     0.7560    -1.2830 O.2   1 <1>  -0.5700 
  2 C       -0.1860     1.9240    -0.9690 C.2   1 <1>   0.5690 
  3 N       -1.1770     2.4450    -0.1770 N.am  1 <1>  -0.6600 
  4 C        0.9260     2.8280    -1.5050 C.3   1 <1>   0.1810 
  5 C       -1.2240     3.9320     0.0960 C.3   1 <1>   0.3640 
  6 C       -2.0670     1.5150     0.5880 C.3   1 <1>   0.2200 
  7 O        1.0800     4.0080    -0.7590 O.3   1 <1>  -0.5600 
  8 C       -2.5740     4.5230    -0.3140 C.ar  1 <1>  -0.1440 
  9 C       -0.1190     4.7450    -0.6290 C.3   1 <1>   0.2610 
 10 C       -3.4230     1.3620    -0.0980 C.3   1 <1>  -0.2400 
 11 C       -2.2300     1.9300     2.0520 C.3   1 <1>  -0.2400 
 12 C       -3.1190     4.2720    -1.5670 C.ar  1 <1>  -0.1500 
 13 C       -3.2620     5.3470     0.5650 C.ar  1 <1>  -0.1500 
 14 C        0.1380     6.1030     0.0530 C.2   1 <1>   0.5690 
 15 C       -4.3320     4.8300    -1.9320 C.ar  1 <1>  -0.1500 
 16 C       -4.4750     5.9050     0.2020 C.ar  1 <1>  -0.1500 
 17 O       -0.1810     6.2460     1.2150 O.2   1 <1>  -0.5700 
 18 N        0.7070     7.1450    -0.6490 N.am  1 <1>  -0.6600 
 19 C       -5.0110     5.6470    -1.0460 C.ar  1 <1>  -0.1500 
 20 C        0.8750     8.4830    -0.0120 C.3   1 <1>   0.1400 
 21 C        1.1700     7.0470    -2.0630 C.3   1 <1>   0.0600 
 22 C        2.0970     8.5190     0.9230 C.3   1 <1>  -0.0800 
 23 C        2.2080     9.8920     1.6060 C.3   1 <1>  -0.1600 
 24 C        3.4220     8.2060     0.2060 C.3   1 <1>  -0.1600 
 25 C        3.4770     9.9790     2.4600 C.3   1 <1>   0.1200 
 26 C        4.6150     8.4020     1.1470 C.3   1 <1>   0.1200 
 27 O        4.5870     9.6960     1.6650 O.3   1 <1>  -0.5600 
 28 H        0.7170     3.0890    -2.5260 H     1 <1>   0.0800 
 29 H        1.8590     2.2960    -1.4670 H     1 <1>   0.0800 
 30 H       -1.0870     4.0660     1.1530 H     1 <1>   0.0800 
 31 H       -1.6060     0.5400     0.5950 H     1 <1>   0.0800 
 32 H       -0.4640     4.9550    -1.6240 H     1 <1>   0.0800 
 33 H       -4.0160     2.2510     0.0060 H     1 <1>   0.0800 
 34 H       -3.9640     0.5500     0.3530 H     1 <1>   0.0800 
 35 H       -3.2850     1.1360    -1.1400 H     1 <1>   0.0800 
 36 H       -2.7980     2.8380     2.1390 H     1 <1>   0.0800 
 37 H       -1.2660     2.0540     2.5120 H     1 <1>   0.0800 
 38 H       -2.7570     1.1600     2.5850 H     1 <1>   0.0800 
 39 H       -2.6050     3.6300    -2.2620 H     1 <1>   0.1500 
 40 H       -2.8520     5.5650     1.5380 H     1 <1>   0.1500 
 41 H       -4.7490     4.6250    -2.9020 H     1 <1>   0.1500 
 42 H       -5.0010     6.5430     0.8920 H     1 <1>   0.1500 
 43 H       -5.9550     6.0810    -1.3280 H     1 <1>   0.1500 
 44 H        0.9720     9.2390    -0.7720 H     1 <1>   0.0800 
 45 H       -0.0100     8.7080     0.5580 H     1 <1>   0.0800 
 46 H        1.9660     7.7490    -2.2430 H     1 <1>   0.0800 
 47 H        0.3530     7.2700    -2.7270 H     1 <1>   0.0800 
 48 H        1.5440     6.0610    -2.2730 H     1 <1>   0.0800 
 49 H        1.9480     7.7830     1.6960 H     1 <1>   0.0800 
 50 H        1.3490    10.0600     2.2310 H     1 <1>   0.0800 
 51 H        2.2400    10.6740     0.8670 H     1 <1>   0.0800 
 52 H        3.5460     8.8510    -0.6450 H     1 <1>   0.0800 
 53 H        3.4180     7.1880    -0.1420 H     1 <1>   0.0800 
 54 H        3.4490     9.2770     3.2760 H     1 <1>   0.0800 
 55 H        3.6000    10.9720     2.8550 H     1 <1>   0.0800 
 56 H        5.5410     8.2820     0.6140 H     1 <1>   0.0800 
 57 H        4.5860     7.7030     1.9650 H     1 <1>   0.0800 
@<TRIPOS>BOND
  1   1   2  2   
  2   2   3  am  
  3   2   4  1   
  4   3   5  1   
  5   3   6  1   
  6   4   7  1   
  7   4  28  1   
  8   4  29  1   
  9   5   8  1   
 10   5   9  1   
 11   5  30  1   
 12   6  10  1   
 13   6  11  1   
 14   6  31  1   
 15   7   9  1   
 16   8  12  ar  
 17   8  13  ar  
 18   9  14  1   
 19   9  32  1   
 20  10  33  1   
 21  10  34  1   
 22  10  35  1   
 23  11  36  1   
 24  11  37  1   
 25  11  38  1   
 26  12  15  ar  
 27  12  39  1   
 28  13  16  ar  
 29  13  40  1   
 30  14  17  2   
 31  14  18  am  
 32  15  19  ar  
 33  15  41  1   
 34  16  19  ar  
 35  16  42  1   
 36  18  20  1   
 37  18  21  1   
 38  19  43  1   
 39  20  22  1   
 40  20  44  1   
 41  20  45  1   
 42  21  46  1   
 43  21  47  1   
 44  21  48  1   
 45  22  23  1   
 46  22  24  1   
 47  22  49  1   
 48  23  25  1   
 49  23  50  1   
 50  23  51  1   
 51  24  26  1   
 52  24  52  1   
 53  24  53  1   
 54  25  27  1   
 55  25  54  1   
 56  25  55  1   
 57  26  27  1   
 58  26  56  1   
 59  26  57  1   
@<TRIPOS>SUBSTRUCTURE
  1 ****  14 GROUP 4 **** **** 0

# MOE 2024.06 (io_trps.svl 2023.06)
