@<TRIPOS>MOLECULE
NONAME
46 47 1 0 0 
SMALL
USER_CHARGES


@<TRIPOS>ATOM
  1 CL      -1.5940    -2.0710    -0.7710 Cl    1 <1>  -0.1770 
  2 C       -2.5900    -0.6490    -0.9620 C.ar  1 <1>   0.1770 
  3 C       -3.4600    -0.2720     0.0520 C.ar  1 <1>  -0.1440 
  4 C       -2.4820     0.0720    -2.1340 C.ar  1 <1>  -0.1500 
  5 C       -4.2290     0.8780    -0.1140 C.ar  1 <1>  -0.1440 
  6 C       -3.5400    -1.1240     1.3060 C.3   1 <1>   0.4870 
  7 C       -3.2560     1.2040    -2.3000 C.ar  1 <1>  -0.1500 
  8 C       -4.1200     1.6020    -1.2940 C.ar  1 <1>  -0.1500 
  9 C       -5.1830     1.3860     0.9620 C.3   1 <1>  -0.0970 
 10 N       -4.2360    -2.4090     1.0130 N.4   1 <1>  -0.9590 
 11 C       -5.5400    -2.2700     0.2820 C.3   1 <1>   0.3430 
 12 C       -4.4520    -3.2760     2.2020 C.3   1 <1>   0.3430 
 13 C       -6.5500    -3.1610     1.0210 C.3   1 <1>   0.2000 
 14 C       -5.7200    -4.0900     1.9140 C.3   1 <1>  -0.0800 
 15 O       -7.3450    -2.3680     1.8400 O.3   1 <1>  -0.6800 
 16 C       -5.4360    -5.4760     1.2760 C.3   1 <1>  -0.0550 
 17 S       -4.5560    -5.4640    -0.2900 S.o2  1 <1>   1.3330 
 18 O       -5.4280    -4.8800    -1.2810 O.2   1 <1>  -0.6500 
 19 O       -3.2880    -4.8180    -0.0320 O.2   1 <1>  -0.6500 
 20 N       -4.3050    -7.1010    -0.6340 N.am  1 <1>  -0.8490 
 21 C       -5.4460    -7.7430    -1.3000 C.3   1 <1>   0.1160 
 22 C       -3.0840    -7.3320    -1.4160 C.3   1 <1>   0.1160 
 23 H       -1.8010    -0.2470    -2.9030 H     1 <1>   0.1500 
 24 H       -4.0710    -0.5870     2.0730 H     1 <1>   0.0800 
 25 H       -2.5430    -1.3230     1.6640 H     1 <1>   0.0800 
 26 H       -3.1850     1.7790    -3.2090 H     1 <1>   0.1500 
 27 H       -4.7080     2.4930    -1.4430 H     1 <1>   0.1500 
 28 H       -5.6770     2.2860     0.6410 H     1 <1>   0.0800 
 29 H       -4.6400     1.6160     1.8620 H     1 <1>   0.0800 
 30 H       -5.9420     0.6570     1.1810 H     1 <1>   0.0800 
 31 H       -3.6000    -2.9410     0.3780 H     1 <1>   0.4500 
 32 H       -5.8880    -1.2520     0.2600 H     1 <1>   0.0800 
 33 H       -5.4210    -2.6140    -0.7330 H     1 <1>   0.0800 
 34 H       -3.6000    -3.9150     2.3780 H     1 <1>   0.0800 
 35 H       -4.6170    -2.6630     3.0720 H     1 <1>   0.0800 
 36 H       -7.2030    -3.6810     0.3390 H     1 <1>   0.0800 
 37 H       -6.2390    -4.2800     2.8380 H     1 <1>   0.0800 
 38 H       -6.8500    -1.9330     2.5590 H     1 <1>   0.4000 
 39 H       -6.3730    -5.9820     1.1370 H     1 <1>   0.0800 
 40 H       -4.8690    -6.0620     1.9740 H     1 <1>   0.0800 
 41 H       -5.2600    -8.7970    -1.4170 H     1 <1>   0.0800 
 42 H       -5.6100    -7.3070    -2.2720 H     1 <1>   0.0800 
 43 H       -6.3390    -7.6220    -0.7110 H     1 <1>   0.0800 
 44 H       -2.9430    -8.3860    -1.5860 H     1 <1>   0.0800 
 45 H       -2.2250    -6.9630    -0.8800 H     1 <1>   0.0800 
 46 H       -3.1430    -6.8260    -2.3650 H     1 <1>   0.0800 
@<TRIPOS>BOND
  1   1   2  1   
  2   2   3  ar  
  3   2   4  ar  
  4   3   5  ar  
  5   3   6  1   
  6   4   7  ar  
  7   4  23  1   
  8   5   8  ar  
  9   5   9  1   
 10   6  10  1   
 11   6  24  1   
 12   6  25  1   
 13   7   8  ar  
 14   7  26  1   
 15   8  27  1   
 16   9  28  1   
 17   9  29  1   
 18   9  30  1   
 19  10  11  1   
 20  10  12  1   
 21  10  31  1   
 22  11  13  1   
 23  11  32  1   
 24  11  33  1   
 25  12  14  1   
 26  12  34  1   
 27  12  35  1   
 28  13  14  1   
 29  13  15  1   
 30  13  36  1   
 31  14  16  1   
 32  14  37  1   
 33  15  38  1   
 34  16  17  1   
 35  16  39  1   
 36  16  40  1   
 37  17  18  2   
 38  17  19  2   
 39  17  20  am  
 40  20  21  1   
 41  20  22  1   
 42  21  41  1   
 43  21  42  1   
 44  21  43  1   
 45  22  44  1   
 46  22  45  1   
 47  22  46  1   
@<TRIPOS>SUBSTRUCTURE
  1 ****  10 GROUP 4 **** **** 0

# MOE 2024.06 (io_trps.svl 2023.06)
