@<TRIPOS>MOLECULE
NONAME
43 44 1 0 0 
SMALL
USER_CHARGES


@<TRIPOS>ATOM
  1 CL      -5.3010    -0.3860    -1.7760 Cl    1 <1>  -0.1770 
  2 C       -4.2400    -1.3050    -0.7280 C.ar  1 <1>   0.1770 
  3 C       -3.3490    -0.6530     0.1170 C.ar  1 <1>   0.0830 
  4 C       -4.3190    -2.6820    -0.7730 C.ar  1 <1>  -0.1500 
  5 O       -3.3250     0.7110     0.1080 O.3   1 <1>  -0.3630 
  6 C       -2.5270    -1.4270     0.9310 C.ar  1 <1>  -0.1500 
  7 C       -3.4990    -3.4580     0.0360 C.ar  1 <1>   0.1170 
  8 C       -2.4370     1.4330     0.9320 C.3   1 <1>   0.0400 
  9 C       -2.6070    -2.8100     0.8860 C.ar  1 <1>  -0.1500 
 10 N       -3.6150    -4.8550    -0.0420 N.am  1 <1>  -0.5470 
 11 C       -2.9090    -5.8890     0.5020 C.2   1 <1>   0.5690 
 12 O       -1.9400    -5.7600     1.2110 O.2   1 <1>  -0.5700 
 13 C       -3.4090    -7.2980     0.1720 C.3   1 <1>   0.1710 
 14 N       -4.2890    -7.3590    -1.0420 N.3   1 <1>  -0.8100 
 15 C       -5.1040    -8.5970    -1.0640 C.3   1 <1>   0.1100 
 16 C       -3.4720    -7.2800    -2.2650 C.3   1 <1>   0.0300 
 17 C       -6.2930    -8.5480    -0.0910 C.3   1 <1>   0.2000 
 18 O       -7.0290    -9.7280    -0.2620 O.3   1 <1>  -0.5600 
 19 C       -7.1980    -7.3240    -0.3450 C.3   1 <1>   0.1200 
 20 C       -8.1790    -9.7910     0.5330 C.3   1 <1>   0.1200 
 21 O       -8.3520    -7.3910     0.4460 O.3   1 <1>  -0.5600 
 22 C       -9.0780    -8.5710     0.2650 C.3   1 <1>   0.1200 
 23 H       -5.0210    -3.1440    -1.4400 H     1 <1>   0.1500 
 24 H       -1.8210    -0.9790     1.6040 H     1 <1>   0.1500 
 25 H       -2.5940     2.4810     0.7510 H     1 <1>   0.0800 
 26 H       -1.4270     1.1650     0.6770 H     1 <1>   0.0800 
 27 H       -2.6510     1.2050     1.9610 H     1 <1>   0.0800 
 28 H       -1.9630    -3.3840     1.5270 H     1 <1>   0.1500 
 29 H       -4.3460    -5.2140    -0.6660 H     1 <1>   0.3700 
 30 H       -3.9520    -7.6370     1.0350 H     1 <1>   0.0800 
 31 H       -2.5610    -7.9470     0.0480 H     1 <1>   0.0800 
 32 H       -4.4860    -9.4480    -0.8330 H     1 <1>   0.0800 
 33 H       -5.5080    -8.7340    -2.0530 H     1 <1>   0.0800 
 34 H       -2.8750    -6.3840    -2.2650 H     1 <1>   0.0800 
 35 H       -4.1110    -7.2570    -3.1320 H     1 <1>   0.0800 
 36 H       -2.8180    -8.1330    -2.3380 H     1 <1>   0.0800 
 37 H       -5.9350    -8.5310     0.9230 H     1 <1>   0.0800 
 38 H       -7.4900    -7.2780    -1.3790 H     1 <1>   0.0800 
 39 H       -6.6780    -6.4180    -0.0920 H     1 <1>   0.0800 
 40 H       -7.8840    -9.8220     1.5670 H     1 <1>   0.0800 
 41 H       -8.6990   -10.7000     0.2910 H     1 <1>   0.0800 
 42 H       -9.9070    -8.5580     0.9490 H     1 <1>   0.0800 
 43 H       -9.4560    -8.5940    -0.7430 H     1 <1>   0.0800 
@<TRIPOS>BOND
  1   1   2  1   
  2   2   3  ar  
  3   2   4  ar  
  4   3   5  1   
  5   3   6  ar  
  6   4   7  ar  
  7   4  23  1   
  8   5   8  1   
  9   6   9  ar  
 10   6  24  1   
 11   7   9  ar  
 12   7  10  1   
 13   8  25  1   
 14   8  26  1   
 15   8  27  1   
 16   9  28  1   
 17  10  11  am  
 18  10  29  1   
 19  11  12  2   
 20  11  13  1   
 21  13  14  1   
 22  13  30  1   
 23  13  31  1   
 24  14  15  1   
 25  14  16  1   
 26  15  17  1   
 27  15  32  1   
 28  15  33  1   
 29  16  34  1   
 30  16  35  1   
 31  16  36  1   
 32  17  18  1   
 33  17  19  1   
 34  17  37  1   
 35  18  20  1   
 36  19  21  1   
 37  19  38  1   
 38  19  39  1   
 39  20  22  1   
 40  20  40  1   
 41  20  41  1   
 42  21  22  1   
 43  22  42  1   
 44  22  43  1   
@<TRIPOS>SUBSTRUCTURE
  1 ****  10 GROUP 4 **** **** 0

# MOE 2024.06 (io_trps.svl 2023.06)
