@<TRIPOS>MOLECULE
NONAME
46 49 1 0 0 
SMALL
USER_CHARGES


@<TRIPOS>ATOM
  1 S       -0.6080    -0.0510    -0.6760 S.3   1 <1>  -0.0800 
  2 C        0.8520    -0.9900    -0.4420 C.2   1 <1>  -0.0450 
  3 C        0.2330     1.3800    -0.1450 C.2   1 <1>   0.1980 
  4 C        1.8080    -0.1350    -0.0120 C.2   1 <1>   0.0460 
  5 C        0.8480    -2.3970    -0.7390 C.2   1 <1>   0.7150 
  6 N        1.4480     1.1830     0.1670 N.2   1 <1>  -0.5650 
  7 C       -0.5390     2.6790    -0.1070 C.3   1 <1>  -0.0600 
  8 C        3.2520    -0.4790     0.2940 C.3   1 <1>  -0.0590 
  9 O        1.7000    -2.8620    -1.4700 O.2   1 <1>  -0.5700 
 10 N       -0.0930    -3.2630    -0.2110 N.am  1 <1>  -0.6600 
 11 C       -0.8720    -2.9880     1.0370 C.3   1 <1>   0.1400 
 12 C       -0.2090    -4.6700    -0.7060 C.3   1 <1>   0.1400 
 13 C       -2.3540    -3.4050     0.8930 C.3   1 <1>   0.4230 
 14 C       -1.6850    -5.0800    -0.8570 C.3   1 <1>   0.3430 
 15 N       -2.4940    -4.8330     0.3970 N.4   1 <1>  -0.9590 
 16 C       -3.1220    -2.4250    -0.0240 C.3   1 <1>   0.1200 
 17 C       -3.9500    -5.1510     0.2260 C.3   1 <1>   0.5180 
 18 O       -4.4630    -2.8110    -0.1390 O.3   1 <1>  -0.5600 
 19 C       -4.1130    -6.5740    -0.3210 C.3   1 <1>  -0.1950 
 20 C       -4.6720    -4.1000    -0.6480 C.3   1 <1>   0.1200 
 21 C       -5.2190    -7.4490     0.1840 C.3   1 <1>  -0.2000 
 22 C       -3.7910    -7.7790     0.5120 C.3   1 <1>  -0.2000 
 23 H        0.1010     3.4690     0.2410 H     1 <1>   0.0800 
 24 H       -1.3780     2.5890     0.5580 H     1 <1>   0.0800 
 25 H       -0.8890     2.9230    -1.0930 H     1 <1>   0.0800 
 26 H        3.4460    -1.5220     0.1270 H     1 <1>   0.0800 
 27 H        3.4730    -0.2400     1.3180 H     1 <1>   0.0800 
 28 H        3.8980     0.0980    -0.3420 H     1 <1>   0.0800 
 29 H       -0.4300    -3.5440     1.8460 H     1 <1>   0.0800 
 30 H       -0.8140    -1.9490     1.3080 H     1 <1>   0.0800 
 31 H        0.2740    -4.7720    -1.6640 H     1 <1>   0.0800 
 32 H        0.2900    -5.3320    -0.0200 H     1 <1>   0.0800 
 33 H       -2.8040    -3.3300     1.8690 H     1 <1>   0.0800 
 34 H       -1.7260    -6.1250    -1.1200 H     1 <1>   0.0800 
 35 H       -2.1050    -4.5210    -1.6760 H     1 <1>   0.0800 
 36 H       -2.1410    -5.4670     1.1220 H     1 <1>   0.4500 
 37 H       -2.6870    -2.3790    -1.0080 H     1 <1>   0.0800 
 38 H       -3.1090    -1.4350     0.3980 H     1 <1>   0.0800 
 39 H       -4.4170    -5.1240     1.1970 H     1 <1>   0.0800 
 40 H       -3.9430    -6.6340    -1.3820 H     1 <1>   0.1000 
 41 H       -5.7320    -4.2850    -0.6420 H     1 <1>   0.0800 
 42 H       -4.3280    -4.1300    -1.6670 H     1 <1>   0.0800 
 43 H       -5.8580    -7.1150     0.9850 H     1 <1>   0.1000 
 44 H       -5.7420    -8.0890    -0.5080 H     1 <1>   0.1000 
 45 H       -3.3580    -8.6470     0.0420 H     1 <1>   0.1000 
 46 H       -3.4900    -7.6820     1.5410 H     1 <1>   0.1000 
@<TRIPOS>BOND
  1   1   2  1   
  2   1   3  1   
  3   2   4  2   
  4   2   5  1   
  5   3   6  2   
  6   3   7  1   
  7   4   6  1   
  8   4   8  1   
  9   5   9  2   
 10   5  10  am  
 11   7  23  1   
 12   7  24  1   
 13   7  25  1   
 14   8  26  1   
 15   8  27  1   
 16   8  28  1   
 17  10  11  1   
 18  10  12  1   
 19  11  13  1   
 20  11  29  1   
 21  11  30  1   
 22  12  14  1   
 23  12  31  1   
 24  12  32  1   
 25  13  15  1   
 26  13  16  1   
 27  13  33  1   
 28  14  15  1   
 29  14  34  1   
 30  14  35  1   
 31  15  17  1   
 32  15  36  1   
 33  16  18  1   
 34  16  37  1   
 35  16  38  1   
 36  17  19  1   
 37  17  20  1   
 38  17  39  1   
 39  18  20  1   
 40  19  21  1   
 41  19  22  1   
 42  19  40  1   
 43  20  41  1   
 44  20  42  1   
 45  21  22  1   
 46  21  43  1   
 47  21  44  1   
 48  22  45  1   
 49  22  46  1   
@<TRIPOS>SUBSTRUCTURE
  1 ****  11 GROUP 4 **** **** 0

# MOE 2024.06 (io_trps.svl 2023.06)
