@<TRIPOS>MOLECULE
NONAME
45 47 1 0 0 
SMALL
USER_CHARGES


@<TRIPOS>ATOM
  1 CL       2.0810     1.1140     2.1520 Cl    1 <1>  -0.1770 
  2 C        2.3270     0.0820     0.7630 C.ar  1 <1>   0.1770 
  3 C        2.9100     0.5780    -0.3930 C.ar  1 <1>   0.0860 
  4 C        1.9290    -1.2400     0.8400 C.ar  1 <1>   0.1600 
  5 C        3.3540     1.9430    -0.5410 C.2   1 <1>   0.5440 
  6 C        3.0260    -0.3430    -1.4260 C.ar  1 <1>  -0.1500 
  7 N        2.0590    -2.1210    -0.1420 N.ar  1 <1>  -0.6200 
  8 O        2.7990     2.6480    -1.3620 O.2   1 <1>  -0.5700 
  9 N        4.4130     2.4590     0.1750 N.am  1 <1>  -0.6600 
 10 C        2.5980    -1.6470    -1.2550 C.ar  1 <1>   0.1600 
 11 C        5.3410     1.6550     1.0340 C.3   1 <1>   0.1400 
 12 C        4.7340     3.9110     0.1300 C.3   1 <1>   0.1400 
 13 C        6.7030     1.4190     0.3620 C.3   1 <1>   0.1400 
 14 C        5.6370     4.2520    -1.0630 C.3   1 <1>  -0.1600 
 15 N        7.3440     2.6920    -0.0960 N.am  1 <1>  -0.6600 
 16 C        6.7610     3.2470    -1.3510 C.3   1 <1>   0.1400 
 17 C        8.3450     3.2770     0.6360 C.2   1 <1>   0.5690 
 18 O        8.7000     2.8150     1.6950 O.2   1 <1>  -0.5700 
 19 C        9.0260     4.5390     0.1250 C.3   1 <1>  -0.0990 
 20 C       10.1390     5.0580     1.0460 C.3   1 <1>   0.0210 
 21 C       10.7620     6.3120     0.4620 C.2   1 <1>  -0.1810 
 22 C       10.1980     7.5840     0.4320 C.2   1 <1>   0.1390 
 23 C       11.9620     6.4560    -0.1370 C.2   1 <1>  -0.3020 
 24 N       10.9730     8.4530    -0.1420 N.2   1 <1>  -0.7070 
 25 N       12.0680     7.7520    -0.4910 N.pl3 1 <1>   0.3000 
 26 H        1.4820    -1.5870     1.7560 H     1 <1>   0.1500 
 27 H        3.4470    -0.0310    -2.3650 H     1 <1>   0.1500 
 28 H        2.7030    -2.3390    -2.0750 H     1 <1>   0.1500 
 29 H        4.9080     0.7020     1.2710 H     1 <1>   0.0800 
 30 H        5.4990     2.1700     1.9670 H     1 <1>   0.0800 
 31 H        5.2280     4.1940     1.0440 H     1 <1>   0.0800 
 32 H        3.8230     4.4820     0.0650 H     1 <1>   0.0800 
 33 H        6.5760     0.7610    -0.4780 H     1 <1>   0.0800 
 34 H        7.3490     0.9160     1.0600 H     1 <1>   0.0800 
 35 H        6.0610     5.2250    -0.9000 H     1 <1>   0.0800 
 36 H        5.0220     4.3290    -1.9420 H     1 <1>   0.0800 
 37 H        7.5240     3.7120    -1.9490 H     1 <1>   0.0800 
 38 H        6.3550     2.4370    -1.9330 H     1 <1>   0.0800 
 39 H        8.2850     5.3070     0.0130 H     1 <1>   0.0800 
 40 H        9.4510     4.3320    -0.8390 H     1 <1>   0.0800 
 41 H       10.8960     4.3010     1.1600 H     1 <1>   0.0800 
 42 H        9.7390     5.2770     2.0210 H     1 <1>   0.0800 
 43 H        9.2300     7.8330     0.8350 H     1 <1>   0.1500 
 44 H       12.7290     5.7280    -0.3270 H     1 <1>   0.1500 
 45 H       12.8670     8.1880    -0.9670 H     1 <1>   0.2700 
@<TRIPOS>BOND
  1   1   2  1   
  2   2   3  ar  
  3   2   4  ar  
  4   3   5  1   
  5   3   6  ar  
  6   4   7  ar  
  7   4  26  1   
  8   5   8  2   
  9   5   9  am  
 10   6  10  ar  
 11   6  27  1   
 12   7  10  ar  
 13   9  11  1   
 14   9  12  1   
 15  10  28  1   
 16  11  13  1   
 17  11  29  1   
 18  11  30  1   
 19  12  14  1   
 20  12  31  1   
 21  12  32  1   
 22  13  15  1   
 23  13  33  1   
 24  13  34  1   
 25  14  16  1   
 26  14  35  1   
 27  14  36  1   
 28  15  16  1   
 29  15  17  am  
 30  16  37  1   
 31  16  38  1   
 32  17  18  2   
 33  17  19  1   
 34  19  20  1   
 35  19  39  1   
 36  19  40  1   
 37  20  21  1   
 38  20  41  1   
 39  20  42  1   
 40  21  22  1   
 41  21  23  2   
 42  22  24  2   
 43  22  43  1   
 44  23  25  1   
 45  23  44  1   
 46  24  25  1   
 47  25  45  1   
@<TRIPOS>SUBSTRUCTURE
  1 ****  15 GROUP 4 **** **** 0

# MOE 2024.06 (io_trps.svl 2023.06)
