@<TRIPOS>MOLECULE
NONAME
48 50 1 0 0 
SMALL
USER_CHARGES


@<TRIPOS>ATOM
  1 O        1.5930     0.8860     2.1480 O.co2 1 <1>  -0.9000 
  2 C        1.9880     0.2210     1.1830 C.2   1 <1>   0.9060 
  3 O        1.8560    -1.0140     1.1730 O.co2 1 <1>  -0.9000 
  4 C        2.6680     0.8970    -0.0260 C.3   1 <1>  -0.1060 
  5 C        3.9770     0.1410    -0.3530 C.3   1 <1>   0.2000 
  6 C        3.0810     2.3660     0.2800 C.3   1 <1>  -0.1600 
  7 C        1.7210     0.8350    -1.2550 C.3   1 <1>  -0.0160 
  8 O        3.7230    -1.1990    -0.5900 O.3   1 <1>  -0.6800 
  9 C        5.0010     0.2690     0.7830 C.3   1 <1>   0.1100 
 10 C        4.1540     2.4590     1.3750 C.3   1 <1>   0.1100 
 11 C        0.6090     1.8830    -1.2750 C.ar  1 <1>  -0.1430 
 12 N        5.3550     1.6890     0.9930 N.3   1 <1>  -0.8100 
 13 C        0.6200     2.8970    -2.2210 C.ar  1 <1>  -0.1500 
 14 C       -0.4250     1.8320    -0.3530 C.ar  1 <1>  -0.1500 
 15 C        6.3920     1.8090     2.0330 C.3   1 <1>   0.2900 
 16 C       -0.3870     3.8480    -2.2460 C.ar  1 <1>  -0.1500 
 17 C       -1.4320     2.7820    -0.3740 C.ar  1 <1>  -0.1500 
 18 C        7.0220     3.1970     2.0740 C.2   1 <1>   0.0070 
 19 C       -1.4140     3.7910    -1.3210 C.ar  1 <1>  -0.1500 
 20 N        7.2770     3.8350     3.1630 N.2   1 <1>  -0.5650 
 21 N        7.4040     3.9040     0.9960 N.pl3 1 <1>   0.3140 
 22 C        7.8270     4.9590     2.6950 C.2   1 <1>   0.3660 
 23 N        7.9320     5.0520     1.4120 N.2   1 <1>  -0.7070 
 24 C        7.3180     3.5880    -0.4490 C.3   1 <1>   0.0960 
 25 C        8.3290     2.5080    -0.8580 C.3   1 <1>  -0.2400 
 26 H        4.4220     0.5360    -1.2490 H     1 <1>   0.0800 
 27 H        2.2190     2.9200     0.6110 H     1 <1>   0.0800 
 28 H        3.4510     2.8410    -0.6100 H     1 <1>   0.0800 
 29 H        2.3060     0.9460    -2.1490 H     1 <1>   0.0800 
 30 H        1.2710    -0.1420    -1.3040 H     1 <1>   0.0800 
 31 H        3.0010    -1.4500     0.0670 H     1 <1>   0.4000 
 32 H        5.8830    -0.2840     0.5100 H     1 <1>   0.0800 
 33 H        4.5930    -0.1480     1.6900 H     1 <1>   0.0800 
 34 H        3.7570     2.0870     2.3060 H     1 <1>   0.0800 
 35 H        4.4130     3.4940     1.5200 H     1 <1>   0.0800 
 36 H        1.4160     2.9520    -2.9420 H     1 <1>   0.1500 
 37 H       -0.4450     1.0550     0.3940 H     1 <1>   0.1500 
 38 H        5.9700     1.5790     2.9970 H     1 <1>   0.0800 
 39 H        7.1750     1.0980     1.8390 H     1 <1>   0.0800 
 40 H       -0.3700     4.6300    -2.9830 H     1 <1>   0.1500 
 41 H       -2.2220     2.7300     0.3540 H     1 <1>   0.1500 
 42 H       -2.1960     4.5280    -1.3340 H     1 <1>   0.1500 
 43 H        8.1600     5.7310     3.3710 H     1 <1>   0.1500 
 44 H        6.3170     3.2760    -0.6820 H     1 <1>   0.0800 
 45 H        7.5170     4.4910    -0.9970 H     1 <1>   0.0800 
 46 H        8.1030     1.5780    -0.3690 H     1 <1>   0.0800 
 47 H        9.3270     2.8180    -0.6030 H     1 <1>   0.0800 
 48 H        8.2780     2.3510    -1.9200 H     1 <1>   0.0800 
@<TRIPOS>BOND
  1   1   2  ar  
  2   2   3  ar  
  3   2   4  1   
  4   4   5  1   
  5   4   6  1   
  6   4   7  1   
  7   5   8  1   
  8   5   9  1   
  9   5  26  1   
 10   6  10  1   
 11   6  27  1   
 12   6  28  1   
 13   7  11  1   
 14   7  29  1   
 15   7  30  1   
 16   8  31  1   
 17   9  12  1   
 18   9  32  1   
 19   9  33  1   
 20  10  12  1   
 21  10  34  1   
 22  10  35  1   
 23  11  13  ar  
 24  11  14  ar  
 25  12  15  1   
 26  13  16  ar  
 27  13  36  1   
 28  14  17  ar  
 29  14  37  1   
 30  15  18  1   
 31  15  38  1   
 32  15  39  1   
 33  16  19  ar  
 34  16  40  1   
 35  17  19  ar  
 36  17  41  1   
 37  18  20  2   
 38  18  21  1   
 39  19  42  1   
 40  20  22  1   
 41  21  23  1   
 42  21  24  1   
 43  22  23  2   
 44  22  43  1   
 45  24  25  1   
 46  24  44  1   
 47  24  45  1   
 48  25  46  1   
 49  25  47  1   
 50  25  48  1   
@<TRIPOS>SUBSTRUCTURE
  1 ****   6 GROUP 4 **** **** 0

# MOE 2024.06 (io_trps.svl 2023.06)
