@<TRIPOS>MOLECULE
NONAME
52 55 1 0 0 
SMALL
USER_CHARGES


@<TRIPOS>ATOM
  1 O       -0.2940     0.6590     0.2860 O.3   1 <1>  -0.5600 
  2 C       -0.0720     1.9320    -0.2380 C.3   1 <1>   0.2000 
  3 C       -0.7240    -0.3060    -0.6250 C.3   1 <1>   0.2640 
  4 C        0.8750     2.6730     0.7160 C.3   1 <1>   0.2090 
  5 C       -1.4100     2.6800    -0.3630 C.3   1 <1>  -0.1600 
  6 C       -0.7470    -1.6590     0.0650 C.ar  1 <1>  -0.1440 
  7 N        1.0780     4.0750     0.2460 N.pl3 1 <1>  -0.7880 
  8 C       -1.1780     4.1520    -0.7520 C.3   1 <1>  -0.1600 
  9 C        0.2760    -2.0280     0.9270 C.ar  1 <1>   0.1600 
 10 C       -1.7780    -2.5500    -0.1600 C.ar  1 <1>  -0.1500 
 11 C        2.3030     4.6370     0.0120 C.2   1 <1>   0.4860 
 12 C       -0.1870     4.8610     0.1820 C.3   1 <1>   0.2090 
 13 N        0.3570    -3.1890     1.5590 N.ar  1 <1>  -0.6200 
 14 C       -1.7130    -3.7620     0.4950 C.ar  1 <1>  -0.1500 
 15 N        2.4230     5.9430     0.2080 N.2   1 <1>  -0.6210 
 16 C        3.3940     3.8580    -0.4240 C.2   1 <1>  -0.1360 
 17 C       -0.6400    -4.0260     1.3290 C.ar  1 <1>   0.1600 
 18 C        3.6090     6.5250     0.0140 C.2   1 <1>   0.2710 
 19 C        4.5970     4.4450    -0.6240 C.2   1 <1>  -0.0380 
 20 N        4.6670     5.7690    -0.3930 N.pl3 1 <1>  -0.6000 
 21 C        3.7660     7.9300     0.2330 C.2   1 <1>   0.0140 
 22 C        5.8480     3.7310    -1.0890 C.3   1 <1>  -0.1020 
 23 C        4.9940     8.6270     0.0240 C.2   1 <1>   0.5410 
 24 C        2.6780     8.7110     0.6810 C.2   1 <1>  -0.1500 
 25 O        6.0480     8.0740    -0.3670 O.2   1 <1>  -0.5700 
 26 C        5.0590    10.0170     0.2610 C.2   1 <1>  -0.1360 
 27 C        2.7680    10.0620     0.9060 C.2   1 <1>  -0.1500 
 28 C        3.9760    10.7280     0.6930 C.2   1 <1>  -0.1500 
 29 H        0.4110     1.8410    -1.1960 H     1 <1>   0.0800 
 30 H       -0.0410    -0.3330    -1.4560 H     1 <1>   0.0800 
 31 H       -1.7090    -0.0420    -0.9690 H     1 <1>   0.0800 
 32 H        1.8080     2.1470     0.7890 H     1 <1>   0.0800 
 33 H        0.4340     2.7010     1.6980 H     1 <1>   0.0800 
 34 H       -1.9220     2.6450     0.5840 H     1 <1>   0.0800 
 35 H       -2.0300     2.2180    -1.1080 H     1 <1>   0.0800 
 36 H       -2.1130     4.6820    -0.7370 H     1 <1>   0.0800 
 37 H       -0.7910     4.2040    -1.7550 H     1 <1>   0.0800 
 38 H        1.0740    -1.3280     1.1060 H     1 <1>   0.1500 
 39 H       -2.6000    -2.3190    -0.8150 H     1 <1>   0.1500 
 40 H       -0.0030     5.8550    -0.1890 H     1 <1>   0.0800 
 41 H       -0.6000     4.9430     1.1730 H     1 <1>   0.0800 
 42 H       -2.4850    -4.4970     0.3630 H     1 <1>   0.1500 
 43 H        3.2580     2.8130    -0.6040 H     1 <1>   0.1500 
 44 H       -0.6010    -4.9760     1.8340 H     1 <1>   0.1500 
 45 H        5.5530     6.2840    -0.5280 H     1 <1>   0.4000 
 46 H        6.1840     4.1530    -2.0190 H     1 <1>   0.0800 
 47 H        5.6550     2.6840    -1.2330 H     1 <1>   0.0800 
 48 H        6.6250     3.8420    -0.3540 H     1 <1>   0.0800 
 49 H        1.7330     8.2260     0.8560 H     1 <1>   0.1500 
 50 H        6.0050    10.4940     0.0870 H     1 <1>   0.1500 
 51 H        1.9110    10.6190     1.2470 H     1 <1>   0.1500 
 52 H        4.0360    11.7880     0.8720 H     1 <1>   0.1500 
@<TRIPOS>BOND
  1   1   2  1   
  2   1   3  1   
  3   2   4  1   
  4   2   5  1   
  5   2  29  1   
  6   3   6  1   
  7   3  30  1   
  8   3  31  1   
  9   4   7  1   
 10   4  32  1   
 11   4  33  1   
 12   5   8  1   
 13   5  34  1   
 14   5  35  1   
 15   6   9  ar  
 16   6  10  ar  
 17   7  11  1   
 18   7  12  1   
 19   8  12  1   
 20   8  36  1   
 21   8  37  1   
 22   9  13  ar  
 23   9  38  1   
 24  10  14  ar  
 25  10  39  1   
 26  11  15  2   
 27  11  16  1   
 28  12  40  1   
 29  12  41  1   
 30  13  17  ar  
 31  14  17  ar  
 32  14  42  1   
 33  15  18  1   
 34  16  19  2   
 35  16  43  1   
 36  17  44  1   
 37  18  20  1   
 38  18  21  2   
 39  19  20  1   
 40  19  22  1   
 41  20  45  1   
 42  21  23  1   
 43  21  24  1   
 44  22  46  1   
 45  22  47  1   
 46  22  48  1   
 47  23  25  2   
 48  23  26  1   
 49  24  27  2   
 50  24  49  1   
 51  26  28  2   
 52  26  50  1   
 53  27  28  1   
 54  27  51  1   
 55  28  52  1   
@<TRIPOS>SUBSTRUCTURE
  1 ****   7 GROUP 4 **** **** 0

# MOE 2024.06 (io_trps.svl 2023.06)
