@<TRIPOS>MOLECULE
NONAME
52 54 1 0 0 
SMALL
USER_CHARGES


@<TRIPOS>ATOM
  1 O       -1.0230     0.3920     2.0410 O.2   1 <1>  -0.5700 
  2 C       -1.5070     0.5820     0.9500 C.2   1 <1>   0.5690 
  3 N       -1.7540    -0.4740     0.1040 N.am  1 <1>  -0.6600 
  4 C       -1.8410     2.0400     0.6060 C.3   1 <1>  -0.0190 
  5 C       -1.6250    -1.8750     0.6230 C.3   1 <1>   0.3200 
  6 C       -2.2800    -0.4060    -1.2930 C.3   1 <1>   0.0600 
  7 C       -3.3440     2.2760     0.3440 C.3   1 <1>  -0.1600 
  8 C       -0.9210     2.6420    -0.4860 C.3   1 <1>  -0.1600 
  9 C       -2.9920    -2.5070     0.8350 C.2   1 <1>   0.2980 
 10 C       -3.6850     3.7720     0.1830 C.3   1 <1>   0.2000 
 11 C       -1.5920     3.7660    -1.2960 C.3   1 <1>  -0.1600 
 12 O       -3.7570    -2.0360     1.7840 O.3   1 <1>  -0.0190 
 13 N       -3.4890    -3.4590     0.1560 N.2   1 <1>  -0.5650 
 14 O       -4.8010     3.8690    -0.6690 O.3   1 <1>  -0.5600 
 15 C       -2.5130     4.6040    -0.4060 C.3   1 <1>   0.2000 
 16 N       -4.8380    -2.7470     1.7010 N.2   1 <1>  -0.4100 
 17 C       -4.6850    -3.5900     0.7420 C.2   1 <1>   0.4620 
 18 C       -6.0340     3.6440    -0.0590 C.3   1 <1>   0.0400 
 19 O       -3.0250     5.6290    -1.1730 O.3   1 <1>  -0.6800 
 20 C       -5.6660    -4.5730     0.3120 C.ar  1 <1>   0.0540 
 21 C       -5.4090    -5.4600    -0.7360 C.ar  1 <1>  -0.1500 
 22 C       -6.9140    -4.6690     0.9330 C.ar  1 <1>  -0.1500 
 23 C       -6.3480    -6.3900    -1.1430 C.ar  1 <1>  -0.1500 
 24 C       -7.8590    -5.5960     0.5320 C.ar  1 <1>  -0.1500 
 25 C       -7.5790    -6.4670    -0.5150 C.ar  1 <1>   0.0820 
 26 O       -8.4440    -7.4040    -0.9730 O.3   1 <1>  -0.3630 
 27 C       -9.7230    -7.5650    -0.4020 C.3   1 <1>   0.0400 
 28 H       -1.6260     2.5980     1.5030 H     1 <1>   0.0800 
 29 H       -1.0710    -2.4640    -0.0860 H     1 <1>   0.0800 
 30 H       -1.0860    -1.9000     1.5530 H     1 <1>   0.0800 
 31 H       -1.7220    -1.0750    -1.9250 H     1 <1>   0.0800 
 32 H       -2.2020     0.5820    -1.7030 H     1 <1>   0.0800 
 33 H       -3.3160    -0.7020    -1.3060 H     1 <1>   0.0800 
 34 H       -3.9110     1.8710     1.1630 H     1 <1>   0.0800 
 35 H       -3.6410     1.7630    -0.5500 H     1 <1>   0.0800 
 36 H       -0.0450     3.0370     0.0010 H     1 <1>   0.0800 
 37 H       -0.5720     1.8840    -1.1630 H     1 <1>   0.0800 
 38 H       -3.9390     4.1980     1.1390 H     1 <1>   0.0800 
 39 H       -2.1770     3.3330    -2.0890 H     1 <1>   0.0800 
 40 H       -0.8360     4.3930    -1.7340 H     1 <1>   0.0800 
 41 H       -1.9340     5.0440     0.3880 H     1 <1>   0.0800 
 42 H       -6.8010     3.7600    -0.8030 H     1 <1>   0.0800 
 43 H       -6.1800     4.3670     0.7250 H     1 <1>   0.0800 
 44 H       -6.0650     2.6440     0.3370 H     1 <1>   0.0800 
 45 H       -3.9080     5.3150    -1.4770 H     1 <1>   0.4000 
 46 H       -4.4600    -5.4220    -1.2410 H     1 <1>   0.1500 
 47 H       -7.1480    -4.0030     1.7450 H     1 <1>   0.1500 
 48 H       -6.1320    -7.0640    -1.9520 H     1 <1>   0.1500 
 49 H       -8.8020    -5.6260     1.0440 H     1 <1>   0.1500 
 50 H      -10.2240    -8.3600    -0.9240 H     1 <1>   0.0800 
 51 H      -10.2740    -6.6490    -0.5170 H     1 <1>   0.0800 
 52 H       -9.6120    -7.8230     0.6360 H     1 <1>   0.0800 
@<TRIPOS>BOND
  1   1   2  2   
  2   2   3  am  
  3   2   4  1   
  4   3   5  1   
  5   3   6  1   
  6   4   7  1   
  7   4   8  1   
  8   4  28  1   
  9   5   9  1   
 10   5  29  1   
 11   5  30  1   
 12   6  31  1   
 13   6  32  1   
 14   6  33  1   
 15   7  10  1   
 16   7  34  1   
 17   7  35  1   
 18   8  11  1   
 19   8  36  1   
 20   8  37  1   
 21   9  12  1   
 22   9  13  2   
 23  10  14  1   
 24  10  15  1   
 25  10  38  1   
 26  11  15  1   
 27  11  39  1   
 28  11  40  1   
 29  12  16  1   
 30  13  17  1   
 31  14  18  1   
 32  15  19  1   
 33  15  41  1   
 34  16  17  2   
 35  17  20  1   
 36  18  42  1   
 37  18  43  1   
 38  18  44  1   
 39  19  45  1   
 40  20  21  ar  
 41  20  22  ar  
 42  21  23  ar  
 43  21  46  1   
 44  22  24  ar  
 45  22  47  1   
 46  23  25  ar  
 47  23  48  1   
 48  24  25  ar  
 49  24  49  1   
 50  25  26  1   
 51  26  27  1   
 52  27  50  1   
 53  27  51  1   
 54  27  52  1   
@<TRIPOS>SUBSTRUCTURE
  1 ****  12 GROUP 4 **** **** 0

# MOE 2024.06 (io_trps.svl 2023.06)
