@<TRIPOS>MOLECULE
NONAME
44 47 1 0 0 
SMALL
USER_CHARGES


@<TRIPOS>ATOM
  1 F       -1.7780    -0.0890    -1.8490 F     1 <1>  -0.1900 
  2 C       -2.4730    -1.0800    -1.3660 C.ar  1 <1>   0.1900 
  3 C       -2.5420    -1.2430     0.0040 C.ar  1 <1>  -0.1500 
  4 C       -3.1160    -1.9360    -2.2390 C.ar  1 <1>  -0.1500 
  5 C       -3.2860    -2.2960     0.5090 C.ar  1 <1>  -0.1500 
  6 C       -3.8540    -2.9840    -1.7170 C.ar  1 <1>  -0.1500 
  7 C       -3.9630    -3.1800    -0.3360 C.ar  1 <1>   0.0860 
  8 C       -4.7490    -4.2680     0.2150 C.2   1 <1>   0.5440 
  9 O       -4.2290    -5.0220     1.0150 O.2   1 <1>  -0.5700 
 10 N       -6.0750    -4.4550    -0.1210 N.am  1 <1>  -0.6600 
 11 C       -6.9350    -3.3970    -0.7420 C.3   1 <1>   0.1400 
 12 C       -6.8300    -5.6700     0.3000 C.3   1 <1>   0.1400 
 13 C       -8.0560    -2.9600     0.2200 C.3   1 <1>   0.1440 
 14 C       -7.9520    -5.2800     1.2700 C.3   1 <1>  -0.1600 
 15 C       -8.9140    -1.9280    -0.4880 C.ar  1 <1>   0.1670 
 16 C       -8.8660    -4.1930     0.6760 C.3   1 <1>  -0.1600 
 17 C       -7.4950    -2.1550     1.4240 C.3   1 <1>  -0.1600 
 18 N       -9.7690    -2.1790    -1.4550 N.ar  1 <1>  -0.6200 
 19 C       -8.6800    -0.6720    -0.0150 C.ar  1 <1>  -0.1430 
 20 C       -7.6380    -0.6640     1.0740 C.3   1 <1>  -0.0170 
 21 C      -10.3980    -1.1100    -1.9220 C.ar  1 <1>   0.4770 
 22 C       -9.3860     0.3650    -0.5740 C.ar  1 <1>   0.1600 
 23 N      -10.2580     0.1520    -1.5380 N.ar  1 <1>  -0.6200 
 24 C      -11.3990    -1.3540    -3.0240 C.3   1 <1>  -0.0970 
 25 H       -2.0220    -0.5630     0.6550 H     1 <1>   0.1500 
 26 H       -3.0340    -1.7820    -3.3010 H     1 <1>   0.1500 
 27 H       -3.3460    -2.4510     1.5730 H     1 <1>   0.1500 
 28 H       -4.3560    -3.6670    -2.3800 H     1 <1>   0.1500 
 29 H       -7.3770    -3.7930    -1.6410 H     1 <1>   0.0800 
 30 H       -6.3560    -2.5340    -1.0150 H     1 <1>   0.0800 
 31 H       -6.1750    -6.3840     0.7710 H     1 <1>   0.0800 
 32 H       -7.2500    -6.1380    -0.5740 H     1 <1>   0.0800 
 33 H       -7.5100    -4.9350     2.1880 H     1 <1>   0.0800 
 34 H       -8.5360    -6.1540     1.5010 H     1 <1>   0.0800 
 35 H       -9.3820    -4.6040    -0.1750 H     1 <1>   0.0800 
 36 H       -9.6130    -3.9030     1.3930 H     1 <1>   0.0800 
 37 H       -6.4780    -2.4140     1.6600 H     1 <1>   0.0800 
 38 H       -8.0970    -2.3500     2.2940 H     1 <1>   0.0800 
 39 H       -6.7120    -0.2740     0.6880 H     1 <1>   0.0800 
 40 H       -7.9530    -0.0860     1.9260 H     1 <1>   0.0800 
 41 H       -9.2380     1.3750    -0.2320 H     1 <1>   0.1500 
 42 H      -11.2020    -2.2930    -3.5070 H     1 <1>   0.0800 
 43 H      -11.3400    -0.5670    -3.7520 H     1 <1>   0.0800 
 44 H      -12.3870    -1.3730    -2.6050 H     1 <1>   0.0800 
@<TRIPOS>BOND
  1   1   2  1   
  2   2   3  ar  
  3   2   4  ar  
  4   3   5  ar  
  5   3  25  1   
  6   4   6  ar  
  7   4  26  1   
  8   5   7  ar  
  9   5  27  1   
 10   6   7  ar  
 11   6  28  1   
 12   7   8  1   
 13   8   9  2   
 14   8  10  am  
 15  10  11  1   
 16  10  12  1   
 17  11  13  1   
 18  11  29  1   
 19  11  30  1   
 20  12  14  1   
 21  12  31  1   
 22  12  32  1   
 23  13  15  1   
 24  13  16  1   
 25  13  17  1   
 26  14  16  1   
 27  14  33  1   
 28  14  34  1   
 29  15  18  ar  
 30  15  19  ar  
 31  16  35  1   
 32  16  36  1   
 33  17  20  1   
 34  17  37  1   
 35  17  38  1   
 36  18  21  ar  
 37  19  20  1   
 38  19  22  ar  
 39  20  39  1   
 40  20  40  1   
 41  21  23  ar  
 42  21  24  1   
 43  22  23  ar  
 44  22  41  1   
 45  24  42  1   
 46  24  43  1   
 47  24  44  1   
@<TRIPOS>SUBSTRUCTURE
  1 ****  11 GROUP 4 **** **** 0

# MOE 2024.06 (io_trps.svl 2023.06)
