@<TRIPOS>MOLECULE
NONAME
42 44 1 0 0 
SMALL
USER_CHARGES


@<TRIPOS>ATOM
  1 F       -1.7190     1.4660     0.9940 F     1 <1>  -0.1900 
  2 C       -0.8880     2.3550     0.5270 C.ar  1 <1>   0.1900 
  3 C        0.2280     1.9310    -0.1670 C.ar  1 <1>  -0.1500 
  4 C       -1.1510     3.6940     0.7390 C.ar  1 <1>  -0.1500 
  5 C        1.1050     2.8830    -0.6570 C.ar  1 <1>  -0.1500 
  6 C       -0.2630     4.6320     0.2420 C.ar  1 <1>  -0.1500 
  7 C        0.8870     4.2520    -0.4610 C.ar  1 <1>   0.0860 
  8 C        1.8270     5.2370    -0.9740 C.2   1 <1>   0.5440 
  9 O        2.6570     4.9480    -1.8170 O.2   1 <1>  -0.5700 
 10 N        1.8740     6.5170    -0.4830 N.am  1 <1>  -0.6600 
 11 C        2.5130     6.6950     0.8710 C.3   1 <1>   0.2200 
 12 C        1.9380     7.6520    -1.4600 C.3   1 <1>   0.1400 
 13 C        2.0730     7.9940     1.5650 C.3   1 <1>   0.1200 
 14 C        4.0590     6.5930     0.7880 C.3   1 <1>   0.3430 
 15 C        3.0340     8.7020    -1.1910 C.3   1 <1>  -0.0800 
 16 O        2.8910     9.0640     1.2060 O.3   1 <1>  -0.5600 
 17 N        4.5740     6.7480    -0.6150 N.4   1 <1>  -0.9590 
 18 C        2.6620     9.6430    -0.0340 C.3   1 <1>   0.1200 
 19 C        4.4770     8.1640    -1.0780 C.3   1 <1>   0.3430 
 20 C        6.0290     6.3110    -0.6550 C.3   1 <1>   0.2370 
 21 C        6.9510     7.0980     0.2810 C.2   1 <1>   0.9060 
 22 O        7.4550     8.1410    -0.1460 O.co2 1 <1>  -0.9000 
 23 O        7.0390     6.7210     1.4540 O.co2 1 <1>  -0.9000 
 24 H        0.3990     0.8800    -0.3190 H     1 <1>   0.1500 
 25 H       -2.0350     3.9860     1.2790 H     1 <1>   0.1500 
 26 H        1.9760     2.5620    -1.2040 H     1 <1>   0.1500 
 27 H       -0.4700     5.6760     0.3970 H     1 <1>   0.1500 
 28 H        2.1750     5.8910     1.5010 H     1 <1>   0.0800 
 29 H        2.0870     7.2560    -2.4520 H     1 <1>   0.0800 
 30 H        0.9790     8.1420    -1.4680 H     1 <1>   0.0800 
 31 H        2.1850     7.8760     2.6290 H     1 <1>   0.0800 
 32 H        1.0440     8.2320     1.3570 H     1 <1>   0.0800 
 33 H        4.3570     5.6290     1.1640 H     1 <1>   0.0800 
 34 H        4.5150     7.3310     1.4310 H     1 <1>   0.0800 
 35 H        3.0370     9.3400    -2.0560 H     1 <1>   0.0800 
 36 H        3.9880     6.1410    -1.2240 H     1 <1>   0.4500 
 37 H        1.6320     9.9530    -0.0880 H     1 <1>   0.0800 
 38 H        3.2790    10.5250    -0.0760 H     1 <1>   0.0800 
 39 H        5.0440     8.7980    -0.4120 H     1 <1>   0.0800 
 40 H        4.9420     8.2320    -2.0480 H     1 <1>   0.0800 
 41 H        6.1040     5.2770    -0.3760 H     1 <1>   0.0800 
 42 H        6.4160     6.4220    -1.6510 H     1 <1>   0.0800 
@<TRIPOS>BOND
  1   1   2  1   
  2   2   3  ar  
  3   2   4  ar  
  4   3   5  ar  
  5   3  24  1   
  6   4   6  ar  
  7   4  25  1   
  8   5   7  ar  
  9   5  26  1   
 10   6   7  ar  
 11   6  27  1   
 12   7   8  1   
 13   8   9  2   
 14   8  10  am  
 15  10  11  1   
 16  10  12  1   
 17  11  13  1   
 18  11  14  1   
 19  11  28  1   
 20  12  15  1   
 21  12  29  1   
 22  12  30  1   
 23  13  16  1   
 24  13  31  1   
 25  13  32  1   
 26  14  17  1   
 27  14  33  1   
 28  14  34  1   
 29  15  18  1   
 30  15  19  1   
 31  15  35  1   
 32  16  18  1   
 33  17  19  1   
 34  17  20  1   
 35  17  36  1   
 36  18  37  1   
 37  18  38  1   
 38  19  39  1   
 39  19  40  1   
 40  20  21  1   
 41  20  41  1   
 42  20  42  1   
 43  21  22  ar  
 44  21  23  ar  
@<TRIPOS>SUBSTRUCTURE
  1 ****  10 GROUP 4 **** **** 0

# MOE 2024.06 (io_trps.svl 2023.06)
