@<TRIPOS>MOLECULE
NONAME
46 48 1 0 0 
SMALL
USER_CHARGES


@<TRIPOS>ATOM
  1 F        0.1600    -1.0270    -0.9490 F     1 <1>  -0.1900 
  2 C       -0.5420    -2.0700    -0.5840 C.ar  1 <1>   0.1900 
  3 C       -0.2500    -2.7910     0.5790 C.ar  1 <1>   0.0830 
  4 C       -1.5880    -2.4270    -1.4120 C.ar  1 <1>  -0.1500 
  5 O        0.7510    -2.5380     1.4730 O.3   1 <1>  -0.3630 
  6 C       -1.0490    -3.8840     0.8740 C.ar  1 <1>  -0.1500 
  7 C       -2.3630    -3.5240    -1.0870 C.ar  1 <1>  -0.1500 
  8 C        1.5920    -1.4100     1.3840 C.3   1 <1>   0.0400 
  9 C       -2.1160    -4.2770     0.0620 C.ar  1 <1>   0.0530 
 10 C       -2.9080    -5.4360     0.4040 C.2   1 <1>   0.0870 
 11 O       -2.3170    -6.4560     0.9850 O.3   1 <1>  -0.0190 
 12 C       -4.2160    -5.7770     0.2490 C.2   1 <1>  -0.2330 
 13 N       -3.1290    -7.4520     1.2200 N.2   1 <1>  -0.4100 
 14 C       -4.2750    -7.0580     0.7940 C.2   1 <1>   0.3720 
 15 C       -5.3430    -5.0960    -0.3170 C.2   1 <1>   1.0330 
 16 N       -5.4270    -7.8240     0.8520 N.pl3 1 <1>  -0.8520 
 17 O       -5.3090    -3.8810    -0.5600 O.co2 1 <1>  -0.9000 
 18 O       -6.3850    -5.7240    -0.5970 O.co2 1 <1>  -0.9000 
 19 C       -5.3800    -9.0190    -0.0150 C.3   1 <1>   0.2090 
 20 C       -6.7610    -9.7080    -0.1530 C.3   1 <1>   0.0000 
 21 C       -7.1600   -10.3730     1.1750 C.3   1 <1>  -0.1600 
 22 C       -6.6100   -10.9220    -1.0890 C.3   1 <1>  -0.1600 
 23 C       -7.8090    -8.6710    -0.6390 C.3   1 <1>   0.1200 
 24 C       -6.4140   -11.7110     1.2210 C.3   1 <1>  -0.1600 
 25 C       -6.0190   -12.0390    -0.2240 C.3   1 <1>  -0.1600 
 26 O       -9.0320    -9.2720    -0.9340 O.3   1 <1>  -0.6800 
 27 H       -1.7990    -1.8540    -2.2970 H     1 <1>   0.1500 
 28 H       -0.8390    -4.4470     1.7650 H     1 <1>   0.1500 
 29 H       -3.1790    -3.8010    -1.7320 H     1 <1>   0.1500 
 30 H        2.2490    -1.4160     2.2340 H     1 <1>   0.0800 
 31 H        0.9870    -0.5200     1.3970 H     1 <1>   0.0800 
 32 H        2.1680    -1.4720     0.4780 H     1 <1>   0.0800 
 33 H       -6.1710    -7.1980     0.4770 H     1 <1>   0.4000 
 34 H       -4.6570    -9.7060     0.3910 H     1 <1>   0.0800 
 35 H       -5.0370    -8.7180    -0.9900 H     1 <1>   0.0800 
 36 H       -8.2190   -10.5670     1.1800 H     1 <1>   0.0800 
 37 H       -6.9280    -9.7530     2.0250 H     1 <1>   0.0800 
 38 H       -5.9950   -10.7080    -1.9460 H     1 <1>   0.0800 
 39 H       -7.5720   -11.2550    -1.4340 H     1 <1>   0.0800 
 40 H       -7.4640    -8.1620    -1.5230 H     1 <1>   0.0800 
 41 H       -7.9880    -7.9310     0.1230 H     1 <1>   0.0800 
 42 H       -7.0400   -12.4780     1.6420 H     1 <1>   0.0800 
 43 H       -5.5290   -11.6140     1.8280 H     1 <1>   0.0800 
 44 H       -4.9460   -12.0440    -0.3110 H     1 <1>   0.0800 
 45 H       -6.3950   -13.0020    -0.5240 H     1 <1>   0.0800 
 46 H       -8.9250    -9.8840    -1.6830 H     1 <1>   0.4000 
@<TRIPOS>BOND
  1   1   2  1   
  2   2   3  ar  
  3   2   4  ar  
  4   3   5  1   
  5   3   6  ar  
  6   4   7  ar  
  7   4  27  1   
  8   5   8  1   
  9   6   9  ar  
 10   6  28  1   
 11   7   9  ar  
 12   7  29  1   
 13   8  30  1   
 14   8  31  1   
 15   8  32  1   
 16   9  10  1   
 17  10  11  1   
 18  10  12  2   
 19  11  13  1   
 20  12  14  1   
 21  12  15  1   
 22  13  14  2   
 23  14  16  1   
 24  15  17  ar  
 25  15  18  ar  
 26  16  19  1   
 27  16  33  1   
 28  19  20  1   
 29  19  34  1   
 30  19  35  1   
 31  20  21  1   
 32  20  22  1   
 33  20  23  1   
 34  21  24  1   
 35  21  36  1   
 36  21  37  1   
 37  22  25  1   
 38  22  38  1   
 39  22  39  1   
 40  23  26  1   
 41  23  40  1   
 42  23  41  1   
 43  24  25  1   
 44  24  42  1   
 45  24  43  1   
 46  25  44  1   
 47  25  45  1   
 48  26  46  1   
@<TRIPOS>SUBSTRUCTURE
  1 ****  12 GROUP 4 **** **** 0

# MOE 2024.06 (io_trps.svl 2023.06)
