@<TRIPOS>MOLECULE
NONAME
47 49 1 0 0 
SMALL
USER_CHARGES


@<TRIPOS>ATOM
  1 S       -0.1640     0.6370     1.8560 S.3   1 <1>  -0.0800 
  2 C       -1.2120     1.7900     1.0670 C.2   1 <1>   0.1980 
  3 C        0.4280     0.1380     0.2980 C.2   1 <1>  -0.1400 
  4 N       -1.1000     1.8140    -0.2040 N.2   1 <1>  -0.5650 
  5 C       -2.1200     2.6190     1.9540 C.3   1 <1>   0.0200 
  6 C       -0.1920     0.8630    -0.6490 C.2   1 <1>   0.0460 
  7 C        1.4570    -0.9780     0.2940 C.3   1 <1>  -0.0600 
  8 C       -2.4320     3.9910     1.3470 C.3   1 <1>   0.2090 
  9 C       -0.0260     0.7340    -2.1500 C.3   1 <1>  -0.0590 
 10 N       -1.2900     4.9380     1.5000 N.pl3 1 <1>  -0.8690 
 11 C       -0.1960     5.1610     0.7620 C.ar  1 <1>   0.7710 
 12 N        0.5080     6.2260     1.0870 N.ar  1 <1>  -0.6200 
 13 N        0.1490     4.3360    -0.2390 N.ar  1 <1>  -0.1790 
 14 C        1.6020     6.4830     0.3930 C.ar  1 <1>   0.4100 
 15 C        1.2500     4.5690    -0.9870 C.ar  1 <1>   0.2110 
 16 N        2.3380     7.5680     0.7510 N.pl3 1 <1>  -0.8380 
 17 C        1.9930     5.6590    -0.6830 C.ar  1 <1>  -0.1500 
 18 C        3.8260     7.6740     0.5990 C.3   1 <1>   0.2090 
 19 C        1.7400     8.7560     1.4350 C.3   1 <1>   0.2090 
 20 C        4.1900     8.9350    -0.2020 C.3   1 <1>   0.2000 
 21 C        2.0800    10.0270     0.6450 C.3   1 <1>  -0.1600 
 22 O        5.5650     9.0770    -0.2500 O.3   1 <1>  -0.6800 
 23 C        3.5940    10.1980     0.4300 C.3   1 <1>  -0.1600 
 24 H       -1.6840     2.7430     2.9290 H     1 <1>   0.0800 
 25 H       -3.0390     2.0740     2.0730 H     1 <1>   0.0800 
 26 H        2.3240    -0.6800     0.8550 H     1 <1>   0.0800 
 27 H        1.7600    -1.2200    -0.7070 H     1 <1>   0.0800 
 28 H        1.0390    -1.8590     0.7480 H     1 <1>   0.0800 
 29 H       -3.2860     4.4080     1.8560 H     1 <1>   0.0800 
 30 H       -2.7000     3.8890     0.3080 H     1 <1>   0.0800 
 31 H        0.6810    -0.0370    -2.3940 H     1 <1>   0.0800 
 32 H        0.3140     1.6600    -2.5720 H     1 <1>   0.0800 
 33 H       -0.9720     0.4780    -2.5930 H     1 <1>   0.0800 
 34 H       -1.4070     5.6200     2.2600 H     1 <1>   0.4000 
 35 H       -0.4260     3.4930    -0.3560 H     1 <1>   0.4570 
 36 H        1.4950     3.8900    -1.7870 H     1 <1>   0.1500 
 37 H        2.8660     5.9130    -1.2530 H     1 <1>   0.1500 
 38 H        4.2340     6.8070     0.1140 H     1 <1>   0.0800 
 39 H        4.2620     7.7410     1.5810 H     1 <1>   0.0800 
 40 H        2.1340     8.8240     2.4350 H     1 <1>   0.0800 
 41 H        0.6690     8.6630     1.5050 H     1 <1>   0.0800 
 42 H        3.8420     8.8230    -1.2150 H     1 <1>   0.0800 
 43 H        1.6930    10.8820     1.1700 H     1 <1>   0.0800 
 44 H        1.5820     9.9800    -0.3080 H     1 <1>   0.0800 
 45 H        5.9050     9.4120     0.6020 H     1 <1>   0.4000 
 46 H        3.7720    11.0420    -0.2130 H     1 <1>   0.0800 
 47 H        4.0580    10.3830     1.3830 H     1 <1>   0.0800 
@<TRIPOS>BOND
  1   1   2  1   
  2   1   3  1   
  3   2   4  2   
  4   2   5  1   
  5   3   6  2   
  6   3   7  1   
  7   4   6  1   
  8   5   8  1   
  9   5  24  1   
 10   5  25  1   
 11   6   9  1   
 12   7  26  1   
 13   7  27  1   
 14   7  28  1   
 15   8  10  1   
 16   8  29  1   
 17   8  30  1   
 18   9  31  1   
 19   9  32  1   
 20   9  33  1   
 21  10  11  1   
 22  10  34  1   
 23  11  12  ar  
 24  11  13  ar  
 25  12  14  ar  
 26  13  15  ar  
 27  13  35  1   
 28  14  16  1   
 29  14  17  ar  
 30  15  17  ar  
 31  15  36  1   
 32  16  18  1   
 33  16  19  1   
 34  17  37  1   
 35  18  20  1   
 36  18  38  1   
 37  18  39  1   
 38  19  21  1   
 39  19  40  1   
 40  19  41  1   
 41  20  22  1   
 42  20  23  1   
 43  20  42  1   
 44  21  23  1   
 45  21  43  1   
 46  21  44  1   
 47  22  45  1   
 48  23  46  1   
 49  23  47  1   
@<TRIPOS>SUBSTRUCTURE
  1 ****  13 GROUP 4 **** **** 0

# MOE 2024.06 (io_trps.svl 2023.06)
