@<TRIPOS>MOLECULE
NONAME
43 44 1 0 0 
SMALL
USER_CHARGES


@<TRIPOS>ATOM
  1 O       -0.2540    -0.5940    -0.8870 O.2   1 <1>  -0.5700 
  2 C        0.0780    -1.7050    -1.2430 C.2   1 <1>   0.5440 
  3 N       -0.6540    -2.2420    -2.2480 N.am  1 <1>  -0.8000 
  4 C        1.2100    -2.3800    -0.6510 C.ar  1 <1>   0.0860 
  5 C        1.2380    -3.7700    -0.4300 C.ar  1 <1>   0.4100 
  6 C        2.3310    -1.6530    -0.2790 C.ar  1 <1>  -0.1500 
  7 N        2.2910    -4.4150     0.0650 N.ar  1 <1>  -0.6200 
  8 N        0.1450    -4.5660    -0.7060 N.pl3 1 <1>  -0.8690 
  9 C        3.4170    -2.3140     0.2510 C.ar  1 <1>  -0.1430 
 10 C        3.3460    -3.6970     0.3910 C.ar  1 <1>   0.1670 
 11 C        0.0500    -5.9920    -0.3160 C.3   1 <1>   0.2090 
 12 C        4.6460    -1.5110     0.6610 C.3   1 <1>  -0.0970 
 13 C        4.5130    -4.4880     0.9540 C.3   1 <1>  -0.0970 
 14 C       -1.3680    -6.5240    -0.5600 C.3   1 <1>  -0.0800 
 15 C       -2.3800    -5.8170     0.3620 C.3   1 <1>   0.1200 
 16 C       -1.3690    -8.0560    -0.3650 C.3   1 <1>   0.0200 
 17 O       -3.6520    -5.9480    -0.1660 O.3   1 <1>  -0.6800 
 18 C       -2.7370    -8.6830    -0.5610 C.2   1 <1>  -0.0400 
 19 O       -3.3520    -8.5210    -1.7160 O.3   1 <1>  -0.2800 
 20 C       -3.4990    -9.4100     0.2830 C.2   1 <1>  -0.1500 
 21 C       -4.5140    -9.1390    -1.6390 C.2   1 <1>  -0.0100 
 22 C       -4.6690    -9.7110    -0.4260 C.2   1 <1>  -0.1500 
 23 H       -1.4000    -1.6900    -2.6740 H     1 <1>   0.3700 
 24 H       -0.3960    -3.1200    -2.7060 H     1 <1>   0.3700 
 25 H        2.3360    -0.5840    -0.4110 H     1 <1>   0.1500 
 26 H       -0.7550    -4.0860    -0.8220 H     1 <1>   0.4000 
 27 H        0.3140    -6.0970     0.7230 H     1 <1>   0.0800 
 28 H        0.7620    -6.5500    -0.9010 H     1 <1>   0.0800 
 29 H        4.4510    -0.4550     0.6060 H     1 <1>   0.0800 
 30 H        5.4680    -1.7380     0.0070 H     1 <1>   0.0800 
 31 H        4.9250    -1.7470     1.6720 H     1 <1>   0.0800 
 32 H        4.3890    -5.5350     0.7420 H     1 <1>   0.0800 
 33 H        4.5570    -4.3570     2.0190 H     1 <1>   0.0800 
 34 H        5.4370    -4.1650     0.5140 H     1 <1>   0.0800 
 35 H       -1.6180    -6.3110    -1.5860 H     1 <1>   0.0800 
 36 H       -2.1820    -4.7620     0.4440 H     1 <1>   0.0800 
 37 H       -2.3750    -6.2470     1.3490 H     1 <1>   0.0800 
 38 H       -1.0200    -8.2950     0.6240 H     1 <1>   0.0800 
 39 H       -0.6920    -8.5050    -1.0700 H     1 <1>   0.0800 
 40 H       -3.7880    -6.8710    -0.4830 H     1 <1>   0.4000 
 41 H       -3.2910    -9.7140     1.2940 H     1 <1>   0.1500 
 42 H       -5.1690    -9.1220    -2.4930 H     1 <1>   0.1500 
 43 H       -5.5000   -10.2820    -0.0520 H     1 <1>   0.1500 
@<TRIPOS>BOND
  1   1   2  2   
  2   2   3  am  
  3   2   4  1   
  4   3  23  1   
  5   3  24  1   
  6   4   5  ar  
  7   4   6  ar  
  8   5   7  ar  
  9   5   8  1   
 10   6   9  ar  
 11   6  25  1   
 12   7  10  ar  
 13   8  11  1   
 14   8  26  1   
 15   9  10  ar  
 16   9  12  1   
 17  10  13  1   
 18  11  14  1   
 19  11  27  1   
 20  11  28  1   
 21  12  29  1   
 22  12  30  1   
 23  12  31  1   
 24  13  32  1   
 25  13  33  1   
 26  13  34  1   
 27  14  15  1   
 28  14  16  1   
 29  14  35  1   
 30  15  17  1   
 31  15  36  1   
 32  15  37  1   
 33  16  18  1   
 34  16  38  1   
 35  16  39  1   
 36  17  40  1   
 37  18  19  1   
 38  18  20  2   
 39  19  21  1   
 40  20  22  1   
 41  20  41  1   
 42  21  22  2   
 43  21  42  1   
 44  22  43  1   
@<TRIPOS>SUBSTRUCTURE
  1 ****   8 GROUP 4 **** **** 0

# MOE 2024.06 (io_trps.svl 2023.06)
