@<TRIPOS>MOLECULE
NONAME
57 60 1 0 0 
SMALL
USER_CHARGES


@<TRIPOS>ATOM
  1 O        0.7120    -1.2680    -1.7880 O.3   1 <1>  -0.6800 
  2 C        0.4210    -1.9640    -0.6220 C.3   1 <1>   0.1200 
  3 C        1.6590    -2.0620     0.3180 C.3   1 <1>   0.0000 
  4 C        2.9620    -2.5200    -0.4020 C.3   1 <1>   0.4230 
  5 C        1.9100    -0.6800     0.9800 C.3   1 <1>  -0.1600 
  6 C        1.3340    -3.0850     1.4430 C.3   1 <1>  -0.1600 
  7 N        2.8370    -3.8960    -1.0600 N.4   1 <1>  -0.9590 
  8 C        3.5780    -1.3960    -1.2980 C.3   1 <1>   0.3430 
  9 C        2.4320     0.3890     0.0160 C.3   1 <1>   0.3430 
 10 C        1.8810    -4.5030     1.1730 C.3   1 <1>  -0.1600 
 11 C        1.9390    -4.8460    -0.3160 C.3   1 <1>   0.3430 
 12 C        2.4240    -3.8750    -2.5060 C.3   1 <1>   0.2630 
 13 N        3.7160    -0.0660    -0.6000 N.4   1 <1>  -0.9590 
 14 C        4.2420     0.9910    -1.5180 C.3   1 <1>   0.4860 
 15 C        4.5860     2.2060    -0.6760 C.ar  1 <1>  -0.1430 
 16 C        5.7010     2.1230     0.2020 C.ar  1 <1>   0.0000 
 17 C        3.8080     3.3410    -0.7350 C.ar  1 <1>  -0.1430 
 18 C        5.9350     3.1960     1.0910 C.ar  1 <1>   0.0000 
 19 C        6.6070     1.0340     0.2460 C.ar  1 <1>  -0.1500 
 20 C        4.0830     4.4080     0.1290 C.ar  1 <1>  -0.1500 
 21 C        2.6350     3.5230    -1.6950 C.3   1 <1>  -0.0970 
 22 C        5.1100     4.3310     1.0230 C.ar  1 <1>  -0.1500 
 23 C        6.9920     3.1120     2.0190 C.ar  1 <1>  -0.1500 
 24 C        7.6310     0.9820     1.1500 C.ar  1 <1>  -0.1500 
 25 C        7.8210     2.0280     2.0560 C.ar  1 <1>  -0.1500 
 26 H       -0.1180    -1.0810    -2.2860 H     1 <1>   0.4000 
 27 H       -0.3870    -1.4520    -0.1240 H     1 <1>   0.0800 
 28 H        0.0640    -2.9380    -0.9070 H     1 <1>   0.0800 
 29 H        3.6750    -2.6480     0.3950 H     1 <1>   0.0800 
 30 H        2.6210    -0.7680     1.7840 H     1 <1>   0.0800 
 31 H        0.9950    -0.3190     1.4200 H     1 <1>   0.0800 
 32 H        1.7410    -2.7650     2.3880 H     1 <1>   0.0800 
 33 H        0.2660    -3.1400     1.5880 H     1 <1>   0.0800 
 34 H        3.7730    -4.3300    -1.0220 H     1 <1>   0.4500 
 35 H        2.9500    -1.2630    -2.1620 H     1 <1>   0.0800 
 36 H        4.5480    -1.7170    -1.6360 H     1 <1>   0.0800 
 37 H        2.5890     1.3100     0.5570 H     1 <1>   0.0800 
 38 H        1.7000     0.5780    -0.7530 H     1 <1>   0.0800 
 39 H        1.2550    -5.2220     1.6750 H     1 <1>   0.0800 
 40 H        2.8670    -4.6060     1.5940 H     1 <1>   0.0800 
 41 H        0.9390    -4.7930    -0.7170 H     1 <1>   0.0800 
 42 H        2.2880    -5.8590    -0.4440 H     1 <1>   0.0800 
 43 H        1.4480    -3.4310    -2.6150 H     1 <1>   0.0800 
 44 H        2.3830    -4.8800    -2.8960 H     1 <1>   0.0800 
 45 H        3.1270    -3.3140    -3.0990 H     1 <1>   0.0800 
 46 H        4.4050    -0.1050     0.1670 H     1 <1>   0.4500 
 47 H        5.1300     0.6500    -2.0240 H     1 <1>   0.0800 
 48 H        3.5040     1.2370    -2.2610 H     1 <1>   0.0800 
 49 H        6.5210     0.2260    -0.4530 H     1 <1>   0.1500 
 50 H        3.4760     5.2970     0.0920 H     1 <1>   0.1500 
 51 H        2.4060     4.5680    -1.8140 H     1 <1>   0.0800 
 52 H        1.7570     3.0340    -1.3150 H     1 <1>   0.0800 
 53 H        2.8660     3.1420    -2.6720 H     1 <1>   0.0800 
 54 H        5.3080     5.1510     1.6910 H     1 <1>   0.1500 
 55 H        7.1410     3.9290     2.7040 H     1 <1>   0.1500 
 56 H        8.3150     0.1500     1.1790 H     1 <1>   0.1500 
 57 H        8.6290     1.9720     2.7660 H     1 <1>   0.1500 
@<TRIPOS>BOND
  1   1   2  1   
  2   1  26  1   
  3   2   3  1   
  4   2  27  1   
  5   2  28  1   
  6   3   4  1   
  7   3   5  1   
  8   3   6  1   
  9   4   7  1   
 10   4   8  1   
 11   4  29  1   
 12   5   9  1   
 13   5  30  1   
 14   5  31  1   
 15   6  10  1   
 16   6  32  1   
 17   6  33  1   
 18   7  11  1   
 19   7  12  1   
 20   7  34  1   
 21   8  13  1   
 22   8  35  1   
 23   8  36  1   
 24   9  13  1   
 25   9  37  1   
 26   9  38  1   
 27  10  11  1   
 28  10  39  1   
 29  10  40  1   
 30  11  41  1   
 31  11  42  1   
 32  12  43  1   
 33  12  44  1   
 34  12  45  1   
 35  13  14  1   
 36  13  46  1   
 37  14  15  1   
 38  14  47  1   
 39  14  48  1   
 40  15  16  ar  
 41  15  17  ar  
 42  16  18  ar  
 43  16  19  ar  
 44  17  20  ar  
 45  17  21  1   
 46  18  22  ar  
 47  18  23  ar  
 48  19  24  ar  
 49  19  49  1   
 50  20  22  ar  
 51  20  50  1   
 52  21  51  1   
 53  21  52  1   
 54  21  53  1   
 55  22  54  1   
 56  23  25  ar  
 57  23  55  1   
 58  24  25  ar  
 59  24  56  1   
 60  25  57  1   
@<TRIPOS>SUBSTRUCTURE
  1 ****  13 GROUP 4 **** **** 0

# MOE 2024.06 (io_trps.svl 2023.06)
