@<TRIPOS>MOLECULE
NONAME
47 49 1 0 0 
SMALL
USER_CHARGES


@<TRIPOS>ATOM
  1 O        1.3620    -0.7690    -1.5760 O.3   1 <1>  -0.0190 
  2 N        1.0800    -2.0360    -1.5780 N.2   1 <1>  -0.4100 
  3 C        1.6220    -0.5040    -0.3190 C.2   1 <1>   0.2980 
  4 C        1.1800    -2.4450    -0.3740 C.2   1 <1>   0.3350 
  5 N        1.5410    -1.4910     0.4770 N.2   1 <1>  -0.5650 
  6 C        1.9970     0.9140     0.0730 C.3   1 <1>   0.0200 
  7 C        0.9230    -3.8860     0.0740 C.3   1 <1>   0.2910 
  8 C        0.7730     1.7910     0.4020 C.3   1 <1>  -0.0800 
  9 N       -0.4320    -4.1080     0.6400 N.3   1 <1>  -0.8100 
 10 C       -0.1520     1.9800    -0.8100 C.3   1 <1>  -0.2400 
 11 C        1.2260     3.1620     0.9190 C.3   1 <1>  -0.2400 
 12 C       -1.5160    -3.6920    -0.2610 C.3   1 <1>   0.1100 
 13 C       -0.6900    -5.5090     1.0110 C.3   1 <1>   0.1100 
 14 C       -2.7330    -4.4540     0.2480 C.3   1 <1>   0.2000 
 15 C       -2.1500    -5.8140     0.6270 C.3   1 <1>  -0.0800 
 16 O       -3.1550    -3.8340     1.4080 O.3   1 <1>  -0.6800 
 17 C       -2.2460    -6.8000    -0.5530 C.3   1 <1>   0.0200 
 18 C       -1.6010    -8.1350    -0.2310 C.2   1 <1>  -0.0400 
 19 O       -2.0160    -8.8360     0.7900 O.3   1 <1>  -0.0190 
 20 C       -0.6040    -8.8130    -0.8200 C.2   1 <1>  -0.1500 
 21 N       -1.3470    -9.9450     0.9190 N.2   1 <1>  -0.4100 
 22 C       -0.4910    -9.9590    -0.0380 C.2   1 <1>   0.1080 
 23 C        0.5000   -11.0770    -0.2750 C.3   1 <1>  -0.0590 
 24 H        2.6290     0.8560     0.9410 H     1 <1>   0.0800 
 25 H        2.5710     1.3570    -0.7200 H     1 <1>   0.0800 
 26 H        1.6580    -4.1420     0.8170 H     1 <1>   0.0800 
 27 H        1.0660    -4.5320    -0.7740 H     1 <1>   0.0800 
 28 H        0.2120     1.3040     1.1840 H     1 <1>   0.0800 
 29 H        0.3840     2.4130    -1.6360 H     1 <1>   0.0800 
 30 H       -0.9710     2.6300    -0.5550 H     1 <1>   0.0800 
 31 H       -0.5670     1.0390    -1.1230 H     1 <1>   0.0800 
 32 H        1.7880     3.6880     0.1670 H     1 <1>   0.0800 
 33 H        1.8420     3.0490     1.7940 H     1 <1>   0.0800 
 34 H        0.3720     3.7600     1.1880 H     1 <1>   0.0800 
 35 H       -1.6680    -2.6260    -0.2320 H     1 <1>   0.0800 
 36 H       -1.2950    -3.9920    -1.2710 H     1 <1>   0.0800 
 37 H       -0.0080    -6.1750     0.5110 H     1 <1>   0.0800 
 38 H       -0.5560    -5.6200     2.0750 H     1 <1>   0.0800 
 39 H       -3.5550    -4.4920    -0.4460 H     1 <1>   0.0800 
 40 H       -2.6810    -6.2360     1.4630 H     1 <1>   0.0800 
 41 H       -2.3430    -3.6090     1.9110 H     1 <1>   0.4000 
 42 H       -1.7710    -6.3850    -1.4240 H     1 <1>   0.0800 
 43 H       -3.2820    -6.9710    -0.7890 H     1 <1>   0.0800 
 44 H       -0.0150    -8.5660    -1.6830 H     1 <1>   0.1500 
 45 H        1.5010   -10.6870    -0.2710 H     1 <1>   0.0800 
 46 H        0.3030   -11.5440    -1.2220 H     1 <1>   0.0800 
 47 H        0.4120   -11.8160     0.5020 H     1 <1>   0.0800 
@<TRIPOS>BOND
  1   1   2  1   
  2   1   3  1   
  3   2   4  2   
  4   3   5  2   
  5   3   6  1   
  6   4   5  1   
  7   4   7  1   
  8   6   8  1   
  9   6  24  1   
 10   6  25  1   
 11   7   9  1   
 12   7  26  1   
 13   7  27  1   
 14   8  10  1   
 15   8  11  1   
 16   8  28  1   
 17   9  12  1   
 18   9  13  1   
 19  10  29  1   
 20  10  30  1   
 21  10  31  1   
 22  11  32  1   
 23  11  33  1   
 24  11  34  1   
 25  12  14  1   
 26  12  35  1   
 27  12  36  1   
 28  13  15  1   
 29  13  37  1   
 30  13  38  1   
 31  14  15  1   
 32  14  16  1   
 33  14  39  1   
 34  15  17  1   
 35  15  40  1   
 36  16  41  1   
 37  17  18  1   
 38  17  42  1   
 39  17  43  1   
 40  18  19  1   
 41  18  20  2   
 42  19  21  1   
 43  20  22  1   
 44  20  44  1   
 45  21  22  2   
 46  22  23  1   
 47  23  45  1   
 48  23  46  1   
 49  23  47  1   
@<TRIPOS>SUBSTRUCTURE
  1 ****   9 GROUP 4 **** **** 0

# MOE 2024.06 (io_trps.svl 2023.06)
