@<TRIPOS>MOLECULE
NONAME
48 50 1 0 0 
SMALL
USER_CHARGES


@<TRIPOS>ATOM
  1 S        0.4180     0.0720    -0.7650 S.o2  1 <1>   1.3330 
  2 O       -0.9630     0.2700    -1.1440 O.2   1 <1>  -0.6500 
  3 O        1.4300    -0.0430    -1.7910 O.2   1 <1>  -0.6500 
  4 N        0.4710    -1.3370     0.1850 N.am  1 <1>  -0.8490 
  5 C        0.8880     1.3700     0.3900 C.3   1 <1>  -0.0550 
  6 C        0.7930    -2.5290    -0.6070 C.3   1 <1>   0.1160 
  7 C       -0.7570    -1.5710     0.9540 C.3   1 <1>   0.1160 
  8 C        2.3930     1.5650     0.6840 C.3   1 <1>  -0.0800 
  9 C        3.1860     2.1020    -0.5090 C.3   1 <1>   0.2200 
 10 C        3.1790     0.3230     1.1260 C.3   1 <1>   0.1200 
 11 N        3.7710     3.4090    -0.1410 N.am  1 <1>  -0.7300 
 12 C        4.2940     1.0660    -0.6830 C.3   1 <1>   0.1200 
 13 O        4.4420     0.4710     0.5680 O.3   1 <1>  -0.5600 
 14 C        3.8180     4.5260    -0.9210 C.2   1 <1>   0.5440 
 15 O        3.2110     4.5120    -1.9730 O.2   1 <1>  -0.5700 
 16 C        4.5520     5.7150    -0.5140 C.ar  1 <1>   0.0860 
 17 C        5.7830     5.6880     0.1660 C.ar  1 <1>  -0.0230 
 18 C        4.0150     6.9680    -0.8170 C.ar  1 <1>  -0.1500 
 19 N        6.4180     4.4660     0.4850 N.pl3 1 <1>   0.5930 
 20 C        6.4080     6.8770     0.5320 C.ar  1 <1>  -0.1500 
 21 C        4.6440     8.1440    -0.4560 C.ar  1 <1>  -0.1500 
 22 N        6.1000     3.7370     1.5850 N.2   1 <1>  -0.7070 
 23 C        7.3240     3.7970    -0.2670 C.2   1 <1>  -0.3020 
 24 C        5.8450     8.0990     0.2250 C.ar  1 <1>  -0.1500 
 25 C        6.7930     2.6440     1.4890 C.2   1 <1>   0.1390 
 26 C        7.5850     2.6250     0.3470 C.2   1 <1>  -0.1500 
 27 H        0.5200     2.3020     0.0050 H     1 <1>   0.0800 
 28 H        0.3800     1.2000     1.3180 H     1 <1>   0.0800 
 29 H        0.8280    -3.4000     0.0250 H     1 <1>   0.0800 
 30 H        1.7580    -2.4150    -1.0720 H     1 <1>   0.0800 
 31 H        0.0540    -2.6780    -1.3770 H     1 <1>   0.0800 
 32 H       -0.6280    -2.4180     1.6070 H     1 <1>   0.0800 
 33 H       -1.5860    -1.7620     0.2930 H     1 <1>   0.0800 
 34 H       -0.9890    -0.7100     1.5570 H     1 <1>   0.0800 
 35 H        2.4570     2.2730     1.4920 H     1 <1>   0.0800 
 36 H        2.6030     2.1910    -1.4110 H     1 <1>   0.0800 
 37 H        2.7710    -0.5920     0.7410 H     1 <1>   0.0800 
 38 H        3.2750     0.2570     2.1960 H     1 <1>   0.0800 
 39 H        4.3760     3.3640     0.6950 H     1 <1>   0.3700 
 40 H        5.2270     1.5010    -0.9940 H     1 <1>   0.0800 
 41 H        3.9940     0.3030    -1.3810 H     1 <1>   0.0800 
 42 H        3.0790     7.0140    -1.3490 H     1 <1>   0.1500 
 43 H        7.3440     6.8440     1.0650 H     1 <1>   0.1500 
 44 H        4.1990     9.0930    -0.7040 H     1 <1>   0.1500 
 45 H        7.7120     4.1960    -1.1850 H     1 <1>   0.1500 
 46 H        6.3370     9.0130     0.5130 H     1 <1>   0.1500 
 47 H        6.7500     1.8430     2.2100 H     1 <1>   0.1500 
 48 H        8.2440     1.8290     0.0500 H     1 <1>   0.1500 
@<TRIPOS>BOND
  1   1   2  2   
  2   1   3  2   
  3   1   4  am  
  4   1   5  1   
  5   4   6  1   
  6   4   7  1   
  7   5   8  1   
  8   5  27  1   
  9   5  28  1   
 10   6  29  1   
 11   6  30  1   
 12   6  31  1   
 13   7  32  1   
 14   7  33  1   
 15   7  34  1   
 16   8   9  1   
 17   8  10  1   
 18   8  35  1   
 19   9  11  1   
 20   9  12  1   
 21   9  36  1   
 22  10  13  1   
 23  10  37  1   
 24  10  38  1   
 25  11  14  am  
 26  11  39  1   
 27  12  13  1   
 28  12  40  1   
 29  12  41  1   
 30  14  15  2   
 31  14  16  1   
 32  16  17  ar  
 33  16  18  ar  
 34  17  19  1   
 35  17  20  ar  
 36  18  21  ar  
 37  18  42  1   
 38  19  22  1   
 39  19  23  1   
 40  20  24  ar  
 41  20  43  1   
 42  21  24  ar  
 43  21  44  1   
 44  22  25  2   
 45  23  26  2   
 46  23  45  1   
 47  24  46  1   
 48  25  26  1   
 49  25  47  1   
 50  26  48  1   
@<TRIPOS>SUBSTRUCTURE
  1 ****  11 GROUP 4 **** **** 0

# MOE 2024.06 (io_trps.svl 2023.06)
