@<TRIPOS>MOLECULE
NONAME
58 61 1 0 0 
SMALL
USER_CHARGES


@<TRIPOS>ATOM
  1 CL      -2.9660    -3.8360    -2.0720 Cl    1 <1>  -0.1770 
  2 C       -1.6580    -3.4260    -0.9900 C.ar  1 <1>   0.1770 
  3 C       -1.7320    -2.2800    -0.2020 C.ar  1 <1>   0.0860 
  4 C       -0.5650    -4.2710    -0.9510 C.ar  1 <1>  -0.1500 
  5 C       -2.8840    -1.4090    -0.2300 C.2   1 <1>   0.5440 
  6 C       -0.6450    -2.0010     0.6250 C.ar  1 <1>  -0.1500 
  7 C        0.4970    -3.9780    -0.1140 C.ar  1 <1>  -0.1500 
  8 O       -2.7890    -0.3300    -0.7840 O.2   1 <1>  -0.5700 
  9 N       -4.0720    -1.7510     0.3850 N.am  1 <1>  -0.6600 
 10 C        0.4560    -2.8390     0.6720 C.ar  1 <1>  -0.1500 
 11 C       -5.3120    -0.9530     0.1740 C.3   1 <1>   0.1400 
 12 C       -4.2200    -2.9050     1.3150 C.3   1 <1>   0.1400 
 13 C       -6.4400    -1.8690    -0.3090 C.3   1 <1>  -0.1600 
 14 C       -5.3540    -3.8180     0.8420 C.3   1 <1>  -0.1600 
 15 C       -6.6760    -3.0420     0.6610 C.3   1 <1>  -0.0190 
 16 C       -7.8350    -3.9330     0.1880 C.2   1 <1>   0.5690 
 17 O       -7.5580    -4.9560    -0.3960 O.2   1 <1>  -0.5700 
 18 N       -9.1470    -3.5810     0.4170 N.am  1 <1>  -0.6600 
 19 C       -9.6300    -2.3260     1.0600 C.3   1 <1>   0.1400 
 20 C      -10.2650    -4.4700    -0.0140 C.3   1 <1>   0.1400 
 21 C      -10.4930    -1.5520     0.0610 C.3   1 <1>  -0.1600 
 22 C      -11.1460    -3.7250    -1.0190 C.3   1 <1>  -0.1600 
 23 C      -11.6650    -2.4020    -0.4490 C.3   1 <1>   0.4180 
 24 O      -12.5000    -2.7400     0.6330 O.3   1 <1>  -0.5600 
 25 C      -12.4550    -1.6560    -1.5210 C.2   1 <1>  -0.2880 
 26 C      -13.4330    -1.7840     1.0550 C.3   1 <1>   0.1200 
 27 C      -13.7160    -1.2430    -1.3720 C.2   1 <1>  -0.2760 
 28 C      -14.4420    -1.4820    -0.0610 C.3   1 <1>  -0.0220 
 29 C      -14.5230    -0.5360    -2.4460 C.3   1 <1>  -0.1020 
 30 H       -0.5480    -5.1490    -1.5730 H     1 <1>   0.1500 
 31 H       -0.6710    -1.1110     1.2320 H     1 <1>   0.1500 
 32 H        1.3540    -4.6310    -0.0770 H     1 <1>   0.1500 
 33 H        1.2840    -2.6040     1.3200 H     1 <1>   0.1500 
 34 H       -5.1470    -0.1800    -0.5570 H     1 <1>   0.0800 
 35 H       -5.5860    -0.4820     1.1010 H     1 <1>   0.0800 
 36 H       -4.4450    -2.5300     2.2990 H     1 <1>   0.0800 
 37 H       -3.3090    -3.4720     1.3800 H     1 <1>   0.0800 
 38 H       -6.1820    -2.2530    -1.2820 H     1 <1>   0.0800 
 39 H       -7.3360    -1.2890    -0.4190 H     1 <1>   0.0800 
 40 H       -5.4970    -4.6090     1.5560 H     1 <1>   0.0800 
 41 H       -5.0670    -4.2730    -0.0900 H     1 <1>   0.0800 
 42 H       -6.9340    -2.6520     1.6270 H     1 <1>   0.0800 
 43 H       -8.8170    -1.7030     1.3820 H     1 <1>   0.0800 
 44 H      -10.2160    -2.5810     1.9270 H     1 <1>   0.0800 
 45 H      -10.8480    -4.7470     0.8490 H     1 <1>   0.0800 
 46 H       -9.8920    -5.3730    -0.4640 H     1 <1>   0.0800 
 47 H       -9.8800    -1.2670    -0.7740 H     1 <1>   0.0800 
 48 H      -10.8590    -0.6480     0.5080 H     1 <1>   0.0800 
 49 H      -11.9810    -4.3410    -1.2980 H     1 <1>   0.0800 
 50 H      -10.5680    -3.5380    -1.9050 H     1 <1>   0.0800 
 51 H      -11.8900    -1.5030    -2.4220 H     1 <1>   0.1500 
 52 H      -12.9070    -0.8900     1.3380 H     1 <1>   0.0800 
 53 H      -13.9390    -2.1770     1.9190 H     1 <1>   0.0800 
 54 H      -15.0080    -0.6120     0.2170 H     1 <1>   0.0800 
 55 H      -15.1240    -2.3070    -0.1680 H     1 <1>   0.0800 
 56 H      -14.8200     0.4410    -2.1070 H     1 <1>   0.0800 
 57 H      -15.4040    -1.1060    -2.6820 H     1 <1>   0.0800 
 58 H      -13.9400    -0.4230    -3.3420 H     1 <1>   0.0800 
@<TRIPOS>BOND
  1   1   2  1   
  2   2   3  ar  
  3   2   4  ar  
  4   3   5  1   
  5   3   6  ar  
  6   4   7  ar  
  7   4  30  1   
  8   5   8  2   
  9   5   9  am  
 10   6  10  ar  
 11   6  31  1   
 12   7  10  ar  
 13   7  32  1   
 14   9  11  1   
 15   9  12  1   
 16  10  33  1   
 17  11  13  1   
 18  11  34  1   
 19  11  35  1   
 20  12  14  1   
 21  12  36  1   
 22  12  37  1   
 23  13  15  1   
 24  13  38  1   
 25  13  39  1   
 26  14  15  1   
 27  14  40  1   
 28  14  41  1   
 29  15  16  1   
 30  15  42  1   
 31  16  17  2   
 32  16  18  am  
 33  18  19  1   
 34  18  20  1   
 35  19  21  1   
 36  19  43  1   
 37  19  44  1   
 38  20  22  1   
 39  20  45  1   
 40  20  46  1   
 41  21  23  1   
 42  21  47  1   
 43  21  48  1   
 44  22  23  1   
 45  22  49  1   
 46  22  50  1   
 47  23  24  1   
 48  23  25  1   
 49  24  26  1   
 50  25  27  2   
 51  25  51  1   
 52  26  28  1   
 53  26  52  1   
 54  26  53  1   
 55  27  28  1   
 56  27  29  1   
 57  28  54  1   
 58  28  55  1   
 59  29  56  1   
 60  29  57  1   
 61  29  58  1   
@<TRIPOS>SUBSTRUCTURE
  1 ****  13 GROUP 4 **** **** 0

# MOE 2024.06 (io_trps.svl 2023.06)
