@<TRIPOS>MOLECULE
NONAME
47 50 1 0 0 
SMALL
USER_CHARGES


@<TRIPOS>ATOM
  1 S        0.1500    -0.2270     2.2690 S.3   1 <1>  -0.0800 
  2 C        1.1010    -0.0470     0.7940 C.2   1 <1>   0.3250 
  3 C       -0.1410    -1.8880     1.8960 C.2   1 <1>  -0.1100 
  4 N        1.1370    -1.1530     0.1230 N.2   1 <1>  -0.5650 
  5 C        1.7050     1.2530     0.5150 C.ar  1 <1>   0.6730 
  6 C        0.4540    -2.2120     0.7290 C.2   1 <1>   0.1410 
  7 N        2.3110     1.4260    -0.6700 N.ar  1 <1>  -0.6200 
  8 N        1.6260     2.2080     1.4580 N.ar  1 <1>  -0.6200 
  9 C        0.4150    -3.5410     0.1240 C.2   1 <1>   0.7160 
 10 C        2.8610     2.5910    -0.9070 C.ar  1 <1>   0.1600 
 11 C        2.1830     3.3650     1.1950 C.ar  1 <1>   0.1600 
 12 O        1.4060    -4.0190    -0.4000 O.2   1 <1>  -0.5700 
 13 N       -0.7180    -4.3320     0.1950 N.am  1 <1>  -0.6600 
 14 C        2.8240     3.6120     0.0080 C.ar  1 <1>  -0.1500 
 15 C       -2.0410    -3.9600    -0.3820 C.3   1 <1>   0.2200 
 16 C       -0.5450    -5.8020     0.3650 C.3   1 <1>   0.0600 
 17 C       -3.1030    -3.7760     0.6940 C.3   1 <1>  -0.1600 
 18 C       -2.1170    -2.6670    -1.1910 C.3   1 <1>  -0.1600 
 19 C       -4.2530    -3.0580    -0.0260 C.3   1 <1>  -0.0800 
 20 C       -3.6210    -2.3710    -1.2600 C.3   1 <1>  -0.0800 
 21 C       -5.0500    -2.1200     0.8990 C.3   1 <1>   0.1400 
 22 C       -3.9510    -0.8700    -1.3720 C.3   1 <1>  -0.0990 
 23 N       -5.9120    -1.2290     0.0820 N.am  1 <1>  -0.6600 
 24 C       -5.4080    -0.6170    -1.0340 C.2   1 <1>   0.5690 
 25 C       -7.3100    -1.0280     0.5480 C.3   1 <1>   0.0600 
 26 O       -6.0630     0.1040    -1.7480 O.2   1 <1>  -0.5700 
 27 H       -0.7200    -2.4720     2.5850 H     1 <1>   0.1500 
 28 H        3.3520     2.7330    -1.8560 H     1 <1>   0.1500 
 29 H        2.1270     4.1360     1.9460 H     1 <1>   0.1500 
 30 H        3.2770     4.5630    -0.1970 H     1 <1>   0.1500 
 31 H       -2.3610    -4.7570    -1.0340 H     1 <1>   0.0800 
 32 H       -1.3400    -6.2020     0.9690 H     1 <1>   0.0800 
 33 H        0.3940    -6.0120     0.8490 H     1 <1>   0.0800 
 34 H       -0.5480    -6.2830    -0.5980 H     1 <1>   0.0800 
 35 H       -3.4210    -4.7170     1.1050 H     1 <1>   0.0800 
 36 H       -2.7110    -3.1520     1.4770 H     1 <1>   0.0800 
 37 H       -1.6340    -1.8580    -0.6790 H     1 <1>   0.0800 
 38 H       -1.6870    -2.7820    -2.1710 H     1 <1>   0.0800 
 39 H       -4.9380    -3.8080    -0.3880 H     1 <1>   0.0800 
 40 H       -4.0210    -2.8580    -2.1350 H     1 <1>   0.0800 
 41 H       -4.3790    -1.5060     1.4760 H     1 <1>   0.0800 
 42 H       -5.6510    -2.7000     1.5770 H     1 <1>   0.0800 
 43 H       -3.7450    -0.5190    -2.3670 H     1 <1>   0.0800 
 44 H       -3.3550    -0.2980    -0.6850 H     1 <1>   0.0800 
 45 H       -7.3070    -0.6220     1.5440 H     1 <1>   0.0800 
 46 H       -7.8330    -1.9670     0.5450 H     1 <1>   0.0800 
 47 H       -7.8290    -0.3430    -0.1010 H     1 <1>   0.0800 
@<TRIPOS>BOND
  1   1   2  1   
  2   1   3  1   
  3   2   4  2   
  4   2   5  1   
  5   3   6  2   
  6   3  27  1   
  7   4   6  1   
  8   5   7  ar  
  9   5   8  ar  
 10   6   9  1   
 11   7  10  ar  
 12   8  11  ar  
 13   9  12  2   
 14   9  13  am  
 15  10  14  ar  
 16  10  28  1   
 17  11  14  ar  
 18  11  29  1   
 19  13  15  1   
 20  13  16  1   
 21  14  30  1   
 22  15  17  1   
 23  15  18  1   
 24  15  31  1   
 25  16  32  1   
 26  16  33  1   
 27  16  34  1   
 28  17  19  1   
 29  17  35  1   
 30  17  36  1   
 31  18  20  1   
 32  18  37  1   
 33  18  38  1   
 34  19  20  1   
 35  19  21  1   
 36  19  39  1   
 37  20  22  1   
 38  20  40  1   
 39  21  23  1   
 40  21  41  1   
 41  21  42  1   
 42  22  24  1   
 43  22  43  1   
 44  22  44  1   
 45  23  24  am  
 46  23  25  1   
 47  24  26  2   
 48  25  45  1   
 49  25  46  1   
 50  25  47  1   
@<TRIPOS>SUBSTRUCTURE
  1 ****   6 GROUP 4 **** **** 0

# MOE 2024.06 (io_trps.svl 2023.06)
