@<TRIPOS>MOLECULE
NONAME
48 49 1 0 0 
SMALL
USER_CHARGES


@<TRIPOS>ATOM
  1 F        2.5650     0.7410    -0.6190 F     1 <1>  -0.1900 
  2 C        2.6950    -0.4490    -0.1010 C.ar  1 <1>   0.1900 
  3 C        2.3880    -1.5480    -0.8780 C.ar  1 <1>  -0.1500 
  4 C        3.1290    -0.5680     1.2020 C.ar  1 <1>  -0.1500 
  5 C        2.5130    -2.8200    -0.3350 C.ar  1 <1>  -0.1440 
  6 C        3.2600    -1.8370     1.7370 C.ar  1 <1>  -0.1500 
  7 C        2.9600    -2.9650     0.9800 C.ar  1 <1>  -0.1430 
  8 C        2.1460    -4.0070    -1.2120 C.3   1 <1>   0.4870 
  9 C        3.1460    -4.3200     1.6510 C.3   1 <1>  -0.0970 
 10 N        0.8250    -4.5550    -0.8030 N.4   1 <1>  -0.9590 
 11 C        0.4440    -5.7670    -1.5930 C.3   1 <1>   0.3430 
 12 C       -0.2690    -3.5560    -0.7650 C.3   1 <1>   0.3430 
 13 C       -1.0210    -6.2020    -1.3600 C.3   1 <1>   0.2000 
 14 C       -1.4300    -4.1130     0.0670 C.3   1 <1>  -0.1600 
 15 O       -1.0850    -7.5880    -1.4000 O.3   1 <1>  -0.6800 
 16 C       -1.6770    -5.6510    -0.0540 C.3   1 <1>   0.0000 
 17 C       -1.1280    -6.3610     1.2190 C.3   1 <1>   0.1200 
 18 C       -3.2100    -5.9270    -0.0440 C.3   1 <1>  -0.1600 
 19 O        0.2520    -6.2290     1.3590 O.3   1 <1>  -0.6800 
 20 C       -4.0080    -5.4890    -1.2890 C.3   1 <1>  -0.1600 
 21 C       -5.5110    -5.6600    -1.0530 C.3   1 <1>  -0.2400 
 22 H        2.0600    -1.3860    -1.8900 H     1 <1>   0.1500 
 23 H        3.3590     0.3100     1.7790 H     1 <1>   0.1500 
 24 H        3.6020    -1.9400     2.7530 H     1 <1>   0.1500 
 25 H        2.9060    -4.7660    -1.1230 H     1 <1>   0.0800 
 26 H        2.1080    -3.6920    -2.2420 H     1 <1>   0.0800 
 27 H        3.9730    -4.2800     2.3390 H     1 <1>   0.0800 
 28 H        3.3560    -5.0990     0.9440 H     1 <1>   0.0800 
 29 H        2.2630    -4.5740     2.2090 H     1 <1>   0.0800 
 30 H        0.9120    -4.8920     0.1770 H     1 <1>   0.4500 
 31 H        0.5750    -5.5740    -2.6440 H     1 <1>   0.0800 
 32 H        1.0910    -6.5820    -1.3140 H     1 <1>   0.0800 
 33 H        0.0690    -2.6340    -0.3190 H     1 <1>   0.0800 
 34 H       -0.6030    -3.3460    -1.7680 H     1 <1>   0.0800 
 35 H       -1.5750    -5.8510    -2.2110 H     1 <1>   0.0800 
 36 H       -1.2540    -3.8540     1.0970 H     1 <1>   0.0800 
 37 H       -2.3050    -3.5580    -0.2150 H     1 <1>   0.0800 
 38 H       -0.7120    -7.9850    -0.5880 H     1 <1>   0.4000 
 39 H       -1.3570    -7.4130     1.1980 H     1 <1>   0.0800 
 40 H       -1.5860    -5.9430     2.1010 H     1 <1>   0.0800 
 41 H       -3.3740    -6.9850     0.0760 H     1 <1>   0.0800 
 42 H       -3.6390    -5.4480     0.8210 H     1 <1>   0.0800 
 43 H        0.5370    -6.6720     2.1900 H     1 <1>   0.4000 
 44 H       -3.8180    -4.4610    -1.5390 H     1 <1>   0.0800 
 45 H       -3.7360    -6.0970    -2.1350 H     1 <1>   0.0800 
 46 H       -5.8410    -5.0450    -0.2340 H     1 <1>   0.0800 
 47 H       -5.7450    -6.6870    -0.8310 H     1 <1>   0.0800 
 48 H       -6.0580    -5.3730    -1.9340 H     1 <1>   0.0800 
@<TRIPOS>BOND
  1   1   2  1   
  2   2   3  ar  
  3   2   4  ar  
  4   3   5  ar  
  5   3  22  1   
  6   4   6  ar  
  7   4  23  1   
  8   5   7  ar  
  9   5   8  1   
 10   6   7  ar  
 11   6  24  1   
 12   7   9  1   
 13   8  10  1   
 14   8  25  1   
 15   8  26  1   
 16   9  27  1   
 17   9  28  1   
 18   9  29  1   
 19  10  11  1   
 20  10  12  1   
 21  10  30  1   
 22  11  13  1   
 23  11  31  1   
 24  11  32  1   
 25  12  14  1   
 26  12  33  1   
 27  12  34  1   
 28  13  15  1   
 29  13  16  1   
 30  13  35  1   
 31  14  16  1   
 32  14  36  1   
 33  14  37  1   
 34  15  38  1   
 35  16  17  1   
 36  16  18  1   
 37  17  19  1   
 38  17  39  1   
 39  17  40  1   
 40  18  20  1   
 41  18  41  1   
 42  18  42  1   
 43  19  43  1   
 44  20  21  1   
 45  20  44  1   
 46  20  45  1   
 47  21  46  1   
 48  21  47  1   
 49  21  48  1   
@<TRIPOS>SUBSTRUCTURE
  1 ****  10 GROUP 4 **** **** 0

# MOE 2024.06 (io_trps.svl 2023.06)
