@<TRIPOS>MOLECULE
NONAME
41 42 1 0 0 
SMALL
USER_CHARGES


@<TRIPOS>ATOM
  1 S        0.0590     0.0190     0.4810 S.o2  1 <1>   1.3330 
  2 O       -0.6580     1.2480     0.7360 O.2   1 <1>  -0.6500 
  3 O        0.4570    -0.8170     1.5900 O.2   1 <1>  -0.6500 
  4 N       -0.8720    -0.9300    -0.5760 N.am  1 <1>  -0.8490 
  5 C        1.4880     0.4260    -0.5230 C.3   1 <1>  -0.0550 
  6 C       -2.3080    -0.8190    -0.3030 C.3   1 <1>   0.1160 
  7 C       -0.4750    -2.3420    -0.5910 C.3   1 <1>   0.1160 
  8 C        2.4830     1.3720     0.1790 C.3   1 <1>  -0.0800 
  9 C        3.5330     1.8790    -0.7940 C.3   1 <1>   0.2200 
 10 C        3.3450     0.6340     1.2070 C.3   1 <1>   0.1200 
 11 N        4.1020     3.1430    -0.2780 N.am  1 <1>  -0.7300 
 12 C        4.5850     0.7750    -0.7360 C.3   1 <1>   0.1200 
 13 O        4.4750     0.1810     0.5240 O.3   1 <1>  -0.5600 
 14 C        4.1230     4.3230    -0.9500 C.2   1 <1>   0.5690 
 15 O        3.6540     4.4280    -2.0570 O.2   1 <1>  -0.5700 
 16 C        4.7330     5.5460    -0.2820 C.3   1 <1>   0.0820 
 17 C        6.1040     5.3000     0.3440 C.2   1 <1>  -0.1810 
 18 C        6.9840     4.3360     0.0060 C.2   1 <1>  -0.1100 
 19 C        6.5780     6.1480     1.3980 C.2   1 <1>  -0.1500 
 20 S        8.4320     4.4300     0.9910 S.3   1 <1>  -0.0800 
 21 C        7.8000     5.8190     1.8550 C.2   1 <1>  -0.1100 
 22 H        1.9910    -0.4750    -0.8140 H     1 <1>   0.0800 
 23 H        1.1340     0.9060    -1.4150 H     1 <1>   0.0800 
 24 H       -2.8680    -1.4200    -0.9990 H     1 <1>   0.0800 
 25 H       -2.6260     0.2040    -0.4130 H     1 <1>   0.0800 
 26 H       -2.5250    -1.1420     0.7020 H     1 <1>   0.0800 
 27 H       -1.0320    -2.8750    -1.3420 H     1 <1>   0.0800 
 28 H       -0.6590    -2.7960     0.3700 H     1 <1>   0.0800 
 29 H        0.5730    -2.4320    -0.8180 H     1 <1>   0.0800 
 30 H        1.9390     2.1860     0.6260 H     1 <1>   0.0800 
 31 H        3.1540     2.0200    -1.7920 H     1 <1>   0.0800 
 32 H        2.8540    -0.2070     1.6650 H     1 <1>   0.0800 
 33 H        3.6800     1.3090     1.9760 H     1 <1>   0.0800 
 34 H        4.5980     3.0660     0.6140 H     1 <1>   0.3700 
 35 H        5.5850     1.1490    -0.8730 H     1 <1>   0.0800 
 36 H        4.3780     0.0160    -1.4700 H     1 <1>   0.0800 
 37 H        4.8150     6.3350    -1.0060 H     1 <1>   0.0800 
 38 H        4.0480     5.8690     0.4790 H     1 <1>   0.0800 
 39 H        6.9490     3.5560    -0.7350 H     1 <1>   0.1500 
 40 H        5.9850     6.9670     1.7660 H     1 <1>   0.1500 
 41 H        8.4210     6.2470     2.6220 H     1 <1>   0.1500 
@<TRIPOS>BOND
  1   1   2  2   
  2   1   3  2   
  3   1   4  am  
  4   1   5  1   
  5   4   6  1   
  6   4   7  1   
  7   5   8  1   
  8   5  22  1   
  9   5  23  1   
 10   6  24  1   
 11   6  25  1   
 12   6  26  1   
 13   7  27  1   
 14   7  28  1   
 15   7  29  1   
 16   8   9  1   
 17   8  10  1   
 18   8  30  1   
 19   9  11  1   
 20   9  12  1   
 21   9  31  1   
 22  10  13  1   
 23  10  32  1   
 24  10  33  1   
 25  11  14  am  
 26  11  34  1   
 27  12  13  1   
 28  12  35  1   
 29  12  36  1   
 30  14  15  2   
 31  14  16  1   
 32  16  17  1   
 33  16  37  1   
 34  16  38  1   
 35  17  18  2   
 36  17  19  1   
 37  18  20  1   
 38  18  39  1   
 39  19  21  2   
 40  19  40  1   
 41  20  21  1   
 42  21  41  1   
@<TRIPOS>SUBSTRUCTURE
  1 ****   9 GROUP 4 **** **** 0

# MOE 2024.06 (io_trps.svl 2023.06)
