@<TRIPOS>MOLECULE
NONAME
50 53 1 0 0 
SMALL
USER_CHARGES


@<TRIPOS>ATOM
  1 O        1.4810    -0.2740     1.0120 O.2   1 <1>  -0.5700 
  2 C        2.3820    -1.0250     0.7180 C.2   1 <1>   0.5690 
  3 N        3.6870    -0.6150     0.8330 N.am  1 <1>  -0.6600 
  4 C        2.0460    -2.4030     0.1690 C.3   1 <1>  -0.0990 
  5 C        4.0330     0.5820     1.6720 C.3   1 <1>   0.1400 
  6 C        4.8390    -1.2250     0.1060 C.3   1 <1>   0.1400 
  7 C        0.5790    -2.8060     0.3730 C.3   1 <1>   0.0210 
  8 C        4.5600     1.8180     0.8890 C.3   1 <1>   0.4230 
  9 C        5.3630    -0.2750    -0.9950 C.3   1 <1>  -0.0800 
 10 C        0.2730    -4.1840    -0.1920 C.2   1 <1>  -0.1810 
 11 N        4.0930     1.9420    -0.5510 N.4   1 <1>  -0.9590 
 12 C        6.0960     1.9460     0.9920 C.3   1 <1>   0.1200 
 13 C        6.7240     0.3560    -0.6610 C.3   1 <1>   0.1200 
 14 C        4.3090     0.7510    -1.4490 C.3   1 <1>   0.3430 
 15 C       -1.0300    -4.7350    -0.1960 C.ar  1 <1>   0.0000 
 16 C        1.1010    -5.0970    -0.7580 C.2   1 <1>  -0.3020 
 17 C        2.6430     2.3160    -0.5820 C.3   1 <1>   0.2630 
 18 O        6.7670     0.7700     0.6650 O.3   1 <1>  -0.5600 
 19 C       -0.9270    -5.9920    -0.7830 C.ar  1 <1>  -0.1520 
 20 C       -2.2780    -4.2820     0.2440 C.ar  1 <1>  -0.1500 
 21 N        0.3830    -6.2010    -1.1220 N.pl3 1 <1>   0.0330 
 22 C       -2.0510    -6.8070    -0.9400 C.ar  1 <1>  -0.1500 
 23 C       -3.3850    -5.0840     0.0890 C.ar  1 <1>  -0.1500 
 24 C       -3.2720    -6.3480    -0.5040 C.ar  1 <1>  -0.1500 
 25 H        2.2620    -2.4180    -0.8830 H     1 <1>   0.0800 
 26 H        2.6680    -3.1270     0.6620 H     1 <1>   0.0800 
 27 H        3.1660     0.8910     2.2300 H     1 <1>   0.0800 
 28 H        4.7630     0.2870     2.4050 H     1 <1>   0.0800 
 29 H        5.6210    -1.4650     0.8090 H     1 <1>   0.0800 
 30 H        4.5400    -2.1510    -0.3510 H     1 <1>   0.0800 
 31 H       -0.0620    -2.0900    -0.1100 H     1 <1>   0.0800 
 32 H        0.3460    -2.8020     1.4240 H     1 <1>   0.0800 
 33 H        4.1820     2.6780     1.4140 H     1 <1>   0.0800 
 34 H        5.5460    -0.8960    -1.8540 H     1 <1>   0.0800 
 35 H        4.6230     2.7210    -0.9590 H     1 <1>   0.4500 
 36 H        6.3560     2.1650     2.0130 H     1 <1>   0.0800 
 37 H        6.4700     2.7470     0.3790 H     1 <1>   0.0800 
 38 H        6.9660     1.1840    -1.3060 H     1 <1>   0.0800 
 39 H        7.4970    -0.3880    -0.7690 H     1 <1>   0.0800 
 40 H        3.3750     0.2230    -1.5540 H     1 <1>   0.0800 
 41 H        4.5780     1.1070    -2.4300 H     1 <1>   0.0800 
 42 H        2.1600    -5.0410    -0.9290 H     1 <1>   0.1500 
 43 H        2.0410     1.5250    -0.1690 H     1 <1>   0.0800 
 44 H        2.3210     2.4950    -1.5950 H     1 <1>   0.0800 
 45 H        2.4700     3.2100    -0.0050 H     1 <1>   0.0800 
 46 H       -2.3540    -3.3110     0.6980 H     1 <1>   0.1500 
 47 H        0.7460    -7.0490    -1.5680 H     1 <1>   0.2700 
 48 H       -1.9540    -7.7760    -1.3970 H     1 <1>   0.1500 
 49 H       -4.3510    -4.7470     0.4230 H     1 <1>   0.1500 
 50 H       -4.1530    -6.9560    -0.6130 H     1 <1>   0.1500 
@<TRIPOS>BOND
  1   1   2  2   
  2   2   3  am  
  3   2   4  1   
  4   3   5  1   
  5   3   6  1   
  6   4   7  1   
  7   4  25  1   
  8   4  26  1   
  9   5   8  1   
 10   5  27  1   
 11   5  28  1   
 12   6   9  1   
 13   6  29  1   
 14   6  30  1   
 15   7  10  1   
 16   7  31  1   
 17   7  32  1   
 18   8  11  1   
 19   8  12  1   
 20   8  33  1   
 21   9  13  1   
 22   9  14  1   
 23   9  34  1   
 24  10  15  1   
 25  10  16  2   
 26  11  14  1   
 27  11  17  1   
 28  11  35  1   
 29  12  18  1   
 30  12  36  1   
 31  12  37  1   
 32  13  18  1   
 33  13  38  1   
 34  13  39  1   
 35  14  40  1   
 36  14  41  1   
 37  15  19  ar  
 38  15  20  ar  
 39  16  21  1   
 40  16  42  1   
 41  17  43  1   
 42  17  44  1   
 43  17  45  1   
 44  19  21  1   
 45  19  22  ar  
 46  20  23  ar  
 47  20  46  1   
 48  21  47  1   
 49  22  24  ar  
 50  22  48  1   
 51  23  24  ar  
 52  23  49  1   
 53  24  50  1   
@<TRIPOS>SUBSTRUCTURE
  1 ****   4 GROUP 4 **** **** 0

# MOE 2024.06 (io_trps.svl 2023.06)
