@<TRIPOS>MOLECULE
NONAME
47 50 1 0 0 
SMALL
USER_CHARGES


@<TRIPOS>ATOM
  1 O       -0.6260     0.2110     1.2920 O.2   1 <1>  -0.5700 
  2 C       -1.6070     0.8740     1.0090 C.2   1 <1>   0.5440 
  3 N       -2.8030     0.2270     0.7910 N.am  1 <1>  -0.6600 
  4 C       -1.4920     2.3130     0.8810 C.ar  1 <1>   0.0860 
  5 C       -3.8890     0.7570    -0.0750 C.3   1 <1>   0.1400 
  6 C       -2.9780    -1.2340     0.9610 C.3   1 <1>   0.1400 
  7 C       -0.4430     2.8790     0.1490 C.ar  1 <1>  -0.1500 
  8 C       -2.4170     3.1790     1.4810 C.ar  1 <1>  -0.1500 
  9 C       -4.7590    -0.4510    -0.4540 C.3   1 <1>   0.2000 
 10 C       -3.8430    -1.6570    -0.2250 C.3   1 <1>  -0.0800 
 11 C       -0.3520     4.2500     0.0170 C.ar  1 <1>  -0.1440 
 12 C       -2.3230     4.5540     1.3460 C.ar  1 <1>  -0.1500 
 13 O       -5.8520    -0.5420     0.4170 O.3   1 <1>  -0.5600 
 14 C       -4.5770    -2.9930    -0.0070 C.3   1 <1>   0.0200 
 15 C       -1.2780     5.0700     0.6020 C.ar  1 <1>   0.0830 
 16 C        0.6530     5.1020    -0.7010 C.3   1 <1>  -0.0170 
 17 C       -6.9660     0.2120     0.0530 C.3   1 <1>   0.0400 
 18 C       -3.6390    -4.1890     0.0410 C.2   1 <1>  -0.0400 
 19 O       -1.0460     6.3680     0.3760 O.3   1 <1>  -0.3630 
 20 C        0.1300     6.5210    -0.4070 C.3   1 <1>   0.1200 
 21 O       -4.1390    -5.3680     0.3020 O.3   1 <1>  -0.0190 
 22 C       -2.3170    -4.3380    -0.1390 C.2   1 <1>  -0.1500 
 23 N       -3.2240    -6.2950     0.3090 N.2   1 <1>  -0.4100 
 24 C       -2.1150    -5.7020     0.0480 C.2   1 <1>   0.1080 
 25 C       -0.7770    -6.4000    -0.0410 C.3   1 <1>  -0.0590 
 26 H       -4.4620     1.5040     0.4440 H     1 <1>   0.0800 
 27 H       -3.4520     1.1860    -0.9600 H     1 <1>   0.0800 
 28 H       -2.0330    -1.7500     0.9740 H     1 <1>   0.0800 
 29 H       -3.4940    -1.4130     1.8890 H     1 <1>   0.0800 
 30 H        0.2910     2.2350    -0.3040 H     1 <1>   0.1500 
 31 H       -3.2150     2.7580     2.0680 H     1 <1>   0.1500 
 32 H       -5.1160    -0.4060    -1.4690 H     1 <1>   0.0800 
 33 H       -3.2010    -1.7490    -1.0830 H     1 <1>   0.0800 
 34 H       -3.0320     5.2190     1.8040 H     1 <1>   0.1500 
 35 H       -5.2800    -3.1470    -0.8070 H     1 <1>   0.0800 
 36 H       -5.1340    -2.9570     0.9130 H     1 <1>   0.0800 
 37 H        0.6530     4.9020    -1.7570 H     1 <1>   0.0800 
 38 H        1.6410     4.9640    -0.3010 H     1 <1>   0.0800 
 39 H       -7.7230     0.0690     0.8040 H     1 <1>   0.0800 
 40 H       -7.3320    -0.1320    -0.8980 H     1 <1>   0.0800 
 41 H       -6.6990     1.2530     0.0050 H     1 <1>   0.0800 
 42 H       -0.1340     7.0420    -1.3100 H     1 <1>   0.0800 
 43 H        0.8390     7.0930     0.1630 H     1 <1>   0.0800 
 44 H       -1.5570    -3.6150    -0.3710 H     1 <1>   0.1500 
 45 H       -0.0830    -5.9470     0.6430 H     1 <1>   0.0800 
 46 H       -0.3930    -6.3230    -1.0410 H     1 <1>   0.0800 
 47 H       -0.8880    -7.4390     0.2110 H     1 <1>   0.0800 
@<TRIPOS>BOND
  1   1   2  2   
  2   2   3  am  
  3   2   4  1   
  4   3   5  1   
  5   3   6  1   
  6   4   7  ar  
  7   4   8  ar  
  8   5   9  1   
  9   5  26  1   
 10   5  27  1   
 11   6  10  1   
 12   6  28  1   
 13   6  29  1   
 14   7  11  ar  
 15   7  30  1   
 16   8  12  ar  
 17   8  31  1   
 18   9  10  1   
 19   9  13  1   
 20   9  32  1   
 21  10  14  1   
 22  10  33  1   
 23  11  15  ar  
 24  11  16  1   
 25  12  15  ar  
 26  12  34  1   
 27  13  17  1   
 28  14  18  1   
 29  14  35  1   
 30  14  36  1   
 31  15  19  1   
 32  16  20  1   
 33  16  37  1   
 34  16  38  1   
 35  17  39  1   
 36  17  40  1   
 37  17  41  1   
 38  18  21  1   
 39  18  22  2   
 40  19  20  1   
 41  20  42  1   
 42  20  43  1   
 43  21  23  1   
 44  22  24  1   
 45  22  44  1   
 46  23  24  2   
 47  24  25  1   
 48  25  45  1   
 49  25  46  1   
 50  25  47  1   
@<TRIPOS>SUBSTRUCTURE
  1 ****   3 GROUP 4 **** **** 0

# MOE 2024.06 (io_trps.svl 2023.06)
