@<TRIPOS>MOLECULE
NONAME
43 45 1 0 0 
SMALL
USER_CHARGES


@<TRIPOS>ATOM
  1 CL      -2.7040    -0.3090     0.0950 Cl    1 <1>  -0.1230 
  2 C       -2.6480    -1.9910    -0.4040 C.2   1 <1>   0.1230 
  3 C       -2.7170    -2.4540    -1.7080 C.2   1 <1>   0.1390 
  4 C       -2.5340    -3.0770     0.3810 C.2   1 <1>  -0.3020 
  5 N       -2.6510    -3.7530    -1.7490 N.2   1 <1>  -0.7070 
  6 N       -2.5350    -4.1370    -0.4560 N.pl3 1 <1>   0.3140 
  7 C       -2.4370    -5.5550    -0.0770 C.3   1 <1>   0.0960 
  8 C       -3.7760    -6.2470    -0.3360 C.3   1 <1>   0.1400 
  9 N       -3.7000    -7.6830     0.0310 N.am  1 <1>  -0.7300 
 10 C       -3.6560    -8.1450     1.3060 C.2   1 <1>   0.5690 
 11 O       -3.5940    -7.4010     2.2530 O.2   1 <1>  -0.5700 
 12 C       -3.6860    -9.6410     1.5400 C.3   1 <1>  -0.0990 
 13 C       -5.0900   -10.2230     1.3160 C.3   1 <1>  -0.1600 
 14 C       -5.1070   -11.7390     1.5310 C.3   1 <1>   0.1400 
 15 N       -6.4370   -12.2850     1.1640 N.am  1 <1>  -0.4200 
 16 C       -6.7370   -12.5770    -0.1480 C.2   1 <1>   0.5440 
 17 C       -7.3790   -12.5040     2.1400 C.2   1 <1>   0.4500 
 18 O       -5.9110   -12.3640    -1.0230 O.2   1 <1>  -0.5700 
 19 C       -8.0350   -13.1200    -0.4390 C.ar  1 <1>   0.0860 
 20 N       -8.5460   -12.9790     1.9300 N.2   1 <1>  -0.6290 
 21 C       -8.9110   -13.3040     0.6380 C.ar  1 <1>   0.1790 
 22 C       -8.4600   -13.4680    -1.7240 C.ar  1 <1>  -0.1500 
 23 C      -10.1790   -13.8250     0.4050 C.ar  1 <1>  -0.1500 
 24 C       -9.7210   -13.9840    -1.9400 C.ar  1 <1>  -0.1500 
 25 C      -10.5860   -14.1640    -0.8700 C.ar  1 <1>  -0.1500 
 26 H       -2.8130    -1.8230    -2.5750 H     1 <1>   0.1500 
 27 H       -2.4550    -3.1520     1.4490 H     1 <1>   0.1500 
 28 H       -2.1780    -5.6190     0.9630 H     1 <1>   0.0800 
 29 H       -1.6660    -6.0090    -0.6700 H     1 <1>   0.0800 
 30 H       -4.0370    -6.1590    -1.3770 H     1 <1>   0.0800 
 31 H       -4.5430    -5.7750     0.2560 H     1 <1>   0.0800 
 32 H       -3.7880    -8.3480    -0.7420 H     1 <1>   0.3700 
 33 H       -3.3670    -9.8340     2.5490 H     1 <1>   0.0800 
 34 H       -2.9810   -10.1060     0.8740 H     1 <1>   0.0800 
 35 H       -5.4020   -10.0050     0.3090 H     1 <1>   0.0800 
 36 H       -5.7810    -9.7530     1.9950 H     1 <1>   0.0800 
 37 H       -4.8890   -11.9710     2.5600 H     1 <1>   0.0800 
 38 H       -4.3540   -12.2080     0.9190 H     1 <1>   0.0800 
 39 H       -7.0910   -12.2490     3.1450 H     1 <1>   0.0600 
 40 H       -7.7860   -13.3270    -2.5520 H     1 <1>   0.1500 
 41 H      -10.8410   -13.9610     1.2420 H     1 <1>   0.1500 
 42 H      -10.0380   -14.2480    -2.9340 H     1 <1>   0.1500 
 43 H      -11.5700   -14.5660    -1.0360 H     1 <1>   0.1500 
@<TRIPOS>BOND
  1   1   2  1   
  2   2   3  1   
  3   2   4  2   
  4   3   5  2   
  5   3  26  1   
  6   4   6  1   
  7   4  27  1   
  8   5   6  1   
  9   6   7  1   
 10   7   8  1   
 11   7  28  1   
 12   7  29  1   
 13   8   9  1   
 14   8  30  1   
 15   8  31  1   
 16   9  10  am  
 17   9  32  1   
 18  10  11  2   
 19  10  12  1   
 20  12  13  1   
 21  12  33  1   
 22  12  34  1   
 23  13  14  1   
 24  13  35  1   
 25  13  36  1   
 26  14  15  1   
 27  14  37  1   
 28  14  38  1   
 29  15  16  am  
 30  15  17  1   
 31  16  18  2   
 32  16  19  1   
 33  17  20  2   
 34  17  39  1   
 35  19  21  ar  
 36  19  22  ar  
 37  20  21  1   
 38  21  23  ar  
 39  22  24  ar  
 40  22  40  1   
 41  23  25  ar  
 42  23  41  1   
 43  24  25  ar  
 44  24  42  1   
 45  25  43  1   
@<TRIPOS>SUBSTRUCTURE
  1 ****  13 GROUP 4 **** **** 0

# MOE 2024.06 (io_trps.svl 2023.06)
