@<TRIPOS>MOLECULE
NONAME
49 52 1 0 0 
SMALL
USER_CHARGES


@<TRIPOS>ATOM
  1 S       -1.8490    -1.9860     1.9880 S.3   1 <1>  -0.0800 
  2 C       -1.5460    -2.3040     0.2860 C.2   1 <1>  -0.1400 
  3 C       -3.1280    -0.8520     1.5950 C.2   1 <1>  -0.1100 
  4 C       -2.3760    -1.5730    -0.4840 C.2   1 <1>  -0.1500 
  5 C       -0.4480    -3.2880    -0.0560 C.3   1 <1>   0.5230 
  6 C       -3.2780    -0.7500     0.2620 C.2   1 <1>  -0.1500 
  7 N       -1.0550    -4.6230    -0.2830 N.4   1 <1>  -0.9590 
  8 C       -1.6750    -5.2440     0.9210 C.3   1 <1>   0.3430 
  9 C       -0.1820    -5.5870    -0.9870 C.3   1 <1>   0.3430 
 10 C       -3.0520    -5.8170     0.5380 C.3   1 <1>   0.1100 
 11 C       -1.0150    -6.3710    -2.0040 C.3   1 <1>  -0.1600 
 12 N       -3.2150    -6.0390    -0.9280 N.3   1 <1>  -0.8100 
 13 C       -2.2780    -7.0480    -1.4570 C.3   1 <1>   0.1100 
 14 C       -4.6310    -6.3460    -1.2600 C.3   1 <1>   0.2480 
 15 C       -5.1870    -7.5460    -0.4860 C.2   1 <1>  -0.0380 
 16 N       -4.8050    -8.8130    -0.8600 N.pl3 1 <1>  -0.6000 
 17 C       -6.0460    -7.4000     0.5540 C.2   1 <1>  -0.1360 
 18 C       -5.2530    -9.9590    -0.2020 C.ar  1 <1>   0.1000 
 19 C       -6.5490    -8.5120     1.2790 C.2   1 <1>   0.4690 
 20 C       -4.8500   -11.2420    -0.5810 C.ar  1 <1>   0.1900 
 21 C       -6.1380    -9.8340     0.8800 C.ar  1 <1>   0.0860 
 22 O       -7.3020    -8.3290     2.2250 O.2   1 <1>  -0.5700 
 23 F       -4.0180   -11.3630    -1.5860 F     1 <1>  -0.1900 
 24 C       -5.2830   -12.3820     0.0530 C.ar  1 <1>  -0.1500 
 25 C       -6.5770   -11.0000     1.5240 C.ar  1 <1>  -0.1500 
 26 C       -6.1620   -12.2540     1.1220 C.ar  1 <1>  -0.1500 
 27 H       -3.6380    -0.3730     2.4130 H     1 <1>   0.1500 
 28 H       -2.4050    -1.5640    -1.5610 H     1 <1>   0.1500 
 29 H        0.2800    -3.3270     0.7370 H     1 <1>   0.0800 
 30 H        0.0420    -2.9580    -0.9570 H     1 <1>   0.0800 
 31 H       -3.9940    -0.1180    -0.2370 H     1 <1>   0.1500 
 32 H       -1.8790    -4.5080    -0.9040 H     1 <1>   0.4500 
 33 H       -1.8060    -4.5230     1.7090 H     1 <1>   0.0800 
 34 H       -1.0470    -6.0330     1.2980 H     1 <1>   0.0800 
 35 H        0.2720    -6.2610    -0.2790 H     1 <1>   0.0800 
 36 H        0.6030    -5.0650    -1.5100 H     1 <1>   0.0800 
 37 H       -3.8000    -5.1140     0.8660 H     1 <1>   0.0800 
 38 H       -3.2160    -6.7330     1.0820 H     1 <1>   0.0800 
 39 H       -0.3850    -7.1320    -2.4280 H     1 <1>   0.0800 
 40 H       -1.2940    -5.7190    -2.8120 H     1 <1>   0.0800 
 41 H       -2.0340    -7.7760    -0.6990 H     1 <1>   0.0800 
 42 H       -2.7370    -7.5760    -2.2770 H     1 <1>   0.0800 
 43 H       -4.7300    -6.5230    -2.3180 H     1 <1>   0.0800 
 44 H       -5.2290    -5.4800    -1.0330 H     1 <1>   0.0800 
 45 H       -4.2020    -8.9610    -1.6780 H     1 <1>   0.4000 
 46 H       -6.3880    -6.4380     0.8850 H     1 <1>   0.1500 
 47 H       -4.9480   -13.3510    -0.2730 H     1 <1>   0.1500 
 48 H       -7.2590   -10.9040     2.3530 H     1 <1>   0.1500 
 49 H       -6.5140   -13.1340     1.6340 H     1 <1>   0.1500 
@<TRIPOS>BOND
  1   1   2  1   
  2   1   3  1   
  3   2   4  2   
  4   2   5  1   
  5   3   6  2   
  6   3  27  1   
  7   4   6  1   
  8   4  28  1   
  9   5   7  1   
 10   5  29  1   
 11   5  30  1   
 12   6  31  1   
 13   7   8  1   
 14   7   9  1   
 15   7  32  1   
 16   8  10  1   
 17   8  33  1   
 18   8  34  1   
 19   9  11  1   
 20   9  35  1   
 21   9  36  1   
 22  10  12  1   
 23  10  37  1   
 24  10  38  1   
 25  11  13  1   
 26  11  39  1   
 27  11  40  1   
 28  12  13  1   
 29  12  14  1   
 30  13  41  1   
 31  13  42  1   
 32  14  15  1   
 33  14  43  1   
 34  14  44  1   
 35  15  16  1   
 36  15  17  2   
 37  16  18  1   
 38  16  45  1   
 39  17  19  1   
 40  17  46  1   
 41  18  20  ar  
 42  18  21  ar  
 43  19  21  1   
 44  19  22  2   
 45  20  23  1   
 46  20  24  ar  
 47  21  25  ar  
 48  24  26  ar  
 49  24  47  1   
 50  25  26  ar  
 51  25  48  1   
 52  26  49  1   
@<TRIPOS>SUBSTRUCTURE
  1 ****  10 GROUP 4 **** **** 0

# MOE 2024.06 (io_trps.svl 2023.06)
