@<TRIPOS>MOLECULE
NONAME
49 50 1 0 0 
SMALL
USER_CHARGES


@<TRIPOS>ATOM
  1 O        3.2190    -1.1330    -2.6190 O.2   1 <1>  -0.5700 
  2 C        2.8170    -1.0940    -1.4840 C.2   1 <1>   0.5690 
  3 N        2.6680     0.0660    -0.8040 N.am  1 <1>  -0.7300 
  4 C        2.4430    -2.3870    -0.7890 C.3   1 <1>  -0.0990 
  5 C        2.9220     1.4100    -1.3520 C.3   1 <1>   0.3640 
  6 C        0.9270    -2.4880    -0.5500 C.3   1 <1>  -0.1600 
  7 C        4.1000     2.0980    -0.6650 C.ar  1 <1>  -0.1440 
  8 C        1.6090     2.2240    -1.3370 C.3   1 <1>  -0.1600 
  9 C        0.5480    -3.8100     0.1300 C.3   1 <1>   0.0960 
 10 C        4.6520     1.6480     0.5300 C.ar  1 <1>   0.1600 
 11 C        4.6550     3.2200    -1.2540 C.ar  1 <1>  -0.1500 
 12 C        0.9700     2.7330    -0.0130 C.3   1 <1>   0.0000 
 13 N       -0.8900    -3.8230     0.4560 N.pl3 1 <1>   0.3140 
 14 N        5.6630     2.2160     1.1690 N.ar  1 <1>  -0.6200 
 15 C        5.7120     3.8220    -0.6060 C.ar  1 <1>  -0.1500 
 16 C       -0.4270     3.2750    -0.3590 C.3   1 <1>  -0.2400 
 17 C        0.7940     1.6320     1.0430 C.3   1 <1>  -0.2400 
 18 C        1.7680     3.8920     0.6070 C.3   1 <1>  -0.2400 
 19 N       -1.3700    -3.2250     1.5620 N.2   1 <1>  -0.7070 
 20 C       -1.8810    -4.3810    -0.2670 C.2   1 <1>  -0.3020 
 21 C        6.1690     3.2880     0.5850 C.ar  1 <1>   0.1600 
 22 C       -2.6520    -3.4210     1.5170 C.2   1 <1>   0.1390 
 23 C       -3.0340    -4.1400     0.3910 C.2   1 <1>  -0.1500 
 24 H        2.2250     0.0680     0.1130 H     1 <1>   0.3700 
 25 H        2.9720    -2.4390     0.1460 H     1 <1>   0.0800 
 26 H        2.7700    -3.2080    -1.4010 H     1 <1>   0.0800 
 27 H        3.2000     1.2910    -2.3860 H     1 <1>   0.0800 
 28 H        0.4130    -2.4110    -1.4930 H     1 <1>   0.0800 
 29 H        0.6090    -1.6720     0.0770 H     1 <1>   0.0800 
 30 H        0.8820     1.6230    -1.8550 H     1 <1>   0.0800 
 31 H        1.7720     3.0820    -1.9640 H     1 <1>   0.0800 
 32 H        1.0940    -3.9260     1.0490 H     1 <1>   0.0800 
 33 H        0.7660    -4.6430    -0.5120 H     1 <1>   0.0800 
 34 H        4.2460     0.7710     0.9990 H     1 <1>   0.1500 
 35 H        4.2820     3.6150    -2.1830 H     1 <1>   0.1500 
 36 H        6.1800     4.6970    -1.0190 H     1 <1>   0.1500 
 37 H       -1.0480     2.4960    -0.7650 H     1 <1>   0.0800 
 38 H       -0.3580     4.0670    -1.0850 H     1 <1>   0.0800 
 39 H       -0.9140     3.6660     0.5170 H     1 <1>   0.0800 
 40 H        0.2640     0.7910     0.6300 H     1 <1>   0.0800 
 41 H        0.2250     2.0040     1.8770 H     1 <1>   0.0800 
 42 H        1.7440     1.3070     1.4240 H     1 <1>   0.0800 
 43 H        1.9590     4.6580    -0.1230 H     1 <1>   0.0800 
 44 H        2.7070     3.5580     1.0040 H     1 <1>   0.0800 
 45 H        1.2190     4.3340     1.4200 H     1 <1>   0.0800 
 46 H       -1.7150    -4.9050    -1.1900 H     1 <1>   0.1500 
 47 H        6.9940     3.7680     1.0840 H     1 <1>   0.1500 
 48 H       -3.3330    -3.0630     2.2700 H     1 <1>   0.1500 
 49 H       -4.0370    -4.4260     0.1300 H     1 <1>   0.1500 
@<TRIPOS>BOND
  1   1   2  2   
  2   2   3  am  
  3   2   4  1   
  4   3   5  1   
  5   3  24  1   
  6   4   6  1   
  7   4  25  1   
  8   4  26  1   
  9   5   7  1   
 10   5   8  1   
 11   5  27  1   
 12   6   9  1   
 13   6  28  1   
 14   6  29  1   
 15   7  10  ar  
 16   7  11  ar  
 17   8  12  1   
 18   8  30  1   
 19   8  31  1   
 20   9  13  1   
 21   9  32  1   
 22   9  33  1   
 23  10  14  ar  
 24  10  34  1   
 25  11  15  ar  
 26  11  35  1   
 27  12  16  1   
 28  12  17  1   
 29  12  18  1   
 30  13  19  1   
 31  13  20  1   
 32  14  21  ar  
 33  15  21  ar  
 34  15  36  1   
 35  16  37  1   
 36  16  38  1   
 37  16  39  1   
 38  17  40  1   
 39  17  41  1   
 40  17  42  1   
 41  18  43  1   
 42  18  44  1   
 43  18  45  1   
 44  19  22  2   
 45  20  23  2   
 46  20  46  1   
 47  21  47  1   
 48  22  23  1   
 49  22  48  1   
 50  23  49  1   
@<TRIPOS>SUBSTRUCTURE
  1 ****   3 GROUP 4 **** **** 0

# MOE 2024.06 (io_trps.svl 2023.06)
