@<TRIPOS>MOLECULE
NONAME
39 39 1 0 0 
SMALL
USER_CHARGES


@<TRIPOS>ATOM
  1 O        0.1220     0.5350     1.2200 O.co2 1 <1>  -0.9000 
  2 C       -0.6840     1.4000     1.5680 C.2   1 <1>   0.9060 
  3 O       -1.3100     1.3790     2.6260 O.co2 1 <1>  -0.9000 
  4 C       -0.8420     2.5970     0.6670 C.3   1 <1>  -0.2660 
  5 C        0.4210     3.4650     0.7370 C.3   1 <1>  -0.1600 
  6 C        0.3750     4.5790    -0.2980 C.3   1 <1>   0.3430 
  7 N        1.6220     5.3810    -0.2240 N.4   1 <1>  -0.9590 
  8 C        1.4590     6.7010    -0.8840 C.3   1 <1>   0.4860 
  9 C        2.8060     4.6330    -0.7070 C.3   1 <1>   0.4810 
 10 C        2.6510     7.5780    -0.5580 C.ar  1 <1>  -0.1440 
 11 C        3.8180     4.6750     0.4120 C.2   1 <1>  -0.2880 
 12 C        2.7900     8.1220     0.7110 C.ar  1 <1>  -0.1500 
 13 C        3.6160     7.8360    -1.5200 C.ar  1 <1>  -0.1500 
 14 C        4.0990     3.6590     1.2360 C.2   1 <1>  -0.3000 
 15 C        3.8910     8.9030     1.0150 C.ar  1 <1>  -0.1500 
 16 C        4.7150     8.6180    -1.2110 C.ar  1 <1>  -0.1500 
 17 C        4.8600     9.1510     0.0580 C.ar  1 <1>  -0.1440 
 18 C        6.0660    10.0100     0.3950 C.3   1 <1>  -0.0970 
 19 H       -1.7100     3.1460     0.9820 H     1 <1>   0.0800 
 20 H       -1.0020     2.2250    -0.3270 H     1 <1>   0.0800 
 21 H        1.2630     2.8190     0.5620 H     1 <1>   0.0800 
 22 H        0.5030     3.8710     1.7300 H     1 <1>   0.0800 
 23 H       -0.4800     5.2010    -0.0890 H     1 <1>   0.0800 
 24 H        0.2570     4.1560    -1.2820 H     1 <1>   0.0800 
 25 H        1.8250     5.5500     0.7690 H     1 <1>   0.4500 
 26 H        0.5640     7.1830    -0.5260 H     1 <1>   0.0800 
 27 H        1.3750     6.5770    -1.9510 H     1 <1>   0.0800 
 28 H        3.2130     5.0700    -1.6040 H     1 <1>   0.0800 
 29 H        2.5430     3.6070    -0.9100 H     1 <1>   0.0800 
 30 H        4.3150     5.6290     0.4900 H     1 <1>   0.1500 
 31 H        2.0520     7.9500     1.4750 H     1 <1>   0.1500 
 32 H        3.5300     7.4400    -2.5170 H     1 <1>   0.1500 
 33 H        4.8290     3.7120     2.0280 H     1 <1>   0.1500 
 34 H        3.6320     2.6860     1.2030 H     1 <1>   0.1500 
 35 H        3.9920     9.3230     2.0020 H     1 <1>   0.1500 
 36 H        5.4600     8.8140    -1.9630 H     1 <1>   0.1500 
 37 H        6.3200     9.9140     1.4350 H     1 <1>   0.0800 
 38 H        5.8480    11.0420     0.1860 H     1 <1>   0.0800 
 39 H        6.9180     9.7110    -0.1890 H     1 <1>   0.0800 
@<TRIPOS>BOND
  1   1   2  ar  
  2   2   3  ar  
  3   2   4  1   
  4   4   5  1   
  5   4  19  1   
  6   4  20  1   
  7   5   6  1   
  8   5  21  1   
  9   5  22  1   
 10   6   7  1   
 11   6  23  1   
 12   6  24  1   
 13   7   8  1   
 14   7   9  1   
 15   7  25  1   
 16   8  10  1   
 17   8  26  1   
 18   8  27  1   
 19   9  11  1   
 20   9  28  1   
 21   9  29  1   
 22  10  12  ar  
 23  10  13  ar  
 24  11  14  2   
 25  11  30  1   
 26  12  15  ar  
 27  12  31  1   
 28  13  16  ar  
 29  13  32  1   
 30  14  33  1   
 31  14  34  1   
 32  15  17  ar  
 33  15  35  1   
 34  16  17  ar  
 35  16  36  1   
 36  17  18  1   
 37  18  37  1   
 38  18  38  1   
 39  18  39  1   
@<TRIPOS>SUBSTRUCTURE
  1 ****   7 GROUP 4 **** **** 0

# MOE 2024.06 (io_trps.svl 2023.06)
