@<TRIPOS>MOLECULE
NONAME
57 60 1 0 0 
SMALL
USER_CHARGES


@<TRIPOS>ATOM
  1 O       -0.7350     0.2260     0.8270 O.2   1 <1>  -0.5700 
  2 C       -1.6100     0.7690     0.1930 C.2   1 <1>   0.5690 
  3 N       -2.6040     0.0500    -0.4120 N.am  1 <1>  -0.6600 
  4 C       -1.5510     2.3060     0.0870 C.3   1 <1>   0.4040 
  5 C       -3.8050     0.5790    -1.1140 C.3   1 <1>   0.1400 
  6 C       -2.7130    -1.4310    -0.2760 C.3   1 <1>   0.1400 
  7 N       -0.1870     2.8800     0.4040 N.4   1 <1>  -0.9590 
  8 C       -4.8570    -0.5140    -0.9370 C.3   1 <1>   0.2000 
  9 C       -4.0390    -1.8120    -0.9540 C.3   1 <1>  -0.0800 
 10 C       -0.2260     4.3410     0.6900 C.3   1 <1>   0.3430 
 11 C        0.8170     2.5200    -0.6390 C.3   1 <1>   0.3430 
 12 O       -5.4470    -0.3400     0.3060 O.3   1 <1>  -0.6800 
 13 C       -4.7530    -3.0260    -0.3190 C.3   1 <1>  -0.0170 
 14 C        1.1520     4.8090     1.1590 C.3   1 <1>  -0.1600 
 15 C        2.2070     2.9650    -0.1880 C.3   1 <1>  -0.1600 
 16 C       -4.0540    -4.3850    -0.4430 C.ar  1 <1>  -0.1440 
 17 C        2.2470     4.4650     0.1400 C.3   1 <1>  -0.0800 
 18 C       -4.5440    -5.4940     0.2930 C.ar  1 <1>   0.0000 
 19 C       -2.9710    -4.6100    -1.2470 C.ar  1 <1>  -0.1500 
 20 C        3.6260     4.8630     0.6750 C.3   1 <1>  -0.2400 
 21 C       -3.8640    -6.7310     0.1670 C.ar  1 <1>   0.3100 
 22 C       -5.6760    -5.4520     1.1430 C.ar  1 <1>  -0.1500 
 23 C       -2.3770    -5.8770    -1.3050 C.ar  1 <1>   0.1600 
 24 N       -2.7850    -6.9050    -0.6340 N.ar  1 <1>  -0.6200 
 25 C       -4.3230    -7.8410     0.8950 C.ar  1 <1>  -0.1500 
 26 C       -6.0990    -6.5530     1.8370 C.ar  1 <1>  -0.1500 
 27 C       -5.4140    -7.7640     1.7160 C.ar  1 <1>  -0.1500 
 28 H       -2.2720     2.7020     0.7800 H     1 <1>   0.0800 
 29 H       -1.8450     2.5970    -0.9060 H     1 <1>   0.0800 
 30 H       -4.1480     1.5150    -0.7080 H     1 <1>   0.0800 
 31 H       -3.5810     0.6940    -2.1610 H     1 <1>   0.0800 
 32 H       -1.8730    -1.9150    -0.7440 H     1 <1>   0.0800 
 33 H       -2.7280    -1.6920     0.7690 H     1 <1>   0.0800 
 34 H        0.1230     2.3840     1.2570 H     1 <1>   0.4500 
 35 H       -5.6280    -0.4820    -1.6880 H     1 <1>   0.0800 
 36 H       -3.8370    -2.0340    -1.9870 H     1 <1>   0.0800 
 37 H       -0.5030     4.8810    -0.2010 H     1 <1>   0.0800 
 38 H       -0.9540     4.5510     1.4570 H     1 <1>   0.0800 
 39 H        0.8210     1.4520    -0.7960 H     1 <1>   0.0800 
 40 H        0.5690     3.0030    -1.5710 H     1 <1>   0.0800 
 41 H       -4.7710    -0.4160     1.0070 H     1 <1>   0.4000 
 42 H       -5.7300    -3.1150    -0.7610 H     1 <1>   0.0800 
 43 H       -4.8930    -2.8190     0.7280 H     1 <1>   0.0800 
 44 H        1.1240     5.8750     1.3080 H     1 <1>   0.0800 
 45 H        1.3740     4.3580     2.1110 H     1 <1>   0.0800 
 46 H        2.5000     2.3870     0.6710 H     1 <1>   0.0800 
 47 H        2.9120     2.7510    -0.9740 H     1 <1>   0.0800 
 48 H        2.0660     5.0220    -0.7660 H     1 <1>   0.0800 
 49 H       -2.5320    -3.8500    -1.8620 H     1 <1>   0.1500 
 50 H        3.8570     4.3310     1.5820 H     1 <1>   0.0800 
 51 H        3.6590     5.9190     0.8810 H     1 <1>   0.0800 
 52 H        4.3890     4.6410    -0.0510 H     1 <1>   0.0800 
 53 H       -6.2280    -4.5380     1.2510 H     1 <1>   0.1500 
 54 H       -1.5250    -6.0050    -1.9500 H     1 <1>   0.1500 
 55 H       -3.7810    -8.7620     0.7830 H     1 <1>   0.1500 
 56 H       -6.9610    -6.5020     2.4810 H     1 <1>   0.1500 
 57 H       -5.7550    -8.6230     2.2680 H     1 <1>   0.1500 
@<TRIPOS>BOND
  1   1   2  2   
  2   2   3  am  
  3   2   4  1   
  4   3   5  1   
  5   3   6  1   
  6   4   7  1   
  7   4  28  1   
  8   4  29  1   
  9   5   8  1   
 10   5  30  1   
 11   5  31  1   
 12   6   9  1   
 13   6  32  1   
 14   6  33  1   
 15   7  10  1   
 16   7  11  1   
 17   7  34  1   
 18   8   9  1   
 19   8  12  1   
 20   8  35  1   
 21   9  13  1   
 22   9  36  1   
 23  10  14  1   
 24  10  37  1   
 25  10  38  1   
 26  11  15  1   
 27  11  39  1   
 28  11  40  1   
 29  12  41  1   
 30  13  16  1   
 31  13  42  1   
 32  13  43  1   
 33  14  17  1   
 34  14  44  1   
 35  14  45  1   
 36  15  17  1   
 37  15  46  1   
 38  15  47  1   
 39  16  18  ar  
 40  16  19  ar  
 41  17  20  1   
 42  17  48  1   
 43  18  21  ar  
 44  18  22  ar  
 45  19  23  ar  
 46  19  49  1   
 47  20  50  1   
 48  20  51  1   
 49  20  52  1   
 50  21  24  ar  
 51  21  25  ar  
 52  22  26  ar  
 53  22  53  1   
 54  23  24  ar  
 55  23  54  1   
 56  25  27  ar  
 57  25  55  1   
 58  26  27  ar  
 59  26  56  1   
 60  27  57  1   
@<TRIPOS>SUBSTRUCTURE
  1 ****   6 GROUP 4 **** **** 0

# MOE 2024.06 (io_trps.svl 2023.06)
