@<TRIPOS>MOLECULE
NONAME
55 56 1 0 0 
SMALL
USER_CHARGES


@<TRIPOS>ATOM
  1 O        3.3140    -1.4310     2.3380 O.2   1 <1>  -0.5700 
  2 C        2.4700    -1.4860     1.4770 C.2   1 <1>   0.5690 
  3 N        2.6210    -1.0970     0.1950 N.am  1 <1>  -0.6600 
  4 C        1.0670    -1.9630     1.7300 C.3   1 <1>  -0.0990 
  5 C        3.8470    -0.4500    -0.3650 C.3   1 <1>   0.2810 
  6 C        1.3680    -1.1610    -0.5770 C.3   1 <1>   0.1400 
  7 C        0.4110    -1.9370     0.3380 C.3   1 <1>  -0.1600 
  8 C        3.6050     1.0310    -0.7540 C.2   1 <1>   0.5690 
  9 C        4.3750    -1.3110    -1.5200 C.3   1 <1>  -0.2400 
 10 O        3.2520     1.2780    -1.8890 O.2   1 <1>  -0.5700 
 11 N        3.7810     2.0470     0.1590 N.am  1 <1>  -0.6600 
 12 C        4.1350     1.8280     1.5960 C.3   1 <1>   0.1400 
 13 C        3.8600     3.4630    -0.2790 C.3   1 <1>   0.1400 
 14 C        5.6400     1.5890     1.8220 C.3   1 <1>   0.1400 
 15 C        5.3010     3.8330    -0.6560 C.3   1 <1>  -0.1600 
 16 N        6.4990     2.1240     0.7160 N.am  1 <1>  -0.6600 
 17 C        6.3470     3.5820     0.4430 C.3   1 <1>   0.1400 
 18 C        7.2720     1.2810    -0.0490 C.2   1 <1>   0.5690 
 19 O        7.2690     0.0840     0.1300 O.2   1 <1>  -0.5700 
 20 C        8.1890     1.8060    -1.1600 C.3   1 <1>   0.2010 
 21 N        9.5060     2.2830    -0.6400 N.am  1 <1>  -0.7300 
 22 C        9.9470     3.5610    -0.6870 C.2   1 <1>   0.6900 
 23 O        9.2870     4.4050    -1.2660 O.2   1 <1>  -0.5700 
 24 N       11.1210     3.8870    -0.0560 N.am  1 <1>  -0.6600 
 25 C       11.5480     5.3060     0.0910 C.3   1 <1>   0.0600 
 26 C       12.1150     2.8870     0.4210 C.3   1 <1>   0.0600 
 27 H        0.5810    -1.2790     2.4020 H     1 <1>   0.0800 
 28 H        1.0770    -2.9510     2.1510 H     1 <1>   0.0800 
 29 H        4.6080    -0.4720     0.3900 H     1 <1>   0.0800 
 30 H        1.5180    -1.6730    -1.5120 H     1 <1>   0.0800 
 31 H        1.0060    -0.1630    -0.7620 H     1 <1>   0.0800 
 32 H       -0.5620    -1.4790     0.3590 H     1 <1>   0.0800 
 33 H        0.3110    -2.9420    -0.0350 H     1 <1>   0.0800 
 34 H        3.6850    -1.3160    -2.3440 H     1 <1>   0.0800 
 35 H        4.5460    -2.3160    -1.1820 H     1 <1>   0.0800 
 36 H        5.3090    -0.9050    -1.8640 H     1 <1>   0.0800 
 37 H        3.5780     1.0000     1.9910 H     1 <1>   0.0800 
 38 H        3.8360     2.6900     2.1660 H     1 <1>   0.0800 
 39 H        3.5060     4.1070     0.5070 H     1 <1>   0.0800 
 40 H        3.2200     3.6140    -1.1330 H     1 <1>   0.0800 
 41 H        5.8010     0.5320     1.9410 H     1 <1>   0.0800 
 42 H        5.9340     2.0450     2.7500 H     1 <1>   0.0800 
 43 H        5.3200     4.8790    -0.9010 H     1 <1>   0.0800 
 44 H        5.5710     3.3020    -1.5500 H     1 <1>   0.0800 
 45 H        6.0570     4.0910     1.3460 H     1 <1>   0.0800 
 46 H        7.2920     3.9940     0.1400 H     1 <1>   0.0800 
 47 H        7.6970     2.5900    -1.7030 H     1 <1>   0.0800 
 48 H        8.3680     1.0030    -1.8530 H     1 <1>   0.0800 
 49 H        9.9670     1.6560     0.0140 H     1 <1>   0.3700 
 50 H       10.7290     5.9750    -0.1130 H     1 <1>   0.0800 
 51 H       12.3450     5.5170    -0.6000 H     1 <1>   0.0800 
 52 H       11.8890     5.4830     1.0960 H     1 <1>   0.0800 
 53 H       12.0040     1.9570    -0.1080 H     1 <1>   0.0800 
 54 H       11.9800     2.7180     1.4750 H     1 <1>   0.0800 
 55 H       13.1120     3.2520     0.2480 H     1 <1>   0.0800 
@<TRIPOS>BOND
  1   1   2  2   
  2   2   3  am  
  3   2   4  1   
  4   3   5  1   
  5   3   6  1   
  6   4   7  1   
  7   4  27  1   
  8   4  28  1   
  9   5   8  1   
 10   5   9  1   
 11   5  29  1   
 12   6   7  1   
 13   6  30  1   
 14   6  31  1   
 15   7  32  1   
 16   7  33  1   
 17   8  10  2   
 18   8  11  am  
 19   9  34  1   
 20   9  35  1   
 21   9  36  1   
 22  11  12  1   
 23  11  13  1   
 24  12  14  1   
 25  12  37  1   
 26  12  38  1   
 27  13  15  1   
 28  13  39  1   
 29  13  40  1   
 30  14  16  1   
 31  14  41  1   
 32  14  42  1   
 33  15  17  1   
 34  15  43  1   
 35  15  44  1   
 36  16  17  1   
 37  16  18  am  
 38  17  45  1   
 39  17  46  1   
 40  18  19  2   
 41  18  20  1   
 42  20  21  1   
 43  20  47  1   
 44  20  48  1   
 45  21  22  am  
 46  21  49  1   
 47  22  23  2   
 48  22  24  am  
 49  24  25  1   
 50  24  26  1   
 51  25  50  1   
 52  25  51  1   
 53  25  52  1   
 54  26  53  1   
 55  26  54  1   
 56  26  55  1   
@<TRIPOS>SUBSTRUCTURE
  1 ****  16 GROUP 4 **** **** 0

# MOE 2024.06 (io_trps.svl 2023.06)
