@<TRIPOS>MOLECULE
NONAME
33 35 1 0 0 
SMALL
USER_CHARGES


@<TRIPOS>ATOM
  1 S       -0.4300     0.3070    -0.4150 S.3   1 <1>  -0.0800 
  2 C       -0.4710    -1.3540     0.1710 C.2   1 <1>   0.4620 
  3 C        1.2360     0.4210     0.0800 C.2   1 <1>  -0.1100 
  4 N        0.6430    -1.7520     0.6710 N.2   1 <1>  -0.5650 
  5 N       -1.6330    -2.0780     0.0610 N.pl3 1 <1>  -0.8220 
  6 C        1.5970    -0.7530     0.6190 C.2   1 <1>   0.0770 
  7 C       -2.7870    -1.6860    -0.7860 C.3   1 <1>   0.2090 
  8 C       -1.6710    -3.5300     0.3570 C.3   1 <1>   0.2090 
  9 C       -3.7670    -2.8510    -0.6400 C.3   1 <1>   0.2000 
 10 C       -2.8520    -4.0690    -0.4590 C.3   1 <1>  -0.0800 
 11 O       -4.5020    -2.6530     0.5200 O.3   1 <1>  -0.6800 
 12 C       -3.5280    -5.3040     0.1650 C.3   1 <1>   0.0200 
 13 C       -2.6240    -6.5250     0.1940 C.2   1 <1>  -0.0400 
 14 O       -3.0320    -7.5920     0.8280 O.3   1 <1>  -0.0190 
 15 C       -1.4110    -6.7950    -0.3170 C.2   1 <1>  -0.1500 
 16 N       -2.1600    -8.5570     0.7730 N.2   1 <1>  -0.4100 
 17 C       -1.1720    -8.1050     0.0890 C.2   1 <1>   0.1080 
 18 C        0.0770    -8.8970    -0.2260 C.3   1 <1>  -0.0590 
 19 H        1.7540     1.3470    -0.0860 H     1 <1>   0.1500 
 20 H        2.5720    -0.9780     1.0160 H     1 <1>   0.1500 
 21 H       -3.2230    -0.7550    -0.4640 H     1 <1>   0.0800 
 22 H       -2.4620    -1.6010    -1.8090 H     1 <1>   0.0800 
 23 H       -0.7440    -4.0030     0.0800 H     1 <1>   0.0800 
 24 H       -1.8360    -3.6650     1.4130 H     1 <1>   0.0800 
 25 H       -4.4470    -2.9420    -1.4690 H     1 <1>   0.0800 
 26 H       -2.4790    -4.3380    -1.4320 H     1 <1>   0.0800 
 27 H       -3.8860    -2.3570     1.2230 H     1 <1>   0.4000 
 28 H       -4.4120    -5.5490    -0.3970 H     1 <1>   0.0800 
 29 H       -3.8350    -5.0850     1.1720 H     1 <1>   0.0800 
 30 H       -0.7470    -6.1880    -0.9030 H     1 <1>   0.1500 
 31 H        0.9450    -8.3590     0.1100 H     1 <1>   0.0800 
 32 H        0.1470    -9.0600    -1.2850 H     1 <1>   0.0800 
 33 H        0.0430    -9.8490     0.2720 H     1 <1>   0.0800 
@<TRIPOS>BOND
  1   1   2  1   
  2   1   3  1   
  3   2   4  2   
  4   2   5  1   
  5   3   6  2   
  6   3  19  1   
  7   4   6  1   
  8   5   7  1   
  9   5   8  1   
 10   6  20  1   
 11   7   9  1   
 12   7  21  1   
 13   7  22  1   
 14   8  10  1   
 15   8  23  1   
 16   8  24  1   
 17   9  10  1   
 18   9  11  1   
 19   9  25  1   
 20  10  12  1   
 21  10  26  1   
 22  11  27  1   
 23  12  13  1   
 24  12  28  1   
 25  12  29  1   
 26  13  14  1   
 27  13  15  2   
 28  14  16  1   
 29  15  17  1   
 30  15  30  1   
 31  16  17  2   
 32  17  18  1   
 33  18  31  1   
 34  18  32  1   
 35  18  33  1   
@<TRIPOS>SUBSTRUCTURE
  1 ****   8 GROUP 4 **** **** 0

# MOE 2024.06 (io_trps.svl 2023.06)
