@<TRIPOS>MOLECULE
NONAME
49 51 1 0 0 
SMALL
USER_CHARGES


@<TRIPOS>ATOM
  1 S       -0.5960    -4.0400     1.6030 S.3   1 <1>  -0.0800 
  2 C       -1.6340    -3.1290     0.4990 C.2   1 <1>  -0.0450 
  3 C        0.7680    -2.9840     1.3130 C.2   1 <1>  -0.1100 
  4 C       -2.9950    -3.5640     0.3070 C.2   1 <1>   0.7150 
  5 C       -0.9130    -2.0990    -0.0170 C.2   1 <1>  -0.1500 
  6 C        0.4360    -2.0180     0.4390 C.2   1 <1>  -0.1500 
  7 O       -3.4540    -4.5120     0.9160 O.2   1 <1>  -0.5700 
  8 N       -3.7820    -2.9060    -0.5940 N.am  1 <1>  -0.7300 
  9 C       -5.2040    -3.1440    -0.9780 C.3   1 <1>   0.3610 
 10 C       -5.4390    -4.5190    -1.6900 C.2   1 <1>   0.5690 
 11 C       -5.5500    -1.9680    -1.9050 C.3   1 <1>  -0.2400 
 12 C       -6.0830    -3.0230     0.2760 C.3   1 <1>  -0.2400 
 13 O       -6.0940    -4.5760    -2.7070 O.2   1 <1>  -0.5700 
 14 N       -4.9100    -5.6510    -1.1560 N.am  1 <1>  -0.7300 
 15 C       -5.0140    -7.0170    -1.7080 C.3   1 <1>   0.2200 
 16 C       -5.3980    -7.9750    -0.5920 C.3   1 <1>  -0.0800 
 17 C       -3.6280    -7.5200    -2.1220 C.3   1 <1>   0.1200 
 18 C       -4.0290    -8.3040    -0.0010 C.3   1 <1>   0.1200 
 19 C       -6.1080    -9.2230    -1.1500 C.3   1 <1>  -0.0170 
 20 O       -3.1490    -8.3250    -1.0820 O.3   1 <1>  -0.5600 
 21 C       -6.4930   -10.1940    -0.0440 C.ar  1 <1>  -0.1440 
 22 C       -7.5910    -9.9800     0.7640 C.ar  1 <1>  -0.1500 
 23 C       -5.7680   -11.3420     0.2060 C.ar  1 <1>  -0.1500 
 24 C       -7.9010   -10.8960     1.7560 C.ar  1 <1>   0.1600 
 25 C       -6.1630   -12.1930     1.2240 C.ar  1 <1>   0.1600 
 26 N       -7.2130   -11.9980     2.0060 N.ar  1 <1>  -0.6200 
 27 H        1.6850    -3.2010     1.8330 H     1 <1>   0.1500 
 28 H       -1.2850    -1.3730    -0.7180 H     1 <1>   0.1500 
 29 H        1.0960    -1.2410     0.0940 H     1 <1>   0.1500 
 30 H       -3.3390    -2.1790    -1.1490 H     1 <1>   0.3700 
 31 H       -6.5860    -2.0210    -2.1920 H     1 <1>   0.0800 
 32 H       -4.9610    -2.0150    -2.8040 H     1 <1>   0.0800 
 33 H       -5.3870    -1.0250    -1.4150 H     1 <1>   0.0800 
 34 H       -7.1210    -3.0580    -0.0030 H     1 <1>   0.0800 
 35 H       -5.8960    -2.0970     0.7880 H     1 <1>   0.0800 
 36 H       -5.9030    -3.8400     0.9510 H     1 <1>   0.0800 
 37 H       -4.3310    -5.5550    -0.3070 H     1 <1>   0.3700 
 38 H       -5.7060    -7.0310    -2.5330 H     1 <1>   0.0800 
 39 H       -6.0340    -7.5020     0.1360 H     1 <1>   0.0800 
 40 H       -2.9370    -6.7130    -2.2930 H     1 <1>   0.0800 
 41 H       -3.6940    -8.1360    -3.0010 H     1 <1>   0.0800 
 42 H       -3.9940    -9.2510     0.5070 H     1 <1>   0.0800 
 43 H       -3.7040    -7.5250     0.6690 H     1 <1>   0.0800 
 44 H       -5.4730    -9.7230    -1.8610 H     1 <1>   0.0800 
 45 H       -7.0010    -8.9230    -1.6700 H     1 <1>   0.0800 
 46 H       -8.2080    -9.1100     0.6320 H     1 <1>   0.1500 
 47 H       -4.8980   -11.5800    -0.3790 H     1 <1>   0.1500 
 48 H       -8.7610   -10.7110     2.3770 H     1 <1>   0.1500 
 49 H       -5.5840   -13.0830     1.4050 H     1 <1>   0.1500 
@<TRIPOS>BOND
  1   1   2  1   
  2   1   3  1   
  3   2   4  1   
  4   2   5  2   
  5   3   6  2   
  6   3  27  1   
  7   4   7  2   
  8   4   8  am  
  9   5   6  1   
 10   5  28  1   
 11   6  29  1   
 12   8   9  1   
 13   8  30  1   
 14   9  10  1   
 15   9  11  1   
 16   9  12  1   
 17  10  13  2   
 18  10  14  am  
 19  11  31  1   
 20  11  32  1   
 21  11  33  1   
 22  12  34  1   
 23  12  35  1   
 24  12  36  1   
 25  14  15  1   
 26  14  37  1   
 27  15  16  1   
 28  15  17  1   
 29  15  38  1   
 30  16  18  1   
 31  16  19  1   
 32  16  39  1   
 33  17  20  1   
 34  17  40  1   
 35  17  41  1   
 36  18  20  1   
 37  18  42  1   
 38  18  43  1   
 39  19  21  1   
 40  19  44  1   
 41  19  45  1   
 42  21  22  ar  
 43  21  23  ar  
 44  22  24  ar  
 45  22  46  1   
 46  23  25  ar  
 47  23  47  1   
 48  24  26  ar  
 49  24  48  1   
 50  25  26  ar  
 51  25  49  1   
@<TRIPOS>SUBSTRUCTURE
  1 ****  14 GROUP 4 **** **** 0

# MOE 2024.06 (io_trps.svl 2023.06)
