@<TRIPOS>MOLECULE
NONAME
44 45 1 0 0 
SMALL
USER_CHARGES


@<TRIPOS>ATOM
  1 S        0.3220     0.0470     0.5160 S.o2  1 <1>   1.3330 
  2 O        1.6870     0.1250     0.9830 O.2   1 <1>  -0.6500 
  3 O       -0.7640     0.0670     1.4700 O.2   1 <1>  -0.6500 
  4 N        0.1740    -1.3490    -0.4390 N.am  1 <1>  -0.8490 
  5 C        0.0320     1.3670    -0.6590 C.3   1 <1>  -0.0550 
  6 C        1.4090    -1.7070    -1.1440 C.3   1 <1>   0.1160 
  7 C       -0.3130    -2.4990     0.3290 C.3   1 <1>   0.1160 
  8 C        0.0040     2.7590    -0.0050 C.3   1 <1>  -0.0800 
  9 C       -0.3480     3.8610    -0.9980 C.3   1 <1>   0.2000 
 10 C        1.3460     3.2070     0.5830 C.3   1 <1>   0.1400 
 11 O       -1.7210     3.9310    -1.1650 O.3   1 <1>  -0.6800 
 12 C        0.2200     5.1420    -0.3930 C.3   1 <1>   0.1400 
 13 N        1.3570     4.6850     0.4440 N.am  1 <1>  -0.6600 
 14 C        2.4890     5.4330     0.6790 C.2   1 <1>   0.7160 
 15 O        3.5140     4.8530     0.9840 O.2   1 <1>  -0.5700 
 16 C        2.4770     6.8730     0.5490 C.2   1 <1>  -0.0860 
 17 C        3.4180     7.7050     0.0210 C.2   1 <1>  -0.0400 
 18 C        1.4500     7.7460     0.9680 C.2   1 <1>  -0.1500 
 19 O        3.0310     8.9560     0.0800 O.3   1 <1>  -0.2800 
 20 C        4.7710     7.4070    -0.5930 C.3   1 <1>  -0.0600 
 21 C        1.8490     8.9920     0.6500 C.2   1 <1>  -0.0400 
 22 C        1.1820    10.3350     0.8490 C.3   1 <1>  -0.0600 
 23 H        0.7880     1.3440    -1.4190 H     1 <1>   0.0800 
 24 H       -0.9150     1.1970    -1.1330 H     1 <1>   0.0800 
 25 H        1.2320    -2.5410    -1.8010 H     1 <1>   0.0800 
 26 H        2.1820    -1.9720    -0.4410 H     1 <1>   0.0800 
 27 H        1.7530    -0.8760    -1.7360 H     1 <1>   0.0800 
 28 H       -0.4110    -3.3600    -0.3100 H     1 <1>   0.0800 
 29 H       -1.2810    -2.2810     0.7470 H     1 <1>   0.0800 
 30 H        0.3670    -2.7280     1.1330 H     1 <1>   0.0800 
 31 H       -0.7130     2.7620     0.7990 H     1 <1>   0.0800 
 32 H        0.1030     3.6840    -1.9600 H     1 <1>   0.0800 
 33 H        2.1720     2.7950     0.0270 H     1 <1>   0.0800 
 34 H        1.4430     2.9220     1.6180 H     1 <1>   0.0800 
 35 H       -2.1710     4.0150    -0.3020 H     1 <1>   0.4000 
 36 H       -0.5100     5.6220     0.2350 H     1 <1>   0.0800 
 37 H        0.5540     5.8160    -1.1630 H     1 <1>   0.0800 
 38 H        0.5420     7.4390     1.4540 H     1 <1>   0.1500 
 39 H        4.9610     6.3500    -0.6070 H     1 <1>   0.0800 
 40 H        5.5400     7.8890    -0.0180 H     1 <1>   0.0800 
 41 H        4.8020     7.7810    -1.6000 H     1 <1>   0.0800 
 42 H        0.2290    10.2110     1.3280 H     1 <1>   0.0800 
 43 H        1.0390    10.8130    -0.1040 H     1 <1>   0.0800 
 44 H        1.8050    10.9600     1.4620 H     1 <1>   0.0800 
@<TRIPOS>BOND
  1   1   2  2   
  2   1   3  2   
  3   1   4  am  
  4   1   5  1   
  5   4   6  1   
  6   4   7  1   
  7   5   8  1   
  8   5  23  1   
  9   5  24  1   
 10   6  25  1   
 11   6  26  1   
 12   6  27  1   
 13   7  28  1   
 14   7  29  1   
 15   7  30  1   
 16   8   9  1   
 17   8  10  1   
 18   8  31  1   
 19   9  11  1   
 20   9  12  1   
 21   9  32  1   
 22  10  13  1   
 23  10  33  1   
 24  10  34  1   
 25  11  35  1   
 26  12  13  1   
 27  12  36  1   
 28  12  37  1   
 29  13  14  am  
 30  14  15  2   
 31  14  16  1   
 32  16  17  2   
 33  16  18  1   
 34  17  19  1   
 35  17  20  1   
 36  18  21  2   
 37  18  38  1   
 38  19  21  1   
 39  20  39  1   
 40  20  40  1   
 41  20  41  1   
 42  21  22  1   
 43  22  42  1   
 44  22  43  1   
 45  22  44  1   
@<TRIPOS>SUBSTRUCTURE
  1 ****  13 GROUP 4 **** **** 0

# MOE 2024.06 (io_trps.svl 2023.06)
