@<TRIPOS>MOLECULE
NONAME
59 61 1 0 0 
SMALL
USER_CHARGES


@<TRIPOS>ATOM
  1 O       -0.0740     1.4160     2.3390 O.2   1 <1>  -0.5700 
  2 C        0.2300     2.3950     1.6830 C.2   1 <1>   0.5440 
  3 N       -0.7500     3.0770     0.9910 N.am  1 <1>  -0.6600 
  4 C        1.6170     2.8200     1.6400 C.ar  1 <1>   0.0860 
  5 C       -2.1990     2.7390     1.1270 C.3   1 <1>   0.1400 
  6 C       -0.4710     4.1510    -0.0010 C.3   1 <1>   0.1400 
  7 C        2.6070     2.1380     0.9190 C.ar  1 <1>  -0.1440 
  8 C        1.9780     3.9670     2.3440 C.ar  1 <1>  -0.1500 
  9 C       -2.8020     2.2940    -0.2290 C.3   1 <1>   0.0000 
 10 C       -1.0350     3.7480    -1.3680 C.3   1 <1>  -0.1600 
 11 C        3.9250     2.6010     0.9190 C.ar  1 <1>   0.1170 
 12 C        2.2430     0.8780     0.1250 C.3   1 <1>  -0.0960 
 13 C        3.2760     4.4360     2.3380 C.ar  1 <1>  -0.1500 
 14 C       -4.3080     1.9770    -0.1230 C.3   1 <1>   0.2000 
 15 C       -2.5280     3.3830    -1.2900 C.3   1 <1>  -0.1600 
 16 C       -2.2310     0.9260    -0.6440 C.3   1 <1>  -0.1600 
 17 N        4.9230     1.8890     0.2340 N.am  1 <1>  -0.5470 
 18 C        4.2420     3.7530     1.6300 C.ar  1 <1>  -0.1500 
 19 O       -4.9830     2.8220     0.7420 O.3   1 <1>  -0.6800 
 20 C       -4.4260     0.5290     0.3580 C.3   1 <1>  -0.1600 
 21 C       -3.0500    -0.1090     0.1300 C.3   1 <1>  -0.1600 
 22 C        6.0520     2.3190    -0.4120 C.2   1 <1>   0.5690 
 23 O        6.3460     3.4890    -0.4900 O.2   1 <1>  -0.5700 
 24 C        6.9560     1.2420    -1.0660 C.3   1 <1>   0.0610 
 25 C        6.1610     0.4350    -2.1110 C.3   1 <1>  -0.2400 
 26 C        8.1700     1.8700    -1.7820 C.3   1 <1>  -0.2400 
 27 C        7.4920     0.2710     0.0040 C.3   1 <1>  -0.2400 
 28 H       -2.3400     1.9700     1.8660 H     1 <1>   0.0800 
 29 H       -2.7080     3.6200     1.4760 H     1 <1>   0.0800 
 30 H       -0.9400     5.0610     0.3310 H     1 <1>   0.0800 
 31 H        0.5850     4.3330    -0.0930 H     1 <1>   0.0800 
 32 H        1.2240     4.4930     2.9020 H     1 <1>   0.1500 
 33 H       -0.9020     4.5640    -2.0570 H     1 <1>   0.0800 
 34 H       -0.4710     2.9130    -1.7440 H     1 <1>   0.0800 
 35 H        1.1930     0.8340    -0.0960 H     1 <1>   0.0800 
 36 H        2.5000     0.0040     0.6960 H     1 <1>   0.0800 
 37 H        2.7600     0.8540    -0.8160 H     1 <1>   0.0800 
 38 H        3.5370     5.3250     2.8860 H     1 <1>   0.1500 
 39 H       -4.7660     2.0690    -1.0940 H     1 <1>   0.0800 
 40 H       -2.8700     3.0570    -2.2560 H     1 <1>   0.0800 
 41 H       -3.0890     4.2660    -1.0300 H     1 <1>   0.0800 
 42 H       -2.3860     0.7720    -1.6980 H     1 <1>   0.0800 
 43 H       -1.1810     0.8300    -0.4360 H     1 <1>   0.0800 
 44 H        4.7520     0.8900     0.1640 H     1 <1>   0.3700 
 45 H        5.2530     4.1170     1.6350 H     1 <1>   0.1500 
 46 H       -4.7440     2.6110     1.6630 H     1 <1>   0.4000 
 47 H       -4.6840     0.4730     1.4010 H     1 <1>   0.0800 
 48 H       -5.1750     0.0180    -0.2210 H     1 <1>   0.0800 
 49 H       -2.5770    -0.2990     1.0800 H     1 <1>   0.0800 
 50 H       -3.1220    -1.0370    -0.4110 H     1 <1>   0.0800 
 51 H        6.7960    -0.2840    -2.5990 H     1 <1>   0.0800 
 52 H        5.7610     1.0960    -2.8610 H     1 <1>   0.0800 
 53 H        5.3440    -0.0960    -1.6570 H     1 <1>   0.0800 
 54 H        8.7900     1.1150    -2.2320 H     1 <1>   0.0800 
 55 H        8.7670     2.4300    -1.0840 H     1 <1>   0.0800 
 56 H        7.8410     2.5460    -2.5530 H     1 <1>   0.0800 
 57 H        8.1450    -0.4600    -0.4380 H     1 <1>   0.0800 
 58 H        6.6890    -0.2480     0.4960 H     1 <1>   0.0800 
 59 H        8.0470     0.8150     0.7490 H     1 <1>   0.0800 
@<TRIPOS>BOND
  1   1   2  2   
  2   2   3  am  
  3   2   4  1   
  4   3   5  1   
  5   3   6  1   
  6   4   7  ar  
  7   4   8  ar  
  8   5   9  1   
  9   5  28  1   
 10   5  29  1   
 11   6  10  1   
 12   6  30  1   
 13   6  31  1   
 14   7  11  ar  
 15   7  12  1   
 16   8  13  ar  
 17   8  32  1   
 18   9  14  1   
 19   9  15  1   
 20   9  16  1   
 21  10  15  1   
 22  10  33  1   
 23  10  34  1   
 24  11  17  1   
 25  11  18  ar  
 26  12  35  1   
 27  12  36  1   
 28  12  37  1   
 29  13  18  ar  
 30  13  38  1   
 31  14  19  1   
 32  14  20  1   
 33  14  39  1   
 34  15  40  1   
 35  15  41  1   
 36  16  21  1   
 37  16  42  1   
 38  16  43  1   
 39  17  22  am  
 40  17  44  1   
 41  18  45  1   
 42  19  46  1   
 43  20  21  1   
 44  20  47  1   
 45  20  48  1   
 46  21  49  1   
 47  21  50  1   
 48  22  23  2   
 49  22  24  1   
 50  24  25  1   
 51  24  26  1   
 52  24  27  1   
 53  25  51  1   
 54  25  52  1   
 55  25  53  1   
 56  26  54  1   
 57  26  55  1   
 58  26  56  1   
 59  27  57  1   
 60  27  58  1   
 61  27  59  1   
@<TRIPOS>SUBSTRUCTURE
  1 ****   7 GROUP 4 **** **** 0

# MOE 2024.06 (io_trps.svl 2023.06)
