@<TRIPOS>MOLECULE
NONAME
48 50 1 0 0 
SMALL
USER_CHARGES


@<TRIPOS>ATOM
  1 CL       2.0230     1.0690    -2.3100 Cl    1 <1>  -0.1770 
  2 C        0.9000     1.9270    -1.2780 C.ar  1 <1>   0.1770 
  3 C        1.2720     2.3940    -0.0200 C.ar  1 <1>  -0.1440 
  4 C       -0.3760     2.1250    -1.7740 C.ar  1 <1>  -0.1500 
  5 C        0.3210     3.0780     0.7270 C.ar  1 <1>  -0.1500 
  6 C        2.6660     2.1900     0.5760 C.3   1 <1>   0.3640 
  7 C       -1.3110     2.8040    -1.0140 C.ar  1 <1>  -0.1500 
  8 C       -0.9580     3.2810     0.2360 C.ar  1 <1>  -0.1500 
  9 N        2.9070     0.7330     0.7130 N.am  1 <1>  -0.7300 
 10 C        3.7850     2.9310    -0.2120 C.3   1 <1>   0.2610 
 11 C        4.0110     0.1090     0.2500 C.2   1 <1>   0.5690 
 12 O        5.0530     2.2930    -0.0680 O.3   1 <1>  -0.5600 
 13 C        3.8690     4.3890     0.2580 C.2   1 <1>   0.5690 
 14 O        4.1510    -1.0800     0.3840 O.2   1 <1>  -0.5700 
 15 C        5.0760     0.9400    -0.4660 C.3   1 <1>   0.1810 
 16 O        2.8610     5.0510     0.3410 O.2   1 <1>  -0.5700 
 17 N        5.0840     4.9070     0.5850 N.am  1 <1>  -0.7300 
 18 C        5.3510     6.2920     1.0190 C.3   1 <1>   0.1400 
 19 C        6.5870     6.8140     0.2900 C.3   1 <1>  -0.1600 
 20 C        6.9040     8.2440     0.7270 C.3   1 <1>   0.1400 
 21 N        8.0860     8.7450    -0.0080 N.am  1 <1>  -0.6600 
 22 C        8.0610     9.7040    -0.9620 C.2   1 <1>   0.5690 
 23 C        9.4480     8.2780     0.2970 C.3   1 <1>   0.1400 
 24 O        7.0790    10.2720    -1.3740 O.2   1 <1>  -0.5700 
 25 C        9.4480     9.9950    -1.4620 C.3   1 <1>  -0.0990 
 26 C       10.3570     9.2490    -0.4710 C.3   1 <1>  -0.1600 
 27 H       -0.6330     1.7500    -2.7490 H     1 <1>   0.1500 
 28 H        0.5680     3.4690     1.7000 H     1 <1>   0.1500 
 29 H        2.6650     2.5960     1.5730 H     1 <1>   0.0800 
 30 H       -2.3060     2.9630    -1.3930 H     1 <1>   0.1500 
 31 H       -1.6810     3.8160     0.8280 H     1 <1>   0.1500 
 32 H        2.1720     0.1680     1.1410 H     1 <1>   0.3700 
 33 H        3.5520     2.9470    -1.2590 H     1 <1>   0.0800 
 34 H        4.9210     0.8900    -1.5290 H     1 <1>   0.0800 
 35 H        6.0490     0.5450    -0.2370 H     1 <1>   0.0800 
 36 H        5.8860     4.2710     0.5240 H     1 <1>   0.3700 
 37 H        4.5000     6.9150     0.7960 H     1 <1>   0.0800 
 38 H        5.5130     6.3010     2.0840 H     1 <1>   0.0800 
 39 H        6.3990     6.8080    -0.7690 H     1 <1>   0.0800 
 40 H        7.4250     6.1780     0.5110 H     1 <1>   0.0800 
 41 H        7.1010     8.2840     1.7850 H     1 <1>   0.0800 
 42 H        6.0610     8.8820     0.5170 H     1 <1>   0.0800 
 43 H        9.6380     8.3180     1.3570 H     1 <1>   0.0800 
 44 H        9.5730     7.2710    -0.0630 H     1 <1>   0.0800 
 45 H        9.5470     9.6000    -2.4560 H     1 <1>   0.0800 
 46 H        9.6350    11.0530    -1.4640 H     1 <1>   0.0800 
 47 H       10.7850     9.9490     0.2250 H     1 <1>   0.0800 
 48 H       11.1550     8.7280    -0.9700 H     1 <1>   0.0800 
@<TRIPOS>BOND
  1   1   2  1   
  2   2   3  ar  
  3   2   4  ar  
  4   3   5  ar  
  5   3   6  1   
  6   4   7  ar  
  7   4  27  1   
  8   5   8  ar  
  9   5  28  1   
 10   6   9  1   
 11   6  10  1   
 12   6  29  1   
 13   7   8  ar  
 14   7  30  1   
 15   8  31  1   
 16   9  11  am  
 17   9  32  1   
 18  10  12  1   
 19  10  13  1   
 20  10  33  1   
 21  11  14  2   
 22  11  15  1   
 23  12  15  1   
 24  13  16  2   
 25  13  17  am  
 26  15  34  1   
 27  15  35  1   
 28  17  18  1   
 29  17  36  1   
 30  18  19  1   
 31  18  37  1   
 32  18  38  1   
 33  19  20  1   
 34  19  39  1   
 35  19  40  1   
 36  20  21  1   
 37  20  41  1   
 38  20  42  1   
 39  21  22  am  
 40  21  23  1   
 41  22  24  2   
 42  22  25  1   
 43  23  26  1   
 44  23  43  1   
 45  23  44  1   
 46  25  26  1   
 47  25  45  1   
 48  25  46  1   
 49  26  47  1   
 50  26  48  1   
@<TRIPOS>SUBSTRUCTURE
  1 ****  13 GROUP 4 **** **** 0

# MOE 2024.06 (io_trps.svl 2023.06)
