@<TRIPOS>MOLECULE
NONAME
45 47 1 0 0 
SMALL
USER_CHARGES


@<TRIPOS>ATOM
  1 O       -2.1510     0.8070    -3.0730 O.2   1 <1>  -0.5700 
  2 C       -2.3690     1.6860    -2.2690 C.2   1 <1>   0.9370 
  3 N       -3.4130     1.5350    -1.3460 N.pl3 1 <1>  -0.5760 
  4 C       -1.5770     2.8580    -2.2490 C.2   1 <1>  -0.1360 
  5 C       -3.6710     2.5320    -0.4550 C.cat 1 <1>   0.7390 
  6 C       -4.1700     0.3880    -1.3210 C.2   1 <1>   0.1910 
  7 C       -1.8550     3.8370    -1.3730 C.2   1 <1>   0.2030 
  8 N       -2.9230     3.6550    -0.5260 N.pl3 1 <1>  -0.6450 
  9 C       -4.6940     2.3680     0.5060 C.2   1 <1>  -0.1680 
 10 C       -5.1710     0.2160    -0.4100 C.2   1 <1>  -0.1500 
 11 C       -1.0580     5.1320    -1.2220 C.3   1 <1>   0.2480 
 12 C       -5.4420     1.2180     0.5250 C.2   1 <1>  -0.1500 
 13 C       -4.9950     3.4450     1.5470 C.3   1 <1>  -0.1020 
 14 N       -0.5460     5.2290     0.1620 N.3   1 <1>  -0.8100 
 15 C       -0.4140     6.6230     0.6370 C.3   1 <1>   0.1100 
 16 C        0.6780     4.4390     0.3590 C.3   1 <1>   0.1100 
 17 C       -1.6490     7.0560     1.4390 C.3   1 <1>   0.0960 
 18 C        0.7580     3.9880     1.8150 C.3   1 <1>  -0.2400 
 19 N       -2.8430     7.2080     0.5850 N.pl3 1 <1>   0.3140 
 20 N       -3.7660     6.2330     0.4180 N.2   1 <1>  -0.7070 
 21 C       -3.1670     8.3080    -0.1220 C.2   1 <1>  -0.3020 
 22 C       -4.6570     6.7550    -0.3740 C.2   1 <1>   0.1390 
 23 C       -4.3320     8.0500    -0.7510 C.2   1 <1>  -0.1500 
 24 H       -0.7670     2.9050    -2.9510 H     1 <1>   0.1500 
 25 H       -3.9610    -0.3910    -2.0420 H     1 <1>   0.1500 
 26 H       -3.1520     4.4510     0.1040 H     1 <1>   0.4500 
 27 H       -5.7590    -0.6860    -0.3980 H     1 <1>   0.1500 
 28 H       -1.7140     5.9570    -1.4390 H     1 <1>   0.0800 
 29 H       -0.2410     5.1680    -1.9230 H     1 <1>   0.0800 
 30 H       -6.2330     1.0630     1.2430 H     1 <1>   0.1500 
 31 H       -4.0880     3.8130     1.9960 H     1 <1>   0.0800 
 32 H       -5.6140     3.0550     2.3370 H     1 <1>   0.0800 
 33 H       -5.5200     4.2660     1.0920 H     1 <1>   0.0800 
 34 H       -0.2420     7.2970    -0.1860 H     1 <1>   0.0800 
 35 H        0.4360     6.7040     1.2930 H     1 <1>   0.0800 
 36 H        1.5490     5.0160     0.0900 H     1 <1>   0.0800 
 37 H        0.6560     3.5580    -0.2600 H     1 <1>   0.0800 
 38 H       -1.4570     8.0010     1.9120 H     1 <1>   0.0800 
 39 H       -1.8570     6.3320     2.2050 H     1 <1>   0.0800 
 40 H        0.8550     4.8260     2.4790 H     1 <1>   0.0800 
 41 H        1.6170     3.3550     1.9480 H     1 <1>   0.0800 
 42 H       -0.1200     3.4260     2.0770 H     1 <1>   0.0800 
 43 H       -2.5700     9.2020    -0.1360 H     1 <1>   0.1500 
 44 H       -5.5470     6.2420    -0.7010 H     1 <1>   0.1500 
 45 H       -4.9080     8.6880    -1.4000 H     1 <1>   0.1500 
@<TRIPOS>BOND
  1   1   2  2   
  2   2   3  1   
  3   2   4  1   
  4   3   5  ar  
  5   3   6  1   
  6   4   7  2   
  7   4  24  1   
  8   5   8  ar  
  9   5   9  1   
 10   6  10  2   
 11   6  25  1   
 12   7   8  1   
 13   7  11  1   
 14   8  26  1   
 15   9  12  2   
 16   9  13  1   
 17  10  12  1   
 18  10  27  1   
 19  11  14  1   
 20  11  28  1   
 21  11  29  1   
 22  12  30  1   
 23  13  31  1   
 24  13  32  1   
 25  13  33  1   
 26  14  15  1   
 27  14  16  1   
 28  15  17  1   
 29  15  34  1   
 30  15  35  1   
 31  16  18  1   
 32  16  36  1   
 33  16  37  1   
 34  17  19  1   
 35  17  38  1   
 36  17  39  1   
 37  18  40  1   
 38  18  41  1   
 39  18  42  1   
 40  19  20  1   
 41  19  21  1   
 42  20  22  2   
 43  21  23  2   
 44  21  43  1   
 45  22  23  1   
 46  22  44  1   
 47  23  45  1   
@<TRIPOS>SUBSTRUCTURE
  1 ****   8 GROUP 4 **** **** 0

# MOE 2024.06 (io_trps.svl 2023.06)
