@<TRIPOS>MOLECULE
NONAME
37 39 1 0 0 
SMALL
USER_CHARGES


@<TRIPOS>ATOM
  1 CL      -0.2520    -0.1250    -1.2150 Cl    1 <1>  -0.1240 
  2 C       -1.1770    -1.4590    -0.5850 C.2   1 <1>   0.1640 
  3 S       -0.5550    -3.0640    -0.9010 S.3   1 <1>  -0.0800 
  4 C       -2.3180    -1.4930     0.1240 C.2   1 <1>  -0.1500 
  5 C       -1.9080    -3.7880    -0.0360 C.2   1 <1>  -0.1400 
  6 C       -2.7350    -2.8280     0.4390 C.2   1 <1>  -0.1500 
  7 C       -1.8950    -5.3040     0.0220 C.3   1 <1>   0.5230 
  8 N       -3.2350    -5.8090     0.4130 N.4   1 <1>  -0.9590 
  9 C       -4.3120    -5.5490    -0.5770 C.3   1 <1>   0.3430 
 10 C       -3.2840    -7.2730     0.6860 C.3   1 <1>   0.3430 
 11 C       -5.4370    -6.4740    -0.1160 C.3   1 <1>   0.2000 
 12 C       -4.6980    -7.7510     0.2970 C.3   1 <1>  -0.0800 
 13 O       -5.9970    -5.9140     1.0260 O.3   1 <1>  -0.6800 
 14 C       -4.6670    -8.7810    -0.8520 C.3   1 <1>  -0.0170 
 15 C       -3.9560   -10.0680    -0.4580 C.ar  1 <1>   0.1670 
 16 N       -2.6360   -10.0040    -0.3660 N.ar  1 <1>  -0.6200 
 17 C       -4.6890   -11.2310    -0.2200 C.ar  1 <1>   0.1600 
 18 C       -2.1050   -11.1730    -0.0360 C.ar  1 <1>   0.1600 
 19 N       -4.1590   -12.3910     0.1230 N.ar  1 <1>  -0.6200 
 20 C       -2.8410   -12.3270     0.2020 C.ar  1 <1>   0.1600 
 21 H       -2.8790    -0.6300     0.4370 H     1 <1>   0.1500 
 22 H       -3.6350    -2.9780     1.0110 H     1 <1>   0.1500 
 23 H       -1.1540    -5.6230     0.7360 H     1 <1>   0.0800 
 24 H       -1.6260    -5.6980    -0.9440 H     1 <1>   0.0800 
 25 H       -3.5350    -5.3320     1.2750 H     1 <1>   0.4500 
 26 H       -4.6260    -4.5180    -0.5780 H     1 <1>   0.0800 
 27 H       -3.9860    -5.8310    -1.5640 H     1 <1>   0.0800 
 28 H       -2.5440    -7.7770     0.0880 H     1 <1>   0.0800 
 29 H       -3.0860    -7.4740     1.7260 H     1 <1>   0.0800 
 30 H       -6.2060    -6.6100    -0.8580 H     1 <1>   0.0800 
 31 H       -5.1740    -8.2120     1.1460 H     1 <1>   0.0800 
 32 H       -6.8250    -6.3740     1.2840 H     1 <1>   0.4000 
 33 H       -4.1700    -8.3700    -1.7140 H     1 <1>   0.0800 
 34 H       -5.6750    -9.0150    -1.1470 H     1 <1>   0.0800 
 35 H       -5.7600   -11.2070    -0.3160 H     1 <1>   0.1500 
 36 H       -1.0330   -11.2240     0.0520 H     1 <1>   0.1500 
 37 H       -2.3200   -13.2300     0.4670 H     1 <1>   0.1500 
@<TRIPOS>BOND
  1   1   2  1   
  2   2   3  1   
  3   2   4  2   
  4   3   5  1   
  5   4   6  1   
  6   4  21  1   
  7   5   6  2   
  8   5   7  1   
  9   6  22  1   
 10   7   8  1   
 11   7  23  1   
 12   7  24  1   
 13   8   9  1   
 14   8  10  1   
 15   8  25  1   
 16   9  11  1   
 17   9  26  1   
 18   9  27  1   
 19  10  12  1   
 20  10  28  1   
 21  10  29  1   
 22  11  12  1   
 23  11  13  1   
 24  11  30  1   
 25  12  14  1   
 26  12  31  1   
 27  13  32  1   
 28  14  15  1   
 29  14  33  1   
 30  14  34  1   
 31  15  16  ar  
 32  15  17  ar  
 33  16  18  ar  
 34  17  19  ar  
 35  17  35  1   
 36  18  20  ar  
 37  18  36  1   
 38  19  20  ar  
 39  20  37  1   
@<TRIPOS>SUBSTRUCTURE
  1 ****   8 GROUP 4 **** **** 0

# MOE 2024.06 (io_trps.svl 2023.06)
