@<TRIPOS>MOLECULE
NONAME
58 60 1 0 0 
SMALL
USER_CHARGES


@<TRIPOS>ATOM
  1 O       -1.0380    -0.1600    -1.4870 O.2   1 <1>  -0.5700 
  2 C       -1.5140     0.3790    -0.5030 C.2   1 <1>   0.5440 
  3 N       -2.0180    -0.4300     0.4740 N.am  1 <1>  -0.7300 
  4 C       -1.5410     1.8270    -0.3630 C.ar  1 <1>   0.0860 
  5 C       -2.0080    -1.9120     0.4690 C.3   1 <1>   0.2200 
  6 C       -0.6520     2.6610    -1.0590 C.ar  1 <1>   0.0830 
  7 C       -2.4590     2.4430     0.4900 C.ar  1 <1>  -0.1500 
  8 C       -3.4030    -2.4710     0.2180 C.3   1 <1>  -0.0800 
  9 C       -1.7670    -2.3990     1.8900 C.3   1 <1>   0.1200 
 10 O        0.2210     2.1030    -1.9170 O.3   1 <1>  -0.5330 
 11 C       -0.6570     4.0450    -0.8880 C.ar  1 <1>  -0.1430 
 12 C       -2.4890     3.8130     0.6730 C.ar  1 <1>  -0.1430 
 13 C       -4.0390    -2.4540     1.6140 C.3   1 <1>   0.1200 
 14 C       -4.2310    -1.7560    -0.8650 C.3   1 <1>  -0.0170 
 15 O       -2.9990    -2.2580     2.5290 O.3   1 <1>  -0.5600 
 16 C       -1.5810     4.6010    -0.0180 C.ar  1 <1>  -0.1500 
 17 C        0.3210     4.9650    -1.6320 C.3   1 <1>   0.0630 
 18 C       -3.5110     4.4380     1.6220 C.3   1 <1>   0.0630 
 19 C       -5.5600    -2.4620    -1.0840 C.ar  1 <1>  -0.1430 
 20 C        1.2140     5.7270    -0.6470 C.3   1 <1>  -0.2400 
 21 C       -0.4320     5.9380    -2.5460 C.3   1 <1>  -0.2400 
 22 C       -4.4540     5.3790     0.8660 C.3   1 <1>  -0.2400 
 23 C       -2.8120     5.1740     2.7710 C.3   1 <1>  -0.2400 
 24 C       -5.6590    -3.5920    -1.8700 C.ar  1 <1>  -0.1500 
 25 C       -6.7340    -2.0140    -0.5120 C.ar  1 <1>  -0.1500 
 26 C       -6.8900    -4.2070    -2.0340 C.ar  1 <1>   0.1600 
 27 C       -7.9140    -2.7030    -0.7400 C.ar  1 <1>   0.1600 
 28 N       -8.0190    -3.7900    -1.4860 N.ar  1 <1>  -0.6200 
 29 H       -2.3620    -0.0320     1.3510 H     1 <1>   0.3700 
 30 H       -1.2750    -2.2910    -0.2240 H     1 <1>   0.0800 
 31 H       -3.1710     1.8380     1.0200 H     1 <1>   0.1500 
 32 H       -3.2940    -3.5010    -0.0710 H     1 <1>   0.0800 
 33 H       -1.0180    -1.8260     2.4090 H     1 <1>   0.0800 
 34 H       -1.5050    -3.4430     1.9000 H     1 <1>   0.0800 
 35 H        0.0430     1.1350    -2.0260 H     1 <1>   0.4500 
 36 H       -4.5320    -3.3850     1.8370 H     1 <1>   0.0800 
 37 H       -4.7310    -1.6390     1.7290 H     1 <1>   0.0800 
 38 H       -3.6760    -1.7430    -1.7880 H     1 <1>   0.0800 
 39 H       -4.4130    -0.7330    -0.5870 H     1 <1>   0.0800 
 40 H       -1.5990     5.6650     0.1240 H     1 <1>   0.1500 
 41 H        0.9720     4.3820    -2.2600 H     1 <1>   0.0800 
 42 H       -4.1100     3.6550     2.0540 H     1 <1>   0.0800 
 43 H        0.6350     6.3920    -0.0330 H     1 <1>   0.0800 
 44 H        1.9480     6.3030    -1.1810 H     1 <1>   0.0800 
 45 H        1.7260     5.0290    -0.0090 H     1 <1>   0.0800 
 46 H       -1.0520     6.6050    -1.9760 H     1 <1>   0.0800 
 47 H       -1.0550     5.3850    -3.2270 H     1 <1>   0.0800 
 48 H        0.2650     6.5220    -3.1200 H     1 <1>   0.0800 
 49 H       -3.9150     6.2140     0.4550 H     1 <1>   0.0800 
 50 H       -5.2150     5.7540     1.5260 H     1 <1>   0.0800 
 51 H       -4.9290     4.8500     0.0590 H     1 <1>   0.0800 
 52 H       -2.2390     6.0050     2.4020 H     1 <1>   0.0800 
 53 H       -2.1480     4.5020     3.2850 H     1 <1>   0.0800 
 54 H       -3.5380     5.5430     3.4730 H     1 <1>   0.0800 
 55 H       -4.7920    -4.0010    -2.3550 H     1 <1>   0.1500 
 56 H       -6.7440    -1.1370     0.1090 H     1 <1>   0.1500 
 57 H       -6.9470    -5.0880    -2.6510 H     1 <1>   0.1500 
 58 H       -8.8190    -2.3390    -0.2850 H     1 <1>   0.1500 
@<TRIPOS>BOND
  1   1   2  2   
  2   2   3  am  
  3   2   4  1   
  4   3   5  1   
  5   3  29  1   
  6   4   6  ar  
  7   4   7  ar  
  8   5   8  1   
  9   5   9  1   
 10   5  30  1   
 11   6  10  1   
 12   6  11  ar  
 13   7  12  ar  
 14   7  31  1   
 15   8  13  1   
 16   8  14  1   
 17   8  32  1   
 18   9  15  1   
 19   9  33  1   
 20   9  34  1   
 21  10  35  1   
 22  11  16  ar  
 23  11  17  1   
 24  12  16  ar  
 25  12  18  1   
 26  13  15  1   
 27  13  36  1   
 28  13  37  1   
 29  14  19  1   
 30  14  38  1   
 31  14  39  1   
 32  16  40  1   
 33  17  20  1   
 34  17  21  1   
 35  17  41  1   
 36  18  22  1   
 37  18  23  1   
 38  18  42  1   
 39  19  24  ar  
 40  19  25  ar  
 41  20  43  1   
 42  20  44  1   
 43  20  45  1   
 44  21  46  1   
 45  21  47  1   
 46  21  48  1   
 47  22  49  1   
 48  22  50  1   
 49  22  51  1   
 50  23  52  1   
 51  23  53  1   
 52  23  54  1   
 53  24  26  ar  
 54  24  55  1   
 55  25  27  ar  
 56  25  56  1   
 57  26  28  ar  
 58  26  57  1   
 59  27  28  ar  
 60  27  58  1   
@<TRIPOS>SUBSTRUCTURE
  1 ****   2 GROUP 4 **** **** 0

# MOE 2024.06 (io_trps.svl 2023.06)
