@<TRIPOS>MOLECULE
NONAME
54 57 1 0 0 
SMALL
USER_CHARGES


@<TRIPOS>ATOM
  1 O       -0.5460     0.2090     0.1330 O.3   1 <1>  -0.6800 
  2 C       -1.7290     0.8530     0.4400 C.3   1 <1>   0.2000 
  3 C       -2.9000     0.0560    -0.1860 C.3   1 <1>  -0.0800 
  4 C       -1.6190     2.3000    -0.0720 C.3   1 <1>  -0.1600 
  5 C       -4.2700     0.7020     0.1210 C.3   1 <1>  -0.1600 
  6 C       -2.9110    -1.4200     0.2770 C.3   1 <1>  -0.1600 
  7 C       -0.3830     3.0460     0.4540 C.3   1 <1>  -0.0170 
  8 C       -5.4320    -0.1160    -0.4460 C.3   1 <1>   0.2090 
  9 C       -4.1030    -2.2010    -0.2810 C.3   1 <1>   0.2090 
 10 C       -0.4280     4.5020     0.0180 C.ar  1 <1>  -0.1430 
 11 N       -5.3630    -1.5020     0.0940 N.pl3 1 <1>  -0.8380 
 12 C       -0.9110     5.4800     0.8740 C.ar  1 <1>  -0.1500 
 13 C        0.0120     4.8630    -1.2460 C.ar  1 <1>  -0.1500 
 14 C       -6.4710    -2.2190     0.4390 C.ar  1 <1>   0.7710 
 15 C       -0.9550     6.8040     0.4700 C.ar  1 <1>  -0.1500 
 16 C       -0.0320     6.1850    -1.6520 C.ar  1 <1>  -0.1500 
 17 N       -7.2860    -1.6570     1.3770 N.ar  1 <1>  -0.1790 
 18 N       -6.7070    -3.3860    -0.0980 N.ar  1 <1>  -0.5670 
 19 C       -0.5160     7.1570    -0.7940 C.ar  1 <1>  -0.1500 
 20 C       -8.4100    -2.2370     1.8160 C.ar  1 <1>   0.4610 
 21 C       -7.8430    -4.0030     0.3130 C.ar  1 <1>   0.1050 
 22 N       -9.1700    -1.6380     2.7490 N.pl3 1 <1>  -0.9000 
 23 C       -8.7080    -3.4780     1.2440 C.ar  1 <1>   0.0000 
 24 N       -8.3610    -5.1960    -0.0700 N.pl3 1 <1>   0.3140 
 25 C       -9.7210    -4.4440     1.3500 C.2   1 <1>   0.1390 
 26 N       -9.5230    -5.4580     0.5790 N.2   1 <1>  -0.7070 
 27 C       -7.8090    -6.1440    -1.0500 C.3   1 <1>   0.0160 
 28 H       -0.5110    -0.6680     0.5570 H     1 <1>   0.4000 
 29 H       -1.8200     0.8630     1.5130 H     1 <1>   0.0800 
 30 H       -2.7660     0.0710    -1.2560 H     1 <1>   0.0800 
 31 H       -2.4860     2.8530     0.2380 H     1 <1>   0.0800 
 32 H       -1.6000     2.2980    -1.1480 H     1 <1>   0.0800 
 33 H       -4.3190     1.6820    -0.3170 H     1 <1>   0.0800 
 34 H       -4.3950     0.8110     1.1840 H     1 <1>   0.0800 
 35 H       -2.9360    -1.4690     1.3520 H     1 <1>   0.0800 
 36 H       -2.0140    -1.9140    -0.0520 H     1 <1>   0.0800 
 37 H        0.5150     2.5900     0.0740 H     1 <1>   0.0800 
 38 H       -0.3490     2.9890     1.5270 H     1 <1>   0.0800 
 39 H       -5.3520    -0.1520    -1.5210 H     1 <1>   0.0800 
 40 H       -6.3690     0.3540    -0.2010 H     1 <1>   0.0800 
 41 H       -4.0920    -3.2040     0.1150 H     1 <1>   0.0800 
 42 H       -4.0310    -2.2640    -1.3550 H     1 <1>   0.0800 
 43 H       -1.2540     5.2170     1.8580 H     1 <1>   0.1500 
 44 H        0.3880     4.1110    -1.9180 H     1 <1>   0.1500 
 45 H       -1.3310     7.5580     1.1380 H     1 <1>   0.1500 
 46 H        0.3110     6.4570    -2.6350 H     1 <1>   0.1500 
 47 H       -6.9450    -0.7900     1.7600 H     1 <1>   0.4570 
 48 H       -0.5500     8.1850    -1.1090 H     1 <1>   0.1500 
 49 H      -10.0340    -2.0680     3.1030 H     1 <1>   0.4000 
 50 H       -8.9960    -0.7330     3.2010 H     1 <1>   0.4000 
 51 H      -10.5750    -4.3580     2.0020 H     1 <1>   0.1500 
 52 H       -6.9370    -5.7230    -1.5140 H     1 <1>   0.0800 
 53 H       -8.5540    -6.3480    -1.7970 H     1 <1>   0.0800 
 54 H       -7.5500    -7.0560    -0.5470 H     1 <1>   0.0800 
@<TRIPOS>BOND
  1   1   2  1   
  2   1  28  1   
  3   2   3  1   
  4   2   4  1   
  5   2  29  1   
  6   3   5  1   
  7   3   6  1   
  8   3  30  1   
  9   4   7  1   
 10   4  31  1   
 11   4  32  1   
 12   5   8  1   
 13   5  33  1   
 14   5  34  1   
 15   6   9  1   
 16   6  35  1   
 17   6  36  1   
 18   7  10  1   
 19   7  37  1   
 20   7  38  1   
 21   8  11  1   
 22   8  39  1   
 23   8  40  1   
 24   9  11  1   
 25   9  41  1   
 26   9  42  1   
 27  10  12  ar  
 28  10  13  ar  
 29  11  14  1   
 30  12  15  ar  
 31  12  43  1   
 32  13  16  ar  
 33  13  44  1   
 34  14  17  ar  
 35  14  18  ar  
 36  15  19  ar  
 37  15  45  1   
 38  16  19  ar  
 39  16  46  1   
 40  17  20  ar  
 41  17  47  1   
 42  18  21  ar  
 43  19  48  1   
 44  20  22  1   
 45  20  23  ar  
 46  21  23  ar  
 47  21  24  1   
 48  22  49  1   
 49  22  50  1   
 50  23  25  1   
 51  24  26  1   
 52  24  27  1   
 53  25  26  2   
 54  25  51  1   
 55  27  52  1   
 56  27  53  1   
 57  27  54  1   
@<TRIPOS>SUBSTRUCTURE
  1 ****   5 GROUP 4 **** **** 0

# MOE 2024.06 (io_trps.svl 2023.06)
