@<TRIPOS>MOLECULE
NONAME
47 49 1 0 0 
SMALL
USER_CHARGES


@<TRIPOS>ATOM
  1 S        0.2710    -0.3290     0.8430 S.3   1 <1>  -0.0800 
  2 C        0.6450    -1.0170    -0.7270 C.2   1 <1>  -0.0450 
  3 C        0.6190     1.2680     0.2370 C.2   1 <1>   0.1980 
  4 C        0.9910     0.0180    -1.5320 C.2   1 <1>   0.0460 
  5 C        0.5330    -2.4440    -0.8970 C.2   1 <1>   0.7150 
  6 N        0.9720     1.2840    -0.9860 N.2   1 <1>  -0.5650 
  7 C        0.4640     2.4310     1.2140 C.3   1 <1>   0.1000 
  8 C        1.4050    -0.0430    -2.9900 C.3   1 <1>  -0.0590 
  9 O        0.7410    -2.9800    -1.9680 O.2   1 <1>  -0.5700 
 10 N        0.1750    -3.2360     0.1530 N.am  1 <1>  -0.7300 
 11 C       -1.0160     2.8000     1.3820 C.3   1 <1>  -0.2400 
 12 C        1.2620     3.6640     0.7640 C.3   1 <1>  -0.2400 
 13 C        0.0020    -4.7040     0.1120 C.3   1 <1>   0.2200 
 14 C       -1.4810    -5.0260     0.0410 C.3   1 <1>  -0.0800 
 15 C        0.3850    -5.3000     1.4620 C.3   1 <1>   0.1200 
 16 C       -1.8960    -4.9630     1.5160 C.3   1 <1>   0.1200 
 17 C       -1.7290    -6.4140    -0.5780 C.3   1 <1>  -0.0170 
 18 O       -0.7400    -5.1610     2.2790 O.3   1 <1>  -0.5600 
 19 C       -3.2150    -6.7230    -0.6750 C.ar  1 <1>  -0.1430 
 20 C       -4.0180    -6.1280    -1.6270 C.ar  1 <1>  -0.1500 
 21 C       -3.8380    -7.6110     0.1790 C.ar  1 <1>  -0.1500 
 22 C       -5.3670    -6.4370    -1.6750 C.ar  1 <1>   0.1600 
 23 C       -5.1960    -7.8490     0.0470 C.ar  1 <1>   0.1600 
 24 N       -5.9760    -7.2820    -0.8590 N.ar  1 <1>  -0.6200 
 25 H        0.8510     2.1160     2.1670 H     1 <1>   0.0800 
 26 H        1.4180    -1.0490    -3.3620 H     1 <1>   0.0800 
 27 H        2.3880     0.3760    -3.1000 H     1 <1>   0.0800 
 28 H        0.7170     0.5330    -3.5810 H     1 <1>   0.0800 
 29 H       -0.0410    -2.7990     1.0510 H     1 <1>   0.3700 
 30 H       -1.4310     3.1010     0.4360 H     1 <1>   0.0800 
 31 H       -1.1250     3.6080     2.0820 H     1 <1>   0.0800 
 32 H       -1.5720     1.9550     1.7450 H     1 <1>   0.0800 
 33 H        0.8970     4.0190    -0.1840 H     1 <1>   0.0800 
 34 H        2.3000     3.4060     0.6520 H     1 <1>   0.0800 
 35 H        1.1790     4.4540     1.4880 H     1 <1>   0.0800 
 36 H        0.5710    -5.1280    -0.6980 H     1 <1>   0.0800 
 37 H       -2.0110    -4.2910    -0.5390 H     1 <1>   0.0800 
 38 H        1.2240    -4.8020     1.9140 H     1 <1>   0.0800 
 39 H        0.5920    -6.3510     1.3690 H     1 <1>   0.0800 
 40 H       -2.6240    -5.7090     1.7840 H     1 <1>   0.0800 
 41 H       -2.2810    -3.9880     1.7600 H     1 <1>   0.0800 
 42 H       -1.2390    -7.1770     0.0030 H     1 <1>   0.0800 
 43 H       -1.3080    -6.4420    -1.5690 H     1 <1>   0.0800 
 44 H       -3.6070    -5.4290    -2.3320 H     1 <1>   0.1500 
 45 H       -3.2830    -8.1190     0.9470 H     1 <1>   0.1500 
 46 H       -5.9780    -5.9630    -2.4240 H     1 <1>   0.1500 
 47 H       -5.6650    -8.5440     0.7220 H     1 <1>   0.1500 
@<TRIPOS>BOND
  1   1   2  1   
  2   1   3  1   
  3   2   4  2   
  4   2   5  1   
  5   3   6  2   
  6   3   7  1   
  7   4   6  1   
  8   4   8  1   
  9   5   9  2   
 10   5  10  am  
 11   7  11  1   
 12   7  12  1   
 13   7  25  1   
 14   8  26  1   
 15   8  27  1   
 16   8  28  1   
 17  10  13  1   
 18  10  29  1   
 19  11  30  1   
 20  11  31  1   
 21  11  32  1   
 22  12  33  1   
 23  12  34  1   
 24  12  35  1   
 25  13  14  1   
 26  13  15  1   
 27  13  36  1   
 28  14  16  1   
 29  14  17  1   
 30  14  37  1   
 31  15  18  1   
 32  15  38  1   
 33  15  39  1   
 34  16  18  1   
 35  16  40  1   
 36  16  41  1   
 37  17  19  1   
 38  17  42  1   
 39  17  43  1   
 40  19  20  ar  
 41  19  21  ar  
 42  20  22  ar  
 43  20  44  1   
 44  21  23  ar  
 45  21  45  1   
 46  22  24  ar  
 47  22  46  1   
 48  23  24  ar  
 49  23  47  1   
@<TRIPOS>SUBSTRUCTURE
  1 ****  10 GROUP 4 **** **** 0

# MOE 2024.06 (io_trps.svl 2023.06)
