@<TRIPOS>MOLECULE
NONAME
44 45 1 0 0 
SMALL
USER_CHARGES


@<TRIPOS>ATOM
  1 O        2.3850    -0.9920    -1.4740 O.2   1 <1>  -0.5700 
  2 C        2.2150    -1.0040    -0.2770 C.2   1 <1>   0.5690 
  3 N        2.0380     0.1370     0.4590 N.am  1 <1>  -0.5470 
  4 C        2.1840    -2.3530     0.4530 C.3   1 <1>   0.1710 
  5 C        1.9990     1.4850     0.0430 C.ar  1 <1>   0.1170 
  6 N        0.8420    -2.9850     0.5830 N.3   1 <1>  -0.8100 
  7 C        2.9350     2.0560    -0.8380 C.ar  1 <1>   0.1170 
  8 C        0.9930     2.2890     0.5640 C.ar  1 <1>  -0.1500 
  9 C        0.2710    -3.2810    -0.7480 C.3   1 <1>   0.2910 
 10 C       -0.0860    -2.2060     1.4160 C.3   1 <1>   0.0300 
 11 N        3.9840     1.2920    -1.3740 N.am  1 <1>  -0.5470 
 12 C        2.8130     3.3950    -1.1870 C.ar  1 <1>  -0.1500 
 13 C        0.8920     3.6250     0.2190 C.ar  1 <1>  -0.1500 
 14 C       -0.9620    -4.1610    -0.6370 C.2   1 <1>  -0.1810 
 15 C        5.3290     1.4660    -1.3400 C.2   1 <1>   0.5690 
 16 C        1.8020     4.1780    -0.6610 C.ar  1 <1>  -0.1500 
 17 C       -2.1270    -4.0250    -1.3830 C.2   1 <1>   0.1390 
 18 C       -1.1970    -5.2220     0.1630 C.2   1 <1>  -0.3020 
 19 O        6.0640     0.6320    -1.8010 O.2   1 <1>  -0.5700 
 20 C        5.9350     2.6930    -0.7010 C.3   1 <1>  -0.1790 
 21 N       -3.0160    -4.9200    -1.0750 N.2   1 <1>  -0.7070 
 22 N       -2.4380    -5.6620    -0.1160 N.pl3 1 <1>   0.3140 
 23 C       -3.1300    -6.7970     0.5010 C.3   1 <1>   0.0160 
 24 H        1.8000    -0.0150     1.4370 H     1 <1>   0.3700 
 25 H        2.6060    -2.2290     1.4330 H     1 <1>   0.0800 
 26 H        2.8300    -3.0290    -0.0800 H     1 <1>   0.0800 
 27 H        0.2730     1.8690     1.2430 H     1 <1>   0.1500 
 28 H        1.0020    -3.7970    -1.3480 H     1 <1>   0.0800 
 29 H        0.0150    -2.3630    -1.2510 H     1 <1>   0.0800 
 30 H        0.3640    -1.9930     2.3700 H     1 <1>   0.0800 
 31 H       -0.9840    -2.7730     1.5930 H     1 <1>   0.0800 
 32 H       -0.3550    -1.2840     0.9290 H     1 <1>   0.0800 
 33 H        3.6940     0.3650    -1.7170 H     1 <1>   0.3700 
 34 H        3.5090     3.8270    -1.8810 H     1 <1>   0.1500 
 35 H        0.1040     4.2320     0.6310 H     1 <1>   0.1500 
 36 H        1.7220     5.2160    -0.9390 H     1 <1>   0.1500 
 37 H       -2.2880    -3.2690    -2.1330 H     1 <1>   0.1500 
 38 H       -0.5540    -5.6680     0.9000 H     1 <1>   0.1500 
 39 H        5.4110     2.9410     0.2030 H     1 <1>   0.0800 
 40 H        5.8860     3.5170    -1.3860 H     1 <1>   0.0800 
 41 H        6.9650     2.5010    -0.4620 H     1 <1>   0.0800 
 42 H       -2.6460    -7.0550     1.4240 H     1 <1>   0.0800 
 43 H       -3.1010    -7.6310    -0.1750 H     1 <1>   0.0800 
 44 H       -4.1510    -6.5210     0.6880 H     1 <1>   0.0800 
@<TRIPOS>BOND
  1   1   2  2   
  2   2   3  am  
  3   2   4  1   
  4   3   5  1   
  5   3  24  1   
  6   4   6  1   
  7   4  25  1   
  8   4  26  1   
  9   5   7  ar  
 10   5   8  ar  
 11   6   9  1   
 12   6  10  1   
 13   7  11  1   
 14   7  12  ar  
 15   8  13  ar  
 16   8  27  1   
 17   9  14  1   
 18   9  28  1   
 19   9  29  1   
 20  10  30  1   
 21  10  31  1   
 22  10  32  1   
 23  11  15  am  
 24  11  33  1   
 25  12  16  ar  
 26  12  34  1   
 27  13  16  ar  
 28  13  35  1   
 29  14  17  1   
 30  14  18  2   
 31  15  19  2   
 32  15  20  1   
 33  16  36  1   
 34  17  21  2   
 35  17  37  1   
 36  18  22  1   
 37  18  38  1   
 38  20  39  1   
 39  20  40  1   
 40  20  41  1   
 41  21  22  1   
 42  22  23  1   
 43  23  42  1   
 44  23  43  1   
 45  23  44  1   
@<TRIPOS>SUBSTRUCTURE
  1 ****   2 GROUP 4 **** **** 0

# MOE 2024.06 (io_trps.svl 2023.06)
