@<TRIPOS>MOLECULE
NONAME
56 58 1 0 0 
SMALL
USER_CHARGES


@<TRIPOS>ATOM
  1 O       -2.0950     0.4480     1.9190 O.2   1 <1>  -0.5700 
  2 C       -2.4560     0.8610     0.8440 C.2   1 <1>   0.5690 
  3 N       -2.8440     0.0250    -0.1690 N.am  1 <1>  -0.6600 
  4 C       -2.4210     2.3710     0.6570 C.3   1 <1>  -0.0990 
  5 C       -2.6120    -1.4520    -0.0030 C.3   1 <1>   0.3640 
  6 C       -3.5660     0.4960    -1.3930 C.3   1 <1>   0.1400 
  7 C       -1.0690     2.8090     0.0620 C.3   1 <1>  -0.1600 
  8 C       -1.1450    -1.7730    -0.3110 C.ar  1 <1>  -0.1440 
  9 C       -3.5450    -2.3800    -0.8390 C.3   1 <1>   0.2000 
 10 C       -4.0050    -0.6390    -2.3280 C.3   1 <1>   0.1200 
 11 C       -0.8860     4.3350    -0.0480 C.3   1 <1>  -0.0800 
 12 C       -0.5180    -1.3300    -1.4700 C.ar  1 <1>  -0.1500 
 13 C       -0.4170    -2.5340     0.5920 C.ar  1 <1>  -0.1500 
 14 O       -4.5180    -1.6890    -1.5790 O.3   1 <1>  -0.5600 
 15 C       -4.2890    -3.3950     0.0400 C.3   1 <1>   0.1200 
 16 C        0.4170     4.6400    -0.8080 C.3   1 <1>  -0.1600 
 17 C       -0.8510     5.0120     1.3360 C.3   1 <1>  -0.1600 
 18 C        0.8040    -1.6490    -1.7230 C.ar  1 <1>  -0.1500 
 19 C        0.9060    -2.8540     0.3420 C.ar  1 <1>  -0.1500 
 20 O       -3.3910    -4.2240     0.7060 O.3   1 <1>  -0.6800 
 21 C        0.7310     6.1350    -0.8510 C.3   1 <1>   0.3430 
 22 C       -0.5010     6.4980     1.2500 C.3   1 <1>   0.3430 
 23 C        1.5180    -2.4130    -0.8180 C.ar  1 <1>  -0.1500 
 24 N        0.7980     6.6690     0.5390 N.4   1 <1>  -0.9590 
 25 C        1.2320     8.0980     0.5460 C.3   1 <1>   0.2630 
 26 H       -3.2340     2.7010     0.0410 H     1 <1>   0.0800 
 27 H       -2.5570     2.8070     1.6290 H     1 <1>   0.0800 
 28 H       -2.7790    -1.6900     1.0340 H     1 <1>   0.0800 
 29 H       -4.4490     1.0280    -1.0840 H     1 <1>   0.0800 
 30 H       -2.9410     1.1790    -1.9400 H     1 <1>   0.0800 
 31 H       -0.9750     2.3660    -0.9150 H     1 <1>   0.0800 
 32 H       -0.2800     2.3950     0.6700 H     1 <1>   0.0800 
 33 H       -2.9530    -2.9290    -1.5500 H     1 <1>   0.0800 
 34 H       -3.1860    -1.0000    -2.9250 H     1 <1>   0.0800 
 35 H       -4.7810    -0.2930    -2.9880 H     1 <1>   0.0800 
 36 H       -1.7110     4.7400    -0.6120 H     1 <1>   0.0800 
 37 H       -1.0520    -0.7300    -2.1810 H     1 <1>   0.1500 
 38 H       -0.8800    -2.8810     1.5010 H     1 <1>   0.1500 
 39 H       -4.9320    -4.0140    -0.5620 H     1 <1>   0.0800 
 40 H       -4.8770    -2.8820     0.7820 H     1 <1>   0.0800 
 41 H        0.3340     4.2780    -1.8180 H     1 <1>   0.0800 
 42 H        1.2420     4.1210    -0.3510 H     1 <1>   0.0800 
 43 H       -0.1380     4.5180     1.9730 H     1 <1>   0.0800 
 44 H       -1.8140     4.9290     1.8080 H     1 <1>   0.0800 
 45 H        1.2800    -1.3030    -2.6240 H     1 <1>   0.1500 
 46 H        1.4590    -3.4430     1.0530 H     1 <1>   0.1500 
 47 H       -2.8960    -4.7850     0.0770 H     1 <1>   0.4000 
 48 H       -0.0380     6.6510    -1.4040 H     1 <1>   0.0800 
 49 H        1.6730     6.2890    -1.3520 H     1 <1>   0.0800 
 50 H       -0.4340     6.9080     2.2450 H     1 <1>   0.0800 
 51 H       -1.2790     7.0220     0.7190 H     1 <1>   0.0800 
 52 H        2.5470    -2.6620    -1.0120 H     1 <1>   0.1500 
 53 H        1.4960     6.1060     1.0460 H     1 <1>   0.4500 
 54 H        0.5160     8.7100     0.0210 H     1 <1>   0.0800 
 55 H        2.1920     8.2010     0.0660 H     1 <1>   0.0800 
 56 H        1.3160     8.4580     1.5590 H     1 <1>   0.0800 
@<TRIPOS>BOND
  1   1   2  2   
  2   2   3  am  
  3   2   4  1   
  4   3   5  1   
  5   3   6  1   
  6   4   7  1   
  7   4  26  1   
  8   4  27  1   
  9   5   8  1   
 10   5   9  1   
 11   5  28  1   
 12   6  10  1   
 13   6  29  1   
 14   6  30  1   
 15   7  11  1   
 16   7  31  1   
 17   7  32  1   
 18   8  12  ar  
 19   8  13  ar  
 20   9  14  1   
 21   9  15  1   
 22   9  33  1   
 23  10  14  1   
 24  10  34  1   
 25  10  35  1   
 26  11  16  1   
 27  11  17  1   
 28  11  36  1   
 29  12  18  ar  
 30  12  37  1   
 31  13  19  ar  
 32  13  38  1   
 33  15  20  1   
 34  15  39  1   
 35  15  40  1   
 36  16  21  1   
 37  16  41  1   
 38  16  42  1   
 39  17  22  1   
 40  17  43  1   
 41  17  44  1   
 42  18  23  ar  
 43  18  45  1   
 44  19  23  ar  
 45  19  46  1   
 46  20  47  1   
 47  21  24  1   
 48  21  48  1   
 49  21  49  1   
 50  22  24  1   
 51  22  50  1   
 52  22  51  1   
 53  23  52  1   
 54  24  25  1   
 55  24  53  1   
 56  25  54  1   
 57  25  55  1   
 58  25  56  1   
@<TRIPOS>SUBSTRUCTURE
  1 ****   2 GROUP 4 **** **** 0

# MOE 2024.06 (io_trps.svl 2023.06)
