@<TRIPOS>MOLECULE
NONAME
38 39 1 0 0 
SMALL
USER_CHARGES


@<TRIPOS>ATOM
  1 S       -0.3360     0.1340    -0.5820 S.o2  1 <1>   1.3330 
  2 O       -1.1680    -1.0420    -0.6840 O.2   1 <1>  -0.6500 
  3 O        0.0120     0.8760    -1.7730 O.2   1 <1>  -0.6500 
  4 N        1.1130    -0.3450     0.1690 N.am  1 <1>  -0.8490 
  5 C       -1.0630     1.2630     0.6130 C.3   1 <1>  -0.0550 
  6 C        2.1190    -0.7670    -0.8140 C.3   1 <1>   0.1160 
  7 C        0.9250    -1.4190     1.1550 C.3   1 <1>   0.1160 
  8 C       -0.4550     2.6810     0.7080 C.3   1 <1>  -0.0800 
  9 C       -0.8680     3.6160    -0.4310 C.3   1 <1>   0.2000 
 10 C        1.0700     2.7910     0.7420 C.3   1 <1>   0.2090 
 11 O       -2.1190     4.1480    -0.1490 O.3   1 <1>  -0.6800 
 12 C        0.2120     4.7040    -0.4850 C.3   1 <1>   0.2090 
 13 N        1.3340     4.1980     0.3560 N.pl3 1 <1>  -0.8380 
 14 C        2.4650     4.9230     0.6300 C.2   1 <1>   0.2000 
 15 N        3.5160     4.2650     1.1780 N.pl3 1 <1>  -0.5500 
 16 C        2.6460     6.2530     0.3990 C.2   1 <1>  -0.1360 
 17 C        4.6840     4.9010     1.4850 C.2   1 <1>   0.4400 
 18 C        3.8630     6.8690     0.7340 C.2   1 <1>   0.7670 
 19 N        4.8890     6.1480     1.2900 N.2   1 <1>  -0.6610 
 20 O        4.0380     8.0670     0.5390 O.2   1 <1>  -0.5700 
 21 H       -2.1050     1.3740     0.3800 H     1 <1>   0.0800 
 22 H       -1.0130     0.8080     1.5820 H     1 <1>   0.0800 
 23 H        3.0260    -1.0670    -0.3180 H     1 <1>   0.0800 
 24 H        2.3540     0.0490    -1.4780 H     1 <1>   0.0800 
 25 H        1.7470    -1.5910    -1.4000 H     1 <1>   0.0800 
 26 H        1.8550    -1.6290     1.6560 H     1 <1>   0.0800 
 27 H        0.5800    -2.3190     0.6720 H     1 <1>   0.0800 
 28 H        0.2000    -1.1270     1.8940 H     1 <1>   0.0800 
 29 H       -0.7990     3.1170     1.6300 H     1 <1>   0.0800 
 30 H       -0.9230     3.1110    -1.3800 H     1 <1>   0.0800 
 31 H        1.5350     2.1560     0.0100 H     1 <1>   0.0800 
 32 H        1.4540     2.5700     1.7230 H     1 <1>   0.0800 
 33 H       -2.0890     4.6680     0.6780 H     1 <1>   0.4000 
 34 H       -0.1550     5.6330    -0.0860 H     1 <1>   0.0800 
 35 H        0.5500     4.8440    -1.4970 H     1 <1>   0.0800 
 36 H        3.4270     3.2630     1.3240 H     1 <1>   0.4000 
 37 H        1.8890     6.8710    -0.0330 H     1 <1>   0.1500 
 38 H        5.4630     4.2960     1.9150 H     1 <1>   0.0600 
@<TRIPOS>BOND
  1   1   2  2   
  2   1   3  2   
  3   1   4  am  
  4   1   5  1   
  5   4   6  1   
  6   4   7  1   
  7   5   8  1   
  8   5  21  1   
  9   5  22  1   
 10   6  23  1   
 11   6  24  1   
 12   6  25  1   
 13   7  26  1   
 14   7  27  1   
 15   7  28  1   
 16   8   9  1   
 17   8  10  1   
 18   8  29  1   
 19   9  11  1   
 20   9  12  1   
 21   9  30  1   
 22  10  13  1   
 23  10  31  1   
 24  10  32  1   
 25  11  33  1   
 26  12  13  1   
 27  12  34  1   
 28  12  35  1   
 29  13  14  1   
 30  14  15  1   
 31  14  16  2   
 32  15  17  1   
 33  15  36  1   
 34  16  18  1   
 35  16  37  1   
 36  17  19  2   
 37  17  38  1   
 38  18  19  1   
 39  18  20  2   
@<TRIPOS>SUBSTRUCTURE
  1 ****  10 GROUP 4 **** **** 0

# MOE 2024.06 (io_trps.svl 2023.06)
