@<TRIPOS>MOLECULE
NONAME
46 48 1 0 0 
SMALL
USER_CHARGES


@<TRIPOS>ATOM
  1 S       -0.1770    -1.0030     0.7270 S.3   1 <1>  -0.0800 
  2 C       -0.5260     0.4980    -0.1040 C.2   1 <1>   0.1980 
  3 C       -1.6810    -1.6450     0.1380 C.2   1 <1>  -0.1100 
  4 N       -1.6290     0.5000    -0.7390 N.2   1 <1>  -0.5650 
  5 C        0.4930     1.6160     0.0050 C.3   1 <1>   0.0200 
  6 C       -2.2950    -0.7110    -0.6090 C.2   1 <1>   0.0460 
  7 C        0.4730     2.2680     1.3950 C.3   1 <1>  -0.1600 
  8 C       -3.6350    -0.8410    -1.3210 C.3   1 <1>   0.3210 
  9 C        1.4840     3.4150     1.4960 C.3   1 <1>  -0.2400 
 10 N       -4.0990    -2.2480    -1.3300 N.am  1 <1>  -0.7300 
 11 C       -5.2470    -2.7130    -0.7750 C.2   1 <1>   0.5690 
 12 O       -6.0520    -1.9580    -0.2870 O.2   1 <1>  -0.5700 
 13 C       -5.4980    -4.2280    -0.7610 C.3   1 <1>   0.2610 
 14 O       -4.3080    -4.9130    -1.1520 O.3   1 <1>  -0.5600 
 15 C       -6.0140    -4.6720     0.6390 C.3   1 <1>   0.3640 
 16 C       -4.4010    -6.3200    -1.1440 C.3   1 <1>   0.1810 
 17 N       -5.5830    -6.0420     1.0140 N.am  1 <1>  -0.7300 
 18 C       -7.5410    -4.6300     0.7030 C.ar  1 <1>  -0.1440 
 19 C       -4.8690    -6.8550     0.2080 C.2   1 <1>   0.5690 
 20 C       -8.3160    -5.6370     0.1370 C.ar  1 <1>  -0.1500 
 21 C       -8.1780    -3.5690     1.3310 C.ar  1 <1>  -0.1500 
 22 O       -4.6270    -7.9900     0.5300 O.2   1 <1>  -0.5700 
 23 C       -9.6970    -5.5830     0.2010 C.ar  1 <1>  -0.1500 
 24 C       -9.5600    -3.5140     1.3960 C.ar  1 <1>  -0.1500 
 25 C      -10.3210    -4.5210     0.8310 C.ar  1 <1>  -0.1500 
 26 H       -1.9450    -2.6490     0.4150 H     1 <1>   0.1500 
 27 H        1.4700     1.2190    -0.2040 H     1 <1>   0.0800 
 28 H        0.2650     2.3560    -0.7410 H     1 <1>   0.0800 
 29 H       -0.5170     2.6450     1.5920 H     1 <1>   0.0800 
 30 H        0.7000     1.5280     2.1440 H     1 <1>   0.0800 
 31 H       -3.5260    -0.5040    -2.3370 H     1 <1>   0.0800 
 32 H       -4.3570    -0.2090    -0.8340 H     1 <1>   0.0800 
 33 H        1.2590     4.1800     0.7730 H     1 <1>   0.0800 
 34 H        2.4830     3.0550     1.3220 H     1 <1>   0.0800 
 35 H        1.4450     3.8530     2.4780 H     1 <1>   0.0800 
 36 H       -3.4340    -2.9380    -1.6910 H     1 <1>   0.3700 
 37 H       -6.2490    -4.4420    -1.5000 H     1 <1>   0.0800 
 38 H       -5.6190    -3.9950     1.3780 H     1 <1>   0.0800 
 39 H       -5.0880    -6.6240    -1.9120 H     1 <1>   0.0800 
 40 H       -3.4280    -6.7160    -1.3660 H     1 <1>   0.0800 
 41 H       -5.9540    -6.4210     1.8870 H     1 <1>   0.3700 
 42 H       -7.8530    -6.4740    -0.3550 H     1 <1>   0.1500 
 43 H       -7.6040    -2.7700     1.7690 H     1 <1>   0.1500 
 44 H      -10.2880    -6.3680    -0.2380 H     1 <1>   0.1500 
 45 H      -10.0410    -2.6850     1.8830 H     1 <1>   0.1500 
 46 H      -11.3950    -4.4780     0.8810 H     1 <1>   0.1500 
@<TRIPOS>BOND
  1   1   2  1   
  2   1   3  1   
  3   2   4  2   
  4   2   5  1   
  5   3   6  2   
  6   3  26  1   
  7   4   6  1   
  8   5   7  1   
  9   5  27  1   
 10   5  28  1   
 11   6   8  1   
 12   7   9  1   
 13   7  29  1   
 14   7  30  1   
 15   8  10  1   
 16   8  31  1   
 17   8  32  1   
 18   9  33  1   
 19   9  34  1   
 20   9  35  1   
 21  10  11  am  
 22  10  36  1   
 23  11  12  2   
 24  11  13  1   
 25  13  14  1   
 26  13  15  1   
 27  13  37  1   
 28  14  16  1   
 29  15  17  1   
 30  15  18  1   
 31  15  38  1   
 32  16  19  1   
 33  16  39  1   
 34  16  40  1   
 35  17  19  am  
 36  17  41  1   
 37  18  20  ar  
 38  18  21  ar  
 39  19  22  2   
 40  20  23  ar  
 41  20  42  1   
 42  21  24  ar  
 43  21  43  1   
 44  23  25  ar  
 45  23  44  1   
 46  24  25  ar  
 47  24  45  1   
 48  25  46  1   
@<TRIPOS>SUBSTRUCTURE
  1 ****  11 GROUP 4 **** **** 0

# MOE 2024.06 (io_trps.svl 2023.06)
