@<TRIPOS>MOLECULE
NONAME
51 52 1 0 0 
SMALL
USER_CHARGES


@<TRIPOS>ATOM
  1 O        0.6890     0.6340    -0.1060 O.co2 1 <1>  -0.9000 
  2 C        1.8670     0.8240     0.2560 C.2   1 <1>   1.0320 
  3 O        2.4590    -0.0990     0.8480 O.co2 1 <1>  -0.9000 
  4 C        2.5040     2.1050    -0.0170 C.2   1 <1>  -0.0920 
  5 O        3.7600     2.3840     0.3360 O.3   1 <1>  -0.2800 
  6 C        1.9890     3.2010    -0.6390 C.2   1 <1>  -0.1500 
  7 C        4.0510     3.6120    -0.0350 C.2   1 <1>  -0.0400 
  8 C        2.9890     4.1750    -0.6510 C.2   1 <1>  -0.1500 
  9 C        5.4370     4.1390     0.2820 C.3   1 <1>   0.3200 
 10 N        5.4150     5.6200     0.3130 N.am  1 <1>  -0.7300 
 11 C        6.4170     6.4160    -0.1370 C.2   1 <1>   0.5690 
 12 O        7.4480     5.9450    -0.5590 O.2   1 <1>  -0.5700 
 13 C        6.2210     7.9450    -0.0890 C.3   1 <1>   0.1710 
 14 N        7.4660     8.7680    -0.1280 N.3   1 <1>  -0.8100 
 15 C        7.2120    10.2210    -0.2700 C.3   1 <1>   0.1100 
 16 C        8.3640     8.5150     1.0280 C.3   1 <1>   0.1100 
 17 C        8.5300    11.0340    -0.4680 C.3   1 <1>   0.4230 
 18 C        9.6980     9.2850     0.8910 C.3   1 <1>   0.3430 
 19 N        9.7060    10.1000    -0.3720 N.4   1 <1>  -0.9590 
 20 C        8.6110    12.2280     0.5070 C.3   1 <1>  -0.1600 
 21 C       11.0050    10.6130    -0.8550 C.3   1 <1>   0.4230 
 22 C        9.4290    13.4210    -0.0180 C.3   1 <1>  -0.2400 
 23 C       11.5630     9.5800    -1.8250 C.3   1 <1>  -0.2400 
 24 C       11.9960    10.8670     0.2850 C.3   1 <1>  -0.2400 
 25 H        0.9960     3.2900    -1.0430 H     1 <1>   0.1500 
 26 H        2.8920     5.1550    -1.0800 H     1 <1>   0.1500 
 27 H        6.1370     3.7790    -0.4530 H     1 <1>   0.0800 
 28 H        5.7370     3.7720     1.2480 H     1 <1>   0.0800 
 29 H        4.5370     5.9970     0.6700 H     1 <1>   0.3700 
 30 H        5.6650     8.1880     0.7980 H     1 <1>   0.0800 
 31 H        5.6140     8.2050    -0.9380 H     1 <1>   0.0800 
 32 H        6.6800    10.5740     0.5980 H     1 <1>   0.0800 
 33 H        6.5780    10.3920    -1.1240 H     1 <1>   0.0800 
 34 H        8.5890     7.4640     1.0970 H     1 <1>   0.0800 
 35 H        7.8770     8.8020     1.9440 H     1 <1>   0.0800 
 36 H        8.4950    11.4370    -1.4670 H     1 <1>   0.0800 
 37 H       10.5040     8.5710     0.8680 H     1 <1>   0.0800 
 38 H        9.8430     9.9190     1.7480 H     1 <1>   0.0800 
 39 H        9.4180     9.3770    -1.0510 H     1 <1>   0.4500 
 40 H        8.9780    11.9160     1.4680 H     1 <1>   0.0800 
 41 H        7.6140    12.6020     0.6620 H     1 <1>   0.0800 
 42 H       10.8440    11.5330    -1.3940 H     1 <1>   0.0800 
 43 H       10.4740    13.1980    -0.1020 H     1 <1>   0.0800 
 44 H        9.3290    14.2510     0.6610 H     1 <1>   0.0800 
 45 H        9.0640    13.7370    -0.9800 H     1 <1>   0.0800 
 46 H       11.7310     8.6360    -1.3370 H     1 <1>   0.0800 
 47 H       12.5030     9.9240    -2.2180 H     1 <1>   0.0800 
 48 H       10.8940     9.4400    -2.6550 H     1 <1>   0.0800 
 49 H       12.3290     9.9480     0.7320 H     1 <1>   0.0800 
 50 H       11.5670    11.4990     1.0400 H     1 <1>   0.0800 
 51 H       12.8630    11.3670    -0.1080 H     1 <1>   0.0800 
@<TRIPOS>BOND
  1   1   2  ar  
  2   2   3  ar  
  3   2   4  1   
  4   4   5  1   
  5   4   6  2   
  6   5   7  1   
  7   6   8  1   
  8   6  25  1   
  9   7   8  2   
 10   7   9  1   
 11   8  26  1   
 12   9  10  1   
 13   9  27  1   
 14   9  28  1   
 15  10  11  am  
 16  10  29  1   
 17  11  12  2   
 18  11  13  1   
 19  13  14  1   
 20  13  30  1   
 21  13  31  1   
 22  14  15  1   
 23  14  16  1   
 24  15  17  1   
 25  15  32  1   
 26  15  33  1   
 27  16  18  1   
 28  16  34  1   
 29  16  35  1   
 30  17  19  1   
 31  17  20  1   
 32  17  36  1   
 33  18  19  1   
 34  18  37  1   
 35  18  38  1   
 36  19  21  1   
 37  19  39  1   
 38  20  22  1   
 39  20  40  1   
 40  20  41  1   
 41  21  23  1   
 42  21  24  1   
 43  21  42  1   
 44  22  43  1   
 45  22  44  1   
 46  22  45  1   
 47  23  46  1   
 48  23  47  1   
 49  23  48  1   
 50  24  49  1   
 51  24  50  1   
 52  24  51  1   
@<TRIPOS>SUBSTRUCTURE
  1 ****  11 GROUP 4 **** **** 0

# MOE 2024.06 (io_trps.svl 2023.06)
