@<TRIPOS>MOLECULE
NONAME
45 47 1 0 0 
SMALL
USER_CHARGES


@<TRIPOS>ATOM
  1 S        0.0770    -0.2730     1.9480 S.o2  1 <1>   1.5010 
  2 O       -0.5910    -1.2320     2.8010 O.2   1 <1>  -0.6500 
  3 O        0.5360     0.9830     2.5010 O.2   1 <1>  -0.6500 
  4 N       -0.9840     0.1040     0.6820 N.am  1 <1>  -0.8490 
  5 C        1.4300    -1.1090     1.0840 C.2   1 <1>  -0.0630 
  6 C       -2.3220     0.4480     1.1880 C.3   1 <1>   0.1960 
  7 C       -0.4680     1.1820    -0.1680 C.3   1 <1>   0.1960 
  8 C        1.3510    -2.3150     0.4860 C.2   1 <1>  -0.1100 
  9 C        2.7280    -0.5220     0.9380 C.2   1 <1>  -0.1500 
 10 C       -3.3390     0.5820     0.0370 C.3   1 <1>   0.0000 
 11 C       -1.3710     1.3730    -1.3910 C.3   1 <1>  -0.1600 
 12 S        2.8660    -2.7580    -0.2660 S.3   1 <1>  -0.0800 
 13 C        3.6350    -1.2530     0.2410 C.2   1 <1>  -0.0450 
 14 C       -4.7420     0.8930     0.5920 C.3   1 <1>   0.2000 
 15 C       -2.8280     1.6400    -0.9800 C.3   1 <1>  -0.1600 
 16 C       -3.5950    -0.7670    -0.6620 C.3   1 <1>  -0.1600 
 17 C        5.0090    -0.9960    -0.1110 C.2   1 <1>   0.7150 
 18 O       -4.9360     2.2360     0.8560 O.3   1 <1>  -0.6800 
 19 C       -5.7390     0.4080    -0.4590 C.3   1 <1>  -0.1600 
 20 C       -4.9960    -0.6600    -1.2740 C.3   1 <1>  -0.1600 
 21 O        5.5330     0.0570     0.1970 O.2   1 <1>  -0.5700 
 22 N        5.7380    -1.9250    -0.7980 N.am  1 <1>  -0.7300 
 23 C        7.1560    -1.7900    -1.2210 C.3   1 <1>   0.0600 
 24 H       -2.6640    -0.3190     1.8620 H     1 <1>   0.0800 
 25 H       -2.2760     1.3730     1.7430 H     1 <1>   0.0800 
 26 H       -0.4180     2.1010     0.3940 H     1 <1>   0.0800 
 27 H        0.5260     0.9400    -0.5050 H     1 <1>   0.0800 
 28 H        0.5300    -3.0070     0.4080 H     1 <1>   0.1500 
 29 H        2.9450     0.4430     1.3670 H     1 <1>   0.1500 
 30 H       -1.0060     2.2020    -1.9700 H     1 <1>   0.0800 
 31 H       -1.3070     0.4980    -2.0120 H     1 <1>   0.0800 
 32 H       -4.9020     0.3510     1.5100 H     1 <1>   0.0800 
 33 H       -3.4540     1.6670    -1.8540 H     1 <1>   0.0800 
 34 H       -2.8550     2.6160    -0.5260 H     1 <1>   0.0800 
 35 H       -2.8530    -1.0150    -1.3980 H     1 <1>   0.0800 
 36 H       -3.6030    -1.5520     0.0750 H     1 <1>   0.0800 
 37 H       -4.8870     2.7420     0.0240 H     1 <1>   0.4000 
 38 H       -6.6070    -0.0100     0.0190 H     1 <1>   0.0800 
 39 H       -6.0400     1.2110    -1.1090 H     1 <1>   0.0800 
 40 H       -5.5040    -1.6090    -1.2380 H     1 <1>   0.0800 
 41 H       -4.9240    -0.3470    -2.3020 H     1 <1>   0.0800 
 42 H        5.2740    -2.8030    -1.0380 H     1 <1>   0.3700 
 43 H        7.5500    -0.8330    -0.9200 H     1 <1>   0.0800 
 44 H        7.2250    -1.8700    -2.2920 H     1 <1>   0.0800 
 45 H        7.7470    -2.5660    -0.7680 H     1 <1>   0.0800 
@<TRIPOS>BOND
  1   1   2  2   
  2   1   3  2   
  3   1   4  am  
  4   1   5  1   
  5   4   6  1   
  6   4   7  1   
  7   5   8  2   
  8   5   9  1   
  9   6  10  1   
 10   6  24  1   
 11   6  25  1   
 12   7  11  1   
 13   7  26  1   
 14   7  27  1   
 15   8  12  1   
 16   8  28  1   
 17   9  13  2   
 18   9  29  1   
 19  10  14  1   
 20  10  15  1   
 21  10  16  1   
 22  11  15  1   
 23  11  30  1   
 24  11  31  1   
 25  12  13  1   
 26  13  17  1   
 27  14  18  1   
 28  14  19  1   
 29  14  32  1   
 30  15  33  1   
 31  15  34  1   
 32  16  20  1   
 33  16  35  1   
 34  16  36  1   
 35  17  21  2   
 36  17  22  am  
 37  18  37  1   
 38  19  20  1   
 39  19  38  1   
 40  19  39  1   
 41  20  40  1   
 42  20  41  1   
 43  22  23  1   
 44  22  42  1   
 45  23  43  1   
 46  23  44  1   
 47  23  45  1   
@<TRIPOS>SUBSTRUCTURE
  1 ****   4 GROUP 4 **** **** 0

# MOE 2024.06 (io_trps.svl 2023.06)
