@<TRIPOS>MOLECULE
NONAME
51 52 1 0 0 
SMALL
USER_CHARGES


@<TRIPOS>ATOM
  1 O        0.5270    -1.7060    -1.8230 O.2   1 <1>  -0.5700 
  2 C        0.1470    -1.6280    -0.6710 C.2   1 <1>   0.5440 
  3 N        0.7930    -0.7650     0.1730 N.am  1 <1>  -0.7300 
  4 C       -0.9570    -2.4400    -0.2100 C.ar  1 <1>   0.0860 
  5 C        1.9330     0.0980    -0.1970 C.3   1 <1>   0.1400 
  6 C       -1.3390    -3.5790    -0.9200 C.ar  1 <1>   0.1600 
  7 C       -1.6940    -2.1500     0.9370 C.ar  1 <1>  -0.1500 
  8 C        2.9660     0.0440     0.9220 C.3   1 <1>  -0.2400 
  9 N       -2.3190    -4.4090    -0.6020 N.ar  1 <1>  -0.6200 
 10 C       -2.7180    -2.9990     1.2820 C.ar  1 <1>  -0.1500 
 11 C       -3.0030    -4.1110     0.4970 C.ar  1 <1>   0.4100 
 12 N       -4.0270    -4.9470     0.8520 N.pl3 1 <1>  -0.8690 
 13 C       -4.6210    -5.9000    -0.0890 C.3   1 <1>   0.4330 
 14 C       -6.0780    -6.1250     0.3010 C.ar  1 <1>  -0.1430 
 15 C       -3.8280    -7.2070    -0.0320 C.3   1 <1>  -0.1600 
 16 C       -7.0840    -5.8940    -0.6280 C.ar  1 <1>  -0.1500 
 17 C       -6.4210    -6.5690     1.5720 C.ar  1 <1>  -0.1500 
 18 C       -4.4900    -8.2610    -0.9100 C.3   1 <1>   0.3430 
 19 C       -8.4080    -6.1180    -0.2960 C.ar  1 <1>  -0.1500 
 20 C       -7.7460    -6.7930     1.9030 C.ar  1 <1>  -0.1500 
 21 N       -3.6630    -9.5030    -0.9490 N.4   1 <1>  -0.9590 
 22 C       -8.7400    -6.5700     0.9680 C.ar  1 <1>  -0.1500 
 23 C       -4.1120   -10.3940    -2.0620 C.3   1 <1>   0.2630 
 24 C       -3.6960   -10.2410     0.3540 C.3   1 <1>   0.2630 
 25 H        0.5350    -0.7370     1.1580 H     1 <1>   0.3700 
 26 H        1.5850     1.1070    -0.3360 H     1 <1>   0.0800 
 27 H        2.3730    -0.2420    -1.1200 H     1 <1>   0.0800 
 28 H       -0.7840    -3.8110    -1.8140 H     1 <1>   0.1500 
 29 H       -1.4770    -1.2840     1.5340 H     1 <1>   0.1500 
 30 H        2.5480     0.4100     1.8420 H     1 <1>   0.0800 
 31 H        3.8080     0.6590     0.6620 H     1 <1>   0.0800 
 32 H        3.3130    -0.9650     1.0570 H     1 <1>   0.0800 
 33 H       -3.3090    -2.8140     2.1590 H     1 <1>   0.1500 
 34 H       -4.7350    -4.5490     1.4720 H     1 <1>   0.4000 
 35 H       -4.5770    -5.4900    -1.0850 H     1 <1>   0.0800 
 36 H       -3.7840    -7.5380     0.9880 H     1 <1>   0.0800 
 37 H       -2.8310    -7.0170    -0.3850 H     1 <1>   0.0800 
 38 H       -6.8490    -5.5310    -1.6140 H     1 <1>   0.1500 
 39 H       -5.6610    -6.7400     2.3150 H     1 <1>   0.1500 
 40 H       -4.5910    -7.8650    -1.9080 H     1 <1>   0.0800 
 41 H       -5.4780    -8.4850    -0.5370 H     1 <1>   0.0800 
 42 H       -9.1850    -5.9350    -1.0200 H     1 <1>   0.1500 
 43 H       -8.0070    -7.1360     2.8900 H     1 <1>   0.1500 
 44 H       -2.6880    -9.2170    -1.1360 H     1 <1>   0.4500 
 45 H       -9.7710    -6.7410     1.2260 H     1 <1>   0.1500 
 46 H       -5.1330   -10.7040    -1.9050 H     1 <1>   0.0800 
 47 H       -3.4890   -11.2720    -2.1130 H     1 <1>   0.0800 
 48 H       -4.0510    -9.8750    -3.0050 H     1 <1>   0.0800 
 49 H       -4.7080   -10.5170     0.6020 H     1 <1>   0.0800 
 50 H       -3.3040    -9.6250     1.1470 H     1 <1>   0.0800 
 51 H       -3.0990   -11.1360     0.2920 H     1 <1>   0.0800 
@<TRIPOS>BOND
  1   1   2  2   
  2   2   3  am  
  3   2   4  1   
  4   3   5  1   
  5   3  25  1   
  6   4   6  ar  
  7   4   7  ar  
  8   5   8  1   
  9   5  26  1   
 10   5  27  1   
 11   6   9  ar  
 12   6  28  1   
 13   7  10  ar  
 14   7  29  1   
 15   8  30  1   
 16   8  31  1   
 17   8  32  1   
 18   9  11  ar  
 19  10  11  ar  
 20  10  33  1   
 21  11  12  1   
 22  12  13  1   
 23  12  34  1   
 24  13  14  1   
 25  13  15  1   
 26  13  35  1   
 27  14  16  ar  
 28  14  17  ar  
 29  15  18  1   
 30  15  36  1   
 31  15  37  1   
 32  16  19  ar  
 33  16  38  1   
 34  17  20  ar  
 35  17  39  1   
 36  18  21  1   
 37  18  40  1   
 38  18  41  1   
 39  19  22  ar  
 40  19  42  1   
 41  20  22  ar  
 42  20  43  1   
 43  21  23  1   
 44  21  24  1   
 45  21  44  1   
 46  22  45  1   
 47  23  46  1   
 48  23  47  1   
 49  23  48  1   
 50  24  49  1   
 51  24  50  1   
 52  24  51  1   
@<TRIPOS>SUBSTRUCTURE
  1 ****  11 GROUP 4 **** **** 0

# MOE 2024.06 (io_trps.svl 2023.06)
