@<TRIPOS>MOLECULE
NONAME
54 57 1 0 0 
SMALL
USER_CHARGES


@<TRIPOS>ATOM
  1 O        1.6770     0.2820     0.8190 O.3   1 <1>  -0.6800 
  2 C        2.0670    -0.0070    -0.4880 C.3   1 <1>   0.2000 
  3 C        2.8540    -1.3170    -0.5160 C.3   1 <1>  -0.0800 
  4 C        3.1270     1.0110    -0.9120 C.3   1 <1>   0.3430 
  5 C        4.2470    -0.9220    -0.0160 C.3   1 <1>   0.3430 
  6 C        2.2520    -2.5010     0.2650 C.3   1 <1>  -0.0170 
  7 N        4.4000     0.5330    -0.2940 N.4   1 <1>  -0.9590 
  8 C        3.2110    -3.6790     0.2380 C.ar  1 <1>  -0.1440 
  9 C        4.7480     1.2910     0.9340 C.3   1 <1>   0.4860 
 10 C        3.9520    -4.0440     1.3460 C.ar  1 <1>  -0.1500 
 11 C        3.3980    -4.4400    -0.8980 C.ar  1 <1>  -0.1500 
 12 C        4.9930     2.7490     0.5740 C.ar  1 <1>  -0.1440 
 13 C        4.8330    -5.1090     1.2580 C.ar  1 <1>   0.1600 
 14 C        4.3060    -5.4860    -0.8800 C.ar  1 <1>   0.1600 
 15 C        6.1420     3.1500    -0.1190 C.ar  1 <1>  -0.0230 
 16 C        4.0450     3.6920     0.9430 C.ar  1 <1>  -0.1500 
 17 N        5.0340    -5.8290     0.1680 N.ar  1 <1>  -0.6200 
 18 N        7.1580     2.2250    -0.4970 N.pl3 1 <1>   0.5930 
 19 C        6.2940     4.4940    -0.4440 C.ar  1 <1>  -0.1500 
 20 C        4.2180     5.0250     0.6200 C.ar  1 <1>  -0.1500 
 21 N        6.9270     1.1960    -1.3600 N.2   1 <1>  -0.7070 
 22 C        8.4250     2.1440    -0.0100 C.2   1 <1>  -0.3320 
 23 C        5.3420     5.4260    -0.0770 C.ar  1 <1>  -0.1500 
 24 C        8.0390     0.5360    -1.4170 C.2   1 <1>   0.1080 
 25 C        9.0130     1.0770    -0.5890 C.2   1 <1>  -0.1500 
 26 C        9.0260     3.1070     1.0030 C.3   1 <1>  -0.0600 
 27 C        8.2320    -0.6810    -2.2940 C.3   1 <1>  -0.0590 
 28 H        0.8350    -0.1680     1.0430 H     1 <1>   0.4000 
 29 H        1.2010     0.0030    -1.1290 H     1 <1>   0.0800 
 30 H        2.9620    -1.6170    -1.5440 H     1 <1>   0.0800 
 31 H        2.8620     2.0070    -0.6000 H     1 <1>   0.0800 
 32 H        3.2260     0.9940    -1.9840 H     1 <1>   0.0800 
 33 H        5.0120    -1.4980    -0.5120 H     1 <1>   0.0800 
 34 H        4.3080    -1.1010     1.0450 H     1 <1>   0.0800 
 35 H        1.3140    -2.7930    -0.1770 H     1 <1>   0.0800 
 36 H        2.0600    -2.2260     1.2880 H     1 <1>   0.0800 
 37 H        5.1950     0.6890    -0.9510 H     1 <1>   0.4500 
 38 H        3.9420     1.2190     1.6470 H     1 <1>   0.0800 
 39 H        5.6390     0.8790     1.3790 H     1 <1>   0.0800 
 40 H        3.8550    -3.5200     2.2790 H     1 <1>   0.1500 
 41 H        2.8490    -4.2380    -1.8000 H     1 <1>   0.1500 
 42 H        5.4030    -5.3840     2.1300 H     1 <1>   0.1500 
 43 H        4.4400    -6.0720    -1.7750 H     1 <1>   0.1500 
 44 H        3.1600     3.4020     1.4860 H     1 <1>   0.1500 
 45 H        7.1650     4.8180    -0.9900 H     1 <1>   0.1500 
 46 H        3.4790     5.7540     0.9100 H     1 <1>   0.1500 
 47 H        5.4740     6.4640    -0.3340 H     1 <1>   0.1500 
 48 H       10.0140     0.7020    -0.4580 H     1 <1>   0.1500 
 49 H       10.0220     2.7960     1.2660 H     1 <1>   0.0800 
 50 H        8.4290     3.1340     1.8980 H     1 <1>   0.0800 
 51 H        9.0800     4.0990     0.5920 H     1 <1>   0.0800 
 52 H        9.2640    -0.9790    -2.2980 H     1 <1>   0.0800 
 53 H        7.9350    -0.4520    -3.3010 H     1 <1>   0.0800 
 54 H        7.6350    -1.4950    -1.9280 H     1 <1>   0.0800 
@<TRIPOS>BOND
  1   1   2  1   
  2   1  28  1   
  3   2   3  1   
  4   2   4  1   
  5   2  29  1   
  6   3   5  1   
  7   3   6  1   
  8   3  30  1   
  9   4   7  1   
 10   4  31  1   
 11   4  32  1   
 12   5   7  1   
 13   5  33  1   
 14   5  34  1   
 15   6   8  1   
 16   6  35  1   
 17   6  36  1   
 18   7   9  1   
 19   7  37  1   
 20   8  10  ar  
 21   8  11  ar  
 22   9  12  1   
 23   9  38  1   
 24   9  39  1   
 25  10  13  ar  
 26  10  40  1   
 27  11  14  ar  
 28  11  41  1   
 29  12  15  ar  
 30  12  16  ar  
 31  13  17  ar  
 32  13  42  1   
 33  14  17  ar  
 34  14  43  1   
 35  15  18  1   
 36  15  19  ar  
 37  16  20  ar  
 38  16  44  1   
 39  18  21  1   
 40  18  22  1   
 41  19  23  ar  
 42  19  45  1   
 43  20  23  ar  
 44  20  46  1   
 45  21  24  2   
 46  22  25  2   
 47  22  26  1   
 48  23  47  1   
 49  24  25  1   
 50  24  27  1   
 51  25  48  1   
 52  26  49  1   
 53  26  50  1   
 54  26  51  1   
 55  27  52  1   
 56  27  53  1   
 57  27  54  1   
@<TRIPOS>SUBSTRUCTURE
  1 ****   7 GROUP 4 **** **** 0

# MOE 2024.06 (io_trps.svl 2023.06)
