@<TRIPOS>MOLECULE
NONAME
52 54 1 0 0 
SMALL
USER_CHARGES


@<TRIPOS>ATOM
  1 O       -2.0670    -2.9670     0.1550 O.2   1 <1>  -0.5700 
  2 C       -0.9220    -3.3120     0.3120 C.2   1 <1>   0.5690 
  3 N       -0.5600    -4.4850     0.9150 N.am  1 <1>  -0.6600 
  4 C        0.1900    -2.4080    -0.1790 C.3   1 <1>  -0.0990 
  5 C        0.8690    -4.8360     1.0950 C.3   1 <1>   0.1400 
  6 C       -1.5600    -5.4360     1.4730 C.3   1 <1>   0.0600 
  7 C        1.2580    -3.2290    -0.9250 C.3   1 <1>  -0.0800 
  8 C        1.6540    -4.5380    -0.2000 C.3   1 <1>  -0.0800 
  9 C        2.5580    -2.4520    -1.1750 C.3   1 <1>  -0.1600 
 10 C        3.1720    -4.4570     0.0170 C.3   1 <1>  -0.1600 
 11 C        3.6540    -3.5080    -1.0790 C.3   1 <1>   0.4230 
 12 N        5.0050    -2.9240    -0.8470 N.4   1 <1>  -0.9590 
 13 C        5.1950    -2.2280     0.4620 C.3   1 <1>   0.4860 
 14 C        6.0760    -3.9470    -1.0700 C.3   1 <1>   0.2630 
 15 C        6.4520    -1.3850     0.3740 C.ar  1 <1>  -0.1440 
 16 C        7.6260    -1.8120     0.9750 C.ar  1 <1>  -0.1500 
 17 C        6.4470    -0.1810    -0.3150 C.ar  1 <1>  -0.1500 
 18 C        8.7770    -1.0530     0.8700 C.ar  1 <1>  -0.1500 
 19 C        7.6030     0.5720    -0.4130 C.ar  1 <1>  -0.1500 
 20 C        8.7980     0.1550     0.1760 C.ar  1 <1>   0.0860 
 21 C       10.0230     0.9280     0.0720 C.2   1 <1>   0.5440 
 22 O       11.0990     0.3660     0.0350 O.2   1 <1>  -0.5700 
 23 N        9.9880     2.2960     0.0260 N.am  1 <1>  -0.7300 
 24 C       11.1750     3.1820    -0.0950 C.3   1 <1>   0.0600 
 25 H       -0.2230    -1.6580    -0.8290 H     1 <1>   0.0800 
 26 H        0.6080    -1.9170     0.6800 H     1 <1>   0.0800 
 27 H        1.2540    -4.2530     1.9150 H     1 <1>   0.0800 
 28 H        0.9650    -5.8780     1.3480 H     1 <1>   0.0800 
 29 H       -1.4640    -6.3920     0.9900 H     1 <1>   0.0800 
 30 H       -2.5600    -5.0700     1.3130 H     1 <1>   0.0800 
 31 H       -1.4040    -5.5520     2.5310 H     1 <1>   0.0800 
 32 H        0.8360    -3.5100    -1.8770 H     1 <1>   0.0800 
 33 H        1.4570    -5.3520    -0.8790 H     1 <1>   0.0800 
 34 H        2.6720    -1.6990    -0.4180 H     1 <1>   0.0800 
 35 H        2.5420    -1.9850    -2.1440 H     1 <1>   0.0800 
 36 H        3.6230    -5.4300    -0.0690 H     1 <1>   0.0800 
 37 H        3.3640    -4.0520     0.9930 H     1 <1>   0.0800 
 38 H        3.6580    -4.0530    -2.0110 H     1 <1>   0.0800 
 39 H        5.1440    -2.1960    -1.5600 H     1 <1>   0.4500 
 40 H        4.3590    -1.5840     0.6770 H     1 <1>   0.0800 
 41 H        5.2860    -2.9460     1.2600 H     1 <1>   0.0800 
 42 H        6.0180    -4.7220    -0.3220 H     1 <1>   0.0800 
 43 H        7.0510    -3.4890    -1.0160 H     1 <1>   0.0800 
 44 H        5.9680    -4.3980    -2.0430 H     1 <1>   0.0800 
 45 H        7.6650    -2.7350     1.5290 H     1 <1>   0.1500 
 46 H        5.5480     0.1870    -0.7820 H     1 <1>   0.1500 
 47 H        9.6890    -1.3950     1.3340 H     1 <1>   0.1500 
 48 H        7.5860     1.4970    -0.9630 H     1 <1>   0.1500 
 49 H        9.0990     2.7730     0.1860 H     1 <1>   0.3700 
 50 H       12.0620     2.6020    -0.2850 H     1 <1>   0.0800 
 51 H       11.3120     3.7340     0.8190 H     1 <1>   0.0800 
 52 H       11.0340     3.8720    -0.9090 H     1 <1>   0.0800 
@<TRIPOS>BOND
  1   1   2  2   
  2   2   3  am  
  3   2   4  1   
  4   3   5  1   
  5   3   6  1   
  6   4   7  1   
  7   4  25  1   
  8   4  26  1   
  9   5   8  1   
 10   5  27  1   
 11   5  28  1   
 12   6  29  1   
 13   6  30  1   
 14   6  31  1   
 15   7   8  1   
 16   7   9  1   
 17   7  32  1   
 18   8  10  1   
 19   8  33  1   
 20   9  11  1   
 21   9  34  1   
 22   9  35  1   
 23  10  11  1   
 24  10  36  1   
 25  10  37  1   
 26  11  12  1   
 27  11  38  1   
 28  12  13  1   
 29  12  14  1   
 30  12  39  1   
 31  13  15  1   
 32  13  40  1   
 33  13  41  1   
 34  14  42  1   
 35  14  43  1   
 36  14  44  1   
 37  15  16  ar  
 38  15  17  ar  
 39  16  18  ar  
 40  16  45  1   
 41  17  19  ar  
 42  17  46  1   
 43  18  20  ar  
 44  18  47  1   
 45  19  20  ar  
 46  19  48  1   
 47  20  21  1   
 48  21  22  2   
 49  21  23  am  
 50  23  24  1   
 51  23  49  1   
 52  24  50  1   
 53  24  51  1   
 54  24  52  1   
@<TRIPOS>SUBSTRUCTURE
  1 ****  13 GROUP 4 **** **** 0

# MOE 2024.06 (io_trps.svl 2023.06)
