@<TRIPOS>MOLECULE
NONAME
43 45 1 0 0 
SMALL
USER_CHARGES


@<TRIPOS>ATOM
  1 O       -1.4470     0.3720     2.3620 O.2   1 <1>  -0.5700 
  2 C       -1.8360     0.7360     1.2780 C.2   1 <1>   0.5690 
  3 N       -2.5050    -0.1130     0.4480 N.am  1 <1>  -0.5100 
  4 C       -1.5390     2.1830     0.8710 C.3   1 <1>  -0.0190 
  5 C       -3.1510    -1.4100     0.8310 C.3   1 <1>   0.2250 
  6 C       -3.5840     0.1310    -0.5580 C.3   1 <1>   0.2250 
  7 C       -2.7880     3.0860     0.9080 C.3   1 <1>  -0.1600 
  8 C       -0.7870     2.2990    -0.4790 C.3   1 <1>  -0.1600 
  9 C       -3.8540    -1.3920    -0.5490 C.3   1 <1>   0.1080 
 10 C       -2.4280     4.5750     0.7240 C.3   1 <1>   0.2000 
 11 C       -0.9370     3.6780    -1.1510 C.3   1 <1>  -0.1600 
 12 C       -5.3270    -1.7790    -0.5250 C.ar  1 <1>   0.2020 
 13 O       -3.5100     5.2040     0.0810 O.3   1 <1>  -0.5600 
 14 C       -1.1390     4.7870    -0.1160 C.3   1 <1>   0.2000 
 15 N       -5.6730    -2.7610     0.2960 N.ar  1 <1>  -0.6200 
 16 C       -6.2270    -1.1200    -1.3540 C.ar  1 <1>  -0.1500 
 17 C       -4.5600     5.5770     0.9200 C.3   1 <1>   0.0400 
 18 O       -1.2270     5.9880    -0.7890 O.3   1 <1>  -0.6800 
 19 C       -6.9550    -3.0890     0.3020 C.ar  1 <1>   0.1600 
 20 C       -7.5600    -1.4710    -1.3380 C.ar  1 <1>  -0.1500 
 21 C       -7.9240    -2.4860    -0.4800 C.ar  1 <1>  -0.1500 
 22 H       -0.8720     2.5640     1.6270 H     1 <1>   0.0800 
 23 H       -2.4330    -2.2030     0.9440 H     1 <1>   0.0000 
 24 H       -3.8100    -1.2790     1.6720 H     1 <1>   0.0000 
 25 H       -4.3830     0.7170    -0.1390 H     1 <1>   0.0000 
 26 H       -3.2010     0.4970    -1.4930 H     1 <1>   0.0000 
 27 H       -3.2930     2.9570     1.8490 H     1 <1>   0.0800 
 28 H       -3.4550     2.7920     0.1190 H     1 <1>   0.0800 
 29 H        0.2570     2.1040    -0.2970 H     1 <1>   0.0800 
 30 H       -1.1260     1.5510    -1.1730 H     1 <1>   0.0800 
 31 H       -3.2910    -1.9180    -1.3010 H     1 <1>   0.0000 
 32 H       -2.2730     5.0400     1.6830 H     1 <1>   0.0800 
 33 H       -1.7950     3.6600    -1.8020 H     1 <1>   0.0800 
 34 H       -0.0660     3.8870    -1.7470 H     1 <1>   0.0800 
 35 H       -0.2780     4.8330     0.5280 H     1 <1>   0.0800 
 36 H       -5.8950    -0.3400    -2.0140 H     1 <1>   0.1500 
 37 H       -5.3190     6.0430     0.3170 H     1 <1>   0.0800 
 38 H       -4.1980     6.2790     1.6510 H     1 <1>   0.0800 
 39 H       -4.9670     4.7040     1.4000 H     1 <1>   0.0800 
 40 H       -2.1890     6.1430    -0.9330 H     1 <1>   0.4000 
 41 H       -7.2490    -3.8830     0.9670 H     1 <1>   0.1500 
 42 H       -8.2820    -0.9780    -1.9660 H     1 <1>   0.1500 
 43 H       -8.9470    -2.8100    -0.4170 H     1 <1>   0.1500 
@<TRIPOS>BOND
  1   1   2  2   
  2   2   3  am  
  3   2   4  1   
  4   3   5  1   
  5   3   6  1   
  6   4   7  1   
  7   4   8  1   
  8   4  22  1   
  9   5   9  1   
 10   5  23  1   
 11   5  24  1   
 12   6   9  1   
 13   6  25  1   
 14   6  26  1   
 15   7  10  1   
 16   7  27  1   
 17   7  28  1   
 18   8  11  1   
 19   8  29  1   
 20   8  30  1   
 21   9  12  1   
 22   9  31  1   
 23  10  13  1   
 24  10  14  1   
 25  10  32  1   
 26  11  14  1   
 27  11  33  1   
 28  11  34  1   
 29  12  15  ar  
 30  12  16  ar  
 31  13  17  1   
 32  14  18  1   
 33  14  35  1   
 34  15  19  ar  
 35  16  20  ar  
 36  16  36  1   
 37  17  37  1   
 38  17  38  1   
 39  17  39  1   
 40  18  40  1   
 41  19  21  ar  
 42  19  41  1   
 43  20  21  ar  
 44  20  42  1   
 45  21  43  1   
@<TRIPOS>SUBSTRUCTURE
  1 ****   6 GROUP 4 **** **** 0

# MOE 2024.06 (io_trps.svl 2023.06)
