@<TRIPOS>MOLECULE
NONAME
57 59 1 0 0 
SMALL
USER_CHARGES


@<TRIPOS>ATOM
  1 O       -0.7170    -0.4000     2.7160 O.2   1 <1>  -0.5700 
  2 C       -1.3230     0.3930     2.0380 C.2   1 <1>   0.5690 
  3 N       -2.0670    -0.0040     0.9610 N.am  1 <1>  -0.6600 
  4 C       -1.2330     1.8620     2.4200 C.3   1 <1>  -0.0990 
  5 C       -2.8760     0.8610     0.0660 C.3   1 <1>   0.1400 
  6 C       -2.1630    -1.4230     0.5450 C.3   1 <1>   0.1400 
  7 C       -0.1360     2.5930     1.6300 C.3   1 <1>  -0.1600 
  8 C       -3.4710    -0.0900    -0.9740 C.3   1 <1>   0.2000 
  9 C       -3.3960    -1.4860    -0.3580 C.3   1 <1>  -0.0800 
 10 C       -0.0120     4.0610     2.0530 C.3   1 <1>  -0.0160 
 11 O       -4.7900     0.2290    -1.2590 O.3   1 <1>  -0.6800 
 12 C       -3.3470    -2.5980    -1.4200 C.3   1 <1>  -0.0170 
 13 C        1.0520     4.7590     1.2220 C.ar  1 <1>  -0.1440 
 14 C       -3.3050    -3.9810    -0.7910 C.ar  1 <1>   0.1670 
 15 C        2.3900     4.6390     1.5630 C.ar  1 <1>  -0.1500 
 16 C        0.6990     5.5140     0.1160 C.ar  1 <1>  -0.1500 
 17 N       -2.1180    -4.4190    -0.4060 N.ar  1 <1>  -0.6200 
 18 C       -4.4810    -4.7150    -0.6430 C.ar  1 <1>   0.1600 
 19 C        3.3730     5.2630     0.8130 C.ar  1 <1>  -0.1440 
 20 C        1.6710     6.1430    -0.6400 C.ar  1 <1>  -0.1500 
 21 C       -2.1840    -5.6240     0.1350 C.ar  1 <1>   0.1600 
 22 N       -4.5500    -5.9210    -0.1020 N.ar  1 <1>  -0.6200 
 23 C        3.0160     6.0220    -0.2970 C.ar  1 <1>   0.0820 
 24 C        4.8350     5.1130     1.2080 C.3   1 <1>  -0.0970 
 25 C       -3.3600    -6.3500     0.2820 C.ar  1 <1>   0.1600 
 26 O        4.0140     6.6170    -1.0030 O.3   1 <1>  -0.3620 
 27 C        3.7510     7.4180    -2.1300 C.3   1 <1>   0.1200 
 28 C        5.0840     7.9310    -2.6660 C.3   1 <1>  -0.2400 
 29 H       -2.1840     2.3350     2.2700 H     1 <1>   0.0800 
 30 H       -1.0080     1.9160     3.4710 H     1 <1>   0.0800 
 31 H       -3.6510     1.3400     0.6370 H     1 <1>   0.0800 
 32 H       -2.2520     1.5950    -0.4100 H     1 <1>   0.0800 
 33 H       -1.2720    -1.6890     0.0010 H     1 <1>   0.0800 
 34 H       -2.2610    -2.0730     1.3990 H     1 <1>   0.0800 
 35 H        0.8060     2.0960     1.7930 H     1 <1>   0.0800 
 36 H       -0.3500     2.5450     0.5770 H     1 <1>   0.0800 
 37 H       -2.9020    -0.0320    -1.8860 H     1 <1>   0.0800 
 38 H       -4.2460    -1.6420     0.2830 H     1 <1>   0.0800 
 39 H        0.2540     4.1200     3.0940 H     1 <1>   0.0800 
 40 H       -0.9560     4.5610     1.9260 H     1 <1>   0.0800 
 41 H       -5.3390     0.1620    -0.4540 H     1 <1>   0.4000 
 42 H       -2.4790    -2.4720    -2.0440 H     1 <1>   0.0800 
 43 H       -4.2120    -2.5190    -2.0540 H     1 <1>   0.0800 
 44 H        2.6650     4.0500     2.4200 H     1 <1>   0.1500 
 45 H       -0.3350     5.6150    -0.1610 H     1 <1>   0.1500 
 46 H       -5.4060    -4.2860    -0.9850 H     1 <1>   0.1500 
 47 H        1.3610     6.7190    -1.4890 H     1 <1>   0.1500 
 48 H       -1.2620    -6.0590     0.4800 H     1 <1>   0.1500 
 49 H        4.9410     4.5040     2.0870 H     1 <1>   0.0800 
 50 H        5.2590     6.0820     1.4070 H     1 <1>   0.0800 
 51 H        5.3820     4.6560     0.4040 H     1 <1>   0.0800 
 52 H       -3.3120    -7.3240     0.7360 H     1 <1>   0.1500 
 53 H        3.2500     6.8140    -2.8670 H     1 <1>   0.0800 
 54 H        3.1220     8.2370    -1.8250 H     1 <1>   0.0800 
 55 H        5.7090     7.1030    -2.9500 H     1 <1>   0.0800 
 56 H        5.5820     8.5170    -1.9150 H     1 <1>   0.0800 
 57 H        4.9160     8.5480    -3.5300 H     1 <1>   0.0800 
@<TRIPOS>BOND
  1   1   2  2   
  2   2   3  am  
  3   2   4  1   
  4   3   5  1   
  5   3   6  1   
  6   4   7  1   
  7   4  29  1   
  8   4  30  1   
  9   5   8  1   
 10   5  31  1   
 11   5  32  1   
 12   6   9  1   
 13   6  33  1   
 14   6  34  1   
 15   7  10  1   
 16   7  35  1   
 17   7  36  1   
 18   8   9  1   
 19   8  11  1   
 20   8  37  1   
 21   9  12  1   
 22   9  38  1   
 23  10  13  1   
 24  10  39  1   
 25  10  40  1   
 26  11  41  1   
 27  12  14  1   
 28  12  42  1   
 29  12  43  1   
 30  13  15  ar  
 31  13  16  ar  
 32  14  17  ar  
 33  14  18  ar  
 34  15  19  ar  
 35  15  44  1   
 36  16  20  ar  
 37  16  45  1   
 38  17  21  ar  
 39  18  22  ar  
 40  18  46  1   
 41  19  23  ar  
 42  19  24  1   
 43  20  23  ar  
 44  20  47  1   
 45  21  25  ar  
 46  21  48  1   
 47  22  25  ar  
 48  23  26  1   
 49  24  49  1   
 50  24  50  1   
 51  24  51  1   
 52  25  52  1   
 53  26  27  1   
 54  27  28  1   
 55  27  53  1   
 56  27  54  1   
 57  28  55  1   
 58  28  56  1   
 59  28  57  1   
@<TRIPOS>SUBSTRUCTURE
  1 ****   3 GROUP 4 **** **** 0

# MOE 2024.06 (io_trps.svl 2023.06)
