@<TRIPOS>MOLECULE
NONAME
56 58 1 0 0 
SMALL
USER_CHARGES


@<TRIPOS>ATOM
  1 O       -0.5990     0.5440     1.5440 O.2   1 <1>  -0.5700 
  2 C       -1.4250     1.1430     0.8950 C.2   1 <1>   0.5690 
  3 N       -2.5000     0.5020     0.3500 N.am  1 <1>  -0.6600 
  4 C       -1.2640     2.6390     0.6760 C.3   1 <1>  -0.0990 
  5 C       -3.5500     1.0960    -0.5160 C.3   1 <1>   0.1400 
  6 C       -2.7660    -0.9380     0.5540 C.3   1 <1>   0.1400 
  7 C        0.0010     3.2300     1.3150 C.3   1 <1>  -0.0160 
  8 C       -4.5550    -0.0330    -0.7850 C.3   1 <1>   0.2000 
  9 C       -3.7420    -1.3140    -0.5620 C.3   1 <1>  -0.0800 
 10 C        0.0740     4.7260     1.0530 C.ar  1 <1>  -0.1440 
 11 O       -5.5860     0.0160     0.1600 O.3   1 <1>  -0.5600 
 12 C       -4.5870    -2.5620    -0.2470 C.3   1 <1>   0.0200 
 13 C        0.6790     5.2060    -0.0990 C.ar  1 <1>  -0.1500 
 14 C       -0.4650     5.6230     1.9630 C.ar  1 <1>  -0.1500 
 15 C       -6.6550     0.8490    -0.1660 C.3   1 <1>   0.0400 
 16 C       -3.7720    -3.8450    -0.2090 C.2   1 <1>  -0.0400 
 17 C        0.7500     6.5670    -0.3450 C.ar  1 <1>   0.0820 
 18 C       -0.4110     6.9860     1.7190 C.ar  1 <1>  -0.1500 
 19 O       -4.3720    -4.9580     0.1200 O.3   1 <1>  -0.0190 
 20 C       -2.4840    -4.1340    -0.4560 C.2   1 <1>  -0.1500 
 21 O        1.3890     6.9660    -1.4730 O.3   1 <1>  -0.3630 
 22 C        0.1780     7.4670     0.5620 C.ar  1 <1>   0.0820 
 23 N       -3.5570    -5.9740     0.1080 N.2   1 <1>  -0.4100 
 24 C       -2.4110    -5.5060    -0.2340 C.2   1 <1>   0.1080 
 25 C        2.5960     7.6710    -1.2850 C.3   1 <1>   0.0400 
 26 O        0.1650     8.8090     0.3650 O.3   1 <1>  -0.3630 
 27 C       -1.1580    -6.3400    -0.3720 C.3   1 <1>  -0.0590 
 28 C       -0.5800     9.2740    -0.7390 C.3   1 <1>   0.0400 
 29 H       -1.2380     2.8290    -0.3810 H     1 <1>   0.0800 
 30 H       -2.1230     3.1350     1.0880 H     1 <1>   0.0800 
 31 H       -4.0180     1.9360    -0.0350 H     1 <1>   0.0800 
 32 H       -3.0990     1.4090    -1.4410 H     1 <1>   0.0800 
 33 H       -1.8540    -1.5080     0.5080 H     1 <1>   0.0800 
 34 H       -3.2240    -1.0710     1.5200 H     1 <1>   0.0800 
 35 H        0.8730     2.7470     0.9080 H     1 <1>   0.0800 
 36 H       -0.0060     3.0440     2.3750 H     1 <1>   0.0800 
 37 H       -4.9760     0.0080    -1.7750 H     1 <1>   0.0800 
 38 H       -3.1700    -1.4980    -1.4540 H     1 <1>   0.0800 
 39 H       -5.3520    -2.6710    -0.9940 H     1 <1>   0.0800 
 40 H       -5.0770    -2.4400     0.7040 H     1 <1>   0.0800 
 41 H        1.1080     4.5280    -0.8130 H     1 <1>   0.1500 
 42 H       -0.9300     5.2650     2.8650 H     1 <1>   0.1500 
 43 H       -7.3640     0.8120     0.6420 H     1 <1>   0.0800 
 44 H       -7.1190     0.4930    -1.0700 H     1 <1>   0.0800 
 45 H       -6.3030     1.8580    -0.2910 H     1 <1>   0.0800 
 46 H       -0.8310     7.6810     2.4220 H     1 <1>   0.1500 
 47 H       -1.6710    -3.5000    -0.7550 H     1 <1>   0.1500 
 48 H        3.0390     7.8430    -2.2490 H     1 <1>   0.0800 
 49 H        3.2530     7.0770    -0.6760 H     1 <1>   0.0800 
 50 H        2.3890     8.6100    -0.8040 H     1 <1>   0.0800 
 51 H       -0.7890    -6.2800    -1.3790 H     1 <1>   0.0800 
 52 H       -1.3740    -7.3680    -0.1400 H     1 <1>   0.0800 
 53 H       -0.4050    -5.9820     0.3050 H     1 <1>   0.0800 
 54 H       -0.6170    10.3470    -0.6900 H     1 <1>   0.0800 
 55 H       -1.5740     8.8670    -0.6840 H     1 <1>   0.0800 
 56 H       -0.1000     8.9660    -1.6490 H     1 <1>   0.0800 
@<TRIPOS>BOND
  1   1   2  2   
  2   2   3  am  
  3   2   4  1   
  4   3   5  1   
  5   3   6  1   
  6   4   7  1   
  7   4  29  1   
  8   4  30  1   
  9   5   8  1   
 10   5  31  1   
 11   5  32  1   
 12   6   9  1   
 13   6  33  1   
 14   6  34  1   
 15   7  10  1   
 16   7  35  1   
 17   7  36  1   
 18   8   9  1   
 19   8  11  1   
 20   8  37  1   
 21   9  12  1   
 22   9  38  1   
 23  10  13  ar  
 24  10  14  ar  
 25  11  15  1   
 26  12  16  1   
 27  12  39  1   
 28  12  40  1   
 29  13  17  ar  
 30  13  41  1   
 31  14  18  ar  
 32  14  42  1   
 33  15  43  1   
 34  15  44  1   
 35  15  45  1   
 36  16  19  1   
 37  16  20  2   
 38  17  21  1   
 39  17  22  ar  
 40  18  22  ar  
 41  18  46  1   
 42  19  23  1   
 43  20  24  1   
 44  20  47  1   
 45  21  25  1   
 46  22  26  1   
 47  23  24  2   
 48  24  27  1   
 49  25  48  1   
 50  25  49  1   
 51  25  50  1   
 52  26  28  1   
 53  27  51  1   
 54  27  52  1   
 55  27  53  1   
 56  28  54  1   
 57  28  55  1   
 58  28  56  1   
@<TRIPOS>SUBSTRUCTURE
  1 ****   2 GROUP 4 **** **** 0

# MOE 2024.06 (io_trps.svl 2023.06)
