@<TRIPOS>MOLECULE
NONAME
32 33 1 0 0 
SMALL
USER_CHARGES


@<TRIPOS>ATOM
  1 S       -0.3510    -0.0990    -0.4460 S.3   1 <1>  -0.0800 
  2 C        0.4710     1.3880    -0.8840 C.2   1 <1>  -0.1100 
  3 C       -1.6320     0.7980     0.3490 C.2   1 <1>  -0.1100 
  4 C       -0.2060     2.4620    -0.4370 C.2   1 <1>  -0.1810 
  5 C       -1.4090     2.1220     0.2640 C.2   1 <1>  -0.1500 
  6 C        0.2140     3.9120    -0.6280 C.3   1 <1>   0.0210 
  7 C        0.6550     4.5570     0.6970 C.3   1 <1>   0.2890 
  8 N        0.7700     6.0270     0.5760 N.pl3 1 <1>  -0.8690 
  9 C        1.9590     3.9760     1.2480 C.3   1 <1>  -0.2400 
 10 C        1.7400     6.7220    -0.0600 C.ar  1 <1>   0.7200 
 11 N        2.0210     7.8760     0.5220 N.ar  1 <1>  -0.6200 
 12 N        2.2860     6.2110    -1.1600 N.ar  1 <1>  -0.6200 
 13 C        2.9500     8.6090    -0.0530 C.ar  1 <1>   0.3930 
 14 C        3.2140     6.9510    -1.7290 C.ar  1 <1>   0.1600 
 15 O        3.1960     9.7770     0.5850 O.3   1 <1>  -0.3630 
 16 C        3.5830     8.1640    -1.2100 C.ar  1 <1>   0.1900 
 17 C        4.1090    10.7570     0.1440 C.3   1 <1>   0.0400 
 18 F        4.5190     8.8450    -1.8340 F     1 <1>  -0.1900 
 19 H        1.3900     1.2980    -1.4370 H     1 <1>   0.1500 
 20 H       -2.4270     0.2310     0.7990 H     1 <1>   0.1500 
 21 H       -2.0520     2.8850     0.6680 H     1 <1>   0.1500 
 22 H       -0.6150     4.4640    -1.0330 H     1 <1>   0.0800 
 23 H        1.0190     3.9500    -1.3380 H     1 <1>   0.0800 
 24 H       -0.1180     4.3630     1.4200 H     1 <1>   0.0800 
 25 H        0.4960     6.5270     1.4200 H     1 <1>   0.4000 
 26 H        2.7560     4.0830     0.5340 H     1 <1>   0.0800 
 27 H        1.8330     2.9290     1.4560 H     1 <1>   0.0800 
 28 H        2.2300     4.4730     2.1610 H     1 <1>   0.0800 
 29 H        3.6870     6.5840    -2.6230 H     1 <1>   0.1500 
 30 H        4.0720    11.5810     0.8340 H     1 <1>   0.0800 
 31 H        3.8200    11.0920    -0.8370 H     1 <1>   0.0800 
 32 H        5.0990    10.3370     0.1340 H     1 <1>   0.0800 
@<TRIPOS>BOND
  1   1   2  1   
  2   1   3  1   
  3   2   4  2   
  4   2  19  1   
  5   3   5  2   
  6   3  20  1   
  7   4   5  1   
  8   4   6  1   
  9   5  21  1   
 10   6   7  1   
 11   6  22  1   
 12   6  23  1   
 13   7   8  1   
 14   7   9  1   
 15   7  24  1   
 16   8  10  1   
 17   8  25  1   
 18   9  26  1   
 19   9  27  1   
 20   9  28  1   
 21  10  11  ar  
 22  10  12  ar  
 23  11  13  ar  
 24  12  14  ar  
 25  13  15  1   
 26  13  16  ar  
 27  14  16  ar  
 28  14  29  1   
 29  15  17  1   
 30  16  18  1   
 31  17  30  1   
 32  17  31  1   
 33  17  32  1   
@<TRIPOS>SUBSTRUCTURE
  1 ****   8 GROUP 4 **** **** 0

# MOE 2024.06 (io_trps.svl 2023.06)
