@<TRIPOS>MOLECULE
NONAME
46 48 1 0 0 
SMALL
USER_CHARGES


@<TRIPOS>ATOM
  1 CL      -5.8790     1.7900    -3.6660 Cl    1 <1>  -0.1770 
  2 C       -5.1840     0.9450    -2.3030 C.ar  1 <1>   0.1770 
  3 C       -4.6240    -0.3120    -2.4570 C.ar  1 <1>   0.1770 
  4 C       -5.2140     1.5520    -1.0610 C.ar  1 <1>  -0.1500 
  5 CL      -4.5920    -1.0930    -4.0210 Cl    1 <1>  -0.1770 
  6 C       -4.0850    -0.9720    -1.3680 C.ar  1 <1>  -0.1500 
  7 C       -4.6890     0.8890     0.0420 C.ar  1 <1>  -0.1440 
  8 C       -4.1190    -0.3680    -0.1210 C.ar  1 <1>  -0.1500 
  9 C       -4.7440     1.5260     1.4290 C.3   1 <1>   0.0450 
 10 C       -5.3770     0.6190     2.4820 C.2   1 <1>   0.5690 
 11 O       -4.6490     0.2510     3.3750 O.2   1 <1>  -0.5700 
 12 N       -6.7020     0.2370     2.4320 N.am  1 <1>  -0.6600 
 13 C       -7.6400     0.6650     1.3490 C.3   1 <1>   0.2200 
 14 C       -7.2400    -0.6740     3.4920 C.3   1 <1>   0.0600 
 15 C       -7.9310    -0.4500     0.3510 C.3   1 <1>  -0.1600 
 16 C       -9.0220     1.1050     1.8270 C.3   1 <1>  -0.1600 
 17 C       -9.1830     0.0300    -0.3920 C.3   1 <1>  -0.0800 
 18 C       -9.8990     1.0070     0.5710 C.3   1 <1>  -0.0800 
 19 C      -10.0510    -1.1320    -0.9130 C.3   1 <1>   0.1400 
 20 C      -11.3560     0.6150     0.8760 C.3   1 <1>  -0.0990 
 21 N      -11.4110    -0.6420    -1.2460 N.am  1 <1>  -0.6600 
 22 C      -12.0700     0.2030    -0.3950 C.2   1 <1>   0.5690 
 23 C      -12.0150    -1.1400    -2.5100 C.3   1 <1>   0.0600 
 24 O      -13.1800     0.6280    -0.6060 O.2   1 <1>  -0.5700 
 25 H       -5.6510     2.5310    -0.9690 H     1 <1>   0.1500 
 26 H       -3.6450    -1.9460    -1.4950 H     1 <1>   0.1500 
 27 H       -3.7020    -0.8850     0.7290 H     1 <1>   0.1500 
 28 H       -5.2810     2.4540     1.4070 H     1 <1>   0.0800 
 29 H       -3.7390     1.7530     1.7360 H     1 <1>   0.0800 
 30 H       -7.2250     1.4940     0.8070 H     1 <1>   0.0800 
 31 H       -7.9280    -1.3850     3.0720 H     1 <1>   0.0800 
 32 H       -7.7450    -0.0930     4.2440 H     1 <1>   0.0800 
 33 H       -6.4440    -1.2240     3.9650 H     1 <1>   0.0800 
 34 H       -7.1100    -0.6100    -0.3230 H     1 <1>   0.0800 
 35 H       -8.1430    -1.3650     0.8740 H     1 <1>   0.0800 
 36 H       -9.4000     0.4350     2.5770 H     1 <1>   0.0800 
 37 H       -9.0020     2.1060     2.2190 H     1 <1>   0.0800 
 38 H       -8.8610     0.5980    -1.2490 H     1 <1>   0.0800 
 39 H       -9.9150     1.9720     0.0910 H     1 <1>   0.0800 
 40 H      -10.1430    -1.8950    -0.1590 H     1 <1>   0.0800 
 41 H       -9.5880    -1.5680    -1.7820 H     1 <1>   0.0800 
 42 H      -11.8740     1.4410     1.3290 H     1 <1>   0.0800 
 43 H      -11.3920    -0.2180     1.5530 H     1 <1>   0.0800 
 44 H      -11.4130    -0.8310    -3.3470 H     1 <1>   0.0800 
 45 H      -13.0080    -0.7430    -2.6360 H     1 <1>   0.0800 
 46 H      -12.0730    -2.2140    -2.4880 H     1 <1>   0.0800 
@<TRIPOS>BOND
  1   1   2  1   
  2   2   3  ar  
  3   2   4  ar  
  4   3   5  1   
  5   3   6  ar  
  6   4   7  ar  
  7   4  25  1   
  8   6   8  ar  
  9   6  26  1   
 10   7   8  ar  
 11   7   9  1   
 12   8  27  1   
 13   9  10  1   
 14   9  28  1   
 15   9  29  1   
 16  10  11  2   
 17  10  12  am  
 18  12  13  1   
 19  12  14  1   
 20  13  15  1   
 21  13  16  1   
 22  13  30  1   
 23  14  31  1   
 24  14  32  1   
 25  14  33  1   
 26  15  17  1   
 27  15  34  1   
 28  15  35  1   
 29  16  18  1   
 30  16  36  1   
 31  16  37  1   
 32  17  18  1   
 33  17  19  1   
 34  17  38  1   
 35  18  20  1   
 36  18  39  1   
 37  19  21  1   
 38  19  40  1   
 39  19  41  1   
 40  20  22  1   
 41  20  42  1   
 42  20  43  1   
 43  21  22  am  
 44  21  23  1   
 45  22  24  2   
 46  23  44  1   
 47  23  45  1   
 48  23  46  1   
@<TRIPOS>SUBSTRUCTURE
  1 ****  15 GROUP 4 **** **** 0

# MOE 2024.06 (io_trps.svl 2023.06)
