@<TRIPOS>MOLECULE
NONAME
45 48 1 0 0 
SMALL
USER_CHARGES


@<TRIPOS>ATOM
  1 O       -0.8870     3.7190     2.2940 O.2   1 <1>  -0.5700 
  2 C       -0.7900     3.0570     1.2740 C.2   1 <1>   0.7160 
  3 N       -1.9550     2.5410     0.7310 N.am  1 <1>  -0.6600 
  4 C        0.5350     2.8680     0.6950 C.2   1 <1>   0.2030 
  5 C       -3.2940     3.1350     1.0310 C.3   1 <1>   0.1400 
  6 C       -2.0200     1.4900    -0.3200 C.3   1 <1>   0.1400 
  7 N        0.8480     2.6150    -0.5450 N.2   1 <1>  -0.4100 
  8 C        1.7160     2.9680     1.4170 C.2   1 <1>  -0.1500 
  9 C       -3.8480     3.8310    -0.2270 C.3   1 <1>   0.1440 
 10 C       -2.5340     2.1150    -1.6230 C.3   1 <1>  -0.1600 
 11 O        2.1480     2.5310    -0.6860 O.3   1 <1>  -0.0190 
 12 C        2.6630     2.7480     0.5030 C.2   1 <1>  -0.0100 
 13 C       -5.2420     4.3680     0.0290 C.ar  1 <1>   0.1670 
 14 C       -3.8790     2.8410    -1.4150 C.3   1 <1>  -0.1600 
 15 C       -3.0520     5.1200    -0.5720 C.3   1 <1>  -0.1600 
 16 N       -6.2250     3.6910     0.5680 N.ar  1 <1>  -0.6200 
 17 C       -5.3660     5.6620    -0.3770 C.ar  1 <1>  -0.1430 
 18 C       -4.0830     6.1930    -0.9650 C.3   1 <1>  -0.0170 
 19 C       -7.3730     4.3610     0.6970 C.ar  1 <1>   0.7200 
 20 C       -6.5830     6.2700    -0.2050 C.ar  1 <1>   0.1600 
 21 N       -7.5940     5.6280     0.3310 N.ar  1 <1>  -0.6200 
 22 N       -8.4320     3.6780     1.2640 N.pl3 1 <1>  -0.8380 
 23 C       -9.8280     4.1890     1.1910 C.3   1 <1>   0.1290 
 24 C       -8.2470     2.4030     2.0090 C.3   1 <1>   0.1290 
 25 H       -3.2360     3.8410     1.8420 H     1 <1>   0.0800 
 26 H       -3.9660     2.3510     1.3340 H     1 <1>   0.0800 
 27 H       -2.7020     0.7210     0.0020 H     1 <1>   0.0800 
 28 H       -1.0630     1.0260    -0.4740 H     1 <1>   0.0800 
 29 H        1.7930     3.1790     2.4690 H     1 <1>   0.1500 
 30 H       -2.6550     1.3410    -2.3600 H     1 <1>   0.0800 
 31 H       -1.7920     2.7980    -1.9950 H     1 <1>   0.0800 
 32 H        3.7330     2.7280     0.6080 H     1 <1>   0.1500 
 33 H       -4.1620     3.3560    -2.3170 H     1 <1>   0.0800 
 34 H       -4.6370     2.1010    -1.2190 H     1 <1>   0.0800 
 35 H       -2.3250     4.9670    -1.3480 H     1 <1>   0.0800 
 36 H       -2.5330     5.4630     0.3060 H     1 <1>   0.0800 
 37 H       -4.1750     6.2570    -2.0360 H     1 <1>   0.0800 
 38 H       -3.8260     7.1560    -0.5600 H     1 <1>   0.0800 
 39 H       -6.7300     7.2910    -0.5090 H     1 <1>   0.1500 
 40 H       -9.9710     4.7700     0.2960 H     1 <1>   0.0800 
 41 H      -10.0280     4.8100     2.0470 H     1 <1>   0.0800 
 42 H      -10.5230     3.3680     1.1760 H     1 <1>   0.0800 
 43 H       -7.2600     2.3530     2.4350 H     1 <1>   0.0800 
 44 H       -8.3820     1.5720     1.3390 H     1 <1>   0.0800 
 45 H       -8.9630     2.3350     2.8090 H     1 <1>   0.0800 
@<TRIPOS>BOND
  1   1   2  2   
  2   2   3  am  
  3   2   4  1   
  4   3   5  1   
  5   3   6  1   
  6   4   7  2   
  7   4   8  1   
  8   5   9  1   
  9   5  25  1   
 10   5  26  1   
 11   6  10  1   
 12   6  27  1   
 13   6  28  1   
 14   7  11  1   
 15   8  12  2   
 16   8  29  1   
 17   9  13  1   
 18   9  14  1   
 19   9  15  1   
 20  10  14  1   
 21  10  30  1   
 22  10  31  1   
 23  11  12  1   
 24  12  32  1   
 25  13  16  ar  
 26  13  17  ar  
 27  14  33  1   
 28  14  34  1   
 29  15  18  1   
 30  15  35  1   
 31  15  36  1   
 32  16  19  ar  
 33  17  18  1   
 34  17  20  ar  
 35  18  37  1   
 36  18  38  1   
 37  19  21  ar  
 38  19  22  1   
 39  20  21  ar  
 40  20  39  1   
 41  22  23  1   
 42  22  24  1   
 43  23  40  1   
 44  23  41  1   
 45  23  42  1   
 46  24  43  1   
 47  24  44  1   
 48  24  45  1   
@<TRIPOS>SUBSTRUCTURE
  1 ****   9 GROUP 4 **** **** 0

# MOE 2024.06 (io_trps.svl 2023.06)
