@<TRIPOS>MOLECULE
NONAME
39 39 1 0 0 
SMALL
USER_CHARGES


@<TRIPOS>ATOM
  1 S       -0.8960    -0.6060    -0.2220 S.3   1 <1>  -0.0800 
  2 C       -0.8970    -1.7180     1.1070 C.2   1 <1>   0.4420 
  3 C       -0.3310     0.5990     0.8840 C.2   1 <1>   0.1980 
  4 N       -0.5110    -1.1680     2.2010 N.2   1 <1>  -0.3380 
  5 N       -1.2960    -3.0070     0.8310 N.am  1 <1>  -0.4940 
  6 N       -0.1900     0.1550     2.0660 N.2   1 <1>  -0.3380 
  7 C       -0.0790     2.0000     0.3580 C.3   1 <1>   0.0200 
  8 C       -1.4510    -4.0820     1.6580 C.2   1 <1>   0.5690 
  9 C        1.1810     2.0570    -0.5170 C.3   1 <1>  -0.1600 
 10 O       -1.2620    -4.0500     2.8480 O.2   1 <1>  -0.5700 
 11 C       -1.8830    -5.4060     1.0260 C.3   1 <1>   0.2010 
 12 C        1.4490     3.4800    -1.0260 C.3   1 <1>  -0.1600 
 13 N       -3.1700    -5.3280     0.2590 N.am  1 <1>  -0.7300 
 14 C        2.7080     3.5250    -1.8990 C.3   1 <1>  -0.1600 
 15 C       -3.3120    -4.7420    -0.9540 C.2   1 <1>   0.5690 
 16 C        2.9750     4.9430    -2.4090 C.3   1 <1>  -0.2400 
 17 O       -2.3970    -4.1550    -1.4770 O.2   1 <1>  -0.5700 
 18 C       -4.6600    -4.8070    -1.6480 C.3   1 <1>  -0.0990 
 19 C       -4.9880    -6.2120    -2.1760 C.3   1 <1>  -0.2400 
 20 H       -1.5570    -3.1890    -0.1460 H     1 <1>   0.3700 
 21 H        0.0360     2.6620     1.1980 H     1 <1>   0.0800 
 22 H       -0.9370     2.3220    -0.2060 H     1 <1>   0.0800 
 23 H        1.0660     1.3940    -1.3570 H     1 <1>   0.0800 
 24 H        2.0240     1.7170     0.0620 H     1 <1>   0.0800 
 25 H       -1.9820    -6.1410     1.8050 H     1 <1>   0.0800 
 26 H       -1.1010    -5.7330     0.3640 H     1 <1>   0.0800 
 27 H        1.5740     4.1450    -0.1870 H     1 <1>   0.0800 
 28 H        0.6050     3.8220    -1.6010 H     1 <1>   0.0800 
 29 H       -3.9800    -5.7630     0.7060 H     1 <1>   0.3700 
 30 H        2.5900     2.8630    -2.7400 H     1 <1>   0.0800 
 31 H        3.5580     3.1890    -1.3280 H     1 <1>   0.0800 
 32 H        2.1480     5.2920    -3.0030 H     1 <1>   0.0800 
 33 H        3.8610     4.9540    -3.0180 H     1 <1>   0.0800 
 34 H        3.1190     5.6190    -1.5840 H     1 <1>   0.0800 
 35 H       -4.6540    -4.1140    -2.4700 H     1 <1>   0.0800 
 36 H       -5.4210    -4.4890    -0.9590 H     1 <1>   0.0800 
 37 H       -4.2330    -6.5290    -2.8750 H     1 <1>   0.0800 
 38 H       -5.9390    -6.2060    -2.6780 H     1 <1>   0.0800 
 39 H       -5.0300    -6.9220    -1.3690 H     1 <1>   0.0800 
@<TRIPOS>BOND
  1   1   2  1   
  2   1   3  1   
  3   2   4  2   
  4   2   5  1   
  5   3   6  2   
  6   3   7  1   
  7   4   6  1   
  8   5   8  am  
  9   5  20  1   
 10   7   9  1   
 11   7  21  1   
 12   7  22  1   
 13   8  10  2   
 14   8  11  1   
 15   9  12  1   
 16   9  23  1   
 17   9  24  1   
 18  11  13  1   
 19  11  25  1   
 20  11  26  1   
 21  12  14  1   
 22  12  27  1   
 23  12  28  1   
 24  13  15  am  
 25  13  29  1   
 26  14  16  1   
 27  14  30  1   
 28  14  31  1   
 29  15  17  2   
 30  15  18  1   
 31  16  32  1   
 32  16  33  1   
 33  16  34  1   
 34  18  19  1   
 35  18  35  1   
 36  18  36  1   
 37  19  37  1   
 38  19  38  1   
 39  19  39  1   
@<TRIPOS>SUBSTRUCTURE
  1 ****   1 GROUP 4 **** **** 0

# MOE 2024.06 (io_trps.svl 2023.06)
