@<TRIPOS>MOLECULE
NONAME
50 53 1 0 0 
SMALL
USER_CHARGES


@<TRIPOS>ATOM
  1 O        1.6810    -1.1180     2.0580 O.2   1 <1>  -0.5700 
  2 C        2.1810    -1.4000     0.9930 C.2   1 <1>   0.5690 
  3 N        2.7990    -0.4450     0.2280 N.am  1 <1>  -0.6600 
  4 C        2.1020    -2.8650     0.5230 C.3   1 <1>   0.1710 
  5 C        2.3120     0.9820     0.2920 C.3   1 <1>   0.4000 
  6 C        4.2270    -0.6310    -0.1550 C.3   1 <1>   0.1400 
  7 N        0.8530    -3.2390    -0.1950 N.3   1 <1>  -0.8100 
  8 C        0.7890     1.1120     0.4340 C.2   1 <1>   0.2980 
  9 C        2.7330     1.7540    -0.9750 C.3   1 <1>  -0.1600 
 10 C        4.5530     0.1090    -1.4520 C.3   1 <1>  -0.1600 
 11 C       -0.3450    -2.9940     0.6280 C.3   1 <1>   0.2540 
 12 C        0.7730    -2.6220    -1.5360 C.3   1 <1>   0.1100 
 13 O        0.0250     0.4450    -0.3980 O.3   1 <1>  -0.0190 
 14 N        0.1670     1.8390     1.2780 N.2   1 <1>  -0.5650 
 15 C        4.2160     1.5960    -1.3260 C.3   1 <1>  -0.1600 
 16 C       -1.4640    -3.9740     0.2850 C.ar  1 <1>  -0.1440 
 17 C       -0.6320    -2.6100    -2.1590 C.3   1 <1>   0.1200 
 18 N       -1.1820     0.7570    -0.0400 N.2   1 <1>  -0.4100 
 19 C       -1.0810     1.5620     0.9400 C.2   1 <1>   0.3350 
 20 C       -1.8050    -4.3630    -1.0160 C.ar  1 <1>   0.0820 
 21 C       -2.1730    -4.5210     1.3470 C.ar  1 <1>  -0.1500 
 22 O       -1.2160    -3.8920    -2.1430 O.3   1 <1>  -0.3630 
 23 C       -2.2410     2.1740     1.6860 C.3   1 <1>  -0.0590 
 24 C       -2.8150    -5.2920    -1.2180 C.ar  1 <1>  -0.1500 
 25 C       -3.1870    -5.4390     1.1360 C.ar  1 <1>  -0.1500 
 26 C       -3.5080    -5.8300    -0.1500 C.ar  1 <1>  -0.1500 
 27 H        2.1890    -3.4900     1.3930 H     1 <1>   0.0800 
 28 H        2.9360    -3.0940    -0.1100 H     1 <1>   0.0800 
 29 H        2.7660     1.4480     1.1500 H     1 <1>   0.0800 
 30 H        4.4580    -1.6740    -0.2760 H     1 <1>   0.0800 
 31 H        4.8470    -0.2480     0.6390 H     1 <1>   0.0800 
 32 H        2.5090     2.7970    -0.8350 H     1 <1>   0.0800 
 33 H        2.1410     1.4090    -1.8050 H     1 <1>   0.0800 
 34 H        4.0000    -0.3310    -2.2630 H     1 <1>   0.0800 
 35 H        5.6010    -0.0030    -1.6700 H     1 <1>   0.0800 
 36 H       -0.6850    -1.9790     0.5160 H     1 <1>   0.0800 
 37 H       -0.0890    -3.1280     1.6650 H     1 <1>   0.0800 
 38 H        1.4340    -3.1570    -2.1960 H     1 <1>   0.0800 
 39 H        1.1160    -1.6050    -1.4940 H     1 <1>   0.0800 
 40 H        4.8220     2.0450    -0.5580 H     1 <1>   0.0800 
 41 H        4.4260     2.0990    -2.2550 H     1 <1>   0.0800 
 42 H       -0.5640    -2.3040    -3.1870 H     1 <1>   0.0800 
 43 H       -1.2870    -1.9240    -1.6510 H     1 <1>   0.0800 
 44 H       -1.9340    -4.2360     2.3560 H     1 <1>   0.1500 
 45 H       -2.1910     3.2450     1.6130 H     1 <1>   0.0800 
 46 H       -2.1930     1.8870     2.7190 H     1 <1>   0.0800 
 47 H       -3.1700     1.8340     1.2680 H     1 <1>   0.0800 
 48 H       -3.0540    -5.5870    -2.2230 H     1 <1>   0.1500 
 49 H       -3.7220    -5.8510     1.9740 H     1 <1>   0.1500 
 50 H       -4.2910    -6.5470    -0.3200 H     1 <1>   0.1500 
@<TRIPOS>BOND
  1   1   2  2   
  2   2   3  am  
  3   2   4  1   
  4   3   5  1   
  5   3   6  1   
  6   4   7  1   
  7   4  27  1   
  8   4  28  1   
  9   5   8  1   
 10   5   9  1   
 11   5  29  1   
 12   6  10  1   
 13   6  30  1   
 14   6  31  1   
 15   7  11  1   
 16   7  12  1   
 17   8  13  1   
 18   8  14  2   
 19   9  15  1   
 20   9  32  1   
 21   9  33  1   
 22  10  15  1   
 23  10  34  1   
 24  10  35  1   
 25  11  16  1   
 26  11  36  1   
 27  11  37  1   
 28  12  17  1   
 29  12  38  1   
 30  12  39  1   
 31  13  18  1   
 32  14  19  1   
 33  15  40  1   
 34  15  41  1   
 35  16  20  ar  
 36  16  21  ar  
 37  17  22  1   
 38  17  42  1   
 39  17  43  1   
 40  18  19  2   
 41  19  23  1   
 42  20  22  1   
 43  20  24  ar  
 44  21  25  ar  
 45  21  44  1   
 46  23  45  1   
 47  23  46  1   
 48  23  47  1   
 49  24  26  ar  
 50  24  48  1   
 51  25  26  ar  
 52  25  49  1   
 53  26  50  1   
@<TRIPOS>SUBSTRUCTURE
  1 ****  11 GROUP 4 **** **** 0

# MOE 2024.06 (io_trps.svl 2023.06)
