@<TRIPOS>MOLECULE
NONAME
50 53 1 0 0 
SMALL
USER_CHARGES


@<TRIPOS>ATOM
  1 O       -1.9100    -1.0870     2.4350 O.co2 1 <1>  -0.9000 
  2 C       -1.7360    -0.8550     1.2360 C.2   1 <1>   0.9060 
  3 O       -1.0420     0.0740     0.8090 O.co2 1 <1>  -0.9000 
  4 C       -2.5320    -1.6790     0.2180 C.3   1 <1>   0.2370 
  5 N       -3.8700    -1.0760    -0.1750 N.4   1 <1>  -0.9590 
  6 C       -4.7780    -1.0290     1.0100 C.3   1 <1>   0.3430 
  7 C       -3.6720     0.2870    -0.7440 C.3   1 <1>   0.3430 
  8 C       -6.2480    -0.8720     0.5510 C.3   1 <1>   0.1900 
  9 C       -4.9560     0.9040    -1.3380 C.3   1 <1>  -0.0800 
 10 N       -6.3930    -1.1740    -0.9190 N.3   1 <1>  -0.8100 
 11 C       -6.8100     0.5020     0.9630 C.3   1 <1>   0.1200 
 12 C       -5.5720     1.9780    -0.4240 C.3   1 <1>   0.1200 
 13 C       -6.0260    -0.0860    -1.8500 C.3   1 <1>   0.1100 
 14 C       -7.7140    -1.7400    -1.2560 C.3   1 <1>   0.2530 
 15 O       -5.8400     1.5020     0.8520 O.3   1 <1>  -0.5600 
 16 C       -7.9030    -3.0990    -0.5950 C.ar  1 <1>  -0.1430 
 17 C       -8.8000    -3.2750     0.4670 C.ar  1 <1>   0.0830 
 18 C       -7.1640    -4.1770    -1.0730 C.ar  1 <1>  -0.1500 
 19 O       -9.4840    -2.1800     0.9030 O.3   1 <1>  -0.3620 
 20 C       -8.9650    -4.5340     1.0500 C.ar  1 <1>  -0.1500 
 21 C       -7.3440    -5.4090    -0.4800 C.ar  1 <1>   0.0830 
 22 C      -10.5320    -2.3000     1.8420 C.3   1 <1>   0.0400 
 23 C       -8.2200    -5.5820     0.5500 C.ar  1 <1>   0.0830 
 24 O       -6.7460    -6.5700    -0.7780 O.3   1 <1>  -0.3630 
 25 O       -8.2180    -6.8580     0.9470 O.3   1 <1>  -0.3620 
 26 C       -7.2930    -7.5470     0.1070 C.3   1 <1>   0.4000 
 27 H       -2.6850    -2.6520     0.6490 H     1 <1>   0.0800 
 28 H       -1.9130    -1.7860    -0.6530 H     1 <1>   0.0800 
 29 H       -4.3990    -1.6370    -0.8610 H     1 <1>   0.4500 
 30 H       -4.6900    -1.9500     1.5620 H     1 <1>   0.0800 
 31 H       -4.4920    -0.2290     1.6740 H     1 <1>   0.0800 
 32 H       -3.2740     0.9410     0.0180 H     1 <1>   0.0800 
 33 H       -2.9300     0.2230    -1.5220 H     1 <1>   0.0800 
 34 H       -6.8070    -1.5990     1.1110 H     1 <1>   0.0800 
 35 H       -4.6340     1.4530    -2.2040 H     1 <1>   0.0800 
 36 H       -7.0840     0.4640     2.0020 H     1 <1>   0.0800 
 37 H       -7.6830     0.7690     0.3940 H     1 <1>   0.0800 
 38 H       -6.4830     2.3740    -0.8400 H     1 <1>   0.0800 
 39 H       -4.8780     2.7930    -0.3070 H     1 <1>   0.0800 
 40 H       -5.6680    -0.5390    -2.7600 H     1 <1>   0.0800 
 41 H       -6.9090     0.4770    -2.1070 H     1 <1>   0.0800 
 42 H       -8.4930    -1.0540    -0.9720 H     1 <1>   0.0800 
 43 H       -7.7810    -1.8790    -2.3220 H     1 <1>   0.0800 
 44 H       -6.4670    -4.0680    -1.8830 H     1 <1>   0.1500 
 45 H       -9.6360    -4.7230     1.8640 H     1 <1>   0.1500 
 46 H      -10.9730    -1.3290     1.9790 H     1 <1>   0.0800 
 47 H      -10.1300    -2.6530     2.7750 H     1 <1>   0.0800 
 48 H      -11.2690    -2.9830     1.4570 H     1 <1>   0.0800 
 49 H       -6.5090    -7.9740     0.7050 H     1 <1>   0.0800 
 50 H       -7.8140    -8.2970    -0.4620 H     1 <1>   0.0800 
@<TRIPOS>BOND
  1   1   2  ar  
  2   2   3  ar  
  3   2   4  1   
  4   4   5  1   
  5   4  27  1   
  6   4  28  1   
  7   5   6  1   
  8   5   7  1   
  9   5  29  1   
 10   6   8  1   
 11   6  30  1   
 12   6  31  1   
 13   7   9  1   
 14   7  32  1   
 15   7  33  1   
 16   8  10  1   
 17   8  11  1   
 18   8  34  1   
 19   9  12  1   
 20   9  13  1   
 21   9  35  1   
 22  10  13  1   
 23  10  14  1   
 24  11  15  1   
 25  11  36  1   
 26  11  37  1   
 27  12  15  1   
 28  12  38  1   
 29  12  39  1   
 30  13  40  1   
 31  13  41  1   
 32  14  16  1   
 33  14  42  1   
 34  14  43  1   
 35  16  17  ar  
 36  16  18  ar  
 37  17  19  1   
 38  17  20  ar  
 39  18  21  ar  
 40  18  44  1   
 41  19  22  1   
 42  20  23  ar  
 43  20  45  1   
 44  21  23  ar  
 45  21  24  1   
 46  22  46  1   
 47  22  47  1   
 48  22  48  1   
 49  23  25  1   
 50  24  26  1   
 51  25  26  1   
 52  26  49  1   
 53  26  50  1   
@<TRIPOS>SUBSTRUCTURE
  1 ****   8 GROUP 4 **** **** 0

# MOE 2024.06 (io_trps.svl 2023.06)
