@<TRIPOS>MOLECULE
NONAME
39 41 1 0 0 
SMALL
USER_CHARGES


@<TRIPOS>ATOM
  1 S        0.0860     0.0200    -1.2820 S.3   1 <1>  -0.0800 
  2 C        0.9340    -1.1390    -0.2640 C.2   1 <1>   0.4620 
  3 C        1.4350     1.1100    -1.1340 C.2   1 <1>  -0.1100 
  4 N        2.0880    -0.7300     0.1270 N.2   1 <1>  -0.5650 
  5 N        0.3360    -2.3400     0.0300 N.pl3 1 <1>  -0.8220 
  6 C        2.3720     0.5370    -0.3600 C.2   1 <1>   0.0460 
  7 C       -0.9150    -2.8330    -0.5790 C.3   1 <1>   0.2090 
  8 C        1.0440    -3.4050     0.7660 C.3   1 <1>   0.2090 
  9 C        3.7150     1.1430     0.0290 C.3   1 <1>   0.3900 
 10 C       -1.0960    -4.2310     0.0040 C.3   1 <1>  -0.1600 
 11 C        0.3150    -4.6850     0.3740 C.3   1 <1>  -0.1600 
 12 N        3.7600     2.5960    -0.2570 N.pl3 1 <1>  -0.8690 
 13 C        4.8830     3.3230    -0.0950 C.ar  1 <1>   0.7200 
 14 N        6.0520     2.6980    -0.1660 N.ar  1 <1>  -0.6200 
 15 N        4.6660     4.6080     0.1350 N.ar  1 <1>  -0.6200 
 16 C        7.1080     3.4530    -0.0010 C.ar  1 <1>   0.1670 
 17 C        5.7370     5.3430     0.2980 C.ar  1 <1>   0.1670 
 18 C        7.0020     4.8040     0.2370 C.ar  1 <1>  -0.1500 
 19 C        8.4580     2.7720    -0.0830 C.3   1 <1>  -0.0970 
 20 C        5.5240     6.8190     0.5570 C.3   1 <1>  -0.0970 
 21 H        1.3850     2.0550    -1.6420 H     1 <1>   0.1500 
 22 H       -0.7940    -2.8830    -1.6480 H     1 <1>   0.0800 
 23 H       -1.7430    -2.1920    -0.3320 H     1 <1>   0.0800 
 24 H        0.9510    -3.2200     1.8220 H     1 <1>   0.0800 
 25 H        2.0860    -3.4380     0.4940 H     1 <1>   0.0800 
 26 H        4.4960     0.6370    -0.5120 H     1 <1>   0.0800 
 27 H        3.8790     0.9900     1.0820 H     1 <1>   0.0800 
 28 H       -1.5730    -4.8960    -0.6940 H     1 <1>   0.0800 
 29 H       -1.7000    -4.1590     0.8910 H     1 <1>   0.0800 
 30 H        0.3210    -5.4060     1.1710 H     1 <1>   0.0800 
 31 H        0.8010    -5.1080    -0.4880 H     1 <1>   0.0800 
 32 H        2.9350     3.1110     0.0360 H     1 <1>   0.4000 
 33 H        7.8730     5.4140     0.3710 H     1 <1>   0.1500 
 34 H        8.5210     2.0070     0.6690 H     1 <1>   0.0800 
 35 H        9.2560     3.4750     0.0660 H     1 <1>   0.0800 
 36 H        8.5710     2.3170    -1.0500 H     1 <1>   0.0800 
 37 H        4.9450     6.9470     1.4530 H     1 <1>   0.0800 
 38 H        4.9850     7.2530    -0.2660 H     1 <1>   0.0800 
 39 H        6.4600     7.3330     0.6700 H     1 <1>   0.0800 
@<TRIPOS>BOND
  1   1   2  1   
  2   1   3  1   
  3   2   4  2   
  4   2   5  1   
  5   3   6  2   
  6   3  21  1   
  7   4   6  1   
  8   5   7  1   
  9   5   8  1   
 10   6   9  1   
 11   7  10  1   
 12   7  22  1   
 13   7  23  1   
 14   8  11  1   
 15   8  24  1   
 16   8  25  1   
 17   9  12  1   
 18   9  26  1   
 19   9  27  1   
 20  10  11  1   
 21  10  28  1   
 22  10  29  1   
 23  11  30  1   
 24  11  31  1   
 25  12  13  1   
 26  12  32  1   
 27  13  14  ar  
 28  13  15  ar  
 29  14  16  ar  
 30  15  17  ar  
 31  16  18  ar  
 32  16  19  1   
 33  17  18  ar  
 34  17  20  1   
 35  18  33  1   
 36  19  34  1   
 37  19  35  1   
 38  19  36  1   
 39  20  37  1   
 40  20  38  1   
 41  20  39  1   
@<TRIPOS>SUBSTRUCTURE
  1 ****   9 GROUP 4 **** **** 0

# MOE 2024.06 (io_trps.svl 2023.06)
