@<TRIPOS>MOLECULE
NONAME
47 50 1 0 0 
SMALL
USER_CHARGES


@<TRIPOS>ATOM
  1 O        2.9570    -0.6510    -2.9920 O.2   1 <1>  -0.5700 
  2 C        2.8760    -0.8850    -1.7980 C.2   1 <1>   0.5440 
  3 N        3.2290     0.1400    -0.9230 N.am  1 <1>  -0.6600 
  4 C        2.4360    -2.2110    -1.3590 C.ar  1 <1>   0.3960 
  5 C        3.4710    -0.1320     0.5460 C.3   1 <1>   0.2200 
  6 C        3.5390     1.5040    -1.4690 C.3   1 <1>   0.1400 
  7 N        1.3920    -2.3430    -0.5630 N.ar  1 <1>  -0.6200 
  8 C        3.1620    -3.3340    -1.8090 C.ar  1 <1>  -0.1500 
  9 C        2.8760     0.9520     1.4570 C.3   1 <1>   0.1200 
 10 C        4.9740    -0.3370     0.8360 C.3   1 <1>   0.3430 
 11 C        4.5110     2.3550    -0.6280 C.3   1 <1>  -0.0800 
 12 C        1.0110    -3.5910    -0.2010 C.ar  1 <1>   0.3100 
 13 C        2.8100    -4.5950    -1.4450 C.ar  1 <1>  -0.1500 
 14 O        3.7790     2.0020     1.6520 O.3   1 <1>  -0.5600 
 15 N        5.8370     0.2210    -0.2570 N.4   1 <1>  -0.9590 
 16 C        3.8440     2.9360     0.6280 C.3   1 <1>   0.1200 
 17 C        5.8800     1.7030    -0.3390 C.3   1 <1>   0.3430 
 18 C        1.6930    -4.7570    -0.6140 C.ar  1 <1>   0.0000 
 19 C       -0.1140    -3.7400     0.6270 C.ar  1 <1>  -0.1500 
 20 C        7.1900    -0.4700    -0.2840 C.3   1 <1>   0.2370 
 21 C        1.2310    -6.0150    -0.1810 C.ar  1 <1>  -0.1500 
 22 C       -0.5500    -4.9720     1.0370 C.ar  1 <1>  -0.1500 
 23 C        7.1040    -1.9740    -0.5870 C.2   1 <1>   0.9060 
 24 C        0.1320    -6.1230     0.6280 C.ar  1 <1>  -0.1500 
 25 O        8.0640    -2.6940    -0.3210 O.co2 1 <1>  -0.9000 
 26 O        6.0330    -2.3980    -1.0460 O.co2 1 <1>  -0.9000 
 27 H        2.9770    -1.0420     0.8280 H     1 <1>   0.0800 
 28 H        3.9670     1.4010    -2.4520 H     1 <1>   0.0800 
 29 H        2.6100     2.0350    -1.5900 H     1 <1>   0.0800 
 30 H        4.0190    -3.1610    -2.4390 H     1 <1>   0.1500 
 31 H        2.6920     0.5280     2.4290 H     1 <1>   0.0800 
 32 H        1.9420     1.3260     1.0720 H     1 <1>   0.0800 
 33 H        5.1440    -1.3990     0.9100 H     1 <1>   0.0800 
 34 H        5.2340     0.1020     1.7840 H     1 <1>   0.0800 
 35 H        4.7250     3.2170    -1.2340 H     1 <1>   0.0800 
 36 H        3.3690    -5.4530    -1.7760 H     1 <1>   0.1500 
 37 H        5.3550    -0.1470    -1.1040 H     1 <1>   0.4500 
 38 H        2.8510     3.2980     0.4190 H     1 <1>   0.0800 
 39 H        4.4270     3.7610     1.0000 H     1 <1>   0.0800 
 40 H        6.2800     2.1040     0.5780 H     1 <1>   0.0800 
 41 H        6.5530     1.9740    -1.1370 H     1 <1>   0.0800 
 42 H       -0.6280    -2.8460     0.9300 H     1 <1>   0.1500 
 43 H        7.8070    -0.0360    -1.0470 H     1 <1>   0.0800 
 44 H        7.6870    -0.3550     0.6620 H     1 <1>   0.0800 
 45 H        1.7620    -6.8940    -0.5000 H     1 <1>   0.1500 
 46 H       -1.4140    -5.0700     1.6710 H     1 <1>   0.1500 
 47 H       -0.2200    -7.0860     0.9570 H     1 <1>   0.1500 
@<TRIPOS>BOND
  1   1   2  2   
  2   2   3  am  
  3   2   4  1   
  4   3   5  1   
  5   3   6  1   
  6   4   7  ar  
  7   4   8  ar  
  8   5   9  1   
  9   5  10  1   
 10   5  27  1   
 11   6  11  1   
 12   6  28  1   
 13   6  29  1   
 14   7  12  ar  
 15   8  13  ar  
 16   8  30  1   
 17   9  14  1   
 18   9  31  1   
 19   9  32  1   
 20  10  15  1   
 21  10  33  1   
 22  10  34  1   
 23  11  16  1   
 24  11  17  1   
 25  11  35  1   
 26  12  18  ar  
 27  12  19  ar  
 28  13  18  ar  
 29  13  36  1   
 30  14  16  1   
 31  15  17  1   
 32  15  20  1   
 33  15  37  1   
 34  16  38  1   
 35  16  39  1   
 36  17  40  1   
 37  17  41  1   
 38  18  21  ar  
 39  19  22  ar  
 40  19  42  1   
 41  20  23  1   
 42  20  43  1   
 43  20  44  1   
 44  21  24  ar  
 45  21  45  1   
 46  22  24  ar  
 47  22  46  1   
 48  23  25  ar  
 49  23  26  ar  
 50  24  47  1   
@<TRIPOS>SUBSTRUCTURE
  1 ****   4 GROUP 4 **** **** 0

# MOE 2024.06 (io_trps.svl 2023.06)
