@<TRIPOS>MOLECULE
NONAME
45 46 1 0 0 
SMALL
USER_CHARGES


@<TRIPOS>ATOM
  1 S        0.8160     0.3140    -0.0400 S.o2  1 <1>   1.3330 
  2 O        0.4850    -0.8870     0.6960 O.2   1 <1>  -0.6500 
  3 O        0.2290     1.5750     0.3500 O.2   1 <1>  -0.6500 
  4 N        0.4430     0.0350    -1.6730 N.am  1 <1>  -0.8490 
  5 C        2.5960     0.5080    -0.0660 C.3   1 <1>  -0.0550 
  6 C        0.6040    -1.3660    -2.0790 C.3   1 <1>   0.1160 
  7 C       -0.9000     0.5050    -2.0240 C.3   1 <1>   0.1160 
  8 C        3.1930     0.9030     1.2950 C.3   1 <1>  -0.0800 
  9 C        4.7120     1.0570     1.2360 C.3   1 <1>   0.2890 
 10 C        2.9750    -0.1320     2.3990 C.3   1 <1>   0.1200 
 11 N        5.0820     2.4830     1.4110 N.pl3 1 <1>  -0.8690 
 12 C        5.2130     0.2070     2.4040 C.3   1 <1>   0.1200 
 13 O        4.1030    -0.0500     3.2040 O.3   1 <1>  -0.5600 
 14 C        5.0780     3.4090     0.3820 C.ar  1 <1>   0.4100 
 15 N        4.8970     2.9090    -0.8350 N.ar  1 <1>  -0.6200 
 16 C        5.2490     4.7800     0.6360 C.ar  1 <1>   0.0730 
 17 C        4.8710     3.7660    -1.8350 C.ar  1 <1>   0.1670 
 18 C        5.4450     5.2280     1.9810 C.1   1 <1>   0.4840 
 19 C        5.2220     5.6680    -0.4290 C.ar  1 <1>  -0.1430 
 20 C        5.0260     5.1320    -1.6860 C.ar  1 <1>  -0.1500 
 21 C        4.6530     3.1690    -3.2090 C.3   1 <1>  -0.0970 
 22 N        5.5940     5.5890     3.0530 N.1   1 <1>  -0.5570 
 23 C        5.3960     7.1730    -0.2540 C.3   1 <1>  -0.0970 
 24 H        3.0480    -0.4040    -0.4030 H     1 <1>   0.0800 
 25 H        2.8400     1.2730    -0.7770 H     1 <1>   0.0800 
 26 H        0.4430    -1.4640    -3.1390 H     1 <1>   0.0800 
 27 H       -0.1010    -1.9920    -1.5570 H     1 <1>   0.0800 
 28 H        1.6000    -1.7060    -1.8540 H     1 <1>   0.0800 
 29 H       -1.0990     0.3260    -3.0670 H     1 <1>   0.0800 
 30 H       -0.9790     1.5640    -1.8450 H     1 <1>   0.0800 
 31 H       -1.6420    -0.0020    -1.4280 H     1 <1>   0.0800 
 32 H        2.7410     1.8260     1.6170 H     1 <1>   0.0800 
 33 H        5.1300     0.6770     0.3190 H     1 <1>   0.0800 
 34 H        2.9220    -1.1340     2.0060 H     1 <1>   0.0800 
 35 H        2.1000     0.0750     2.9920 H     1 <1>   0.0800 
 36 H        4.9300     2.8200     2.3680 H     1 <1>   0.4000 
 37 H        5.9670     0.7050     2.9870 H     1 <1>   0.0800 
 38 H        5.5860    -0.7380     2.0500 H     1 <1>   0.0800 
 39 H        4.9930     5.7710    -2.5500 H     1 <1>   0.1500 
 40 H        4.6570     3.9280    -3.9690 H     1 <1>   0.0800 
 41 H        3.7070     2.6590    -3.2330 H     1 <1>   0.0800 
 42 H        5.4330     2.4610    -3.4210 H     1 <1>   0.0800 
 43 H        5.3590     7.6790    -1.2020 H     1 <1>   0.0800 
 44 H        6.3460     7.3860     0.2040 H     1 <1>   0.0800 
 45 H        4.6140     7.5670     0.3710 H     1 <1>   0.0800 
@<TRIPOS>BOND
  1   1   2  2   
  2   1   3  2   
  3   1   4  am  
  4   1   5  1   
  5   4   6  1   
  6   4   7  1   
  7   5   8  1   
  8   5  24  1   
  9   5  25  1   
 10   6  26  1   
 11   6  27  1   
 12   6  28  1   
 13   7  29  1   
 14   7  30  1   
 15   7  31  1   
 16   8   9  1   
 17   8  10  1   
 18   8  32  1   
 19   9  11  1   
 20   9  12  1   
 21   9  33  1   
 22  10  13  1   
 23  10  34  1   
 24  10  35  1   
 25  11  14  1   
 26  11  36  1   
 27  12  13  1   
 28  12  37  1   
 29  12  38  1   
 30  14  15  ar  
 31  14  16  ar  
 32  15  17  ar  
 33  16  18  1   
 34  16  19  ar  
 35  17  20  ar  
 36  17  21  1   
 37  18  22  3   
 38  19  20  ar  
 39  19  23  1   
 40  20  39  1   
 41  21  40  1   
 42  21  41  1   
 43  21  42  1   
 44  23  43  1   
 45  23  44  1   
 46  23  45  1   
@<TRIPOS>SUBSTRUCTURE
  1 ****   8 GROUP 4 **** **** 0

# MOE 2024.06 (io_trps.svl 2023.06)
