@<TRIPOS>MOLECULE
NONAME
57 61 1 0 0 
SMALL
USER_CHARGES


@<TRIPOS>ATOM
  1 O        0.1210     0.2370    -0.7990 O.2   1 <1>  -0.5700 
  2 C       -0.5870     1.2060    -0.9470 C.2   1 <1>   0.5690 
  3 N       -1.8870     1.1960    -0.4840 N.am  1 <1>  -0.6600 
  4 C       -0.0120     2.4120    -1.6960 C.3   1 <1>   0.0820 
  5 C       -2.9620     2.1840    -0.8250 C.3   1 <1>   0.1400 
  6 C       -2.3830     0.0730     0.3660 C.3   1 <1>   0.1400 
  7 C        1.4600     2.7130    -1.4150 C.2   1 <1>  -0.1810 
  8 C       -3.5730     2.7970     0.4510 C.3   1 <1>   0.1440 
  9 C       -3.0030     0.6260     1.6560 C.3   1 <1>  -0.1600 
 10 C        2.5590     1.9850    -1.8750 C.2   1 <1>   0.1080 
 11 C        1.9990     3.7270    -0.6980 C.2   1 <1>  -0.3320 
 12 C       -4.6690     3.7610     0.0390 C.ar  1 <1>   0.1670 
 13 C       -4.0970     1.6680     1.3650 C.3   1 <1>  -0.1600 
 14 C       -2.5700     3.7230     1.1920 C.3   1 <1>  -0.1600 
 15 N        3.6840     2.4980    -1.4910 N.2   1 <1>  -0.7070 
 16 C        2.5220     0.7310    -2.7210 C.3   1 <1>  -0.0590 
 17 N        3.3380     3.5670    -0.7590 N.pl3 1 <1>   0.3000 
 18 C        1.3560     4.8700     0.0700 C.3   1 <1>  -0.0600 
 19 N       -5.8310     3.4180    -0.4590 N.ar  1 <1>  -0.6200 
 20 C       -4.2990     5.0570     0.2290 C.ar  1 <1>  -0.1440 
 21 C       -2.9020     5.1700     0.7850 C.3   1 <1>  -0.0170 
 22 C       -6.6610     4.4260    -0.7610 C.ar  1 <1>   0.6200 
 23 C       -5.2010     6.0320    -0.1060 C.ar  1 <1>   0.1600 
 24 N       -6.3800     5.7270    -0.5990 N.ar  1 <1>  -0.6200 
 25 C       -7.9670     4.0790    -1.3090 C.ar  1 <1>   0.0000 
 26 C       -8.5780     2.8520    -1.0300 C.ar  1 <1>  -0.1500 
 27 C       -8.6710     4.9560    -2.1400 C.ar  1 <1>  -0.1500 
 28 C       -9.8150     2.5180    -1.5500 C.ar  1 <1>  -0.1500 
 29 C       -9.9090     4.6290    -2.6630 C.ar  1 <1>  -0.1500 
 30 C      -10.4850     3.4070    -2.3690 C.ar  1 <1>  -0.1500 
 31 H       -0.5650     3.2910    -1.4480 H     1 <1>   0.0800 
 32 H       -0.1370     2.2400    -2.7470 H     1 <1>   0.0800 
 33 H       -3.7390     1.6660    -1.3610 H     1 <1>   0.0800 
 34 H       -2.6060     2.9630    -1.4700 H     1 <1>   0.0800 
 35 H       -1.5820    -0.6010     0.6190 H     1 <1>   0.0800 
 36 H       -3.1210    -0.4840    -0.1870 H     1 <1>   0.0800 
 37 H       -2.2220     1.0620     2.2540 H     1 <1>   0.0800 
 38 H       -3.4240    -0.1890     2.2190 H     1 <1>   0.0800 
 39 H       -4.9180     1.1750     0.8730 H     1 <1>   0.0800 
 40 H       -4.4750     2.0780     2.2850 H     1 <1>   0.0800 
 41 H       -1.5450     3.4720     0.9850 H     1 <1>   0.0800 
 42 H       -2.7220     3.6360     2.2540 H     1 <1>   0.0800 
 43 H        1.6270     0.6920    -3.3100 H     1 <1>   0.0800 
 44 H        2.5570    -0.1280    -2.0770 H     1 <1>   0.0800 
 45 H        3.3740     0.7110    -3.3750 H     1 <1>   0.0800 
 46 H        4.0410     4.1670    -0.3130 H     1 <1>   0.2700 
 47 H        0.2870     4.8360    -0.0120 H     1 <1>   0.0800 
 48 H        1.6980     5.8130    -0.3180 H     1 <1>   0.0800 
 49 H        1.6190     4.8050     1.1110 H     1 <1>   0.0800 
 50 H       -2.2330     5.5150     0.0160 H     1 <1>   0.0800 
 51 H       -2.8640     5.8360     1.6300 H     1 <1>   0.0800 
 52 H       -4.9570     7.0720     0.0290 H     1 <1>   0.1500 
 53 H       -8.0740     2.1460    -0.3930 H     1 <1>   0.1500 
 54 H       -8.2410     5.9120    -2.3820 H     1 <1>   0.1500 
 55 H      -10.2570     1.5650    -1.3160 H     1 <1>   0.1500 
 56 H      -10.4250     5.3270    -3.3000 H     1 <1>   0.1500 
 57 H      -11.4480     3.1510    -2.7750 H     1 <1>   0.1500 
@<TRIPOS>BOND
  1   1   2  2   
  2   2   3  am  
  3   2   4  1   
  4   3   5  1   
  5   3   6  1   
  6   4   7  1   
  7   4  31  1   
  8   4  32  1   
  9   5   8  1   
 10   5  33  1   
 11   5  34  1   
 12   6   9  1   
 13   6  35  1   
 14   6  36  1   
 15   7  10  1   
 16   7  11  2   
 17   8  12  1   
 18   8  13  1   
 19   8  14  1   
 20   9  13  1   
 21   9  37  1   
 22   9  38  1   
 23  10  15  2   
 24  10  16  1   
 25  11  17  1   
 26  11  18  1   
 27  12  19  ar  
 28  12  20  ar  
 29  13  39  1   
 30  13  40  1   
 31  14  21  1   
 32  14  41  1   
 33  14  42  1   
 34  15  17  1   
 35  16  43  1   
 36  16  44  1   
 37  16  45  1   
 38  17  46  1   
 39  18  47  1   
 40  18  48  1   
 41  18  49  1   
 42  19  22  ar  
 43  20  21  1   
 44  20  23  ar  
 45  21  50  1   
 46  21  51  1   
 47  22  24  ar  
 48  22  25  1   
 49  23  24  ar  
 50  23  52  1   
 51  25  26  ar  
 52  25  27  ar  
 53  26  28  ar  
 54  26  53  1   
 55  27  29  ar  
 56  27  54  1   
 57  28  30  ar  
 58  28  55  1   
 59  29  30  ar  
 60  29  56  1   
 61  30  57  1   
@<TRIPOS>SUBSTRUCTURE
  1 ****   5 GROUP 4 **** **** 0

# MOE 2024.06 (io_trps.svl 2023.06)
