@<TRIPOS>MOLECULE
NONAME
43 44 1 0 0 
SMALL
USER_CHARGES


@<TRIPOS>ATOM
  1 S        0.2260    -0.0630     0.2390 S.3   1 <1>  -0.4600 
  2 C       -0.7810    -1.0110    -0.9360 C.3   1 <1>   0.2140 
  3 C        0.4480     1.5300    -0.5950 C.3   1 <1>   0.0700 
  4 C       -1.0850    -2.3690    -0.3250 C.ar  1 <1>  -0.1440 
  5 C        1.3700     2.3860     0.2730 C.3   1 <1>  -0.0990 
  6 C       -0.1050    -3.3490    -0.2820 C.ar  1 <1>  -0.1500 
  7 C       -2.3440    -2.6430     0.1890 C.ar  1 <1>  -0.1500 
  8 C        1.5400     3.7700    -0.3120 C.2   1 <1>   0.5690 
  9 C       -0.3810    -4.5910     0.2630 C.ar  1 <1>  -0.1500 
 10 C       -2.6210    -3.8850     0.7330 C.ar  1 <1>  -0.1500 
 11 O        1.7100     3.8970    -1.5000 O.2   1 <1>  -0.5700 
 12 N        1.5080     4.8390     0.5200 N.am  1 <1>  -0.7300 
 13 C       -1.6410    -4.8600     0.7690 C.ar  1 <1>  -0.1500 
 14 C        1.6170     6.2430     0.0710 C.3   1 <1>   0.2200 
 15 C        3.0840     6.5940    -0.2410 C.3   1 <1>   0.1400 
 16 C        1.0480     7.1490     1.1630 C.3   1 <1>  -0.1600 
 17 N        3.3440     8.0660    -0.3080 N.am  1 <1>  -0.6600 
 18 C        1.1130     8.6130     0.7030 C.3   1 <1>  -0.0990 
 19 C        2.4760     9.0180     0.1660 C.2   1 <1>   0.5690 
 20 C        4.6720     8.4320    -0.8720 C.3   1 <1>   0.0600 
 21 O        2.7420    10.1960     0.1670 O.2   1 <1>  -0.5700 
 22 H       -0.2120    -1.1100    -1.8430 H     1 <1>   0.0800 
 23 H       -1.6780    -0.4480    -1.1200 H     1 <1>   0.0800 
 24 H       -0.5240     1.9790    -0.7060 H     1 <1>   0.0800 
 25 H        0.8820     1.3390    -1.5620 H     1 <1>   0.0800 
 26 H        2.3350     1.9190     0.3350 H     1 <1>   0.0800 
 27 H        0.9570     2.4590     1.2620 H     1 <1>   0.0800 
 28 H        0.8780    -3.1430    -0.6680 H     1 <1>   0.1500 
 29 H       -3.1120    -1.8910     0.1700 H     1 <1>   0.1500 
 30 H        0.3840    -5.3470     0.2940 H     1 <1>   0.1500 
 31 H       -3.5990    -4.0920     1.1310 H     1 <1>   0.1500 
 32 H        1.3950     4.7020     1.5250 H     1 <1>   0.3700 
 33 H       -1.8560    -5.8260     1.1930 H     1 <1>   0.1500 
 34 H        1.0390     6.3620    -0.8310 H     1 <1>   0.0800 
 35 H        3.3490     6.1440    -1.1820 H     1 <1>   0.0800 
 36 H        3.7150     6.1790     0.5250 H     1 <1>   0.0800 
 37 H        1.6280     7.0400     2.0630 H     1 <1>   0.0800 
 38 H        0.0250     6.8860     1.3680 H     1 <1>   0.0800 
 39 H        0.8600     9.2600     1.5230 H     1 <1>   0.0800 
 40 H        0.3950     8.7780    -0.0790 H     1 <1>   0.0800 
 41 H        4.7570     8.0560    -1.8770 H     1 <1>   0.0800 
 42 H        5.4540     8.0100    -0.2670 H     1 <1>   0.0800 
 43 H        4.7970     9.5020    -0.8970 H     1 <1>   0.0800 
@<TRIPOS>BOND
  1   1   2  1   
  2   1   3  1   
  3   2   4  1   
  4   2  22  1   
  5   2  23  1   
  6   3   5  1   
  7   3  24  1   
  8   3  25  1   
  9   4   6  ar  
 10   4   7  ar  
 11   5   8  1   
 12   5  26  1   
 13   5  27  1   
 14   6   9  ar  
 15   6  28  1   
 16   7  10  ar  
 17   7  29  1   
 18   8  11  2   
 19   8  12  am  
 20   9  13  ar  
 21   9  30  1   
 22  10  13  ar  
 23  10  31  1   
 24  12  14  1   
 25  12  32  1   
 26  13  33  1   
 27  14  15  1   
 28  14  16  1   
 29  14  34  1   
 30  15  17  1   
 31  15  35  1   
 32  15  36  1   
 33  16  18  1   
 34  16  37  1   
 35  16  38  1   
 36  17  19  am  
 37  17  20  1   
 38  18  19  1   
 39  18  39  1   
 40  18  40  1   
 41  19  21  2   
 42  20  41  1   
 43  20  42  1   
 44  20  43  1   
@<TRIPOS>SUBSTRUCTURE
  1 ****   5 GROUP 4 **** **** 0

# MOE 2024.06 (io_trps.svl 2023.06)
