@<TRIPOS>MOLECULE
NONAME
48 51 1 0 0 
SMALL
USER_CHARGES


@<TRIPOS>ATOM
  1 F        0.1520    -0.6310    -0.8440 F     1 <1>  -0.3400 
  2 C        0.3640    -1.7790    -1.4710 C.3   1 <1>   0.7800 
  3 F       -0.0360    -1.5570    -2.7150 F     1 <1>  -0.3400 
  4 C       -0.5110    -2.8480    -0.8560 C.2   1 <1>  -0.3320 
  5 N       -1.8410    -2.6980    -0.7600 N.pl3 1 <1>   0.3000 
  6 C       -0.2210    -4.0510    -0.3190 C.2   1 <1>  -0.1500 
  7 N       -2.4230    -3.7590    -0.1830 N.2   1 <1>  -0.7070 
  8 C       -1.4410    -4.6050     0.0960 C.2   1 <1>   0.2030 
  9 C       -1.5240    -5.9110     0.7550 C.2   1 <1>   0.7160 
 10 O       -0.4990    -6.4000     1.2080 O.2   1 <1>  -0.5700 
 11 N       -2.6940    -6.6440     0.8990 N.am  1 <1>  -0.6600 
 12 C       -3.9120    -6.4540     0.0630 C.3   1 <1>   0.1400 
 13 C       -2.8470    -7.6700     1.9690 C.3   1 <1>   0.1400 
 14 C       -4.3170    -7.7920    -0.5630 C.3   1 <1>  -0.1600 
 15 C       -3.2380    -9.0120     1.3470 C.3   1 <1>  -0.1600 
 16 C       -4.5070    -8.8960     0.4910 C.3   1 <1>   0.4240 
 17 O       -5.5200    -8.4870     1.3800 O.3   1 <1>  -0.5600 
 18 C       -4.8400   -10.2520    -0.1720 C.ar  1 <1>  -0.1430 
 19 C       -6.8400    -8.7130     0.9980 C.3   1 <1>   0.1200 
 20 C       -6.0630   -10.8780     0.0480 C.ar  1 <1>  -0.1430 
 21 C       -3.9210   -10.8710    -1.0110 C.ar  1 <1>  -0.1500 
 22 C       -7.0880   -10.2170     0.9490 C.3   1 <1>  -0.0170 
 23 C       -6.3530   -12.0960    -0.5470 C.ar  1 <1>  -0.1500 
 24 C       -4.2090   -12.0850    -1.6080 C.ar  1 <1>  -0.1500 
 25 C       -5.4230   -12.7080    -1.3810 C.ar  1 <1>   0.0830 
 26 O       -5.6270   -13.8970    -2.0020 O.3   1 <1>  -0.3630 
 27 C       -6.8220   -14.6230    -1.8200 C.3   1 <1>   0.0400 
 28 H        1.4190    -1.9890    -1.4740 H     1 <1>   0.0800 
 29 H       -2.3710    -1.8740    -1.0780 H     1 <1>   0.2700 
 30 H        0.7340    -4.5350    -0.2030 H     1 <1>   0.1500 
 31 H       -3.7320    -5.7520    -0.7300 H     1 <1>   0.0800 
 32 H       -4.7070    -6.0730     0.6800 H     1 <1>   0.0800 
 33 H       -3.6140    -7.3480     2.6530 H     1 <1>   0.0800 
 34 H       -1.9340    -7.7840     2.5270 H     1 <1>   0.0800 
 35 H       -3.5450    -8.0830    -1.2500 H     1 <1>   0.0800 
 36 H       -5.2160    -7.6700    -1.1370 H     1 <1>   0.0800 
 37 H       -3.4020    -9.7390     2.1210 H     1 <1>   0.0800 
 38 H       -2.4130    -9.3550     0.7510 H     1 <1>   0.0800 
 39 H       -7.0160    -8.2580     0.0390 H     1 <1>   0.0800 
 40 H       -7.4790    -8.2500     1.7300 H     1 <1>   0.0800 
 41 H       -2.9680   -10.4150    -1.2110 H     1 <1>   0.1500 
 42 H       -8.0810   -10.3990     0.5810 H     1 <1>   0.0800 
 43 H       -7.0130   -10.6230     1.9410 H     1 <1>   0.0800 
 44 H       -7.3020   -12.5560    -0.3540 H     1 <1>   0.1500 
 45 H       -3.4930   -12.5590    -2.2540 H     1 <1>   0.1500 
 46 H       -6.7530   -15.5280    -2.3970 H     1 <1>   0.0800 
 47 H       -7.6480   -14.0290    -2.1680 H     1 <1>   0.0800 
 48 H       -6.9290   -14.8620    -0.7770 H     1 <1>   0.0800 
@<TRIPOS>BOND
  1   1   2  1   
  2   2   3  1   
  3   2   4  1   
  4   2  28  1   
  5   4   5  1   
  6   4   6  2   
  7   5   7  1   
  8   5  29  1   
  9   6   8  1   
 10   6  30  1   
 11   7   8  2   
 12   8   9  1   
 13   9  10  2   
 14   9  11  am  
 15  11  12  1   
 16  11  13  1   
 17  12  14  1   
 18  12  31  1   
 19  12  32  1   
 20  13  15  1   
 21  13  33  1   
 22  13  34  1   
 23  14  16  1   
 24  14  35  1   
 25  14  36  1   
 26  15  16  1   
 27  15  37  1   
 28  15  38  1   
 29  16  17  1   
 30  16  18  1   
 31  17  19  1   
 32  18  20  ar  
 33  18  21  ar  
 34  19  22  1   
 35  19  39  1   
 36  19  40  1   
 37  20  22  1   
 38  20  23  ar  
 39  21  24  ar  
 40  21  41  1   
 41  22  42  1   
 42  22  43  1   
 43  23  25  ar  
 44  23  44  1   
 45  24  25  ar  
 46  24  45  1   
 47  25  26  1   
 48  26  27  1   
 49  27  46  1   
 50  27  47  1   
 51  27  48  1   
@<TRIPOS>SUBSTRUCTURE
  1 ****  14 GROUP 4 **** **** 0

# MOE 2024.06 (io_trps.svl 2023.06)
