@<TRIPOS>MOLECULE
NONAME
56 58 1 0 0 
SMALL
USER_CHARGES


@<TRIPOS>ATOM
  1 O        2.4100    -0.1700    -2.0530 O.2   1 <1>  -0.5700 
  2 C        1.9680    -0.6630    -1.0430 C.2   1 <1>   0.5690 
  3 N        1.6960     0.0560     0.0790 N.am  1 <1>  -0.7300 
  4 C        1.6920    -2.1700    -1.0140 C.3   1 <1>   0.1710 
  5 C        1.8200     1.5160     0.2830 C.3   1 <1>   0.2200 
  6 N        0.5590    -2.5780    -0.1300 N.3   1 <1>  -0.8100 
  7 C        0.8820     2.2380    -0.6970 C.3   1 <1>  -0.1600 
  8 C        3.3010     1.9320     0.1620 C.3   1 <1>  -0.1600 
  9 C       -0.7380    -2.0720    -0.6100 C.3   1 <1>   0.1100 
 10 C        0.4190    -4.0410    -0.0350 C.3   1 <1>   0.1100 
 11 C        0.3550     3.5950    -0.2030 C.3   1 <1>  -0.1600 
 12 C        3.8380     2.6640     1.4020 C.3   1 <1>  -0.1600 
 13 C       -1.7580    -2.9760     0.0660 C.3   1 <1>   0.2000 
 14 C       -1.0900    -4.3480    -0.0430 C.3   1 <1>  -0.0800 
 15 C        1.4340     4.6590     0.0500 C.3   1 <1>  -0.1600 
 16 C        3.5700     4.1770     1.4230 C.3   1 <1>  -0.1600 
 17 O       -1.8240    -2.5970     1.3950 O.3   1 <1>  -0.6800 
 18 C       -1.5180    -5.3730     1.0240 C.3   1 <1>   0.0200 
 19 C        2.0870     4.5800     1.4450 C.3   1 <1>  -0.1600 
 20 C       -0.9240    -6.7520     0.7900 C.2   1 <1>  -0.0400 
 21 O       -1.0310    -7.6500     1.7330 O.3   1 <1>  -0.0190 
 22 C       -0.2650    -7.3170    -0.2360 C.2   1 <1>  -0.1500 
 23 N       -0.4770    -8.7780     1.3980 N.2   1 <1>  -0.4100 
 24 C       -0.0080    -8.6080     0.2150 C.2   1 <1>   0.1080 
 25 C        0.7210    -9.6760    -0.5700 C.3   1 <1>  -0.0590 
 26 H        1.2610    -0.4680     0.8430 H     1 <1>   0.3700 
 27 H        2.5910    -2.6500    -0.6730 H     1 <1>   0.0800 
 28 H        1.5050    -2.4970    -2.0210 H     1 <1>   0.0800 
 29 H        1.4750     1.7160     1.2830 H     1 <1>   0.0800 
 30 H        1.3760     2.3630    -1.6450 H     1 <1>   0.0800 
 31 H        0.0220     1.6150    -0.8700 H     1 <1>   0.0800 
 32 H        3.9030     1.0500     0.0300 H     1 <1>   0.0800 
 33 H        3.4580     2.5370    -0.7130 H     1 <1>   0.0800 
 34 H       -0.8870    -1.0360    -0.3530 H     1 <1>   0.0800 
 35 H       -0.8100    -2.1870    -1.6790 H     1 <1>   0.0800 
 36 H        0.8960    -4.5330    -0.8660 H     1 <1>   0.0800 
 37 H        0.8800    -4.3790     0.8790 H     1 <1>   0.0800 
 38 H       -0.3050     3.9730    -0.9650 H     1 <1>   0.0800 
 39 H       -0.2410     3.4570     0.6820 H     1 <1>   0.0800 
 40 H        3.4510     2.2080     2.2970 H     1 <1>   0.0800 
 41 H        4.9060     2.5300     1.4230 H     1 <1>   0.0800 
 42 H       -2.7440    -2.9290    -0.3650 H     1 <1>   0.0800 
 43 H       -1.3370    -4.7450    -1.0110 H     1 <1>   0.0800 
 44 H        2.1720     4.6310    -0.7340 H     1 <1>   0.0800 
 45 H        0.9530     5.6190    -0.0220 H     1 <1>   0.0800 
 46 H        4.0290     4.5670     2.3150 H     1 <1>   0.0800 
 47 H        4.0670     4.6470     0.5920 H     1 <1>   0.0800 
 48 H       -0.8980    -2.4680     1.6910 H     1 <1>   0.4000 
 49 H       -2.5900    -5.4580     1.0330 H     1 <1>   0.0800 
 50 H       -1.2110    -5.0350     1.9980 H     1 <1>   0.0800 
 51 H        1.5340     3.9370     2.1060 H     1 <1>   0.0800 
 52 H        2.0370     5.5670     1.8720 H     1 <1>   0.0800 
 53 H        0.0160    -6.9150    -1.1900 H     1 <1>   0.1500 
 54 H        0.2680    -9.7940    -1.5370 H     1 <1>   0.0800 
 55 H        0.6710   -10.6130    -0.0460 H     1 <1>   0.0800 
 56 H        1.7520    -9.4000    -0.6900 H     1 <1>   0.0800 
@<TRIPOS>BOND
  1   1   2  2   
  2   2   3  am  
  3   2   4  1   
  4   3   5  1   
  5   3  26  1   
  6   4   6  1   
  7   4  27  1   
  8   4  28  1   
  9   5   7  1   
 10   5   8  1   
 11   5  29  1   
 12   6   9  1   
 13   6  10  1   
 14   7  11  1   
 15   7  30  1   
 16   7  31  1   
 17   8  12  1   
 18   8  32  1   
 19   8  33  1   
 20   9  13  1   
 21   9  34  1   
 22   9  35  1   
 23  10  14  1   
 24  10  36  1   
 25  10  37  1   
 26  11  15  1   
 27  11  38  1   
 28  11  39  1   
 29  12  16  1   
 30  12  40  1   
 31  12  41  1   
 32  13  14  1   
 33  13  17  1   
 34  13  42  1   
 35  14  18  1   
 36  14  43  1   
 37  15  19  1   
 38  15  44  1   
 39  15  45  1   
 40  16  19  1   
 41  16  46  1   
 42  16  47  1   
 43  17  48  1   
 44  18  20  1   
 45  18  49  1   
 46  18  50  1   
 47  19  51  1   
 48  19  52  1   
 49  20  21  1   
 50  20  22  2   
 51  21  23  1   
 52  22  24  1   
 53  22  53  1   
 54  23  24  2   
 55  24  25  1   
 56  25  54  1   
 57  25  55  1   
 58  25  56  1   
@<TRIPOS>SUBSTRUCTURE
  1 ****   6 GROUP 4 **** **** 0

# MOE 2024.06 (io_trps.svl 2023.06)
