@<TRIPOS>MOLECULE
NONAME
48 50 1 0 0 
SMALL
USER_CHARGES


@<TRIPOS>ATOM
  1 O       -2.6540     1.5900    -1.7530 O.2   1 <1>  -0.5700 
  2 C       -2.2540     1.4400    -0.6260 C.2   1 <1>   0.5690 
  3 N       -2.1630     0.2170    -0.0530 N.am  1 <1>  -0.7300 
  4 C       -1.8370     2.6520     0.1720 C.3   1 <1>  -0.0990 
  5 C       -2.5140    -1.0570    -0.7190 C.3   1 <1>   0.2200 
  6 C       -0.8990     3.5370    -0.6550 C.3   1 <1>   0.0960 
  7 C       -3.8000    -1.5980    -0.1150 C.3   1 <1>  -0.0800 
  8 C       -1.5110    -2.1300    -0.3150 C.3   1 <1>   0.1200 
  9 N       -0.3450     4.6190     0.1840 N.pl3 1 <1>   0.0480 
 10 C       -3.2940    -2.3620     1.1170 C.3   1 <1>   0.1200 
 11 C       -4.5460    -2.5130    -1.1050 C.3   1 <1>  -0.0170 
 12 O       -1.9210    -2.5660     0.9440 O.3   1 <1>  -0.5600 
 13 C        0.9110     4.7760     0.6780 C.2   1 <1>   0.0060 
 14 C       -1.0290     5.6820     0.6450 C.2   1 <1>  -0.3020 
 15 C       -5.8440    -3.0370    -0.5090 C.ar  1 <1>  -0.1440 
 16 N        1.0510     5.8390     1.4020 N.2   1 <1>  -0.5650 
 17 C        2.0650     3.8200     0.4150 C.3   1 <1>   0.0200 
 18 C       -0.1650     6.4100     1.3830 C.2   1 <1>   0.0770 
 19 C       -5.9790    -4.3400    -0.0720 C.ar  1 <1>  -0.1500 
 20 C       -6.9580    -2.2330    -0.3780 C.ar  1 <1>  -0.1500 
 21 C        1.9400     2.5300     1.2340 C.3   1 <1>  -0.2400 
 22 C       -7.1840    -4.7610     0.4660 C.ar  1 <1>   0.1600 
 23 C       -8.1170    -2.7530     0.1740 C.ar  1 <1>   0.1600 
 24 N       -8.2560    -3.9980     0.6010 N.ar  1 <1>  -0.6200 
 25 H       -1.8460     0.1030     0.9130 H     1 <1>   0.3700 
 26 H       -2.7190     3.2050     0.4350 H     1 <1>   0.0800 
 27 H       -1.3420     2.3380     1.0730 H     1 <1>   0.0800 
 28 H       -2.5660    -0.9250    -1.7870 H     1 <1>   0.0800 
 29 H       -1.4350     3.9750    -1.4790 H     1 <1>   0.0800 
 30 H       -0.0940     2.9480    -1.0550 H     1 <1>   0.0800 
 31 H       -4.4580    -0.7980     0.1740 H     1 <1>   0.0800 
 32 H       -0.5030    -1.7590    -0.2620 H     1 <1>   0.0800 
 33 H       -1.5570    -2.9700    -0.9860 H     1 <1>   0.0800 
 34 H       -3.7710    -3.3180     1.2440 H     1 <1>   0.0800 
 35 H       -3.4260    -1.7790     2.0120 H     1 <1>   0.0800 
 36 H       -3.9220    -3.3400    -1.3930 H     1 <1>   0.0800 
 37 H       -4.7800    -1.9570    -1.9960 H     1 <1>   0.0800 
 38 H       -2.0650     5.8620     0.4300 H     1 <1>   0.1500 
 39 H        2.1200     3.5930    -0.6350 H     1 <1>   0.0800 
 40 H        2.9810     4.3140     0.6860 H     1 <1>   0.0800 
 41 H       -0.3570     7.3310     1.9090 H     1 <1>   0.1500 
 42 H       -5.1600    -5.0330    -0.1420 H     1 <1>   0.1500 
 43 H       -6.9370    -1.2080    -0.7000 H     1 <1>   0.1500 
 44 H        1.0730     1.9700     0.9390 H     1 <1>   0.0800 
 45 H        1.8590     2.7730     2.2800 H     1 <1>   0.0800 
 46 H        2.8120     1.9180     1.0900 H     1 <1>   0.0800 
 47 H       -7.2700    -5.7800     0.8030 H     1 <1>   0.1500 
 48 H       -8.9760    -2.1110     0.2690 H     1 <1>   0.1500 
@<TRIPOS>BOND
  1   1   2  2   
  2   2   3  am  
  3   2   4  1   
  4   3   5  1   
  5   3  25  1   
  6   4   6  1   
  7   4  26  1   
  8   4  27  1   
  9   5   7  1   
 10   5   8  1   
 11   5  28  1   
 12   6   9  1   
 13   6  29  1   
 14   6  30  1   
 15   7  10  1   
 16   7  11  1   
 17   7  31  1   
 18   8  12  1   
 19   8  32  1   
 20   8  33  1   
 21   9  13  1   
 22   9  14  1   
 23  10  12  1   
 24  10  34  1   
 25  10  35  1   
 26  11  15  1   
 27  11  36  1   
 28  11  37  1   
 29  13  16  2   
 30  13  17  1   
 31  14  18  2   
 32  14  38  1   
 33  15  19  ar  
 34  15  20  ar  
 35  16  18  1   
 36  17  21  1   
 37  17  39  1   
 38  17  40  1   
 39  18  41  1   
 40  19  22  ar  
 41  19  42  1   
 42  20  23  ar  
 43  20  43  1   
 44  21  44  1   
 45  21  45  1   
 46  21  46  1   
 47  22  24  ar  
 48  22  47  1   
 49  23  24  ar  
 50  23  48  1   
@<TRIPOS>SUBSTRUCTURE
  1 ****   3 GROUP 4 **** **** 0

# MOE 2024.06 (io_trps.svl 2023.06)
