@<TRIPOS>MOLECULE
NONAME
57 59 1 0 0 
SMALL
USER_CHARGES


@<TRIPOS>ATOM
  1 S        0.2410     0.5420     0.4810 S.o2  1 <1>   1.3330 
  2 O        0.1720     1.2560    -0.7740 O.2   1 <1>  -0.6500 
  3 O       -0.8430    -0.3480     0.8300 O.2   1 <1>  -0.6500 
  4 N        1.7130    -0.3110     0.5540 N.am  1 <1>  -0.8490 
  5 C        0.3720     1.7020     1.8290 C.3   1 <1>  -0.1350 
  6 C        2.7700     0.1780    -0.3730 C.3   1 <1>   0.2760 
  7 C        1.4450    -1.7540     0.4020 C.3   1 <1>   0.1960 
  8 C        4.0370    -0.7040    -0.2740 C.3   1 <1>  -0.1600 
  9 C        3.1580     1.6440    -0.0640 C.3   1 <1>  -0.1600 
 10 C        2.7000    -2.6030     0.5820 C.3   1 <1>  -0.1600 
 11 C        3.7600    -2.1970    -0.4330 C.3   1 <1>  -0.1600 
 12 C        4.2800     2.1880    -0.9500 C.3   1 <1>   0.2090 
 13 N        4.4230     3.6400    -0.7040 N.pl3 1 <1>  -0.8690 
 14 C        5.5260     4.3450    -1.1290 C.ar  1 <1>   0.4100 
 15 N        6.5580     3.6560    -1.5970 N.ar  1 <1>  -0.6200 
 16 C        5.5090     5.7300    -1.0540 C.ar  1 <1>  -0.1500 
 17 C        7.5910     4.3690    -2.0090 C.ar  1 <1>   0.1600 
 18 C        6.5930     6.4800    -1.4690 C.ar  1 <1>   0.0860 
 19 C        7.6590     5.7460    -1.9700 C.ar  1 <1>  -0.1500 
 20 C        6.6040     7.9270    -1.3920 C.2   1 <1>   0.5440 
 21 O        5.7000     8.5450    -1.9220 O.2   1 <1>  -0.5700 
 22 N        7.6020     8.6160    -0.7330 N.am  1 <1>  -0.6600 
 23 C        7.7170    10.1000    -0.8240 C.3   1 <1>   0.1400 
 24 C        8.5200     7.9950     0.2630 C.3   1 <1>   0.1400 
 25 C        7.4570    10.7250     0.5500 C.3   1 <1>  -0.1600 
 26 C        8.2720     8.6060     1.6470 C.3   1 <1>  -0.1600 
 27 C        8.3840    10.1370     1.6230 C.3   1 <1>  -0.1600 
 28 H       -0.5350     2.2690     1.9080 H     1 <1>   0.0800 
 29 H        1.1860     2.3800     1.6840 H     1 <1>   0.0800 
 30 H        0.5240     1.1730     2.7490 H     1 <1>   0.0800 
 31 H        2.3940     0.1190    -1.3830 H     1 <1>   0.0800 
 32 H        1.0130    -1.9400    -0.5680 H     1 <1>   0.0800 
 33 H        0.7370    -2.0750     1.1490 H     1 <1>   0.0800 
 34 H        4.5080    -0.5340     0.6790 H     1 <1>   0.0800 
 35 H        4.7390    -0.4280    -1.0390 H     1 <1>   0.0800 
 36 H        3.4680     1.7200     0.9620 H     1 <1>   0.0800 
 37 H        2.3180     2.2870    -0.2280 H     1 <1>   0.0800 
 38 H        2.4500    -3.6400     0.4490 H     1 <1>   0.0800 
 39 H        3.0720    -2.4760     1.5830 H     1 <1>   0.0800 
 40 H        4.6630    -2.7600    -0.2700 H     1 <1>   0.0800 
 41 H        3.4080    -2.4000    -1.4310 H     1 <1>   0.0800 
 42 H        4.0540     2.0280    -1.9910 H     1 <1>   0.0800 
 43 H        5.2110     1.6990    -0.7160 H     1 <1>   0.0800 
 44 H        3.5420     4.1520    -0.7640 H     1 <1>   0.4000 
 45 H        4.6420     6.2290    -0.6670 H     1 <1>   0.1500 
 46 H        8.4290     3.8180    -2.4000 H     1 <1>   0.1500 
 47 H        8.5330     6.2580    -2.3300 H     1 <1>   0.1500 
 48 H        7.0160    10.4950    -1.5400 H     1 <1>   0.0800 
 49 H        8.7080    10.3530    -1.1590 H     1 <1>   0.0800 
 50 H        9.5380     8.1760    -0.0380 H     1 <1>   0.0800 
 51 H        8.3700     6.9320     0.3200 H     1 <1>   0.0800 
 52 H        6.4290    10.5480     0.8180 H     1 <1>   0.0800 
 53 H        7.6000    11.7890     0.4900 H     1 <1>   0.0800 
 54 H        8.9820     8.2030     2.3470 H     1 <1>   0.0800 
 55 H        7.2880     8.3210     1.9780 H     1 <1>   0.0800 
 56 H        8.1240    10.5360     2.5880 H     1 <1>   0.0800 
 57 H        9.4010    10.4180     1.4090 H     1 <1>   0.0800 
@<TRIPOS>BOND
  1   1   2  2   
  2   1   3  2   
  3   1   4  am  
  4   1   5  1   
  5   4   6  1   
  6   4   7  1   
  7   5  28  1   
  8   5  29  1   
  9   5  30  1   
 10   6   8  1   
 11   6   9  1   
 12   6  31  1   
 13   7  10  1   
 14   7  32  1   
 15   7  33  1   
 16   8  11  1   
 17   8  34  1   
 18   8  35  1   
 19   9  12  1   
 20   9  36  1   
 21   9  37  1   
 22  10  11  1   
 23  10  38  1   
 24  10  39  1   
 25  11  40  1   
 26  11  41  1   
 27  12  13  1   
 28  12  42  1   
 29  12  43  1   
 30  13  14  1   
 31  13  44  1   
 32  14  15  ar  
 33  14  16  ar  
 34  15  17  ar  
 35  16  18  ar  
 36  16  45  1   
 37  17  19  ar  
 38  17  46  1   
 39  18  19  ar  
 40  18  20  1   
 41  19  47  1   
 42  20  21  2   
 43  20  22  am  
 44  22  23  1   
 45  22  24  1   
 46  23  25  1   
 47  23  48  1   
 48  23  49  1   
 49  24  26  1   
 50  24  50  1   
 51  24  51  1   
 52  25  27  1   
 53  25  52  1   
 54  25  53  1   
 55  26  27  1   
 56  26  54  1   
 57  26  55  1   
 58  27  56  1   
 59  27  57  1   
@<TRIPOS>SUBSTRUCTURE
  1 ****  13 GROUP 4 **** **** 0

# MOE 2024.06 (io_trps.svl 2023.06)
