@<TRIPOS>MOLECULE
NONAME
41 43 1 0 0 
SMALL
USER_CHARGES


@<TRIPOS>ATOM
  1 CL      -1.5270     0.3860     2.3470 Cl    1 <1>  -0.1230 
  2 C       -2.0200     0.5250     0.6690 C.2   1 <1>   0.1230 
  3 C       -2.6140    -0.4850    -0.0700 C.2   1 <1>   0.1080 
  4 C       -1.9110     1.5890    -0.1480 C.2   1 <1>  -0.3320 
  5 N       -2.8780    -0.0910    -1.2870 N.2   1 <1>  -0.7070 
  6 C       -2.9250    -1.8760     0.4600 C.3   1 <1>   0.5240 
  7 N       -2.4340     1.1940    -1.3320 N.pl3 1 <1>   0.3000 
  8 C       -1.3370     2.9720     0.1160 C.3   1 <1>  -0.0600 
  9 N       -4.0110    -2.4450    -0.3860 N.4   1 <1>  -0.9590 
 10 C       -5.3650    -1.9180    -0.0440 C.3   1 <1>   0.3430 
 11 C       -4.0670    -3.9340    -0.4310 C.3   1 <1>   0.3430 
 12 C       -6.3170    -3.0960    -0.2480 C.3   1 <1>   0.2000 
 13 C       -5.4710    -4.3340     0.0270 C.3   1 <1>  -0.0800 
 14 O       -7.3990    -3.0450     0.6180 O.3   1 <1>  -0.6800 
 15 C       -6.0060    -5.5960    -0.6740 C.3   1 <1>  -0.0170 
 16 C       -5.1640    -6.8230    -0.3560 C.ar  1 <1>   0.1670 
 17 N       -3.9140    -6.8090    -0.7990 N.ar  1 <1>  -0.6200 
 18 C       -5.7220    -7.8740     0.3580 C.ar  1 <1>  -0.1500 
 19 C       -3.1990    -7.8930    -0.5310 C.ar  1 <1>   0.1600 
 20 C       -4.9630    -8.9890     0.6380 C.ar  1 <1>  -0.1500 
 21 C       -3.6660    -8.9890     0.1740 C.ar  1 <1>  -0.1500 
 22 H       -3.2240    -1.8310     1.4940 H     1 <1>   0.0800 
 23 H       -2.0370    -2.4800     0.3770 H     1 <1>   0.0800 
 24 H       -2.4980     1.7730    -2.1810 H     1 <1>   0.2700 
 25 H       -0.9820     3.0430     1.1300 H     1 <1>   0.0800 
 26 H       -2.0900     3.7260    -0.0330 H     1 <1>   0.0800 
 27 H       -0.5110     3.1680    -0.5450 H     1 <1>   0.0800 
 28 H       -3.7740    -2.0650    -1.3230 H     1 <1>   0.4500 
 29 H       -5.3930    -1.6110     0.9880 H     1 <1>   0.0800 
 30 H       -5.6280    -1.0870    -0.6790 H     1 <1>   0.0800 
 31 H       -3.9080    -4.2730    -1.4430 H     1 <1>   0.0800 
 32 H       -3.3190    -4.3880     0.2000 H     1 <1>   0.0800 
 33 H       -6.6940    -3.0860    -1.2570 H     1 <1>   0.0800 
 34 H       -5.4220    -4.5150     1.0870 H     1 <1>   0.0800 
 35 H       -7.1630    -3.2870     1.5360 H     1 <1>   0.4000 
 36 H       -6.0130    -5.4550    -1.7410 H     1 <1>   0.0800 
 37 H       -7.0240    -5.7670    -0.3670 H     1 <1>   0.0800 
 38 H       -6.7430    -7.8310     0.6930 H     1 <1>   0.1500 
 39 H       -2.1850    -7.9130    -0.8920 H     1 <1>   0.1500 
 40 H       -5.3640    -9.8230     1.1880 H     1 <1>   0.1500 
 41 H       -3.0220    -9.8320     0.3520 H     1 <1>   0.1500 
@<TRIPOS>BOND
  1   1   2  1   
  2   2   3  1   
  3   2   4  2   
  4   3   5  2   
  5   3   6  1   
  6   4   7  1   
  7   4   8  1   
  8   5   7  1   
  9   6   9  1   
 10   6  22  1   
 11   6  23  1   
 12   7  24  1   
 13   8  25  1   
 14   8  26  1   
 15   8  27  1   
 16   9  10  1   
 17   9  11  1   
 18   9  28  1   
 19  10  12  1   
 20  10  29  1   
 21  10  30  1   
 22  11  13  1   
 23  11  31  1   
 24  11  32  1   
 25  12  13  1   
 26  12  14  1   
 27  12  33  1   
 28  13  15  1   
 29  13  34  1   
 30  14  35  1   
 31  15  16  1   
 32  15  36  1   
 33  15  37  1   
 34  16  17  ar  
 35  16  18  ar  
 36  17  19  ar  
 37  18  20  ar  
 38  18  38  1   
 39  19  21  ar  
 40  19  39  1   
 41  20  21  ar  
 42  20  40  1   
 43  21  41  1   
@<TRIPOS>SUBSTRUCTURE
  1 ****  11 GROUP 4 **** **** 0

# MOE 2024.06 (io_trps.svl 2023.06)
