@<TRIPOS>MOLECULE
NONAME
53 56 1 0 0 
SMALL
USER_CHARGES


@<TRIPOS>ATOM
  1 O       -0.1340     0.1010    -1.4200 O.2   1 <1>  -0.5700 
  2 C       -0.4470     0.8640    -0.5400 C.2   1 <1>   0.5690 
  3 N       -1.6940     1.0290    -0.0050 N.am  1 <1>  -0.4770 
  4 C        0.5610     1.7710     0.1080 C.3   1 <1>  -0.0990 
  5 C       -2.8720     0.3090    -0.2870 C.ar  1 <1>   0.1170 
  6 C       -1.6390     2.0410     1.0740 C.3   1 <1>   0.1400 
  7 C       -0.3200     2.7840     0.8330 C.3   1 <1>   0.2890 
  8 C       -4.1130     0.9370    -0.2900 C.ar  1 <1>  -0.1500 
  9 C       -2.8270    -1.0540    -0.5630 C.ar  1 <1>  -0.1500 
 10 N       -0.5670     3.9320    -0.0760 N.pl3 1 <1>  -0.8690 
 11 C       -5.2770     0.2330    -0.5470 C.ar  1 <1>   0.0830 
 12 C       -3.9820    -1.7690    -0.8240 C.ar  1 <1>  -0.1500 
 13 C        0.2800     5.0010    -0.1830 C.ar  1 <1>   0.4100 
 14 O       -6.4350     0.9410    -0.5210 O.3   1 <1>  -0.3630 
 15 C       -5.2100    -1.1310    -0.8160 C.ar  1 <1>  -0.1500 
 16 N        1.2490     5.1110     0.7160 N.ar  1 <1>  -0.6200 
 17 C        0.1090     5.9120    -1.2230 C.ar  1 <1>  -0.1500 
 18 C       -7.6720     0.3290    -0.8100 C.3   1 <1>   0.0400 
 19 C        2.0660     6.1400     0.5710 C.ar  1 <1>   0.1600 
 20 C        0.9640     6.9790    -1.3530 C.ar  1 <1>  -0.1500 
 21 C        1.9870     7.1170    -0.4190 C.ar  1 <1>   0.0860 
 22 C        2.9440     8.1970    -0.4540 C.2   1 <1>   0.5440 
 23 O        4.1140     7.9570    -0.2210 O.2   1 <1>  -0.5700 
 24 N        2.5770     9.4970    -0.7320 N.am  1 <1>  -0.6600 
 25 C        3.5880    10.5470    -1.0680 C.3   1 <1>   0.1400 
 26 C        1.2290    10.0640    -0.4240 C.3   1 <1>   0.1400 
 27 C        3.5680    11.6720    -0.0210 C.3   1 <1>   0.1200 
 28 C        1.3450    11.2290     0.5760 C.3   1 <1>   0.1200 
 29 O        2.2720    12.1780     0.1310 O.3   1 <1>  -0.5600 
 30 H        1.2140     2.2280    -0.6120 H     1 <1>   0.0800 
 31 H        1.1360     1.2000     0.8120 H     1 <1>   0.0800 
 32 H       -1.6160     1.5360     2.0230 H     1 <1>   0.0800 
 33 H       -2.4730     2.7190     1.0440 H     1 <1>   0.0800 
 34 H        0.1150     3.1220     1.7580 H     1 <1>   0.0800 
 35 H       -4.1930     1.9890    -0.1010 H     1 <1>   0.1500 
 36 H       -1.8790    -1.5610    -0.5750 H     1 <1>   0.1500 
 37 H       -1.1170     3.6900    -0.9040 H     1 <1>   0.4000 
 38 H       -3.9230    -2.8220    -1.0360 H     1 <1>   0.1500 
 39 H       -6.0920    -1.7070    -1.0200 H     1 <1>   0.1500 
 40 H       -0.6940     5.7640    -1.9190 H     1 <1>   0.1500 
 41 H       -8.4390     1.0790    -0.7440 H     1 <1>   0.0800 
 42 H       -7.8550    -0.4450    -0.0860 H     1 <1>   0.0800 
 43 H       -7.6380    -0.0740    -1.8070 H     1 <1>   0.0800 
 44 H        2.8660     6.2270     1.2880 H     1 <1>   0.1500 
 45 H        0.8590     7.6890    -2.1540 H     1 <1>   0.1500 
 46 H        3.3590    10.9600    -2.0340 H     1 <1>   0.0800 
 47 H        4.5770    10.1240    -1.1180 H     1 <1>   0.0800 
 48 H        0.5860     9.3120    -0.0040 H     1 <1>   0.0800 
 49 H        0.7790    10.4230    -1.3330 H     1 <1>   0.0800 
 50 H        4.2040    12.4810    -0.3330 H     1 <1>   0.0800 
 51 H        3.9140    11.3060     0.9310 H     1 <1>   0.0800 
 52 H        1.6580    10.8700     1.5410 H     1 <1>   0.0800 
 53 H        0.3960    11.7230     0.6830 H     1 <1>   0.0800 
@<TRIPOS>BOND
  1   1   2  2   
  2   2   3  am  
  3   2   4  1   
  4   3   5  1   
  5   3   6  1   
  6   4   7  1   
  7   4  30  1   
  8   4  31  1   
  9   5   8  ar  
 10   5   9  ar  
 11   6   7  1   
 12   6  32  1   
 13   6  33  1   
 14   7  10  1   
 15   7  34  1   
 16   8  11  ar  
 17   8  35  1   
 18   9  12  ar  
 19   9  36  1   
 20  10  13  1   
 21  10  37  1   
 22  11  14  1   
 23  11  15  ar  
 24  12  15  ar  
 25  12  38  1   
 26  13  16  ar  
 27  13  17  ar  
 28  14  18  1   
 29  15  39  1   
 30  16  19  ar  
 31  17  20  ar  
 32  17  40  1   
 33  18  41  1   
 34  18  42  1   
 35  18  43  1   
 36  19  21  ar  
 37  19  44  1   
 38  20  21  ar  
 39  20  45  1   
 40  21  22  1   
 41  22  23  2   
 42  22  24  am  
 43  24  25  1   
 44  24  26  1   
 45  25  27  1   
 46  25  46  1   
 47  25  47  1   
 48  26  28  1   
 49  26  48  1   
 50  26  49  1   
 51  27  29  1   
 52  27  50  1   
 53  27  51  1   
 54  28  29  1   
 55  28  52  1   
 56  28  53  1   
@<TRIPOS>SUBSTRUCTURE
  1 ****  10 GROUP 4 **** **** 0

# MOE 2024.06 (io_trps.svl 2023.06)
