@<TRIPOS>MOLECULE
NONAME
48 50 1 0 0 
SMALL
USER_CHARGES


@<TRIPOS>ATOM
  1 O        2.2360    -0.6190    -2.0040 O.2   1 <1>  -0.5700 
  2 C        1.8540    -1.0230    -0.9290 C.2   1 <1>   0.5690 
  3 N        1.6820    -0.2390     0.1690 N.am  1 <1>  -0.4930 
  4 C        1.5270    -2.5090    -0.7640 C.3   1 <1>   0.1710 
  5 C        1.8430     1.1570     0.3420 C.2   1 <1>   0.0630 
  6 N        0.6310    -2.8060     0.3950 N.3   1 <1>  -0.8100 
  7 C        1.4650     1.9140     1.4520 C.2   1 <1>   0.1080 
  8 C        2.3860     2.0520    -0.5060 C.2   1 <1>  -0.3020 
  9 C       -0.7550    -2.3590     0.1790 C.3   1 <1>   0.1100 
 10 C        0.5400    -4.2490     0.6820 C.3   1 <1>   0.1100 
 11 N        1.7500     3.1720     1.3100 N.2   1 <1>  -0.7070 
 12 C        0.7960     1.3700     2.6950 C.3   1 <1>  -0.0590 
 13 N        2.3190     3.2560     0.0950 N.pl3 1 <1>   0.3140 
 14 C       -1.5580    -3.1420     1.2100 C.3   1 <1>   0.2000 
 15 C       -0.8910    -4.5160     1.1900 C.3   1 <1>  -0.0800 
 16 C        2.7920     4.5300    -0.4550 C.3   1 <1>   0.0160 
 17 O       -1.3190    -2.5690     2.4460 O.3   1 <1>  -0.6800 
 18 C       -1.6540    -5.4930     0.2750 C.3   1 <1>   0.0210 
 19 C       -0.9490    -6.8320     0.1450 C.2   1 <1>   0.1080 
 20 N       -0.5030    -7.5010     1.1620 N.2   1 <1>  -0.7070 
 21 C       -0.7050    -7.4840    -1.0590 C.2   1 <1>  -0.1500 
 22 N        0.0370    -8.6130     0.6300 N.pl3 1 <1>   0.3000 
 23 C       -0.0700    -8.6250    -0.7160 C.2   1 <1>  -0.3320 
 24 C        0.4440    -9.7440    -1.6020 C.3   1 <1>  -0.0600 
 25 H        1.3090    -0.7600     0.9660 H     1 <1>   0.3700 
 26 H        2.4600    -3.0250    -0.6260 H     1 <1>   0.0800 
 27 H        1.0830    -2.8680    -1.6750 H     1 <1>   0.0800 
 28 H        2.8030     1.8910    -1.4830 H     1 <1>   0.1500 
 29 H       -0.8680    -1.2960     0.3120 H     1 <1>   0.0800 
 30 H       -1.0830    -2.6300    -0.8110 H     1 <1>   0.0800 
 31 H        0.7400    -4.8240    -0.2060 H     1 <1>   0.0800 
 32 H        1.2630    -4.5190     1.4330 H     1 <1>   0.0800 
 33 H       -0.0390     0.7500     2.4230 H     1 <1>   0.0800 
 34 H        0.4410     2.1830     3.3010 H     1 <1>   0.0800 
 35 H        1.5020     0.7940     3.2630 H     1 <1>   0.0800 
 36 H       -2.6190    -3.1510     1.0290 H     1 <1>   0.0800 
 37 H       -0.8620    -4.9430     2.1790 H     1 <1>   0.0800 
 38 H        2.4780     4.6120    -1.4780 H     1 <1>   0.0800 
 39 H        3.8630     4.5610    -0.3950 H     1 <1>   0.0800 
 40 H        2.3740     5.3360     0.1180 H     1 <1>   0.0800 
 41 H       -0.3470    -2.5470     2.5600 H     1 <1>   0.4000 
 42 H       -1.7740    -5.0650    -0.7030 H     1 <1>   0.0800 
 43 H       -2.6320    -5.6700     0.6850 H     1 <1>   0.0800 
 44 H       -0.9770    -7.1350    -2.0390 H     1 <1>   0.1500 
 45 H        0.4650    -9.3450     1.2100 H     1 <1>   0.2700 
 46 H        0.2390    -9.5240    -2.6340 H     1 <1>   0.0800 
 47 H       -0.0400   -10.6710    -1.3480 H     1 <1>   0.0800 
 48 H        1.5070    -9.8580    -1.4800 H     1 <1>   0.0800 
@<TRIPOS>BOND
  1   1   2  2   
  2   2   3  am  
  3   2   4  1   
  4   3   5  1   
  5   3  25  1   
  6   4   6  1   
  7   4  26  1   
  8   4  27  1   
  9   5   7  1   
 10   5   8  2   
 11   6   9  1   
 12   6  10  1   
 13   7  11  2   
 14   7  12  1   
 15   8  13  1   
 16   8  28  1   
 17   9  14  1   
 18   9  29  1   
 19   9  30  1   
 20  10  15  1   
 21  10  31  1   
 22  10  32  1   
 23  11  13  1   
 24  12  33  1   
 25  12  34  1   
 26  12  35  1   
 27  13  16  1   
 28  14  15  1   
 29  14  17  1   
 30  14  36  1   
 31  15  18  1   
 32  15  37  1   
 33  16  38  1   
 34  16  39  1   
 35  16  40  1   
 36  17  41  1   
 37  18  19  1   
 38  18  42  1   
 39  18  43  1   
 40  19  20  2   
 41  19  21  1   
 42  20  22  1   
 43  21  23  2   
 44  21  44  1   
 45  22  23  1   
 46  22  45  1   
 47  23  24  1   
 48  24  46  1   
 49  24  47  1   
 50  24  48  1   
@<TRIPOS>SUBSTRUCTURE
  1 ****   6 GROUP 4 **** **** 0

# MOE 2024.06 (io_trps.svl 2023.06)
