@<TRIPOS>MOLECULE
NONAME
48 51 1 0 0 
SMALL
USER_CHARGES


@<TRIPOS>ATOM
  1 S        0.9240     0.8310     0.7640 S.3   1 <1>  -0.0800 
  2 C        1.5390    -0.6470     0.0150 C.2   1 <1>   0.3250 
  3 C        1.9020     1.7940    -0.2920 C.2   1 <1>  -0.1100 
  4 N        2.3980    -0.3770    -0.9210 N.2   1 <1>  -0.5650 
  5 C        1.0450    -1.9310     0.5050 C.ar  1 <1>   0.6730 
  6 C        2.5980     0.9780    -1.0980 C.2   1 <1>   0.0460 
  7 N        1.5500    -3.0490    -0.0420 N.ar  1 <1>  -0.6200 
  8 N        0.1150    -1.9300     1.4750 N.ar  1 <1>  -0.6200 
  9 C        3.5840     1.3930    -2.1850 C.3   1 <1>   0.3900 
 10 C        1.1010    -4.1970     0.4020 C.ar  1 <1>   0.1600 
 11 C       -0.3170    -3.0920     1.9000 C.ar  1 <1>   0.1600 
 12 N        4.0470     2.7980    -2.0090 N.pl3 1 <1>  -0.8690 
 13 C        0.1510    -4.2750     1.3880 C.ar  1 <1>  -0.1500 
 14 C        4.9220     3.2840    -1.1170 C.ar  1 <1>   0.4100 
 15 N        5.2100     4.5560    -1.2570 N.ar  1 <1>  -0.6200 
 16 C        5.4850     2.4940    -0.0980 C.ar  1 <1>  -0.1500 
 17 C        6.0750     5.1010    -0.4090 C.ar  1 <1>   0.7710 
 18 C        6.3570     3.0660     0.7650 C.ar  1 <1>   0.2180 
 19 N        6.6340     4.3790     0.5810 N.ar  1 <1>  -0.1790 
 20 N        6.4010     6.4170    -0.5290 N.pl3 1 <1>  -0.8380 
 21 C        7.0220     2.3210     1.9080 C.3   1 <1>  -0.0970 
 22 C        5.6840     7.3230    -1.4880 C.3   1 <1>   0.2090 
 23 C        7.4410     7.1680     0.2410 C.3   1 <1>   0.2090 
 24 C        4.9700     8.4230    -0.6960 C.3   1 <1>  -0.1600 
 25 C        6.7580     8.2500     1.0820 C.3   1 <1>  -0.1600 
 26 C        5.9390     9.2050     0.2020 C.3   1 <1>  -0.1600 
 27 H        1.8530     2.8640    -0.2030 H     1 <1>   0.1500 
 28 H        3.1160     1.2810    -3.1480 H     1 <1>   0.0800 
 29 H        4.4350     0.7340    -2.1560 H     1 <1>   0.0800 
 30 H        1.5010    -5.0980    -0.0340 H     1 <1>   0.1500 
 31 H       -1.0640    -3.1000     2.6780 H     1 <1>   0.1500 
 32 H        3.6590     3.4630    -2.6850 H     1 <1>   0.4000 
 33 H       -0.2100    -5.2210     1.7440 H     1 <1>   0.1500 
 34 H        5.2070     1.4590    -0.0210 H     1 <1>   0.1500 
 35 H        7.2550     4.8910     1.1910 H     1 <1>   0.4570 
 36 H        6.7040     1.2920     1.9210 H     1 <1>   0.0800 
 37 H        6.7560     2.7640     2.8520 H     1 <1>   0.0800 
 38 H        8.0930     2.3390     1.7990 H     1 <1>   0.0800 
 39 H        4.9600     6.7970    -2.0870 H     1 <1>   0.0800 
 40 H        6.3990     7.7650    -2.1620 H     1 <1>   0.0800 
 41 H        8.1220     7.6360    -0.4530 H     1 <1>   0.0800 
 42 H        8.0230     6.5250     0.8760 H     1 <1>   0.0800 
 43 H        4.1970     7.9740    -0.0970 H     1 <1>   0.0800 
 44 H        4.4930     9.1010    -1.3840 H     1 <1>   0.0800 
 45 H        7.5040     8.8130     1.6160 H     1 <1>   0.0800 
 46 H        6.1150     7.7870     1.8090 H     1 <1>   0.0800 
 47 H        5.3880     9.8930     0.8210 H     1 <1>   0.0800 
 48 H        6.6070     9.7820    -0.4160 H     1 <1>   0.0800 
@<TRIPOS>BOND
  1   1   2  1   
  2   1   3  1   
  3   2   4  2   
  4   2   5  1   
  5   3   6  2   
  6   3  27  1   
  7   4   6  1   
  8   5   7  ar  
  9   5   8  ar  
 10   6   9  1   
 11   7  10  ar  
 12   8  11  ar  
 13   9  12  1   
 14   9  28  1   
 15   9  29  1   
 16  10  13  ar  
 17  10  30  1   
 18  11  13  ar  
 19  11  31  1   
 20  12  14  1   
 21  12  32  1   
 22  13  33  1   
 23  14  15  ar  
 24  14  16  ar  
 25  15  17  ar  
 26  16  18  ar  
 27  16  34  1   
 28  17  19  ar  
 29  17  20  1   
 30  18  19  ar  
 31  18  21  1   
 32  19  35  1   
 33  20  22  1   
 34  20  23  1   
 35  21  36  1   
 36  21  37  1   
 37  21  38  1   
 38  22  24  1   
 39  22  39  1   
 40  22  40  1   
 41  23  25  1   
 42  23  41  1   
 43  23  42  1   
 44  24  26  1   
 45  24  43  1   
 46  24  44  1   
 47  25  26  1   
 48  25  45  1   
 49  25  46  1   
 50  26  47  1   
 51  26  48  1   
@<TRIPOS>SUBSTRUCTURE
  1 ****  16 GROUP 4 **** **** 0

# MOE 2024.06 (io_trps.svl 2023.06)
