@<TRIPOS>MOLECULE
NONAME
41 43 1 0 0 
SMALL
USER_CHARGES


@<TRIPOS>ATOM
  1 O       -0.2960     0.1820     0.4650 O.2   1 <1>  -0.5700 
  2 C       -1.3390     0.8030     0.5770 C.2   1 <1>   0.7160 
  3 N       -2.5230     0.0990     0.5480 N.am  1 <1>  -0.6600 
  4 C       -1.3290     2.2460     0.7190 C.2   1 <1>  -0.0860 
  5 C       -3.8320     0.6980     0.1850 C.3   1 <1>   0.1400 
  6 C       -2.5650    -1.3770     0.3960 C.3   1 <1>   0.1400 
  7 C       -0.5810     3.1980     0.0630 C.2   1 <1>  -0.3320 
  8 C       -2.1320     2.9750     1.6220 C.2   1 <1>  -0.1500 
  9 C       -4.6070    -0.4380    -0.4790 C.3   1 <1>   0.2000 
 10 C       -4.0320    -1.7170     0.1240 C.3   1 <1>  -0.0800 
 11 N       -0.8960     4.4330     0.5170 N.pl3 1 <1>   0.0330 
 12 C        0.4670     2.9880    -1.0170 C.3   1 <1>  -0.0600 
 13 C       -1.8500     4.2920     1.4720 C.2   1 <1>  -0.3020 
 14 O       -5.9650    -0.3520    -0.2210 O.3   1 <1>  -0.6800 
 15 C       -4.2220    -2.9480    -0.7730 C.3   1 <1>   0.0210 
 16 C       -3.5690    -4.1720    -0.1610 C.2   1 <1>   0.1080 
 17 N       -3.9710    -4.6990     0.9530 N.2   1 <1>  -0.7070 
 18 C       -2.4840    -4.8510    -0.7040 C.2   1 <1>  -0.1500 
 19 N       -3.1450    -5.7430     1.1520 N.pl3 1 <1>   0.3000 
 20 C       -2.2340    -5.8550     0.1630 C.2   1 <1>  -0.3320 
 21 C       -1.1640    -6.9300     0.1060 C.3   1 <1>  -0.0600 
 22 H       -4.3290     1.0250     1.0810 H     1 <1>   0.0800 
 23 H       -3.7030     1.5240    -0.4940 H     1 <1>   0.0800 
 24 H       -1.9410    -1.6640    -0.4340 H     1 <1>   0.0800 
 25 H       -2.2090    -1.8620     1.2890 H     1 <1>   0.0800 
 26 H       -2.8320     2.5300     2.3080 H     1 <1>   0.1500 
 27 H       -4.4590    -0.4020    -1.5450 H     1 <1>   0.0800 
 28 H       -4.4920    -1.9050     1.0790 H     1 <1>   0.0800 
 29 H       -0.4840     5.3190     0.2030 H     1 <1>   0.2700 
 30 H        0.5430     1.9470    -1.2770 H     1 <1>   0.0800 
 31 H        1.4280     3.3180    -0.6660 H     1 <1>   0.0800 
 32 H        0.2060     3.5400    -1.9010 H     1 <1>   0.0800 
 33 H       -2.2690     5.1340     1.9940 H     1 <1>   0.1500 
 34 H       -6.1440    -0.5460     0.7200 H     1 <1>   0.4000 
 35 H       -3.8020    -2.7670    -1.7460 H     1 <1>   0.0800 
 36 H       -5.2730    -3.1440    -0.8940 H     1 <1>   0.0800 
 37 H       -1.9720    -4.6070    -1.6180 H     1 <1>   0.1500 
 38 H       -3.2290    -6.3590     1.9700 H     1 <1>   0.2700 
 39 H       -0.5630    -6.8070    -0.7780 H     1 <1>   0.0800 
 40 H       -1.6170    -7.9050     0.0780 H     1 <1>   0.0800 
 41 H       -0.5230    -6.8630     0.9670 H     1 <1>   0.0800 
@<TRIPOS>BOND
  1   1   2  2   
  2   2   3  am  
  3   2   4  1   
  4   3   5  1   
  5   3   6  1   
  6   4   7  2   
  7   4   8  1   
  8   5   9  1   
  9   5  22  1   
 10   5  23  1   
 11   6  10  1   
 12   6  24  1   
 13   6  25  1   
 14   7  11  1   
 15   7  12  1   
 16   8  13  2   
 17   8  26  1   
 18   9  10  1   
 19   9  14  1   
 20   9  27  1   
 21  10  15  1   
 22  10  28  1   
 23  11  13  1   
 24  11  29  1   
 25  12  30  1   
 26  12  31  1   
 27  12  32  1   
 28  13  33  1   
 29  14  34  1   
 30  15  16  1   
 31  15  35  1   
 32  15  36  1   
 33  16  17  2   
 34  16  18  1   
 35  17  19  1   
 36  18  20  2   
 37  18  37  1   
 38  19  20  1   
 39  19  38  1   
 40  20  21  1   
 41  21  39  1   
 42  21  40  1   
 43  21  41  1   
@<TRIPOS>SUBSTRUCTURE
  1 ****   6 GROUP 4 **** **** 0

# MOE 2024.06 (io_trps.svl 2023.06)
