@<TRIPOS>MOLECULE
NONAME
45 46 1 0 0 
SMALL
USER_CHARGES


@<TRIPOS>ATOM
  1 S       -0.9490     0.6720     0.7230 S.o2  1 <1>   1.5000 
  2 O       -1.9280     1.7390     0.7190 O.2   1 <1>  -0.6500 
  3 O       -0.6660    -0.0220     1.9620 O.2   1 <1>  -0.6500 
  4 N       -1.4320    -0.4750    -0.4300 N.am  1 <1>  -0.8490 
  5 C        0.5870     1.2960    -0.0020 C.2   1 <1>  -0.0220 
  6 C       -0.6740    -1.7480    -0.4330 C.3   1 <1>   0.1960 
  7 C       -2.8730    -0.6690    -0.5790 C.3   1 <1>   0.1960 
  8 S        1.7770     2.0310     1.0690 S.3   1 <1>  -0.0800 
  9 C        1.0440     1.3450    -1.2710 C.2   1 <1>  -0.1500 
 10 C       -1.4520    -3.0050     0.0530 C.3   1 <1>  -0.1060 
 11 C       -3.4500    -1.4700     0.5920 C.3   1 <1>  -0.1600 
 12 C        2.8700     2.3720    -0.2610 C.2   1 <1>  -0.1400 
 13 C        2.3320     1.9480    -1.4200 C.2   1 <1>  -0.1500 
 14 C       -2.1730    -3.6840    -1.1270 C.2   1 <1>   0.9060 
 15 C       -2.4830    -2.5430     1.1140 C.3   1 <1>   0.2000 
 16 C       -0.4540    -4.0050     0.7080 C.3   1 <1>  -0.1600 
 17 C        4.1770     3.0560     0.0980 C.3   1 <1>   0.0200 
 18 O       -3.1280    -4.4420    -0.8970 O.co2 1 <1>  -0.9000 
 19 O       -1.7990    -3.4770    -2.2880 O.co2 1 <1>  -0.9000 
 20 O       -3.2360    -3.6140     1.5540 O.3   1 <1>  -0.6800 
 21 C        0.6650    -4.4960    -0.2280 C.3   1 <1>  -0.1600 
 22 C        5.0590     3.2990    -1.1300 C.3   1 <1>  -0.2400 
 23 C        1.5880    -5.4820     0.4930 C.3   1 <1>  -0.2400 
 24 H       -0.2970    -1.9140    -1.4280 H     1 <1>   0.0800 
 25 H        0.1960    -1.6270     0.1900 H     1 <1>   0.0800 
 26 H       -3.3770     0.2780    -0.6680 H     1 <1>   0.0800 
 27 H       -3.0500    -1.2070    -1.4970 H     1 <1>   0.0800 
 28 H        0.5060     0.9680    -2.1250 H     1 <1>   0.1500 
 29 H       -4.3640    -1.9270     0.2550 H     1 <1>   0.0800 
 30 H       -3.6910    -0.8010     1.3970 H     1 <1>   0.0800 
 31 H        2.7870     2.0310    -2.3920 H     1 <1>   0.1500 
 32 H       -1.9610    -2.1560     1.9720 H     1 <1>   0.0800 
 33 H       -0.0140    -3.5480     1.5770 H     1 <1>   0.0800 
 34 H       -1.0070    -4.8660     1.0460 H     1 <1>   0.0800 
 35 H        3.9600     3.9970     0.5730 H     1 <1>   0.0800 
 36 H        4.7100     2.4420     0.8030 H     1 <1>   0.0800 
 37 H       -3.4300    -4.1510     0.7260 H     1 <1>   0.4000 
 38 H        0.2310    -4.9850    -1.0850 H     1 <1>   0.0800 
 39 H        1.2510    -3.6680    -0.5850 H     1 <1>   0.0800 
 40 H        4.5480     3.9310    -1.8350 H     1 <1>   0.0800 
 41 H        5.3000     2.3650    -1.6060 H     1 <1>   0.0800 
 42 H        5.9740     3.7820    -0.8360 H     1 <1>   0.0800 
 43 H        1.0270    -6.3360     0.8310 H     1 <1>   0.0800 
 44 H        2.0510    -5.0110     1.3420 H     1 <1>   0.0800 
 45 H        2.3570    -5.8210    -0.1770 H     1 <1>   0.0800 
@<TRIPOS>BOND
  1   1   2  2   
  2   1   3  2   
  3   1   4  am  
  4   1   5  1   
  5   4   6  1   
  6   4   7  1   
  7   5   8  1   
  8   5   9  2   
  9   6  10  1   
 10   6  24  1   
 11   6  25  1   
 12   7  11  1   
 13   7  26  1   
 14   7  27  1   
 15   8  12  1   
 16   9  13  1   
 17   9  28  1   
 18  10  14  1   
 19  10  15  1   
 20  10  16  1   
 21  11  15  1   
 22  11  29  1   
 23  11  30  1   
 24  12  13  2   
 25  12  17  1   
 26  13  31  1   
 27  14  18  ar  
 28  14  19  ar  
 29  15  20  1   
 30  15  32  1   
 31  16  21  1   
 32  16  33  1   
 33  16  34  1   
 34  17  22  1   
 35  17  35  1   
 36  17  36  1   
 37  20  37  1   
 38  21  23  1   
 39  21  38  1   
 40  21  39  1   
 41  22  40  1   
 42  22  41  1   
 43  22  42  1   
 44  23  43  1   
 45  23  44  1   
 46  23  45  1   
@<TRIPOS>SUBSTRUCTURE
  1 ****   6 GROUP 4 **** **** 0

# MOE 2024.06 (io_trps.svl 2023.06)
