@<TRIPOS>MOLECULE
NONAME
47 50 1 0 0 
SMALL
USER_CHARGES


@<TRIPOS>ATOM
  1 O       -0.4650    -0.5310     0.1540 O.3   1 <1>  -0.2800 
  2 C       -1.6400    -1.0210     0.3910 C.2   1 <1>   0.2980 
  3 C       -0.6590     0.7470     0.1140 C.2   1 <1>   0.2980 
  4 N       -2.5270    -0.1010     0.4930 N.2   1 <1>  -0.3380 
  5 C       -1.7840    -2.5420     0.5020 C.3   1 <1>   0.2900 
  6 N       -1.8850     1.0540     0.3100 N.2   1 <1>  -0.3380 
  7 C        0.5220     1.6690    -0.1470 C.3   1 <1>   0.0200 
  8 N       -3.1660    -3.0480     0.6980 N.3   1 <1>  -0.8100 
  9 C        0.1420     3.1570    -0.1760 C.3   1 <1>  -0.2400 
 10 C       -4.0660    -2.7460    -0.4250 C.3   1 <1>   0.1100 
 11 C       -3.2090    -4.5080     0.8840 C.3   1 <1>   0.1100 
 12 C       -5.1990    -3.7510    -0.2710 C.3   1 <1>   0.2000 
 13 C       -4.4760    -5.0200     0.1730 C.3   1 <1>  -0.0800 
 14 O       -5.9910    -3.3280     0.7790 O.3   1 <1>  -0.6800 
 15 C       -4.1440    -5.9140    -1.0370 C.3   1 <1>  -0.0170 
 16 C       -3.4010    -7.1750    -0.6280 C.ar  1 <1>   0.1670 
 17 N       -2.1200    -7.2140    -0.8390 N.ar  1 <1>  -0.6200 
 18 C       -4.1250    -8.2270    -0.0440 C.ar  1 <1>  -0.1500 
 19 C       -1.4530    -8.3380    -0.4710 C.ar  1 <1>   0.3100 
 20 C       -3.4810    -9.3640     0.3370 C.ar  1 <1>  -0.1500 
 21 C       -2.0940    -9.4450     0.1270 C.ar  1 <1>   0.0000 
 22 C       -0.0680    -8.4080    -0.6900 C.ar  1 <1>  -0.1500 
 23 C       -1.3270   -10.5720     0.4840 C.ar  1 <1>  -0.1500 
 24 C        0.6610    -9.5130    -0.3360 C.ar  1 <1>  -0.1500 
 25 C        0.0230   -10.6060     0.2580 C.ar  1 <1>  -0.1500 
 26 H       -1.1850    -2.8600     1.3360 H     1 <1>   0.0800 
 27 H       -1.3690    -2.9840    -0.3860 H     1 <1>   0.0800 
 28 H        1.2550     1.5050     0.6220 H     1 <1>   0.0800 
 29 H        0.9620     1.3970    -1.0890 H     1 <1>   0.0800 
 30 H       -0.2860     3.4490     0.7670 H     1 <1>   0.0800 
 31 H       -0.5810     3.3400    -0.9520 H     1 <1>   0.0800 
 32 H        1.0120     3.7600    -0.3630 H     1 <1>   0.0800 
 33 H       -4.4280    -1.7320    -0.3870 H     1 <1>   0.0800 
 34 H       -3.5610    -2.9110    -1.3610 H     1 <1>   0.0800 
 35 H       -2.3250    -4.9700     0.4770 H     1 <1>   0.0800 
 36 H       -3.2540    -4.7290     1.9370 H     1 <1>   0.0800 
 37 H       -5.8130    -3.8640    -1.1470 H     1 <1>   0.0800 
 38 H       -5.0870    -5.5840     0.8570 H     1 <1>   0.0800 
 39 H       -5.3760    -2.9700     1.4570 H     1 <1>   0.4000 
 40 H       -3.5450    -5.3680    -1.7440 H     1 <1>   0.0800 
 41 H       -5.0530    -6.1970    -1.5350 H     1 <1>   0.0800 
 42 H       -5.1850    -8.1200     0.0970 H     1 <1>   0.1500 
 43 H       -4.0010   -10.1900     0.7880 H     1 <1>   0.1500 
 44 H        0.4040    -7.5590    -1.1490 H     1 <1>   0.1500 
 45 H       -1.8230   -11.4090     0.9400 H     1 <1>   0.1500 
 46 H        1.7230    -9.5530    -0.5100 H     1 <1>   0.1500 
 47 H        0.6070   -11.4680     0.5320 H     1 <1>   0.1500 
@<TRIPOS>BOND
  1   1   2  1   
  2   1   3  1   
  3   2   4  2   
  4   2   5  1   
  5   3   6  2   
  6   3   7  1   
  7   4   6  1   
  8   5   8  1   
  9   5  26  1   
 10   5  27  1   
 11   7   9  1   
 12   7  28  1   
 13   7  29  1   
 14   8  10  1   
 15   8  11  1   
 16   9  30  1   
 17   9  31  1   
 18   9  32  1   
 19  10  12  1   
 20  10  33  1   
 21  10  34  1   
 22  11  13  1   
 23  11  35  1   
 24  11  36  1   
 25  12  13  1   
 26  12  14  1   
 27  12  37  1   
 28  13  15  1   
 29  13  38  1   
 30  14  39  1   
 31  15  16  1   
 32  15  40  1   
 33  15  41  1   
 34  16  17  ar  
 35  16  18  ar  
 36  17  19  ar  
 37  18  20  ar  
 38  18  42  1   
 39  19  21  ar  
 40  19  22  ar  
 41  20  21  ar  
 42  20  43  1   
 43  21  23  ar  
 44  22  24  ar  
 45  22  44  1   
 46  23  25  ar  
 47  23  45  1   
 48  24  25  ar  
 49  24  46  1   
 50  25  47  1   
@<TRIPOS>SUBSTRUCTURE
  1 ****  11 GROUP 4 **** **** 0

# MOE 2024.06 (io_trps.svl 2023.06)
