@<TRIPOS>MOLECULE
NONAME
43 46 1 0 0 
SMALL
USER_CHARGES


@<TRIPOS>ATOM
  1 CL       0.4930     0.4290    -0.1930 Cl    1 <1>  -0.1770 
  2 C        1.0910     2.0000     0.2900 C.ar  1 <1>   0.1770 
  3 C        0.5180     3.1340    -0.2310 C.ar  1 <1>  -0.1500 
  4 C        2.1470     2.0550     1.2050 C.ar  1 <1>  -0.1500 
  5 C        1.0120     4.3790     0.1690 C.ar  1 <1>   0.0000 
  6 C        2.6390     3.2770     1.6060 C.ar  1 <1>  -0.1500 
  7 C        2.0610     4.4380     1.0820 C.ar  1 <1>  -0.1520 
  8 C        0.6850     5.7160    -0.1520 C.2   1 <1>  -0.1810 
  9 N        2.3530     5.7570     1.3080 N.pl3 1 <1>   0.0330 
 10 C        1.5130     6.5280     0.5540 C.2   1 <1>  -0.3320 
 11 C       -0.4160     6.0790    -1.1310 C.3   1 <1>  -0.0590 
 12 C        1.5840     8.0510     0.5770 C.3   1 <1>   0.2900 
 13 N        2.9110     8.5650     0.1970 N.3   1 <1>  -0.8100 
 14 C        3.8650     8.6790     1.3290 C.3   1 <1>   0.1100 
 15 C        3.4300     7.9420    -1.0420 C.3   1 <1>   0.1100 
 16 C        5.1320     9.5400     1.0660 C.3   1 <1>   0.2200 
 17 C        4.6210     8.6800    -1.6860 C.3   1 <1>  -0.0190 
 18 N        4.9560    10.5100    -0.0450 N.am  1 <1>  -0.7300 
 19 C        6.3780     8.6660     0.8170 C.3   1 <1>   0.1200 
 20 C        4.6790    10.1500    -1.3160 C.2   1 <1>   0.5690 
 21 C        5.9710     7.9910    -1.4230 C.3   1 <1>   0.1200 
 22 O        6.1390     7.6230    -0.0850 O.3   1 <1>  -0.5600 
 23 O        4.5080    10.9910    -2.1630 O.2   1 <1>  -0.5700 
 24 H       -0.2920     3.0740    -0.9320 H     1 <1>   0.1500 
 25 H        2.5600     1.1370     1.5800 H     1 <1>   0.1500 
 26 H        3.4520     3.3470     2.3070 H     1 <1>   0.1500 
 27 H        3.1150     6.1020     1.8960 H     1 <1>   0.2700 
 28 H       -0.2040     5.6430    -2.0910 H     1 <1>   0.0800 
 29 H       -0.4980     7.1420    -1.2490 H     1 <1>   0.0800 
 30 H       -1.3560     5.6980    -0.7760 H     1 <1>   0.0800 
 31 H        1.3150     8.4140     1.5540 H     1 <1>   0.0800 
 32 H        0.8650     8.4510    -0.1150 H     1 <1>   0.0800 
 33 H        3.3480     9.1310     2.1560 H     1 <1>   0.0800 
 34 H        4.1690     7.6980     1.6460 H     1 <1>   0.0800 
 35 H        3.7010     6.9170    -0.8540 H     1 <1>   0.0800 
 36 H        2.6290     7.9320    -1.7620 H     1 <1>   0.0800 
 37 H        5.3320    10.1080     1.9580 H     1 <1>   0.0800 
 38 H        4.4760     8.6400    -2.7490 H     1 <1>   0.0800 
 39 H        4.8410    11.4970     0.1830 H     1 <1>   0.3700 
 40 H        6.6710     8.2040     1.7430 H     1 <1>   0.0800 
 41 H        7.2030     9.2600     0.4630 H     1 <1>   0.0800 
 42 H        6.7920     8.6210    -1.7210 H     1 <1>   0.0800 
 43 H        6.0180     7.0830    -1.9970 H     1 <1>   0.0800 
@<TRIPOS>BOND
  1   1   2  1   
  2   2   3  ar  
  3   2   4  ar  
  4   3   5  ar  
  5   3  24  1   
  6   4   6  ar  
  7   4  25  1   
  8   5   7  ar  
  9   5   8  1   
 10   6   7  ar  
 11   6  26  1   
 12   7   9  1   
 13   8  10  2   
 14   8  11  1   
 15   9  10  1   
 16   9  27  1   
 17  10  12  1   
 18  11  28  1   
 19  11  29  1   
 20  11  30  1   
 21  12  13  1   
 22  12  31  1   
 23  12  32  1   
 24  13  14  1   
 25  13  15  1   
 26  14  16  1   
 27  14  33  1   
 28  14  34  1   
 29  15  17  1   
 30  15  35  1   
 31  15  36  1   
 32  16  18  1   
 33  16  19  1   
 34  16  37  1   
 35  17  20  1   
 36  17  21  1   
 37  17  38  1   
 38  18  20  am  
 39  18  39  1   
 40  19  22  1   
 41  19  40  1   
 42  19  41  1   
 43  20  23  2   
 44  21  22  1   
 45  21  42  1   
 46  21  43  1   
@<TRIPOS>SUBSTRUCTURE
  1 ****  10 GROUP 4 **** **** 0

# MOE 2024.06 (io_trps.svl 2023.06)
