@<TRIPOS>MOLECULE
NONAME
56 57 1 0 0 
SMALL
USER_CHARGES


@<TRIPOS>ATOM
  1 O       -1.9230     0.6200     2.9270 O.2   1 <1>  -0.5700 
  2 C       -1.8310     0.6340     1.7210 C.2   1 <1>   0.5690 
  3 N       -1.8960    -0.5320     0.9920 N.am  1 <1>  -0.6600 
  4 C       -1.6650     2.0200     1.0810 C.3   1 <1>  -0.0190 
  5 C       -2.2420    -1.8140     1.6710 C.3   1 <1>   0.2840 
  6 C       -1.7840    -0.6770    -0.4880 C.3   1 <1>   0.0600 
  7 C       -2.8350     2.4090     0.1510 C.3   1 <1>  -0.1600 
  8 C       -0.2700     2.2440     0.4460 C.3   1 <1>  -0.1600 
  9 C       -3.7030    -2.1530     1.4030 C.ar  1 <1>  -0.1430 
 10 C       -2.7430     3.8720    -0.3270 C.3   1 <1>   0.2000 
 11 C       -0.2830     3.2640    -0.7070 C.3   1 <1>  -0.1600 
 12 C       -4.0700    -3.1230     0.4730 C.ar  1 <1>   0.0820 
 13 C       -4.6830    -1.4700     2.1060 C.ar  1 <1>  -0.1500 
 14 O       -3.3530     3.9540    -1.5930 O.3   1 <1>  -0.5600 
 15 C       -1.2820     4.3900    -0.4280 C.3   1 <1>   0.2000 
 16 O       -3.0790    -3.7710    -0.1950 O.3   1 <1>  -0.3630 
 17 C       -5.4210    -3.3900     0.2590 C.ar  1 <1>  -0.1500 
 18 C       -6.0220    -1.7420     1.8920 C.ar  1 <1>  -0.1500 
 19 C       -4.7460     4.0090    -1.5790 C.3   1 <1>   0.0400 
 20 O       -1.1920     5.3030    -1.4580 O.3   1 <1>  -0.6800 
 21 C       -3.3550    -4.8520    -1.0610 C.3   1 <1>   0.1200 
 22 C       -6.3910    -2.7030     0.9670 C.ar  1 <1>  -0.1500 
 23 C       -2.0380    -5.4560    -1.5710 C.3   1 <1>  -0.0800 
 24 C       -1.2060    -4.4360    -2.3630 C.3   1 <1>  -0.2400 
 25 C       -2.3250    -6.6790    -2.4510 C.3   1 <1>  -0.2400 
 26 H       -1.7220     2.7160     1.9010 H     1 <1>   0.0800 
 27 H       -1.5920    -2.5940     1.3170 H     1 <1>   0.0800 
 28 H       -2.0870    -1.7370     2.7330 H     1 <1>   0.0800 
 29 H       -1.1430    -1.5090    -0.7210 H     1 <1>   0.0800 
 30 H       -1.3720     0.1980    -0.9500 H     1 <1>   0.0800 
 31 H       -2.7580    -0.8650    -0.9060 H     1 <1>   0.0800 
 32 H       -3.7620     2.2660     0.6790 H     1 <1>   0.0800 
 33 H       -2.8430     1.7680    -0.7090 H     1 <1>   0.0800 
 34 H        0.3930     2.5970     1.2180 H     1 <1>   0.0800 
 35 H        0.1480     1.3200     0.0890 H     1 <1>   0.0800 
 36 H       -3.2710     4.5180     0.3540 H     1 <1>   0.0800 
 37 H       -0.5680     2.7680    -1.6190 H     1 <1>   0.0800 
 38 H        0.7040     3.6730    -0.8370 H     1 <1>   0.0800 
 39 H       -4.3990    -0.7180     2.8230 H     1 <1>   0.1500 
 40 H       -1.0020     4.8920     0.4830 H     1 <1>   0.0800 
 41 H       -5.7410    -4.1260    -0.4520 H     1 <1>   0.1500 
 42 H       -6.7740    -1.2070     2.4440 H     1 <1>   0.1500 
 43 H       -5.0880     4.0930    -2.5950 H     1 <1>   0.0800 
 44 H       -5.0630     4.8720    -1.0190 H     1 <1>   0.0800 
 45 H       -5.1390     3.1070    -1.1410 H     1 <1>   0.0800 
 46 H       -1.9140     5.0640    -2.0840 H     1 <1>   0.4000 
 47 H       -3.9110    -5.5890    -0.5080 H     1 <1>   0.0800 
 48 H       -3.9460    -4.4840    -1.8820 H     1 <1>   0.0800 
 49 H       -7.4320    -2.9130     0.8000 H     1 <1>   0.1500 
 50 H       -1.4680    -5.7840    -0.7180 H     1 <1>   0.0800 
 51 H       -1.7630    -4.0620    -3.2040 H     1 <1>   0.0800 
 52 H       -0.3000    -4.8900    -2.7220 H     1 <1>   0.0800 
 53 H       -0.9370    -3.6070    -1.7330 H     1 <1>   0.0800 
 54 H       -2.8950    -6.3980    -3.3200 H     1 <1>   0.0800 
 55 H       -2.8810    -7.4160    -1.8980 H     1 <1>   0.0800 
 56 H       -1.4040    -7.1280    -2.7770 H     1 <1>   0.0800 
@<TRIPOS>BOND
  1   1   2  2   
  2   2   3  am  
  3   2   4  1   
  4   3   5  1   
  5   3   6  1   
  6   4   7  1   
  7   4   8  1   
  8   4  26  1   
  9   5   9  1   
 10   5  27  1   
 11   5  28  1   
 12   6  29  1   
 13   6  30  1   
 14   6  31  1   
 15   7  10  1   
 16   7  32  1   
 17   7  33  1   
 18   8  11  1   
 19   8  34  1   
 20   8  35  1   
 21   9  12  ar  
 22   9  13  ar  
 23  10  14  1   
 24  10  15  1   
 25  10  36  1   
 26  11  15  1   
 27  11  37  1   
 28  11  38  1   
 29  12  16  1   
 30  12  17  ar  
 31  13  18  ar  
 32  13  39  1   
 33  14  19  1   
 34  15  20  1   
 35  15  40  1   
 36  16  21  1   
 37  17  22  ar  
 38  17  41  1   
 39  18  22  ar  
 40  18  42  1   
 41  19  43  1   
 42  19  44  1   
 43  19  45  1   
 44  20  46  1   
 45  21  23  1   
 46  21  47  1   
 47  21  48  1   
 48  22  49  1   
 49  23  24  1   
 50  23  25  1   
 51  23  50  1   
 52  24  51  1   
 53  24  52  1   
 54  24  53  1   
 55  25  54  1   
 56  25  55  1   
 57  25  56  1   
@<TRIPOS>SUBSTRUCTURE
  1 ****   6 GROUP 4 **** **** 0

# MOE 2024.06 (io_trps.svl 2023.06)
