@<TRIPOS>MOLECULE
NONAME
45 46 1 0 0 
SMALL
USER_CHARGES


@<TRIPOS>ATOM
  1 O       -1.6590    -1.0380    -1.9740 O.co2 1 <1>  -0.9000 
  2 C       -2.4220    -1.1700    -1.0000 C.2   1 <1>   0.9790 
  3 O       -2.5460    -2.2860    -0.4700 O.co2 1 <1>  -0.9000 
  4 C       -3.1340    -0.0130    -0.4780 C.ar  1 <1>  -0.1790 
  5 C       -3.0630     1.2130    -1.1340 C.ar  1 <1>  -0.1500 
  6 C       -3.8910    -0.0680     0.6920 C.ar  1 <1>  -0.1500 
  7 C       -3.6780     2.3410    -0.6290 C.ar  1 <1>  -0.1440 
  8 C       -4.5240     1.0510     1.2020 C.ar  1 <1>  -0.1500 
  9 C       -4.4110     2.2740     0.5480 C.ar  1 <1>   0.0830 
 10 C       -3.5110     3.6550    -1.3450 C.3   1 <1>   0.4870 
 11 O       -4.9650     3.4270     1.0070 O.3   1 <1>  -0.3630 
 12 N       -2.5830     4.4710    -0.5230 N.4   1 <1>  -0.9590 
 13 C       -5.8690     3.4100     2.0930 C.3   1 <1>   0.0400 
 14 C       -2.5790     5.9290    -0.8720 C.3   1 <1>   0.5660 
 15 C       -1.2050     3.8680    -0.5580 C.3   1 <1>   0.2630 
 16 C       -1.4440     6.6630    -0.1360 C.ar  1 <1>   0.1670 
 17 C       -3.9700     6.5530    -0.6210 C.3   1 <1>  -0.1600 
 18 N       -0.3560     6.8900    -0.8630 N.ar  1 <1>  -0.6200 
 19 C       -1.5590     7.0230     1.2030 C.ar  1 <1>  -0.1500 
 20 C       -4.0270     8.0590    -0.9340 C.3   1 <1>  -0.2400 
 21 C        0.6370     7.5160    -0.2480 C.ar  1 <1>   0.1600 
 22 C       -0.5150     7.6670     1.8310 C.ar  1 <1>  -0.1500 
 23 C        0.6080     7.9180     1.0750 C.ar  1 <1>  -0.1500 
 24 H       -2.4950     1.2560    -2.0500 H     1 <1>   0.1500 
 25 H       -3.9690    -1.0160     1.2020 H     1 <1>   0.1500 
 26 H       -5.0870     0.9430     2.1090 H     1 <1>   0.1500 
 27 H       -4.4770     4.1230    -1.4240 H     1 <1>   0.0800 
 28 H       -3.1110     3.4990    -2.3330 H     1 <1>   0.0800 
 29 H       -2.9460     4.3700     0.4350 H     1 <1>   0.4500 
 30 H       -6.2440     4.4080     2.2390 H     1 <1>   0.0800 
 31 H       -5.3520     3.0820     2.9770 H     1 <1>   0.0800 
 32 H       -6.6840     2.7470     1.8600 H     1 <1>   0.0800 
 33 H       -2.3640     6.0240    -1.9240 H     1 <1>   0.0800 
 34 H       -0.7880     3.9410    -1.5490 H     1 <1>   0.0800 
 35 H       -1.2380     2.8280    -0.2730 H     1 <1>   0.0800 
 36 H       -0.5480     4.3820     0.1250 H     1 <1>   0.0800 
 37 H       -4.2670     6.3980     0.4010 H     1 <1>   0.0800 
 38 H       -4.6990     6.0810    -1.2510 H     1 <1>   0.0800 
 39 H       -2.4510     6.8120     1.7650 H     1 <1>   0.1500 
 40 H       -3.3850     8.6230    -0.2800 H     1 <1>   0.0800 
 41 H       -5.0320     8.4230    -0.8040 H     1 <1>   0.0800 
 42 H       -3.7290     8.2490    -1.9510 H     1 <1>   0.0800 
 43 H        1.5220     7.7190    -0.8280 H     1 <1>   0.1500 
 44 H       -0.5720     7.9650     2.8660 H     1 <1>   0.1500 
 45 H        1.4560     8.4220     1.5050 H     1 <1>   0.1500 
@<TRIPOS>BOND
  1   1   2  ar  
  2   2   3  ar  
  3   2   4  1   
  4   4   5  ar  
  5   4   6  ar  
  6   5   7  ar  
  7   5  24  1   
  8   6   8  ar  
  9   6  25  1   
 10   7   9  ar  
 11   7  10  1   
 12   8   9  ar  
 13   8  26  1   
 14   9  11  1   
 15  10  12  1   
 16  10  27  1   
 17  10  28  1   
 18  11  13  1   
 19  12  14  1   
 20  12  15  1   
 21  12  29  1   
 22  13  30  1   
 23  13  31  1   
 24  13  32  1   
 25  14  16  1   
 26  14  17  1   
 27  14  33  1   
 28  15  34  1   
 29  15  35  1   
 30  15  36  1   
 31  16  18  ar  
 32  16  19  ar  
 33  17  20  1   
 34  17  37  1   
 35  17  38  1   
 36  18  21  ar  
 37  19  22  ar  
 38  19  39  1   
 39  20  40  1   
 40  20  41  1   
 41  20  42  1   
 42  21  23  ar  
 43  21  43  1   
 44  22  23  ar  
 45  22  44  1   
 46  23  45  1   
@<TRIPOS>SUBSTRUCTURE
  1 ****  12 GROUP 4 **** **** 0

# MOE 2024.06 (io_trps.svl 2023.06)
