@<TRIPOS>MOLECULE
NONAME
47 50 1 0 0 
SMALL
USER_CHARGES


@<TRIPOS>ATOM
  1 CL       2.4370     0.1220    -0.1040 Cl    1 <1>  -0.1770 
  2 C        3.4730     0.5990     1.2210 C.ar  1 <1>   0.1770 
  3 C        4.7140     1.1700     0.9810 C.ar  1 <1>   0.0860 
  4 C        3.0300     0.3910     2.5140 C.ar  1 <1>   0.1600 
  5 C        5.2390     1.4330    -0.3390 C.2   1 <1>   0.5440 
  6 C        5.4410     1.4770     2.1250 C.ar  1 <1>  -0.1500 
  7 N        3.7200     0.7040     3.6010 N.ar  1 <1>  -0.6200 
  8 O        6.3670     1.0800    -0.6240 O.2   1 <1>  -0.5700 
  9 N        4.5700     2.1880    -1.2780 N.am  1 <1>  -0.6600 
 10 C        4.9130     1.2330     3.3800 C.ar  1 <1>   0.1600 
 11 C        4.9900     2.1560    -2.7200 C.3   1 <1>   0.1400 
 12 C        3.7190     3.3450    -0.9030 C.3   1 <1>   0.1400 
 13 C        6.3150     2.9140    -2.9550 C.3   1 <1>   0.3430 
 14 C        4.5980     4.5600    -0.5680 C.3   1 <1>  -0.1600 
 15 N        6.6260     3.8330    -1.8160 N.4   1 <1>  -0.9590 
 16 C        5.6470     4.9410    -1.6240 C.3   1 <1>   0.3430 
 17 C        8.0570     4.2390    -1.7210 C.3   1 <1>   0.5240 
 18 C        8.3890     4.6240    -0.2820 C.2   1 <1>   0.1080 
 19 N        7.7750     4.1500     0.7480 N.2   1 <1>  -0.4100 
 20 C        9.3790     5.5240     0.1100 C.2   1 <1>  -0.1500 
 21 O        8.3270     4.7060     1.7870 O.3   1 <1>  -0.0190 
 22 C        9.2850     5.5270     1.4480 C.2   1 <1>   0.0550 
 23 C       10.0560     6.2730     2.5200 C.3   1 <1>  -0.0150 
 24 C       11.4580     6.7390     2.2860 C.3   1 <1>  -0.2000 
 25 C       11.1860     5.6040     3.2320 C.3   1 <1>  -0.2000 
 26 H        2.0600    -0.0530     2.6590 H     1 <1>   0.1500 
 27 H        6.4240     1.9070     2.0350 H     1 <1>   0.1500 
 28 H        5.5010     1.4840     4.2480 H     1 <1>   0.1500 
 29 H        4.2160     2.5810    -3.3350 H     1 <1>   0.0800 
 30 H        5.1140     1.1320    -3.0300 H     1 <1>   0.0800 
 31 H        3.1090     3.0950    -0.0510 H     1 <1>   0.0800 
 32 H        3.0510     3.5810    -1.7150 H     1 <1>   0.0800 
 33 H        6.2750     3.4530    -3.8870 H     1 <1>   0.0800 
 34 H        7.0980     2.1770    -3.0320 H     1 <1>   0.0800 
 35 H        5.0830     4.3970     0.3770 H     1 <1>   0.0800 
 36 H        3.9480     5.4050    -0.4280 H     1 <1>   0.0800 
 37 H        6.5020     3.2160    -0.9880 H     1 <1>   0.4500 
 38 H        6.1640     5.8240    -1.2830 H     1 <1>   0.0800 
 39 H        5.1640     5.1760    -2.5580 H     1 <1>   0.0800 
 40 H        8.2570     5.0650    -2.3820 H     1 <1>   0.0800 
 41 H        8.6870     3.4110    -2.0000 H     1 <1>   0.0800 
 42 H       10.0560     6.0770    -0.5160 H     1 <1>   0.1500 
 43 H        9.4160     6.9080     3.1090 H     1 <1>   0.1000 
 44 H       11.7610     7.6890     2.6930 H     1 <1>   0.1000 
 45 H       11.9470     6.5150     1.3550 H     1 <1>   0.1000 
 46 H       11.4600     4.6050     2.9400 H     1 <1>   0.1000 
 47 H       11.2980     5.7690     4.2900 H     1 <1>   0.1000 
@<TRIPOS>BOND
  1   1   2  1   
  2   2   3  ar  
  3   2   4  ar  
  4   3   5  1   
  5   3   6  ar  
  6   4   7  ar  
  7   4  26  1   
  8   5   8  2   
  9   5   9  am  
 10   6  10  ar  
 11   6  27  1   
 12   7  10  ar  
 13   9  11  1   
 14   9  12  1   
 15  10  28  1   
 16  11  13  1   
 17  11  29  1   
 18  11  30  1   
 19  12  14  1   
 20  12  31  1   
 21  12  32  1   
 22  13  15  1   
 23  13  33  1   
 24  13  34  1   
 25  14  16  1   
 26  14  35  1   
 27  14  36  1   
 28  15  16  1   
 29  15  17  1   
 30  15  37  1   
 31  16  38  1   
 32  16  39  1   
 33  17  18  1   
 34  17  40  1   
 35  17  41  1   
 36  18  19  2   
 37  18  20  1   
 38  19  21  1   
 39  20  22  2   
 40  20  42  1   
 41  21  22  1   
 42  22  23  1   
 43  23  24  1   
 44  23  25  1   
 45  23  43  1   
 46  24  25  1   
 47  24  44  1   
 48  24  45  1   
 49  25  46  1   
 50  25  47  1   
@<TRIPOS>SUBSTRUCTURE
  1 ****  19 GROUP 4 **** **** 0

# MOE 2024.06 (io_trps.svl 2023.06)
