@<TRIPOS>MOLECULE
NONAME
53 56 1 0 0 
SMALL
USER_CHARGES


@<TRIPOS>ATOM
  1 O       -2.5700     0.2020     1.5480 O.2   1 <1>  -0.5700 
  2 C       -2.6950     0.6760     0.4230 C.2   1 <1>   0.6160 
  3 N       -2.6800     2.0650     0.2650 N.am  1 <1>  -0.4690 
  4 C       -2.8490    -0.1550    -0.7320 C.2   1 <1>   0.0290 
  5 C       -2.7270     2.6260    -0.9990 C.2   1 <1>  -0.0290 
  6 C       -2.5690     2.9290     1.4830 C.3   1 <1>   0.0600 
  7 C       -2.9360    -1.5800    -0.5750 C.2   1 <1>   0.6160 
  8 C       -2.8990     0.4320    -1.9690 C.2   1 <1>  -0.1500 
  9 C       -2.8330     1.8300    -2.0990 C.2   1 <1>  -0.1500 
 10 C       -2.6520     4.1380    -1.1590 C.3   1 <1>  -0.1020 
 11 O       -2.1570    -2.2910    -1.1860 O.2   1 <1>  -0.5700 
 12 N       -3.9220    -2.1850     0.1740 N.am  1 <1>  -0.6600 
 13 C       -5.0830    -1.4980     0.7790 C.3   1 <1>   0.1400 
 14 C       -4.0630    -3.6430     0.3320 C.3   1 <1>   0.1400 
 15 C       -6.1980    -2.5510     0.8170 C.3   1 <1>  -0.0800 
 16 C       -5.5730    -3.8870     0.3420 C.3   1 <1>  -0.0800 
 17 C       -7.4920    -2.1220     0.0810 C.3   1 <1>   0.4240 
 18 C       -6.0700    -4.3460    -1.0410 C.3   1 <1>  -0.1600 
 19 O       -7.1560    -1.5730    -1.1450 O.3   1 <1>  -0.6800 
 20 C       -8.2750    -1.0820     0.9110 C.ar  1 <1>  -0.1440 
 21 C       -8.3330    -3.3680    -0.2440 C.3   1 <1>  -0.1600 
 22 C       -7.6070    -4.4030    -1.1350 C.3   1 <1>  -0.1600 
 23 C       -8.3720     0.2540     0.5270 C.ar  1 <1>  -0.1500 
 24 C       -8.9010    -1.4630     2.0950 C.ar  1 <1>  -0.1500 
 25 C       -9.0720     1.1710     1.2920 C.ar  1 <1>  -0.1500 
 26 C       -9.6030    -0.5490     2.8620 C.ar  1 <1>  -0.1500 
 27 C       -9.6890     0.7700     2.4610 C.ar  1 <1>  -0.1500 
 28 H       -3.2350     3.7680     1.4060 H     1 <1>   0.0800 
 29 H       -1.5570     3.2790     1.5810 H     1 <1>   0.0800 
 30 H       -2.8340     2.3850     2.3720 H     1 <1>   0.0800 
 31 H       -2.9890    -0.1700    -2.8570 H     1 <1>   0.1500 
 32 H       -2.8700     2.2450    -3.0910 H     1 <1>   0.1500 
 33 H       -1.7570     4.5170    -0.6990 H     1 <1>   0.0800 
 34 H       -3.5100     4.6030    -0.7070 H     1 <1>   0.0800 
 35 H       -2.6340     4.4110    -2.1980 H     1 <1>   0.0800 
 36 H       -4.8290    -1.1900     1.7800 H     1 <1>   0.0800 
 37 H       -5.3550    -0.6260     0.2090 H     1 <1>   0.0800 
 38 H       -3.5690    -4.1790    -0.4620 H     1 <1>   0.0800 
 39 H       -3.6280    -3.9300     1.2740 H     1 <1>   0.0800 
 40 H       -6.4530    -2.6850     1.8530 H     1 <1>   0.0800 
 41 H       -5.7980    -4.6660     1.0500 H     1 <1>   0.0800 
 42 H       -5.6880    -3.6750    -1.7910 H     1 <1>   0.0800 
 43 H       -5.6660    -5.3180    -1.2660 H     1 <1>   0.0800 
 44 H       -6.6480    -2.2440    -1.6330 H     1 <1>   0.4000 
 45 H       -8.5890    -3.8540     0.6790 H     1 <1>   0.0800 
 46 H       -9.2570    -3.0650    -0.7040 H     1 <1>   0.0800 
 47 H       -7.9450    -5.3870    -0.8570 H     1 <1>   0.0800 
 48 H       -7.8930    -4.2500    -2.1620 H     1 <1>   0.0800 
 49 H       -7.9030     0.6000    -0.3780 H     1 <1>   0.1500 
 50 H       -8.8490    -2.4790     2.4390 H     1 <1>   0.1500 
 51 H       -9.1350     2.1960     0.9730 H     1 <1>   0.1500 
 52 H      -10.0820    -0.8650     3.7730 H     1 <1>   0.1500 
 53 H      -10.2350     1.4830     3.0560 H     1 <1>   0.1500 
@<TRIPOS>BOND
  1   1   2  2   
  2   2   3  am  
  3   2   4  1   
  4   3   5  1   
  5   3   6  1   
  6   4   7  1   
  7   4   8  2   
  8   5   9  2   
  9   5  10  1   
 10   6  28  1   
 11   6  29  1   
 12   6  30  1   
 13   7  11  2   
 14   7  12  am  
 15   8   9  1   
 16   8  31  1   
 17   9  32  1   
 18  10  33  1   
 19  10  34  1   
 20  10  35  1   
 21  12  13  1   
 22  12  14  1   
 23  13  15  1   
 24  13  36  1   
 25  13  37  1   
 26  14  16  1   
 27  14  38  1   
 28  14  39  1   
 29  15  16  1   
 30  15  17  1   
 31  15  40  1   
 32  16  18  1   
 33  16  41  1   
 34  17  19  1   
 35  17  20  1   
 36  17  21  1   
 37  18  22  1   
 38  18  42  1   
 39  18  43  1   
 40  19  44  1   
 41  20  23  ar  
 42  20  24  ar  
 43  21  22  1   
 44  21  45  1   
 45  21  46  1   
 46  22  47  1   
 47  22  48  1   
 48  23  25  ar  
 49  23  49  1   
 50  24  26  ar  
 51  24  50  1   
 52  25  27  ar  
 53  25  51  1   
 54  26  27  ar  
 55  26  52  1   
 56  27  53  1   
@<TRIPOS>SUBSTRUCTURE
  1 ****  13 GROUP 4 **** **** 0

# MOE 2024.06 (io_trps.svl 2023.06)
