@<TRIPOS>MOLECULE
NONAME
46 47 1 0 0 
SMALL
USER_CHARGES


@<TRIPOS>ATOM
  1 O       -1.2500     0.0590     1.2420 O.2   1 <1>  -0.5700 
  2 C       -2.1090     0.9110     1.2140 C.2   1 <1>   0.5690 
  3 N       -3.4370     0.5850     1.2900 N.am  1 <1>  -0.6600 
  4 C       -1.6530     2.3500     1.0610 C.3   1 <1>  -0.0990 
  5 C       -3.8420    -0.8410     1.4710 C.3   1 <1>   0.3200 
  6 C       -4.5700     1.5140     1.0020 C.3   1 <1>   0.1400 
  7 C       -1.4260     2.7040    -0.4130 C.3   1 <1>  -0.0170 
  8 C       -3.8170    -1.5650     0.1370 C.2   1 <1>   0.0060 
  9 C       -5.1590     2.0570     2.3070 C.3   1 <1>   0.1200 
 10 C       -1.0980     4.1800    -0.5560 C.ar  1 <1>  -0.1440 
 11 N       -4.8530    -2.0520    -0.4700 N.2   1 <1>  -0.5650 
 12 N       -2.6600    -1.7550    -0.5310 N.pl3 1 <1>   0.0330 
 13 O       -6.1330     3.0020     2.0180 O.3   1 <1>  -0.6800 
 14 C        0.1850     4.6370    -0.3060 C.ar  1 <1>  -0.1500 
 15 C       -2.0790     5.0830    -0.9320 C.ar  1 <1>  -0.1500 
 16 C       -4.3400    -2.5900    -1.5950 C.2   1 <1>   0.0770 
 17 C       -3.0020    -2.4170    -1.6500 C.2   1 <1>  -0.3020 
 18 C        0.4940     5.9900    -0.4270 C.ar  1 <1>   0.0830 
 19 C       -1.7800     6.4280    -1.0540 C.ar  1 <1>  -0.1500 
 20 O        1.7390     6.4870    -0.1920 O.3   1 <1>  -0.3630 
 21 C       -0.4990     6.8900    -0.8040 C.ar  1 <1>  -0.1430 
 22 C        2.8190     5.6510     0.1550 C.3   1 <1>   0.0400 
 23 C       -0.1870     8.3740    -0.9440 C.3   1 <1>  -0.0970 
 24 H       -0.7310     2.4730     1.5990 H     1 <1>   0.0800 
 25 H       -2.3670     3.0200     1.5000 H     1 <1>   0.0800 
 26 H       -4.8330    -0.8940     1.8870 H     1 <1>   0.0800 
 27 H       -3.1690    -1.3280     2.1540 H     1 <1>   0.0800 
 28 H       -5.3340     0.9850     0.4560 H     1 <1>   0.0800 
 29 H       -4.2320     2.3290     0.3880 H     1 <1>   0.0800 
 30 H       -2.3030     2.4680    -0.9900 H     1 <1>   0.0800 
 31 H       -0.6160     2.1130    -0.8050 H     1 <1>   0.0800 
 32 H       -4.4030     2.5280     2.9120 H     1 <1>   0.0800 
 33 H       -5.6280     1.2650     2.8650 H     1 <1>   0.0800 
 34 H       -1.7390    -1.4200    -0.2140 H     1 <1>   0.2700 
 35 H       -5.7380     3.8300     1.6810 H     1 <1>   0.4000 
 36 H        0.9350     3.9270    -0.0170 H     1 <1>   0.1500 
 37 H       -3.0810     4.7470    -1.1350 H     1 <1>   0.1500 
 38 H       -4.9730    -3.0800    -2.3170 H     1 <1>   0.1500 
 39 H       -2.2940    -2.7190    -2.4000 H     1 <1>   0.1500 
 40 H       -2.5540     7.1160    -1.3480 H     1 <1>   0.1500 
 41 H        3.6930     6.2660     0.2710 H     1 <1>   0.0800 
 42 H        2.9760     4.9380    -0.6350 H     1 <1>   0.0800 
 43 H        2.5940     5.1570     1.0830 H     1 <1>   0.0800 
 44 H        0.5810     8.5150    -1.6820 H     1 <1>   0.0800 
 45 H        0.1630     8.7600    -0.0040 H     1 <1>   0.0800 
 46 H       -1.0580     8.9290    -1.2410 H     1 <1>   0.0800 
@<TRIPOS>BOND
  1   1   2  2   
  2   2   3  am  
  3   2   4  1   
  4   3   5  1   
  5   3   6  1   
  6   4   7  1   
  7   4  24  1   
  8   4  25  1   
  9   5   8  1   
 10   5  26  1   
 11   5  27  1   
 12   6   9  1   
 13   6  28  1   
 14   6  29  1   
 15   7  10  1   
 16   7  30  1   
 17   7  31  1   
 18   8  11  2   
 19   8  12  1   
 20   9  13  1   
 21   9  32  1   
 22   9  33  1   
 23  10  14  ar  
 24  10  15  ar  
 25  11  16  1   
 26  12  17  1   
 27  12  34  1   
 28  13  35  1   
 29  14  18  ar  
 30  14  36  1   
 31  15  19  ar  
 32  15  37  1   
 33  16  17  2   
 34  16  38  1   
 35  17  39  1   
 36  18  20  1   
 37  18  21  ar  
 38  19  21  ar  
 39  19  40  1   
 40  20  22  1   
 41  21  23  1   
 42  22  41  1   
 43  22  42  1   
 44  22  43  1   
 45  23  44  1   
 46  23  45  1   
 47  23  46  1   
@<TRIPOS>SUBSTRUCTURE
  1 ****   7 GROUP 4 **** **** 0

# MOE 2024.06 (io_trps.svl 2023.06)
