@<TRIPOS>MOLECULE
NONAME
43 46 1 0 0 
SMALL
USER_CHARGES


@<TRIPOS>ATOM
  1 O        0.5430    -2.8340     1.7270 O.3   1 <1>  -0.6800 
  2 C        0.4520    -2.0800     0.5640 C.3   1 <1>   0.2000 
  3 C        1.8200    -2.0210    -0.1510 C.3   1 <1>   0.0000 
  4 C       -0.4890    -2.8150    -0.3960 C.3   1 <1>  -0.1600 
  5 C        2.9890    -1.8950     0.8650 C.3   1 <1>   0.2090 
  6 C        1.8290    -0.8460    -1.1720 C.3   1 <1>  -0.1600 
  7 C        1.8450    -3.3630    -0.9070 C.3   1 <1>  -0.1600 
  8 C        0.4010    -3.6370    -1.3380 C.3   1 <1>  -0.1600 
  9 N        4.1980    -1.2290     0.2780 N.pl3 1 <1>  -0.8220 
 10 C        2.4920     0.4060    -0.5820 C.3   1 <1>  -0.1600 
 11 C        5.2450    -2.0290    -0.2280 C.2   1 <1>   0.2710 
 12 C        3.9730     0.1440    -0.2740 C.3   1 <1>   0.2090 
 13 N        5.1310    -3.2840    -0.4930 N.2   1 <1>  -0.3380 
 14 N        6.5030    -1.6350    -0.5200 N.pl3 1 <1>   0.5930 
 15 N        6.3070    -3.6710    -0.9770 N.2   1 <1>   0.0000 
 16 N        7.1380    -2.7010    -1.0050 N.2   1 <1>  -0.4180 
 17 C        7.1350    -0.3730    -0.3270 C.ar  1 <1>  -0.0230 
 18 C        7.0530     0.2850     0.8980 C.ar  1 <1>  -0.1500 
 19 C        7.8440     0.2300    -1.3620 C.ar  1 <1>  -0.1500 
 20 C        7.6560     1.5170     1.0800 C.ar  1 <1>  -0.1500 
 21 C        8.4470     1.4620    -1.1810 C.ar  1 <1>  -0.1500 
 22 C        8.3520     2.1070     0.0400 C.ar  1 <1>  -0.1500 
 23 H       -0.3490    -3.0270     2.0710 H     1 <1>   0.4000 
 24 H        0.0870    -1.1020     0.8310 H     1 <1>   0.0800 
 25 H       -1.1980    -3.4350     0.1240 H     1 <1>   0.0800 
 26 H       -1.0340    -2.0930    -0.9780 H     1 <1>   0.0800 
 27 H        3.2480    -2.8630     1.2600 H     1 <1>   0.0800 
 28 H        2.6650    -1.2990     1.7010 H     1 <1>   0.0800 
 29 H        2.3950    -1.1300    -2.0430 H     1 <1>   0.0800 
 30 H        0.8340    -0.6100    -1.5060 H     1 <1>   0.0800 
 31 H        2.5290    -3.3650    -1.7380 H     1 <1>   0.0800 
 32 H        2.1490    -4.1440    -0.2300 H     1 <1>   0.0800 
 33 H        0.1800    -4.6890    -1.2700 H     1 <1>   0.0800 
 34 H        0.2550    -3.3150    -2.3540 H     1 <1>   0.0800 
 35 H        1.9840     0.7010     0.3190 H     1 <1>   0.0800 
 36 H        2.4190     1.2230    -1.2770 H     1 <1>   0.0800 
 37 H        4.3300     0.8770     0.4290 H     1 <1>   0.0800 
 38 H        4.5350     0.2520    -1.1860 H     1 <1>   0.0800 
 39 H        6.5130    -0.1690     1.7130 H     1 <1>   0.1500 
 40 H        7.9280    -0.2680    -2.3130 H     1 <1>   0.1500 
 41 H        7.5850     2.0160     2.0310 H     1 <1>   0.1500 
 42 H        8.9930     1.9190    -1.9880 H     1 <1>   0.1500 
 43 H        8.8220     3.0650     0.1810 H     1 <1>   0.1500 
@<TRIPOS>BOND
  1   1   2  1   
  2   1  23  1   
  3   2   3  1   
  4   2   4  1   
  5   2  24  1   
  6   3   5  1   
  7   3   6  1   
  8   3   7  1   
  9   4   8  1   
 10   4  25  1   
 11   4  26  1   
 12   5   9  1   
 13   5  27  1   
 14   5  28  1   
 15   6  10  1   
 16   6  29  1   
 17   6  30  1   
 18   7   8  1   
 19   7  31  1   
 20   7  32  1   
 21   8  33  1   
 22   8  34  1   
 23   9  11  1   
 24   9  12  1   
 25  10  12  1   
 26  10  35  1   
 27  10  36  1   
 28  11  13  2   
 29  11  14  1   
 30  12  37  1   
 31  12  38  1   
 32  13  15  1   
 33  14  16  1   
 34  14  17  1   
 35  15  16  2   
 36  17  18  ar  
 37  17  19  ar  
 38  18  20  ar  
 39  18  39  1   
 40  19  21  ar  
 41  19  40  1   
 42  20  22  ar  
 43  20  41  1   
 44  21  22  ar  
 45  21  42  1   
 46  22  43  1   
@<TRIPOS>SUBSTRUCTURE
  1 ****   9 GROUP 4 **** **** 0

# MOE 2024.06 (io_trps.svl 2023.06)
