@<TRIPOS>MOLECULE
NONAME
48 50 1 0 0 
SMALL
USER_CHARGES


@<TRIPOS>ATOM
  1 O       -0.6460    -0.5980    -0.0400 O.2   1 <1>  -0.5700 
  2 C       -1.8150    -0.3500    -0.2100 C.2   1 <1>   0.5690 
  3 N       -2.3870     0.8740    -0.1630 N.am  1 <1>  -0.6600 
  4 C       -2.8420    -1.4070    -0.5020 C.3   1 <1>  -0.0990 
  5 C       -1.6380     2.1360     0.0680 C.3   1 <1>   0.2200 
  6 C       -3.8400     0.8080    -0.4170 C.3   1 <1>   0.1400 
  7 C       -4.1750    -0.6790    -0.2380 C.3   1 <1>  -0.0800 
  8 C       -2.1700     2.8780     1.2940 C.3   1 <1>  -0.1600 
  9 C       -1.8260     3.1170    -1.0870 C.3   1 <1>  -0.1600 
 10 C       -4.6790    -0.9170     1.1950 C.3   1 <1>   0.2090 
 11 C       -3.1700     3.9300     0.7940 C.3   1 <1>  -0.1600 
 12 C       -3.0420     3.9770    -0.7330 C.3   1 <1>  -0.1600 
 13 N       -5.0560    -2.3470     1.3890 N.pl3 1 <1>  -0.8380 
 14 C       -6.1930    -2.8690     0.8040 C.ar  1 <1>   0.4100 
 15 C       -4.4040    -3.0200     2.5470 C.3   1 <1>   0.1290 
 16 N       -7.1660    -2.0180     0.4870 N.ar  1 <1>  -0.6200 
 17 C       -6.3010    -4.2360     0.5520 C.ar  1 <1>  -0.1500 
 18 C       -8.2500    -2.5330    -0.0590 C.ar  1 <1>   0.1600 
 19 C       -7.4370    -4.7520    -0.0190 C.ar  1 <1>  -0.1500 
 20 C       -8.4760    -3.8830    -0.3440 C.ar  1 <1>   0.0860 
 21 C       -9.6950    -4.3730    -0.9400 C.2   1 <1>   0.4230 
 22 O       -9.8720    -5.5340    -1.2080 O.2   1 <1>  -0.5700 
 23 C      -10.8360    -3.4270    -1.2630 C.3   1 <1>  -0.1790 
 24 H       -2.6970    -2.2700     0.1220 H     1 <1>   0.0800 
 25 H       -2.7600    -1.6900    -1.5340 H     1 <1>   0.0800 
 26 H       -0.5930     1.9030     0.1940 H     1 <1>   0.0800 
 27 H       -4.0370     1.1200    -1.4290 H     1 <1>   0.0800 
 28 H       -4.3890     1.4290     0.2680 H     1 <1>   0.0800 
 29 H       -4.9380    -0.9760    -0.9340 H     1 <1>   0.0800 
 30 H       -1.3450     3.3860     1.7610 H     1 <1>   0.0800 
 31 H       -2.6030     2.2050     2.0130 H     1 <1>   0.0800 
 32 H       -1.9290     2.6160    -2.0330 H     1 <1>   0.0800 
 33 H       -0.9590     3.7520    -1.1300 H     1 <1>   0.0800 
 34 H       -5.5360    -0.2950     1.3900 H     1 <1>   0.0800 
 35 H       -3.9090    -0.6400     1.8950 H     1 <1>   0.0800 
 36 H       -2.9380     4.8910     1.2220 H     1 <1>   0.0800 
 37 H       -4.1740     3.6640     1.0750 H     1 <1>   0.0800 
 38 H       -3.9260     3.5610    -1.1820 H     1 <1>   0.0800 
 39 H       -2.9210     4.9860    -1.0880 H     1 <1>   0.0800 
 40 H       -4.3870    -2.3570     3.3940 H     1 <1>   0.0800 
 41 H       -3.3950    -3.2890     2.2890 H     1 <1>   0.0800 
 42 H       -4.9440    -3.9070     2.8270 H     1 <1>   0.0800 
 43 H       -5.4790    -4.8780     0.8010 H     1 <1>   0.1500 
 44 H       -9.0210    -1.8240    -0.2990 H     1 <1>   0.1500 
 45 H       -7.5320    -5.8070    -0.2170 H     1 <1>   0.1500 
 46 H      -11.1720    -2.9330    -0.3710 H     1 <1>   0.0800 
 47 H      -11.6610    -3.9800    -1.6760 H     1 <1>   0.0800 
 48 H      -10.5190    -2.6990    -1.9870 H     1 <1>   0.0800 
@<TRIPOS>BOND
  1   1   2  2   
  2   2   3  am  
  3   2   4  1   
  4   3   5  1   
  5   3   6  1   
  6   4   7  1   
  7   4  24  1   
  8   4  25  1   
  9   5   8  1   
 10   5   9  1   
 11   5  26  1   
 12   6   7  1   
 13   6  27  1   
 14   6  28  1   
 15   7  10  1   
 16   7  29  1   
 17   8  11  1   
 18   8  30  1   
 19   8  31  1   
 20   9  12  1   
 21   9  32  1   
 22   9  33  1   
 23  10  13  1   
 24  10  34  1   
 25  10  35  1   
 26  11  12  1   
 27  11  36  1   
 28  11  37  1   
 29  12  38  1   
 30  12  39  1   
 31  13  14  1   
 32  13  15  1   
 33  14  16  ar  
 34  14  17  ar  
 35  15  40  1   
 36  15  41  1   
 37  15  42  1   
 38  16  18  ar  
 39  17  19  ar  
 40  17  43  1   
 41  18  20  ar  
 42  18  44  1   
 43  19  20  ar  
 44  19  45  1   
 45  20  21  1   
 46  21  22  2   
 47  21  23  1   
 48  23  46  1   
 49  23  47  1   
 50  23  48  1   
@<TRIPOS>SUBSTRUCTURE
  1 ****   7 GROUP 4 **** **** 0

# MOE 2024.06 (io_trps.svl 2023.06)
