@<TRIPOS>MOLECULE
NONAME
41 41 1 0 0 
SMALL
USER_CHARGES


@<TRIPOS>ATOM
  1 S        0.4470     0.0280    -0.4460 S.o2  1 <1>   1.0900 
  2 O        0.0650     1.3240    -0.9570 O.2   1 <1>  -0.6500 
  3 O        1.8110    -0.4400    -0.5190 O.2   1 <1>  -0.6500 
  4 C       -0.6380    -1.2190    -1.1030 C.3   1 <1>  -0.0550 
  5 C       -0.1000    -0.1080     1.2410 C.3   1 <1>  -0.0550 
  6 C       -1.4020    -1.8700     0.0750 C.3   1 <1>   0.3560 
  7 C       -0.6830    -1.5120     1.4010 C.3   1 <1>  -0.1600 
  8 N       -1.5250    -3.3500    -0.1230 N.am  1 <1>  -0.8490 
  9 C       -2.7680    -1.1430     0.0580 C.3   1 <1>  -0.2400 
 10 S       -2.7900    -4.1390     0.6940 S.o2  1 <1>   1.5760 
 11 C       -0.3250    -4.2090     0.0460 C.3   1 <1>   0.3340 
 12 O       -2.5830    -5.5700     0.6320 O.2   1 <1>  -0.6500 
 13 O       -2.9710    -3.5220     1.9890 O.2   1 <1>  -0.6500 
 14 N       -4.1110    -3.8010    -0.3080 N.am  1 <1>  -0.8490 
 15 C        0.9590    -3.7430    -0.6180 C.2   1 <1>  -0.2880 
 16 C       -5.4110    -3.8510     0.3620 C.3   1 <1>   0.1960 
 17 C       -4.0770    -4.5110    -1.5900 C.3   1 <1>   0.1160 
 18 C        1.4580    -4.2320    -1.7590 C.2   1 <1>  -0.3000 
 19 C       -5.8290    -5.2640     0.7770 C.3   1 <1>  -0.2400 
 20 H       -0.0870    -1.9200    -1.6870 H     1 <1>   0.0800 
 21 H       -1.3250    -0.7570    -1.7850 H     1 <1>   0.0800 
 22 H       -0.8690     0.6190     1.4280 H     1 <1>   0.0800 
 23 H        0.7060     0.0640     1.9290 H     1 <1>   0.0800 
 24 H       -1.3520    -1.5430     2.2430 H     1 <1>   0.0800 
 25 H        0.1350    -2.1750     1.6010 H     1 <1>   0.0800 
 26 H       -2.6390    -0.0760     0.0530 H     1 <1>   0.0800 
 27 H       -3.3690    -1.3660     0.9190 H     1 <1>   0.0800 
 28 H       -3.3190    -1.3960    -0.8300 H     1 <1>   0.0800 
 29 H       -0.5360    -5.1720    -0.3890 H     1 <1>   0.0800 
 30 H       -0.1350    -4.3750     1.0940 H     1 <1>   0.0800 
 31 H        1.4630    -2.9660    -0.0720 H     1 <1>   0.1500 
 32 H       -6.1570    -3.4430    -0.2990 H     1 <1>   0.0800 
 33 H       -5.3820    -3.2190     1.2350 H     1 <1>   0.0800 
 34 H       -3.1630    -4.2770    -2.1100 H     1 <1>   0.0800 
 35 H       -4.9060    -4.2060    -2.2050 H     1 <1>   0.0800 
 36 H       -4.1190    -5.5760    -1.4390 H     1 <1>   0.0800 
 37 H        2.3750    -3.8850    -2.2050 H     1 <1>   0.1500 
 38 H        0.9970    -5.0110    -2.3420 H     1 <1>   0.1500 
 39 H       -5.9250    -5.9110    -0.0750 H     1 <1>   0.0800 
 40 H       -6.7860    -5.2180     1.2650 H     1 <1>   0.0800 
 41 H       -5.1280    -5.6870     1.4730 H     1 <1>   0.0800 
@<TRIPOS>BOND
  1   1   2  2   
  2   1   3  2   
  3   1   4  1   
  4   1   5  1   
  5   4   6  1   
  6   4  20  1   
  7   4  21  1   
  8   5   7  1   
  9   5  22  1   
 10   5  23  1   
 11   6   7  1   
 12   6   8  1   
 13   6   9  1   
 14   7  24  1   
 15   7  25  1   
 16   8  10  am  
 17   8  11  1   
 18   9  26  1   
 19   9  27  1   
 20   9  28  1   
 21  10  12  2   
 22  10  13  2   
 23  10  14  am  
 24  11  15  1   
 25  11  29  1   
 26  11  30  1   
 27  14  16  1   
 28  14  17  1   
 29  15  18  2   
 30  15  31  1   
 31  16  19  1   
 32  16  32  1   
 33  16  33  1   
 34  17  34  1   
 35  17  35  1   
 36  17  36  1   
 37  18  37  1   
 38  18  38  1   
 39  19  39  1   
 40  19  40  1   
 41  19  41  1   
@<TRIPOS>SUBSTRUCTURE
  1 ****   8 GROUP 4 **** **** 0

# MOE 2024.06 (io_trps.svl 2023.06)
