@<TRIPOS>MOLECULE
NONAME
38 38 1 0 0 
SMALL
USER_CHARGES


@<TRIPOS>ATOM
  1 S        0.5590     0.8280    -0.0610 S.3   1 <1>  -0.4600 
  2 C        1.3680     2.0230     1.0640 C.3   1 <1>   0.1310 
  3 C        0.0040    -0.4840     1.0550 C.3   1 <1>   0.0700 
  4 C        1.7070     3.3390     0.3650 C.2   1 <1>   0.5690 
  5 C       -0.6620    -1.5600     0.2020 C.3   1 <1>  -0.2400 
  6 O        1.1840     4.3400     0.8030 O.2   1 <1>  -0.5700 
  7 N        2.5960     3.3980    -0.6850 N.am  1 <1>  -0.6600 
  8 C        2.8110     4.6740    -1.4120 C.3   1 <1>   0.1400 
  9 C        3.3360     2.2300    -1.2410 C.3   1 <1>   0.0600 
 10 C        3.9250     5.4640    -0.7260 C.3   1 <1>  -0.1600 
 11 C        4.0510     6.8740    -1.3150 C.3   1 <1>   0.0200 
 12 C        5.0980     7.6820    -0.5700 C.2   1 <1>   0.0060 
 13 N        6.2680     7.9300    -1.0640 N.2   1 <1>  -0.5650 
 14 N        4.9060     8.2100     0.6660 N.pl3 1 <1>   0.0480 
 15 C        6.8760     8.6540    -0.1070 C.2   1 <1>   0.0770 
 16 C        6.0610     8.8340     0.9540 C.2   1 <1>  -0.3020 
 17 C        3.7210     8.1350     1.5420 C.3   1 <1>   0.0160 
 18 H        2.2560     1.5600     1.4480 H     1 <1>   0.0800 
 19 H        0.6800     2.2090     1.8670 H     1 <1>   0.0800 
 20 H       -0.6880    -0.0460     1.7530 H     1 <1>   0.0800 
 21 H        0.8690    -0.8640     1.5700 H     1 <1>   0.0800 
 22 H       -1.5010    -1.1440    -0.3270 H     1 <1>   0.0800 
 23 H       -1.0100    -2.3610     0.8280 H     1 <1>   0.0800 
 24 H        0.0400    -1.9550    -0.5100 H     1 <1>   0.0800 
 25 H        1.8980     5.2460    -1.4000 H     1 <1>   0.0800 
 26 H        3.0650     4.4780    -2.4400 H     1 <1>   0.0800 
 27 H        3.3910     1.4280    -0.5270 H     1 <1>   0.0800 
 28 H        4.3400     2.5210    -1.4990 H     1 <1>   0.0800 
 29 H        2.8340     1.8740    -2.1240 H     1 <1>   0.0800 
 30 H        4.8630     4.9500    -0.8400 H     1 <1>   0.0800 
 31 H        3.7030     5.5380     0.3230 H     1 <1>   0.0800 
 32 H        3.1070     7.3860    -1.2700 H     1 <1>   0.0800 
 33 H        4.3390     6.8050    -2.3490 H     1 <1>   0.0800 
 34 H        7.8830     9.0120    -0.2350 H     1 <1>   0.1500 
 35 H        6.2410     9.3580     1.8740 H     1 <1>   0.1500 
 36 H        2.8260     8.1590     0.9490 H     1 <1>   0.0800 
 37 H        3.7210     8.9710     2.2170 H     1 <1>   0.0800 
 38 H        3.7550     7.2200     2.1050 H     1 <1>   0.0800 
@<TRIPOS>BOND
  1   1   2  1   
  2   1   3  1   
  3   2   4  1   
  4   2  18  1   
  5   2  19  1   
  6   3   5  1   
  7   3  20  1   
  8   3  21  1   
  9   4   6  2   
 10   4   7  am  
 11   5  22  1   
 12   5  23  1   
 13   5  24  1   
 14   7   8  1   
 15   7   9  1   
 16   8  10  1   
 17   8  25  1   
 18   8  26  1   
 19   9  27  1   
 20   9  28  1   
 21   9  29  1   
 22  10  11  1   
 23  10  30  1   
 24  10  31  1   
 25  11  12  1   
 26  11  32  1   
 27  11  33  1   
 28  12  13  2   
 29  12  14  1   
 30  13  15  1   
 31  14  16  1   
 32  14  17  1   
 33  15  16  2   
 34  15  34  1   
 35  16  35  1   
 36  17  36  1   
 37  17  37  1   
 38  17  38  1   
@<TRIPOS>SUBSTRUCTURE
  1 ****  10 GROUP 4 **** **** 0

# MOE 2024.06 (io_trps.svl 2023.06)
