@<TRIPOS>MOLECULE
NONAME
45 47 1 0 0 
SMALL
USER_CHARGES


@<TRIPOS>ATOM
  1 O        3.8880    -1.9590    -1.4550 O.2   1 <1>  -0.5700 
  2 C        3.1260    -1.6390    -0.5740 C.2   1 <1>   0.5690 
  3 N        3.0600    -0.3380    -0.1810 N.am  1 <1>  -0.6600 
  4 C        2.3160    -2.6980     0.1460 C.3   1 <1>  -0.0990 
  5 C        3.7500     0.0220     1.1080 C.3   1 <1>   0.2200 
  6 C        2.9350     0.7140    -1.2410 C.3   1 <1>   0.1400 
  7 C        1.3010    -3.3620    -0.7920 C.3   1 <1>  -0.0160 
  8 C        3.2820     1.3650     1.6920 C.3   1 <1>   0.1200 
  9 C        5.2930     0.0040     0.9280 C.3   1 <1>   0.3430 
 10 C        3.9790     1.8470    -1.1760 C.3   1 <1>  -0.0800 
 11 C        0.4820    -4.3930    -0.0320 C.ar  1 <1>  -0.1440 
 12 O        4.0380     2.4170     1.1710 O.3   1 <1>  -0.5600 
 13 N        5.7220     0.0810    -0.5150 N.4   1 <1>  -0.9590 
 14 C        3.6540     2.8750    -0.0810 C.3   1 <1>   0.1200 
 15 C        5.4590     1.4090    -1.1520 C.3   1 <1>   0.3430 
 16 C       -0.7200    -4.0450     0.5720 C.ar  1 <1>   0.1600 
 17 C        0.9240    -5.6960     0.0760 C.ar  1 <1>  -0.1500 
 18 C        7.1400    -0.3400    -0.6940 C.3   1 <1>   0.2630 
 19 N       -1.4900    -4.8690     1.2630 N.ar  1 <1>  -0.6200 
 20 C        0.1310    -6.5700     0.7890 C.ar  1 <1>  -0.1500 
 21 C       -1.0470    -6.1120     1.3530 C.ar  1 <1>   0.1600 
 22 H        2.9860    -3.4440     0.5310 H     1 <1>   0.0800 
 23 H        1.7930    -2.2550     0.9730 H     1 <1>   0.0800 
 24 H        3.4960    -0.7260     1.8390 H     1 <1>   0.0800 
 25 H        3.0000     0.2460    -2.2100 H     1 <1>   0.0800 
 26 H        1.9480     1.1410    -1.1750 H     1 <1>   0.0800 
 27 H        1.8160    -3.8390    -1.6090 H     1 <1>   0.0800 
 28 H        0.6470    -2.6160    -1.2110 H     1 <1>   0.0800 
 29 H        3.4550     1.3670     2.7550 H     1 <1>   0.0800 
 30 H        2.2320     1.5370     1.5230 H     1 <1>   0.0800 
 31 H        5.6600    -0.9160     1.3510 H     1 <1>   0.0800 
 32 H        5.7320     0.8130     1.4890 H     1 <1>   0.0800 
 33 H        3.8560     2.3970    -2.0930 H     1 <1>   0.0800 
 34 H        5.1110    -0.6080    -1.0110 H     1 <1>   0.4500 
 35 H        2.6040     3.1200    -0.0590 H     1 <1>   0.0800 
 36 H        4.2030     3.7840    -0.2590 H     1 <1>   0.0800 
 37 H        6.0380     2.1690    -0.6510 H     1 <1>   0.0800 
 38 H        5.8030     1.3640    -2.1730 H     1 <1>   0.0800 
 39 H       -1.0690    -3.0310     0.4840 H     1 <1>   0.1500 
 40 H        1.8450    -6.0230    -0.3740 H     1 <1>   0.1500 
 41 H        7.8000     0.3410    -0.1820 H     1 <1>   0.0800 
 42 H        7.3950    -0.3520    -1.7410 H     1 <1>   0.0800 
 43 H        7.2870    -1.3320    -0.2970 H     1 <1>   0.0800 
 44 H        0.4200    -7.5990     0.9070 H     1 <1>   0.1500 
 45 H       -1.6570    -6.8050     1.9080 H     1 <1>   0.1500 
@<TRIPOS>BOND
  1   1   2  2   
  2   2   3  am  
  3   2   4  1   
  4   3   5  1   
  5   3   6  1   
  6   4   7  1   
  7   4  22  1   
  8   4  23  1   
  9   5   8  1   
 10   5   9  1   
 11   5  24  1   
 12   6  10  1   
 13   6  25  1   
 14   6  26  1   
 15   7  11  1   
 16   7  27  1   
 17   7  28  1   
 18   8  12  1   
 19   8  29  1   
 20   8  30  1   
 21   9  13  1   
 22   9  31  1   
 23   9  32  1   
 24  10  14  1   
 25  10  15  1   
 26  10  33  1   
 27  11  16  ar  
 28  11  17  ar  
 29  12  14  1   
 30  13  15  1   
 31  13  18  1   
 32  13  34  1   
 33  14  35  1   
 34  14  36  1   
 35  15  37  1   
 36  15  38  1   
 37  16  19  ar  
 38  16  39  1   
 39  17  20  ar  
 40  17  40  1   
 41  18  41  1   
 42  18  42  1   
 43  18  43  1   
 44  19  21  ar  
 45  20  21  ar  
 46  20  44  1   
 47  21  45  1   
@<TRIPOS>SUBSTRUCTURE
  1 ****   2 GROUP 4 **** **** 0

# MOE 2024.06 (io_trps.svl 2023.06)
