@<TRIPOS>MOLECULE
NONAME
58 62 1 0 0 
SMALL
USER_CHARGES


@<TRIPOS>ATOM
  1 F       -1.4540    -1.4370    -3.4010 F     1 <1>  -0.1900 
  2 C       -1.0550    -2.3280    -2.5340 C.ar  1 <1>   0.1900 
  3 C       -1.6990    -3.5490    -2.4910 C.ar  1 <1>  -0.1500 
  4 C       -0.0060    -2.0180    -1.6950 C.ar  1 <1>  -0.1500 
  5 C       -1.2770    -4.5050    -1.5750 C.ar  1 <1>  -0.1440 
  6 C        0.4140    -2.9720    -0.7850 C.ar  1 <1>  -0.1500 
  7 C       -0.2030    -4.2210    -0.7180 C.ar  1 <1>  -0.0230 
  8 C       -2.0100    -5.8400    -1.5090 C.3   1 <1>   0.4870 
  9 N        0.2640    -5.1770     0.2310 N.pl3 1 <1>   0.5930 
 10 N       -3.3700    -5.6050    -0.9670 N.4   1 <1>  -0.9590 
 11 N       -0.5510    -5.7040     1.1840 N.2   1 <1>  -0.7070 
 12 C        1.4880    -5.7670     0.2900 C.2   1 <1>  -0.3320 
 13 C       -3.3430    -5.0480     0.4230 C.3   1 <1>   0.3430 
 14 C       -4.2690    -6.7800    -1.0420 C.3   1 <1>   0.3430 
 15 C        0.1740    -6.5640     1.8230 C.2   1 <1>   0.1080 
 16 C        1.4590    -6.6530     1.3060 C.2   1 <1>  -0.1500 
 17 C        2.6490    -5.4620    -0.6450 C.3   1 <1>  -0.0600 
 18 C       -4.7150    -4.4470     0.7590 C.3   1 <1>   0.1430 
 19 C       -5.6990    -6.3380    -0.7040 C.3   1 <1>  -0.1600 
 20 C       -0.3400    -7.3680     2.9960 C.3   1 <1>  -0.0590 
 21 C       -4.8820    -3.2420    -0.1550 C.ar  1 <1>   0.1670 
 22 C       -5.8050    -5.5350     0.6120 C.3   1 <1>  -0.1600 
 23 C       -4.7330    -3.8110     2.1720 C.3   1 <1>  -0.1600 
 24 N       -5.0670    -3.2910    -1.4560 N.ar  1 <1>  -0.6200 
 25 C       -4.7380    -2.0730     0.5300 C.ar  1 <1>  -0.1430 
 26 C       -4.4850    -2.3010     1.9990 C.3   1 <1>  -0.0170 
 27 C       -5.1140    -2.1010    -2.0380 C.ar  1 <1>   0.7200 
 28 C       -4.8130    -0.8990    -0.1820 C.ar  1 <1>   0.1600 
 29 N       -5.0050    -0.9060    -1.4820 N.ar  1 <1>  -0.6200 
 30 N       -5.2980    -2.1070    -3.3570 N.pl3 1 <1>  -0.9000 
 31 H       -2.5180    -3.7200    -3.1680 H     1 <1>   0.1500 
 32 H        0.4650    -1.0530    -1.7560 H     1 <1>   0.1500 
 33 H        1.2290    -2.7390    -0.1180 H     1 <1>   0.1500 
 34 H       -1.4800    -6.5410    -0.8860 H     1 <1>   0.0800 
 35 H       -2.0790    -6.2530    -2.5020 H     1 <1>   0.0800 
 36 H       -3.8050    -4.8470    -1.5310 H     1 <1>   0.4500 
 37 H       -2.6000    -4.2710     0.4980 H     1 <1>   0.0800 
 38 H       -3.0900    -5.8220     1.1290 H     1 <1>   0.0800 
 39 H       -3.9430    -7.5330    -0.3430 H     1 <1>   0.0800 
 40 H       -4.2500    -7.2020    -2.0350 H     1 <1>   0.0800 
 41 H        2.2420    -7.3010     1.6610 H     1 <1>   0.1500 
 42 H        2.3520    -5.5910    -1.6710 H     1 <1>   0.0800 
 43 H        3.4720    -6.1240    -0.4430 H     1 <1>   0.0800 
 44 H        2.9890    -4.4510    -0.5060 H     1 <1>   0.0800 
 45 H       -6.3280    -7.2090    -0.6390 H     1 <1>   0.0800 
 46 H       -6.0790    -5.7470    -1.5190 H     1 <1>   0.0800 
 47 H       -0.7120    -6.7040     3.7540 H     1 <1>   0.0800 
 48 H        0.4500    -7.9640     3.4160 H     1 <1>   0.0800 
 49 H       -1.1340    -8.0160     2.6750 H     1 <1>   0.0800 
 50 H       -6.7800    -5.0810     0.6740 H     1 <1>   0.0800 
 51 H       -5.7160    -6.2230     1.4350 H     1 <1>   0.0800 
 52 H       -4.0100    -4.2570     2.8330 H     1 <1>   0.0800 
 53 H       -5.7100    -3.9360     2.6090 H     1 <1>   0.0800 
 54 H       -3.4640    -2.0500     2.2360 H     1 <1>   0.0800 
 55 H       -5.1520    -1.7180     2.6100 H     1 <1>   0.0800 
 56 H       -4.7090     0.0510     0.3150 H     1 <1>   0.1500 
 57 H       -5.4680    -1.1800    -3.7440 H     1 <1>   0.4000 
 58 H       -5.9070    -2.8350    -3.7170 H     1 <1>   0.4000 
@<TRIPOS>BOND
  1   1   2  1   
  2   2   3  ar  
  3   2   4  ar  
  4   3   5  ar  
  5   3  31  1   
  6   4   6  ar  
  7   4  32  1   
  8   5   7  ar  
  9   5   8  1   
 10   6   7  ar  
 11   6  33  1   
 12   7   9  1   
 13   8  10  1   
 14   8  34  1   
 15   8  35  1   
 16   9  11  1   
 17   9  12  1   
 18  10  13  1   
 19  10  14  1   
 20  10  36  1   
 21  11  15  2   
 22  12  16  2   
 23  12  17  1   
 24  13  18  1   
 25  13  37  1   
 26  13  38  1   
 27  14  19  1   
 28  14  39  1   
 29  14  40  1   
 30  15  16  1   
 31  15  20  1   
 32  16  41  1   
 33  17  42  1   
 34  17  43  1   
 35  17  44  1   
 36  18  21  1   
 37  18  22  1   
 38  18  23  1   
 39  19  22  1   
 40  19  45  1   
 41  19  46  1   
 42  20  47  1   
 43  20  48  1   
 44  20  49  1   
 45  21  24  ar  
 46  21  25  ar  
 47  22  50  1   
 48  22  51  1   
 49  23  26  1   
 50  23  52  1   
 51  23  53  1   
 52  24  27  ar  
 53  25  26  1   
 54  25  28  ar  
 55  26  54  1   
 56  26  55  1   
 57  27  29  ar  
 58  27  30  1   
 59  28  29  ar  
 60  28  56  1   
 61  30  57  1   
 62  30  58  1   
@<TRIPOS>SUBSTRUCTURE
  1 ****  13 GROUP 4 **** **** 0

# MOE 2024.06 (io_trps.svl 2023.06)
