@<TRIPOS>MOLECULE
NONAME
43 45 1 0 0 
SMALL
USER_CHARGES


@<TRIPOS>ATOM
  1 F       -2.7830     0.5660    -0.0810 F     1 <1>  -0.3400 
  2 C       -2.4100    -0.4790     0.6440 C.3   1 <1>   1.0200 
  3 F       -1.0950    -0.5740     0.5280 F     1 <1>  -0.3400 
  4 F       -2.6620    -0.1650     1.9070 F     1 <1>  -0.3400 
  5 C       -3.1250    -1.7590     0.2150 C.3   1 <1>  -0.1600 
  6 C       -4.6660    -1.6780     0.3370 C.3   1 <1>  -0.0990 
  7 C       -5.3900    -2.9440    -0.1040 C.2   1 <1>   0.5690 
  8 O       -4.7230    -3.8640    -0.5160 O.2   1 <1>  -0.5700 
  9 N       -6.7580    -3.0180    -0.0330 N.am  1 <1>  -0.6600 
 10 C       -7.6660    -1.9200     0.4360 C.3   1 <1>   0.1400 
 11 C       -7.4860    -4.2600    -0.4260 C.3   1 <1>   0.1400 
 12 C       -8.6970    -1.5520    -0.6480 C.3   1 <1>   0.1440 
 13 C       -8.5240    -3.9430    -1.5100 C.3   1 <1>  -0.1600 
 14 C       -9.6080    -0.4720    -0.0940 C.ar  1 <1>   0.1670 
 15 C       -9.4760    -2.8150    -1.0760 C.3   1 <1>  -0.1600 
 16 C       -8.0350    -0.8420    -1.8620 C.3   1 <1>  -0.1600 
 17 N      -10.5250    -0.6500     0.8300 N.ar  1 <1>  -0.6200 
 18 C       -9.3530     0.7420    -0.6590 C.ar  1 <1>  -0.1430 
 19 C       -8.2350     0.6720    -1.6680 C.3   1 <1>  -0.0170 
 20 C      -11.1960     0.4460     1.1560 C.ar  1 <1>   0.4770 
 21 C      -10.1080     1.8120    -0.2450 C.ar  1 <1>   0.1600 
 22 N      -11.0430     1.6710     0.6710 N.ar  1 <1>  -0.6200 
 23 C      -12.2690     0.2820     2.2040 C.3   1 <1>  -0.0970 
 24 H       -2.7600    -2.5680     0.8220 H     1 <1>   0.0800 
 25 H       -2.8570    -1.9660    -0.8050 H     1 <1>   0.0800 
 26 H       -5.0230    -0.8640    -0.2660 H     1 <1>   0.0800 
 27 H       -4.9280    -1.4860     1.3620 H     1 <1>   0.0800 
 28 H       -7.1150    -1.0400     0.7120 H     1 <1>   0.0800 
 29 H       -8.1900    -2.2600     1.3130 H     1 <1>   0.0800 
 30 H       -7.9780    -4.6630     0.4430 H     1 <1>   0.0800 
 31 H       -6.8020    -5.0060    -0.7920 H     1 <1>   0.0800 
 32 H       -9.0930    -4.8310    -1.7200 H     1 <1>   0.0800 
 33 H       -8.0080    -3.6690    -2.4130 H     1 <1>   0.0800 
 34 H      -10.1610    -2.5780    -1.8710 H     1 <1>   0.0800 
 35 H      -10.0620    -3.1600    -0.2410 H     1 <1>   0.0800 
 36 H       -8.5450    -1.1280    -2.7650 H     1 <1>   0.0800 
 37 H       -6.9960    -1.0950    -1.9740 H     1 <1>   0.0800 
 38 H       -8.5010     1.1570    -2.5910 H     1 <1>   0.0800 
 39 H       -7.3480     1.1250    -1.2590 H     1 <1>   0.0800 
 40 H       -9.9470     2.7900    -0.6640 H     1 <1>   0.1500 
 41 H      -12.0820    -0.5940     2.7970 H     1 <1>   0.0800 
 42 H      -13.2230     0.1850     1.7210 H     1 <1>   0.0800 
 43 H      -12.2860     1.1420     2.8480 H     1 <1>   0.0800 
@<TRIPOS>BOND
  1   1   2  1   
  2   2   3  1   
  3   2   4  1   
  4   2   5  1   
  5   5   6  1   
  6   5  24  1   
  7   5  25  1   
  8   6   7  1   
  9   6  26  1   
 10   6  27  1   
 11   7   8  2   
 12   7   9  am  
 13   9  10  1   
 14   9  11  1   
 15  10  12  1   
 16  10  28  1   
 17  10  29  1   
 18  11  13  1   
 19  11  30  1   
 20  11  31  1   
 21  12  14  1   
 22  12  15  1   
 23  12  16  1   
 24  13  15  1   
 25  13  32  1   
 26  13  33  1   
 27  14  17  ar  
 28  14  18  ar  
 29  15  34  1   
 30  15  35  1   
 31  16  19  1   
 32  16  36  1   
 33  16  37  1   
 34  17  20  ar  
 35  18  19  1   
 36  18  21  ar  
 37  19  38  1   
 38  19  39  1   
 39  20  22  ar  
 40  20  23  1   
 41  21  22  ar  
 42  21  40  1   
 43  23  41  1   
 44  23  42  1   
 45  23  43  1   
@<TRIPOS>SUBSTRUCTURE
  1 ****  10 GROUP 4 **** **** 0

# MOE 2024.06 (io_trps.svl 2023.06)
