@<TRIPOS>MOLECULE
NONAME
50 51 1 0 0 
SMALL
USER_CHARGES


@<TRIPOS>ATOM
  1 S       -2.0360    -0.1250    -1.2770 S.3   1 <1>  -0.0800 
  2 C       -1.3580    -1.3610    -0.2670 C.2   1 <1>   0.4420 
  3 C       -1.0660     1.0120    -0.4070 C.2   1 <1>   0.1980 
  4 N       -0.5210    -0.8830     0.5820 N.2   1 <1>  -0.3380 
  5 N       -1.7810    -2.6500    -0.4950 N.am  1 <1>  -0.4940 
  6 N       -0.3590     0.4700     0.4960 N.2   1 <1>  -0.3380 
  7 C       -1.1430     2.4740    -0.7840 C.3   1 <1>   0.0200 
  8 C       -1.4310    -3.8210     0.1170 C.2   1 <1>   0.5690 
  9 C       -0.1680     3.2630     0.0990 C.3   1 <1>   0.3430 
 10 O       -0.6040    -3.8970     0.9950 O.2   1 <1>  -0.5700 
 11 C       -2.1200    -5.1000    -0.3940 C.3   1 <1>   0.3940 
 12 N       -0.1200     4.7260    -0.2360 N.4   1 <1>  -0.9590 
 13 N       -2.2250    -5.1450    -1.8970 N.3   1 <1>  -0.8100 
 14 C       -3.5000    -5.2040     0.2690 C.ar  1 <1>  -0.1430 
 15 C        1.0380     5.3600     0.4700 C.3   1 <1>   0.2630 
 16 C       -1.3880     5.4400     0.1210 C.3   1 <1>   0.2630 
 17 C       -2.9110    -6.3690    -2.3540 C.3   1 <1>   0.0300 
 18 C       -0.8920    -5.1010    -2.5260 C.3   1 <1>   0.0300 
 19 C       -4.6110    -4.5400    -0.2370 C.ar  1 <1>  -0.1500 
 20 C       -3.6470    -5.9670     1.4180 C.ar  1 <1>  -0.1500 
 21 C       -5.8400    -4.6430     0.3900 C.ar  1 <1>  -0.1500 
 22 C       -4.8770    -6.0710     2.0440 C.ar  1 <1>  -0.1500 
 23 C       -5.9810    -5.4110     1.5330 C.ar  1 <1>  -0.1430 
 24 C       -7.3280    -5.5230     2.2220 C.3   1 <1>  -0.0970 
 25 H       -2.4240    -2.7940    -1.2740 H     1 <1>   0.3700 
 26 H       -2.1520     2.8110    -0.6330 H     1 <1>   0.0800 
 27 H       -0.8760     2.5790    -1.8190 H     1 <1>   0.0800 
 28 H        0.8140     2.8340    -0.0250 H     1 <1>   0.0800 
 29 H       -0.4460     3.1320     1.1340 H     1 <1>   0.0800 
 30 H       -1.5230    -5.9350    -0.0710 H     1 <1>   0.0800 
 31 H        0.0430     4.8250    -1.2510 H     1 <1>   0.4500 
 32 H        0.9170     5.2770     1.5380 H     1 <1>   0.0800 
 33 H        1.1090     6.4050     0.2110 H     1 <1>   0.0800 
 34 H        1.9600     4.8750     0.1900 H     1 <1>   0.0800 
 35 H       -1.5900     5.3410     1.1760 H     1 <1>   0.0800 
 36 H       -2.2200     5.0340    -0.4300 H     1 <1>   0.0800 
 37 H       -1.3050     6.4890    -0.1140 H     1 <1>   0.0800 
 38 H       -3.9240    -6.4010    -1.9910 H     1 <1>   0.0800 
 39 H       -2.3920    -7.2470    -2.0060 H     1 <1>   0.0800 
 40 H       -2.9490    -6.3900    -3.4290 H     1 <1>   0.0800 
 41 H       -0.3780    -4.1880    -2.2790 H     1 <1>   0.0800 
 42 H       -0.9900    -5.1430    -3.5980 H     1 <1>   0.0800 
 43 H       -0.2910    -5.9350    -2.2010 H     1 <1>   0.0800 
 44 H       -4.5250    -3.9450    -1.1280 H     1 <1>   0.1500 
 45 H       -2.8010    -6.4830     1.8400 H     1 <1>   0.1500 
 46 H       -6.6880    -4.1220    -0.0180 H     1 <1>   0.1500 
 47 H       -4.9690    -6.6660     2.9360 H     1 <1>   0.1500 
 48 H       -8.1260    -5.4070     1.5110 H     1 <1>   0.0800 
 49 H       -7.4170    -4.7580     2.9720 H     1 <1>   0.0800 
 50 H       -7.4310    -6.4850     2.6920 H     1 <1>   0.0800 
@<TRIPOS>BOND
  1   1   2  1   
  2   1   3  1   
  3   2   4  2   
  4   2   5  1   
  5   3   6  2   
  6   3   7  1   
  7   4   6  1   
  8   5   8  am  
  9   5  25  1   
 10   7   9  1   
 11   7  26  1   
 12   7  27  1   
 13   8  10  2   
 14   8  11  1   
 15   9  12  1   
 16   9  28  1   
 17   9  29  1   
 18  11  13  1   
 19  11  14  1   
 20  11  30  1   
 21  12  15  1   
 22  12  16  1   
 23  12  31  1   
 24  13  17  1   
 25  13  18  1   
 26  14  19  ar  
 27  14  20  ar  
 28  15  32  1   
 29  15  33  1   
 30  15  34  1   
 31  16  35  1   
 32  16  36  1   
 33  16  37  1   
 34  17  38  1   
 35  17  39  1   
 36  17  40  1   
 37  18  41  1   
 38  18  42  1   
 39  18  43  1   
 40  19  21  ar  
 41  19  44  1   
 42  20  22  ar  
 43  20  45  1   
 44  21  23  ar  
 45  21  46  1   
 46  22  23  ar  
 47  22  47  1   
 48  23  24  1   
 49  24  48  1   
 50  24  49  1   
 51  24  50  1   
@<TRIPOS>SUBSTRUCTURE
  1 ****   5 GROUP 4 **** **** 0

# MOE 2024.06 (io_trps.svl 2023.06)
