@<TRIPOS>MOLECULE
NONAME
54 56 1 0 0 
SMALL
USER_CHARGES


@<TRIPOS>ATOM
  1 O        0.0920     0.1870     1.4070 O.2   1 <1>  -0.5700 
  2 C       -0.7940     0.9300     1.0640 C.2   1 <1>   0.5690 
  3 N       -1.9950     0.4630     0.6120 N.am  1 <1>  -0.6600 
  4 C       -0.5210     2.4140     1.1120 C.3   1 <1>  -0.0990 
  5 C       -3.1710     1.2650     0.1710 C.3   1 <1>   0.1400 
  6 C       -2.2700    -0.9850     0.4320 C.3   1 <1>   0.1400 
  7 C       -0.0800     2.8860    -0.2750 C.3   1 <1>   0.0960 
  8 C       -4.3280     0.2670     0.1740 C.3   1 <1>   0.2000 
  9 C       -3.6580    -1.0530    -0.2150 C.3   1 <1>  -0.0800 
 10 N       -0.1570     4.3550    -0.3600 N.pl3 1 <1>   0.3140 
 11 O       -4.8110     0.1770     1.4720 O.3   1 <1>  -0.6800 
 12 C       -4.4440    -2.3300     0.1340 C.3   1 <1>   0.0210 
 13 N       -1.3350     4.9360    -0.6200 N.2   1 <1>  -0.7070 
 14 C        0.8190     5.2680    -0.1940 C.2   1 <1>  -0.3320 
 15 C       -3.6700    -3.5670    -0.2780 C.2   1 <1>   0.1080 
 16 C       -1.0920     6.2030    -0.6200 C.2   1 <1>   0.1080 
 17 C        0.2510     6.5080    -0.3430 C.2   1 <1>  -0.0860 
 18 C        2.2680     4.8790     0.0830 C.3   1 <1>  -0.0600 
 19 N       -3.3110    -3.7980    -1.5030 N.2   1 <1>  -0.7070 
 20 C       -3.2530    -4.5700     0.5900 C.2   1 <1>  -0.1500 
 21 C       -2.1910     7.2090    -0.8900 C.3   1 <1>  -0.0590 
 22 C        0.7850     7.8440    -0.2490 C.2   1 <1>   0.5950 
 23 N       -2.6500    -4.9700    -1.4470 N.pl3 1 <1>   0.3000 
 24 C       -2.5990    -5.4560    -0.1890 C.2   1 <1>  -0.3320 
 25 O        0.3430     8.7890    -0.8520 O.2   1 <1>  -0.5700 
 26 C        1.9490     8.1290     0.6740 C.3   1 <1>  -0.1790 
 27 C       -1.9190    -6.7570     0.1960 C.3   1 <1>  -0.0600 
 28 H       -1.4030     2.9370     1.4290 H     1 <1>   0.0800 
 29 H        0.2590     2.6060     1.8250 H     1 <1>   0.0800 
 30 H       -3.3720     2.0980     0.8210 H     1 <1>   0.0800 
 31 H       -3.0000     1.6210    -0.8300 H     1 <1>   0.0800 
 32 H       -1.5240    -1.4440    -0.1960 H     1 <1>   0.0800 
 33 H       -2.2660    -1.4670     1.3940 H     1 <1>   0.0800 
 34 H       -0.7330     2.4840    -1.0280 H     1 <1>   0.0800 
 35 H        0.9190     2.5550    -0.4850 H     1 <1>   0.0800 
 36 H       -5.1370     0.5490    -0.4780 H     1 <1>   0.0800 
 37 H       -3.5090    -1.0400    -1.2810 H     1 <1>   0.0800 
 38 H       -4.0500     0.0690     2.0780 H     1 <1>   0.4000 
 39 H       -5.3860    -2.3240    -0.3830 H     1 <1>   0.0800 
 40 H       -4.6430    -2.3770     1.1890 H     1 <1>   0.0800 
 41 H        2.9280     5.7180    -0.0170 H     1 <1>   0.0800 
 42 H        2.5930     4.1330    -0.6200 H     1 <1>   0.0800 
 43 H        2.3610     4.4810     1.0780 H     1 <1>   0.0800 
 44 H       -3.4280    -4.6050     1.6510 H     1 <1>   0.1500 
 45 H       -2.2310     7.9330    -0.0970 H     1 <1>   0.0800 
 46 H       -3.1410     6.7110    -0.9530 H     1 <1>   0.0800 
 47 H       -2.0000     7.7130    -1.8190 H     1 <1>   0.0800 
 48 H       -2.2450    -5.4090    -2.2830 H     1 <1>   0.2700 
 49 H        1.9760     7.4150     1.4750 H     1 <1>   0.0800 
 50 H        1.8370     9.1110     1.0960 H     1 <1>   0.0800 
 51 H        2.8660     8.0950     0.1180 H     1 <1>   0.0800 
 52 H       -2.0160    -6.9250     1.2540 H     1 <1>   0.0800 
 53 H       -0.8730    -6.7160    -0.0500 H     1 <1>   0.0800 
 54 H       -2.3720    -7.5820    -0.3250 H     1 <1>   0.0800 
@<TRIPOS>BOND
  1   1   2  2   
  2   2   3  am  
  3   2   4  1   
  4   3   5  1   
  5   3   6  1   
  6   4   7  1   
  7   4  28  1   
  8   4  29  1   
  9   5   8  1   
 10   5  30  1   
 11   5  31  1   
 12   6   9  1   
 13   6  32  1   
 14   6  33  1   
 15   7  10  1   
 16   7  34  1   
 17   7  35  1   
 18   8   9  1   
 19   8  11  1   
 20   8  36  1   
 21   9  12  1   
 22   9  37  1   
 23  10  13  1   
 24  10  14  1   
 25  11  38  1   
 26  12  15  1   
 27  12  39  1   
 28  12  40  1   
 29  13  16  2   
 30  14  17  2   
 31  14  18  1   
 32  15  19  2   
 33  15  20  1   
 34  16  17  1   
 35  16  21  1   
 36  17  22  1   
 37  18  41  1   
 38  18  42  1   
 39  18  43  1   
 40  19  23  1   
 41  20  24  2   
 42  20  44  1   
 43  21  45  1   
 44  21  46  1   
 45  21  47  1   
 46  22  25  2   
 47  22  26  1   
 48  23  24  1   
 49  23  48  1   
 50  24  27  1   
 51  26  49  1   
 52  26  50  1   
 53  26  51  1   
 54  27  52  1   
 55  27  53  1   
 56  27  54  1   
@<TRIPOS>SUBSTRUCTURE
  1 ****   3 GROUP 4 **** **** 0

# MOE 2024.06 (io_trps.svl 2023.06)
