@<TRIPOS>MOLECULE
NONAME
44 46 1 0 0 
SMALL
USER_CHARGES


@<TRIPOS>ATOM
  1 O       -1.1820     0.4740     2.8460 O.2   1 <1>  -0.5700 
  2 C       -1.5500     1.0780     1.8660 C.2   1 <1>   0.5690 
  3 N       -2.5960     0.6230     1.1080 N.am  1 <1>  -0.6600 
  4 C       -0.8240     2.3710     1.5120 C.3   1 <1>   0.0440 
  5 C       -3.1360     1.2540    -0.1230 C.3   1 <1>   0.1400 
  6 C       -3.2070    -0.7140     1.3130 C.3   1 <1>   0.1400 
  7 C       -0.2520     2.3820     0.0890 C.ar  1 <1>  -0.1440 
  8 C       -4.3870     0.4420    -0.4490 C.3   1 <1>   0.2000 
  9 C       -4.0730    -0.9650     0.0680 C.3   1 <1>  -0.0800 
 10 C       -0.4280     3.4490    -0.7910 C.ar  1 <1>  -0.1440 
 11 C        0.4640     1.2680    -0.3300 C.ar  1 <1>  -0.1500 
 12 O       -5.4420     0.9450     0.2950 O.3   1 <1>  -0.6800 
 13 C       -3.3240    -1.7840    -1.0030 C.3   1 <1>  -0.0170 
 14 C        0.0990     3.3690    -2.0720 C.ar  1 <1>  -0.1500 
 15 C       -1.1770     4.7160    -0.4000 C.3   1 <1>  -0.0970 
 16 C        0.9870     1.1990    -1.6070 C.ar  1 <1>  -0.1500 
 17 C       -3.1270    -3.2320    -0.5820 C.ar  1 <1>   0.1670 
 18 C        0.8020     2.2510    -2.4820 C.ar  1 <1>  -0.1500 
 19 N       -1.9610    -3.5420    -0.0400 N.ar  1 <1>  -0.6200 
 20 C       -4.1530    -4.1560    -0.7780 C.ar  1 <1>   0.1600 
 21 C       -1.8900    -4.8190     0.2940 C.ar  1 <1>   0.1600 
 22 N       -4.0850    -5.4340    -0.4450 N.ar  1 <1>  -0.6200 
 23 C       -2.9180    -5.7340     0.0990 C.ar  1 <1>   0.1600 
 24 H       -1.5140     3.1740     1.6720 H     1 <1>   0.0800 
 25 H       -0.0120     2.5050     2.2020 H     1 <1>   0.0800 
 26 H       -3.3620     2.2960     0.0230 H     1 <1>   0.0800 
 27 H       -2.4180     1.1480    -0.9180 H     1 <1>   0.0800 
 28 H       -2.4420    -1.4600     1.4470 H     1 <1>   0.0800 
 29 H       -3.8190    -0.6850     2.1980 H     1 <1>   0.0800 
 30 H       -4.6590     0.4800    -1.4900 H     1 <1>   0.0800 
 31 H       -4.9780    -1.4860     0.3290 H     1 <1>   0.0800 
 32 H        0.6190     0.4380     0.3400 H     1 <1>   0.1500 
 33 H       -5.1550     1.0300     1.2270 H     1 <1>   0.4000 
 34 H       -2.3630    -1.3420    -1.2060 H     1 <1>   0.0800 
 35 H       -3.8840    -1.7700    -1.9210 H     1 <1>   0.0800 
 36 H       -0.0300     4.1820    -2.7640 H     1 <1>   0.1500 
 37 H       -1.1170     5.4560    -1.1770 H     1 <1>   0.0800 
 38 H       -0.7480     5.1370     0.4920 H     1 <1>   0.0800 
 39 H       -2.2140     4.4960    -0.2240 H     1 <1>   0.0800 
 40 H        1.5370     0.3270    -1.9170 H     1 <1>   0.1500 
 41 H        1.2070     2.2030    -3.4770 H     1 <1>   0.1500 
 42 H       -5.0710    -3.8230    -1.2270 H     1 <1>   0.1500 
 43 H       -0.9750    -5.1580     0.7450 H     1 <1>   0.1500 
 44 H       -2.7650    -6.7540     0.4040 H     1 <1>   0.1500 
@<TRIPOS>BOND
  1   1   2  2   
  2   2   3  am  
  3   2   4  1   
  4   3   5  1   
  5   3   6  1   
  6   4   7  1   
  7   4  24  1   
  8   4  25  1   
  9   5   8  1   
 10   5  26  1   
 11   5  27  1   
 12   6   9  1   
 13   6  28  1   
 14   6  29  1   
 15   7  10  ar  
 16   7  11  ar  
 17   8   9  1   
 18   8  12  1   
 19   8  30  1   
 20   9  13  1   
 21   9  31  1   
 22  10  14  ar  
 23  10  15  1   
 24  11  16  ar  
 25  11  32  1   
 26  12  33  1   
 27  13  17  1   
 28  13  34  1   
 29  13  35  1   
 30  14  18  ar  
 31  14  36  1   
 32  15  37  1   
 33  15  38  1   
 34  15  39  1   
 35  16  18  ar  
 36  16  40  1   
 37  17  19  ar  
 38  17  20  ar  
 39  18  41  1   
 40  19  21  ar  
 41  20  22  ar  
 42  20  42  1   
 43  21  23  ar  
 44  21  43  1   
 45  22  23  ar  
 46  23  44  1   
@<TRIPOS>SUBSTRUCTURE
  1 ****   3 GROUP 4 **** **** 0

# MOE 2024.06 (io_trps.svl 2023.06)
