@<TRIPOS>MOLECULE
NONAME
59 62 1 0 0 
SMALL
USER_CHARGES


@<TRIPOS>ATOM
  1 O       -3.1580     2.2090    -0.7180 O.2   1 <1>  -0.5700 
  2 C       -2.4900     1.6320     0.1070 C.2   1 <1>   0.5690 
  3 N       -2.2640     0.2950     0.0190 N.am  1 <1>  -0.7300 
  4 C       -1.8940     2.4200     1.2820 C.3   1 <1>   0.1710 
  5 C       -2.7040    -0.5730    -1.0970 C.3   1 <1>   0.2200 
  6 N       -0.4890     2.8850     1.1150 N.3   1 <1>  -0.8100 
  7 C       -3.8100    -1.5220    -0.6550 C.3   1 <1>  -0.0800 
  8 C       -1.5930    -1.5640    -1.4080 C.3   1 <1>   0.1200 
  9 C       -0.3730     3.8160    -0.0270 C.3   1 <1>   0.2530 
 10 C        0.4720     1.7760     1.0210 C.3   1 <1>   0.0300 
 11 C       -3.0390    -2.7050    -0.0550 C.3   1 <1>   0.1200 
 12 C       -4.8750    -0.9220     0.2840 C.3   1 <1>  -0.0160 
 13 O       -1.6980    -2.5370    -0.4160 O.3   1 <1>  -0.5600 
 14 C        1.0060     4.4630    -0.0870 C.ar  1 <1>  -0.1440 
 15 C       -5.9990    -1.9210     0.5440 C.ar  1 <1>  -0.1440 
 16 C        1.7580     4.4130    -1.2510 C.ar  1 <1>  -0.1500 
 17 C        1.5240     5.1150     1.0210 C.ar  1 <1>  -0.1500 
 18 C       -7.0250    -2.1690    -0.3990 C.ar  1 <1>   0.0000 
 19 C       -6.0380    -2.6190     1.7160 C.ar  1 <1>  -0.1500 
 20 C        3.0080     5.0060    -1.3040 C.ar  1 <1>  -0.1500 
 21 C        2.7730     5.7070     0.9690 C.ar  1 <1>  -0.1500 
 22 C       -8.0020    -3.1390    -0.0670 C.ar  1 <1>   0.3100 
 23 C       -7.1410    -1.5120    -1.6470 C.ar  1 <1>  -0.1500 
 24 C       -7.0560    -3.5510     1.9480 C.ar  1 <1>   0.1600 
 25 C        3.5240     5.6550    -0.1940 C.ar  1 <1>  -0.1440 
 26 N       -8.0030    -3.8190     1.1070 N.ar  1 <1>  -0.6200 
 27 C       -9.0230    -3.4180    -0.9890 C.ar  1 <1>  -0.1500 
 28 C       -8.1510    -1.8060    -2.5220 C.ar  1 <1>  -0.1500 
 29 C        4.8930     6.3060    -0.2520 C.3   1 <1>  -0.0970 
 30 C       -9.1040    -2.7720    -2.1930 C.ar  1 <1>  -0.1500 
 31 H       -1.6820    -0.1830     0.7100 H     1 <1>   0.3700 
 32 H       -1.9530     1.8110     2.1660 H     1 <1>   0.0800 
 33 H       -2.5190     3.2780     1.4520 H     1 <1>   0.0800 
 34 H       -2.9790     0.0170    -1.9550 H     1 <1>   0.0800 
 35 H       -4.3010    -1.8830    -1.5410 H     1 <1>   0.0800 
 36 H       -0.6140    -1.1190    -1.3820 H     1 <1>   0.0800 
 37 H       -1.7570    -2.0400    -2.3600 H     1 <1>   0.0800 
 38 H       -0.5720     3.2930    -0.9470 H     1 <1>   0.0800 
 39 H       -1.1070     4.5960     0.0750 H     1 <1>   0.0800 
 40 H        1.4790     2.1580     1.0610 H     1 <1>   0.0800 
 41 H        0.3460     1.2380     0.0970 H     1 <1>   0.0800 
 42 H        0.3410     1.1020     1.8490 H     1 <1>   0.0800 
 43 H       -3.3910    -3.6460    -0.4450 H     1 <1>   0.0800 
 44 H       -3.0890    -2.7170     1.0190 H     1 <1>   0.0800 
 45 H       -5.2760    -0.0190    -0.1400 H     1 <1>   0.0800 
 46 H       -4.4220    -0.6490     1.2210 H     1 <1>   0.0800 
 47 H        1.3740     3.9130    -2.1220 H     1 <1>   0.1500 
 48 H        0.9480     5.1520     1.9300 H     1 <1>   0.1500 
 49 H       -5.2980    -2.4790     2.4820 H     1 <1>   0.1500 
 50 H        3.5780     4.9600    -2.2150 H     1 <1>   0.1500 
 51 H        3.1570     6.2080     1.8400 H     1 <1>   0.1500 
 52 H       -6.4230    -0.7620    -1.9190 H     1 <1>   0.1500 
 53 H       -7.0490    -4.0810     2.8860 H     1 <1>   0.1500 
 54 H       -9.7470    -4.1620    -0.7130 H     1 <1>   0.1500 
 55 H       -8.2260    -1.2990    -3.4690 H     1 <1>   0.1500 
 56 H        5.5270     5.7880    -0.9490 H     1 <1>   0.0800 
 57 H        5.3620     6.2800     0.7150 H     1 <1>   0.0800 
 58 H        4.7950     7.3300    -0.5650 H     1 <1>   0.0800 
 59 H       -9.8930    -2.9950    -2.8900 H     1 <1>   0.1500 
@<TRIPOS>BOND
  1   1   2  2   
  2   2   3  am  
  3   2   4  1   
  4   3   5  1   
  5   3  31  1   
  6   4   6  1   
  7   4  32  1   
  8   4  33  1   
  9   5   7  1   
 10   5   8  1   
 11   5  34  1   
 12   6   9  1   
 13   6  10  1   
 14   7  11  1   
 15   7  12  1   
 16   7  35  1   
 17   8  13  1   
 18   8  36  1   
 19   8  37  1   
 20   9  14  1   
 21   9  38  1   
 22   9  39  1   
 23  10  40  1   
 24  10  41  1   
 25  10  42  1   
 26  11  13  1   
 27  11  43  1   
 28  11  44  1   
 29  12  15  1   
 30  12  45  1   
 31  12  46  1   
 32  14  16  ar  
 33  14  17  ar  
 34  15  18  ar  
 35  15  19  ar  
 36  16  20  ar  
 37  16  47  1   
 38  17  21  ar  
 39  17  48  1   
 40  18  22  ar  
 41  18  23  ar  
 42  19  24  ar  
 43  19  49  1   
 44  20  25  ar  
 45  20  50  1   
 46  21  25  ar  
 47  21  51  1   
 48  22  26  ar  
 49  22  27  ar  
 50  23  28  ar  
 51  23  52  1   
 52  24  26  ar  
 53  24  53  1   
 54  25  29  1   
 55  27  30  ar  
 56  27  54  1   
 57  28  30  ar  
 58  28  55  1   
 59  29  56  1   
 60  29  57  1   
 61  29  58  1   
 62  30  59  1   
@<TRIPOS>SUBSTRUCTURE
  1 ****   3 GROUP 4 **** **** 0

# MOE 2024.06 (io_trps.svl 2023.06)
