@<TRIPOS>MOLECULE
NONAME
51 53 1 0 0 
SMALL
USER_CHARGES


@<TRIPOS>ATOM
  1 O       -1.8380     0.5200    -2.2480 O.2   1 <1>  -0.5700 
  2 C       -1.8130     0.9290    -1.1040 C.2   1 <1>   0.5440 
  3 N       -2.0050     0.0280    -0.0970 N.am  1 <1>  -0.7300 
  4 C       -1.5790     2.3370    -0.8210 C.ar  1 <1>   0.0860 
  5 C       -2.2620    -1.4170    -0.2820 C.3   1 <1>   0.2200 
  6 C       -0.9980     3.1680    -1.7790 C.ar  1 <1>  -0.1500 
  7 C       -1.9200     2.9230     0.3990 C.ar  1 <1>  -0.1500 
  8 C       -3.7460    -1.6820    -0.0930 C.3   1 <1>  -0.0800 
  9 C       -1.6620    -2.1870     0.8860 C.3   1 <1>   0.1200 
 10 C       -0.7550     4.5070    -1.5340 C.ar  1 <1>  -0.1500 
 11 C       -1.6790     4.2610     0.6550 C.ar  1 <1>  -0.1500 
 12 C       -3.8680    -1.8500     1.4280 C.3   1 <1>   0.1200 
 13 C       -4.1960    -2.9390    -0.8610 C.3   1 <1>  -0.0160 
 14 O       -2.5760    -2.0440     1.9300 O.3   1 <1>  -0.5600 
 15 C       -1.0870     5.0640    -0.3090 C.ar  1 <1>  -0.1430 
 16 C       -5.6880    -3.1850    -0.6960 C.ar  1 <1>  -0.1430 
 17 C       -0.8090     6.5290    -0.0300 C.3   1 <1>   0.4860 
 18 C       -6.1850    -4.1960     0.1020 C.ar  1 <1>  -0.1500 
 19 C       -6.6240    -2.4040    -1.3430 C.ar  1 <1>  -0.1500 
 20 N        0.3960     6.6280     0.8430 N.4   1 <1>  -0.9590 
 21 C       -7.5540    -4.3670     0.2170 C.ar  1 <1>   0.1600 
 22 C       -7.9730    -2.6590    -1.1610 C.ar  1 <1>   0.1600 
 23 C        0.5710     8.0130     1.3780 C.3   1 <1>   0.2630 
 24 C        1.6310     6.1620     0.1360 C.3   1 <1>   0.2630 
 25 N       -8.4610    -3.6210    -0.3940 N.ar  1 <1>  -0.6200 
 26 H       -1.9870     0.3150     0.8820 H     1 <1>   0.3700 
 27 H       -1.8820    -1.7520    -1.2340 H     1 <1>   0.0800 
 28 H       -0.7370     2.7480    -2.7370 H     1 <1>   0.1500 
 29 H       -2.3910     2.3270     1.1610 H     1 <1>   0.1500 
 30 H       -4.3320    -0.8470    -0.4350 H     1 <1>   0.0800 
 31 H       -0.7020    -1.8070     1.1870 H     1 <1>   0.0800 
 32 H       -1.5850    -3.2350     0.6560 H     1 <1>   0.0800 
 33 H       -0.3090     5.1030    -2.3130 H     1 <1>   0.1500 
 34 H       -1.9670     4.6660     1.6110 H     1 <1>   0.1500 
 35 H       -4.4760    -2.6920     1.7080 H     1 <1>   0.0800 
 36 H       -4.2640    -0.9590     1.8820 H     1 <1>   0.0800 
 37 H       -3.6470    -3.8010    -0.5230 H     1 <1>   0.0800 
 38 H       -3.9840    -2.8100    -1.9090 H     1 <1>   0.0800 
 39 H       -1.6630     6.9620     0.4650 H     1 <1>   0.0800 
 40 H       -0.6470     7.0580    -0.9550 H     1 <1>   0.0800 
 41 H       -5.5230    -4.8520     0.6370 H     1 <1>   0.1500 
 42 H       -6.3170    -1.5990    -1.9870 H     1 <1>   0.1500 
 43 H        0.2300     5.9820     1.6290 H     1 <1>   0.4500 
 44 H       -7.9240    -5.1590     0.8450 H     1 <1>   0.1500 
 45 H       -8.6890    -2.0390    -1.6730 H     1 <1>   0.1500 
 46 H        0.7380     8.7090     0.5720 H     1 <1>   0.0800 
 47 H        1.4180     8.0510     2.0450 H     1 <1>   0.0800 
 48 H       -0.3070     8.3190     1.9230 H     1 <1>   0.0800 
 49 H        1.8290     6.7800    -0.7250 H     1 <1>   0.0800 
 50 H        1.5120     5.1410    -0.1920 H     1 <1>   0.0800 
 51 H        2.4820     6.2090     0.7970 H     1 <1>   0.0800 
@<TRIPOS>BOND
  1   1   2  2   
  2   2   3  am  
  3   2   4  1   
  4   3   5  1   
  5   3  26  1   
  6   4   6  ar  
  7   4   7  ar  
  8   5   8  1   
  9   5   9  1   
 10   5  27  1   
 11   6  10  ar  
 12   6  28  1   
 13   7  11  ar  
 14   7  29  1   
 15   8  12  1   
 16   8  13  1   
 17   8  30  1   
 18   9  14  1   
 19   9  31  1   
 20   9  32  1   
 21  10  15  ar  
 22  10  33  1   
 23  11  15  ar  
 24  11  34  1   
 25  12  14  1   
 26  12  35  1   
 27  12  36  1   
 28  13  16  1   
 29  13  37  1   
 30  13  38  1   
 31  15  17  1   
 32  16  18  ar  
 33  16  19  ar  
 34  17  20  1   
 35  17  39  1   
 36  17  40  1   
 37  18  21  ar  
 38  18  41  1   
 39  19  22  ar  
 40  19  42  1   
 41  20  23  1   
 42  20  24  1   
 43  20  43  1   
 44  21  25  ar  
 45  21  44  1   
 46  22  25  ar  
 47  22  45  1   
 48  23  46  1   
 49  23  47  1   
 50  23  48  1   
 51  24  49  1   
 52  24  50  1   
 53  24  51  1   
@<TRIPOS>SUBSTRUCTURE
  1 ****   3 GROUP 4 **** **** 0

# MOE 2024.06 (io_trps.svl 2023.06)
