@<TRIPOS>MOLECULE
NONAME
62 64 1 0 0 
SMALL
USER_CHARGES


@<TRIPOS>ATOM
  1 O        4.4280    -0.2190    -0.8890 O.2   1 <1>  -0.5700 
  2 C        3.3460    -0.7690    -0.9880 C.2   1 <1>   0.7800 
  3 O        2.8660    -1.0170    -2.2080 O.3   1 <1>  -0.4300 
  4 N        2.5590    -1.1220     0.0830 N.am  1 <1>  -0.6600 
  5 C        3.6200    -0.7680    -3.3780 C.3   1 <1>   0.0400 
  6 C        3.1110    -1.4940     1.4400 C.3   1 <1>   0.2810 
  7 C        1.1860    -1.6650    -0.1300 C.3   1 <1>   0.1400 
  8 C        4.4180    -0.7860     1.8770 C.2   1 <1>   0.5690 
  9 C        3.2110    -3.0310     1.4990 C.3   1 <1>  -0.1600 
 10 C        1.2380    -3.1960    -0.0820 C.3   1 <1>  -0.1600 
 11 O        5.4630    -1.3950     1.7900 O.2   1 <1>  -0.5700 
 12 N        4.4200     0.5100     2.3570 N.am  1 <1>  -0.6600 
 13 C        1.8550    -3.7050     1.2290 C.3   1 <1>  -0.1600 
 14 C        5.7390     1.1650     2.5810 C.3   1 <1>   0.1400 
 15 C        3.2330     1.4040     2.4460 C.3   1 <1>   0.1400 
 16 C        6.3470     1.5130     1.2150 C.3   1 <1>   0.3430 
 17 C        3.4770     2.7470     1.7450 C.3   1 <1>  -0.1600 
 18 N        5.6390     2.6040     0.4530 N.4   1 <1>  -0.9590 
 19 C        4.1480     2.5850     0.3810 C.3   1 <1>   0.3430 
 20 C        6.1960     2.6060    -0.9210 C.3   1 <1>   0.5240 
 21 C        7.5810     3.2290    -0.8350 C.2   1 <1>   0.0460 
 22 N        7.7610     4.3380    -0.0850 N.2   1 <1>  -0.5650 
 23 C        8.7460     2.8290    -1.3950 C.2   1 <1>  -0.3320 
 24 C        9.0200     4.6020    -0.2150 C.2   1 <1>   0.0060 
 25 N        9.6750     3.7200    -1.0000 N.pl3 1 <1>   0.0330 
 26 C        9.0720     1.6490    -2.2970 C.3   1 <1>  -0.0600 
 27 C        9.7140     5.7830     0.4420 C.3   1 <1>   0.0200 
 28 C       10.1680     6.8140    -0.5970 C.3   1 <1>  -0.2400 
 29 H        3.0410    -1.0830    -4.2280 H     1 <1>   0.0800 
 30 H        4.5360    -1.3320    -3.3270 H     1 <1>   0.0800 
 31 H        3.8290     0.2850    -3.4430 H     1 <1>   0.0800 
 32 H        2.3760    -1.2170     2.1720 H     1 <1>   0.0800 
 33 H        0.7840    -1.3410    -1.0750 H     1 <1>   0.0800 
 34 H        0.5340    -1.2980     0.6440 H     1 <1>   0.0800 
 35 H        3.5680    -3.3290     2.4700 H     1 <1>   0.0800 
 36 H        3.9350    -3.3630     0.7750 H     1 <1>   0.0800 
 37 H        1.8170    -3.5510    -0.9180 H     1 <1>   0.0800 
 38 H        0.2430    -3.5900    -0.1880 H     1 <1>   0.0800 
 39 H        1.1840    -3.4940     2.0430 H     1 <1>   0.0800 
 40 H        1.9850    -4.7730     1.1780 H     1 <1>   0.0800 
 41 H        6.3940     0.4740     3.0850 H     1 <1>   0.0800 
 42 H        5.6510     2.0370     3.2040 H     1 <1>   0.0800 
 43 H        2.9950     1.5730     3.4830 H     1 <1>   0.0800 
 44 H        2.3810     0.9330     1.9880 H     1 <1>   0.0800 
 45 H        6.3510     0.6100     0.6260 H     1 <1>   0.0800 
 46 H        7.3750     1.8050     1.3620 H     1 <1>   0.0800 
 47 H        4.0380     3.4200     2.3690 H     1 <1>   0.0800 
 48 H        2.5150     3.2020     1.5920 H     1 <1>   0.0800 
 49 H        5.9770     3.5090     0.8220 H     1 <1>   0.4500 
 50 H        3.8270     3.4010    -0.2480 H     1 <1>   0.0800 
 51 H        3.8040     1.6740    -0.0710 H     1 <1>   0.0800 
 52 H        5.5880     3.2160    -1.5670 H     1 <1>   0.0800 
 53 H        6.2420     1.6050    -1.3190 H     1 <1>   0.0800 
 54 H       10.6710     3.7420    -1.2430 H     1 <1>   0.2700 
 55 H        8.1970     1.0540    -2.4850 H     1 <1>   0.0800 
 56 H        9.8150     1.0230    -1.8340 H     1 <1>   0.0800 
 57 H        9.4550     1.9990    -3.2400 H     1 <1>   0.0800 
 58 H       10.5600     5.4340     1.0070 H     1 <1>   0.0800 
 59 H        9.0300     6.2520     1.1280 H     1 <1>   0.0800 
 60 H       10.8860     6.3850    -1.2720 H     1 <1>   0.0800 
 61 H       10.6180     7.6580    -0.1060 H     1 <1>   0.0800 
 62 H        9.3210     7.1590    -1.1650 H     1 <1>   0.0800 
@<TRIPOS>BOND
  1   1   2  2   
  2   2   3  1   
  3   2   4  am  
  4   3   5  1   
  5   4   6  1   
  6   4   7  1   
  7   5  29  1   
  8   5  30  1   
  9   5  31  1   
 10   6   8  1   
 11   6   9  1   
 12   6  32  1   
 13   7  10  1   
 14   7  33  1   
 15   7  34  1   
 16   8  11  2   
 17   8  12  am  
 18   9  13  1   
 19   9  35  1   
 20   9  36  1   
 21  10  13  1   
 22  10  37  1   
 23  10  38  1   
 24  12  14  1   
 25  12  15  1   
 26  13  39  1   
 27  13  40  1   
 28  14  16  1   
 29  14  41  1   
 30  14  42  1   
 31  15  17  1   
 32  15  43  1   
 33  15  44  1   
 34  16  18  1   
 35  16  45  1   
 36  16  46  1   
 37  17  19  1   
 38  17  47  1   
 39  17  48  1   
 40  18  19  1   
 41  18  20  1   
 42  18  49  1   
 43  19  50  1   
 44  19  51  1   
 45  20  21  1   
 46  20  52  1   
 47  20  53  1   
 48  21  22  1   
 49  21  23  2   
 50  22  24  2   
 51  23  25  1   
 52  23  26  1   
 53  24  25  1   
 54  24  27  1   
 55  25  54  1   
 56  26  55  1   
 57  26  56  1   
 58  26  57  1   
 59  27  28  1   
 60  27  58  1   
 61  27  59  1   
 62  28  60  1   
 63  28  61  1   
 64  28  62  1   
@<TRIPOS>SUBSTRUCTURE
  1 ****  16 GROUP 4 **** **** 0

# MOE 2024.06 (io_trps.svl 2023.06)
