@<TRIPOS>MOLECULE
NONAME
48 49 1 0 0 
SMALL
USER_CHARGES


@<TRIPOS>ATOM
  1 S        1.6230     0.6680    -0.6940 S.o2  1 <1>   1.3330 
  2 O        0.5650     1.2960    -1.4520 O.2   1 <1>  -0.6500 
  3 O        1.5910    -0.7610    -0.4750 O.2   1 <1>  -0.6500 
  4 N        1.6600     1.4210     0.8280 N.am  1 <1>  -0.8490 
  5 C        3.2030     1.0800    -1.4350 C.3   1 <1>  -0.0550 
  6 C        0.6600     0.8560     1.7380 C.3   1 <1>   0.1160 
  7 C        1.5020     2.8800     0.7610 C.3   1 <1>   0.1160 
  8 C        4.4250     0.4070    -0.7670 C.3   1 <1>  -0.0800 
  9 C        5.7560     0.7000    -1.4430 C.3   1 <1>   0.2200 
 10 C        4.6880     0.8400     0.6800 C.3   1 <1>   0.1200 
 11 N        5.8280     2.1320    -1.7890 N.am  1 <1>  -0.7300 
 12 C        6.7240     0.4150    -0.3020 C.3   1 <1>   0.1200 
 13 O        6.0750     0.8400     0.8600 O.3   1 <1>  -0.5600 
 14 C        5.8670     2.6840    -3.0240 C.2   1 <1>   0.5690 
 15 O        6.0100     2.0120    -4.0170 O.2   1 <1>  -0.5700 
 16 C        5.6790     4.2000    -3.1580 C.3   1 <1>   0.2010 
 17 N        6.1870     5.0030    -1.9910 N.am  1 <1>  -0.7300 
 18 C        5.5880     5.0810    -0.7650 C.2   1 <1>   0.5440 
 19 O        4.5890     4.4150    -0.5690 O.2   1 <1>  -0.5700 
 20 C        6.1650     5.8970     0.2870 C.ar  1 <1>   0.0860 
 21 C        6.1540     5.4660     1.6140 C.ar  1 <1>  -0.1500 
 22 C        6.7570     7.1320     0.0150 C.ar  1 <1>  -0.1500 
 23 C        6.7160     6.2270     2.6240 C.ar  1 <1>  -0.1500 
 24 C        7.3200     7.8970     1.0210 C.ar  1 <1>  -0.1500 
 25 C        7.3010     7.4450     2.3280 C.ar  1 <1>  -0.1500 
 26 H        3.1820     0.7740    -2.4630 H     1 <1>   0.0800 
 27 H        3.3200     2.1450    -1.4260 H     1 <1>   0.0800 
 28 H        0.7220     1.3310     2.7010 H     1 <1>   0.0800 
 29 H        0.8380    -0.1980     1.8700 H     1 <1>   0.0800 
 30 H       -0.3300     0.9920     1.3350 H     1 <1>   0.0800 
 31 H        1.5920     3.3070     1.7460 H     1 <1>   0.0800 
 32 H        0.5380     3.1380     0.3540 H     1 <1>   0.0800 
 33 H        2.2670     3.3140     0.1400 H     1 <1>   0.0800 
 34 H        4.2730    -0.6590    -0.7670 H     1 <1>   0.0800 
 35 H        5.9410     0.0850    -2.3080 H     1 <1>   0.0800 
 36 H        4.2390     0.1680     1.3910 H     1 <1>   0.0800 
 37 H        4.3430     1.8440     0.8610 H     1 <1>   0.0800 
 38 H        5.6320     2.7660    -1.0010 H     1 <1>   0.3700 
 39 H        7.6570     0.9390    -0.4090 H     1 <1>   0.0800 
 40 H        6.9020    -0.6420    -0.2100 H     1 <1>   0.0800 
 41 H        4.6270     4.3900    -3.2760 H     1 <1>   0.0800 
 42 H        6.1740     4.5270    -4.0530 H     1 <1>   0.0800 
 43 H        7.1320     5.3780    -2.0970 H     1 <1>   0.3700 
 44 H        5.7010     4.5190     1.8520 H     1 <1>   0.1500 
 45 H        6.7710     7.5030    -0.9940 H     1 <1>   0.1500 
 46 H        6.6980     5.8730     3.6400 H     1 <1>   0.1500 
 47 H        7.7720     8.8470     0.7900 H     1 <1>   0.1500 
 48 H        7.7390     8.0380     3.1130 H     1 <1>   0.1500 
@<TRIPOS>BOND
  1   1   2  2   
  2   1   3  2   
  3   1   4  am  
  4   1   5  1   
  5   4   6  1   
  6   4   7  1   
  7   5   8  1   
  8   5  26  1   
  9   5  27  1   
 10   6  28  1   
 11   6  29  1   
 12   6  30  1   
 13   7  31  1   
 14   7  32  1   
 15   7  33  1   
 16   8   9  1   
 17   8  10  1   
 18   8  34  1   
 19   9  11  1   
 20   9  12  1   
 21   9  35  1   
 22  10  13  1   
 23  10  36  1   
 24  10  37  1   
 25  11  14  am  
 26  11  38  1   
 27  12  13  1   
 28  12  39  1   
 29  12  40  1   
 30  14  15  2   
 31  14  16  1   
 32  16  17  1   
 33  16  41  1   
 34  16  42  1   
 35  17  18  am  
 36  17  43  1   
 37  18  19  2   
 38  18  20  1   
 39  20  21  ar  
 40  20  22  ar  
 41  21  23  ar  
 42  21  44  1   
 43  22  24  ar  
 44  22  45  1   
 45  23  25  ar  
 46  23  46  1   
 47  24  25  ar  
 48  24  47  1   
 49  25  48  1   
@<TRIPOS>SUBSTRUCTURE
  1 ****  19 GROUP 4 **** **** 0

# MOE 2024.06 (io_trps.svl 2023.06)
