@<TRIPOS>MOLECULE
NONAME
52 54 1 0 0 
SMALL
USER_CHARGES


@<TRIPOS>ATOM
  1 O       -0.9890     0.8480    -2.0020 O.2   1 <1>  -0.5700 
  2 C       -1.8920     1.2480    -1.2960 C.2   1 <1>   0.5440 
  3 N       -2.9350     0.4000    -0.9770 N.am  1 <1>  -0.6600 
  4 C       -1.8500     2.6090    -0.8100 C.ar  1 <1>   0.0860 
  5 C       -2.9810    -1.0190    -1.4670 C.3   1 <1>   0.1400 
  6 C       -4.1730     0.8640    -0.2900 C.3   1 <1>   0.1400 
  7 C       -1.3770     2.9320     0.4650 C.ar  1 <1>   0.1660 
  8 C       -2.3120     3.6490    -1.6040 C.ar  1 <1>  -0.1500 
  9 C       -3.2820    -2.0160    -0.3210 C.3   1 <1>   0.0000 
 10 C       -4.5020    -0.0720     0.8710 C.3   1 <1>  -0.1600 
 11 N       -1.3780     4.1500     0.9820 N.ar  1 <1>  -0.6200 
 12 C       -0.8120     1.8570     1.3800 C.3   1 <1>  -0.0970 
 13 C       -2.3000     4.9210    -1.0790 C.ar  1 <1>  -0.1500 
 14 C       -4.5770    -1.5170     0.3760 C.3   1 <1>   0.2000 
 15 C       -3.6010    -3.4090    -0.9180 C.3   1 <1>   0.1200 
 16 C       -2.0850    -2.0840     0.6810 C.3   1 <1>  -0.0170 
 17 C       -1.8320     5.1200     0.2090 C.ar  1 <1>   0.1670 
 18 O       -4.9160    -2.3210     1.4520 O.3   1 <1>  -0.6800 
 19 O       -2.6570    -3.7980    -1.8590 O.3   1 <1>  -0.6800 
 20 C       -0.8480    -2.8230     0.1810 C.ar  1 <1>  -0.1430 
 21 C       -1.8140     6.5090     0.8110 C.3   1 <1>  -0.0970 
 22 C       -0.6690    -4.1660     0.4830 C.ar  1 <1>  -0.1500 
 23 C        0.1100    -2.1700    -0.5790 C.ar  1 <1>  -0.1500 
 24 C        0.4430    -4.8480     0.0200 C.ar  1 <1>  -0.1500 
 25 C        1.2210    -2.8500    -1.0440 C.ar  1 <1>  -0.1500 
 26 C        1.3880    -4.1900    -0.7470 C.ar  1 <1>  -0.1500 
 27 H       -3.7510    -1.0930    -2.2160 H     1 <1>   0.0800 
 28 H       -2.0560    -1.2830    -1.9480 H     1 <1>   0.0800 
 29 H       -4.0640     1.8680     0.0830 H     1 <1>   0.0800 
 30 H       -4.9830     0.8620    -1.0000 H     1 <1>   0.0800 
 31 H       -2.6680     3.4540    -2.6010 H     1 <1>   0.1500 
 32 H       -5.4540     0.2150     1.2830 H     1 <1>   0.0800 
 33 H       -3.7550     0.0390     1.6350 H     1 <1>   0.0800 
 34 H       -0.3100     1.0910     0.8180 H     1 <1>   0.0800 
 35 H       -1.6050     1.4180     1.9540 H     1 <1>   0.0800 
 36 H       -0.0980     2.2910     2.0570 H     1 <1>   0.0800 
 37 H       -2.6510     5.7510    -1.6660 H     1 <1>   0.1500 
 38 H       -5.3930    -1.5890    -0.3250 H     1 <1>   0.0800 
 39 H       -4.5530    -3.3980    -1.4210 H     1 <1>   0.0800 
 40 H       -3.6370    -4.1580    -0.1450 H     1 <1>   0.0800 
 41 H       -1.7890    -1.0910     0.9630 H     1 <1>   0.0800 
 42 H       -2.3990    -2.5750     1.5840 H     1 <1>   0.0800 
 43 H       -4.3250    -2.1460     2.2090 H     1 <1>   0.4000 
 44 H       -1.7560    -3.7680    -1.4580 H     1 <1>   0.4000 
 45 H       -2.1980     7.2380     0.1220 H     1 <1>   0.0800 
 46 H       -0.8050     6.7730     1.0710 H     1 <1>   0.0800 
 47 H       -2.4140     6.5210     1.7020 H     1 <1>   0.0800 
 48 H       -1.3950    -4.6910     1.0780 H     1 <1>   0.1500 
 49 H       -0.0010    -1.1270    -0.8180 H     1 <1>   0.1500 
 50 H        0.5720    -5.8900     0.2550 H     1 <1>   0.1500 
 51 H        1.9530    -2.3320    -1.6390 H     1 <1>   0.1500 
 52 H        2.2520    -4.7190    -1.1100 H     1 <1>   0.1500 
@<TRIPOS>BOND
  1   1   2  2   
  2   2   3  am  
  3   2   4  1   
  4   3   5  1   
  5   3   6  1   
  6   4   7  ar  
  7   4   8  ar  
  8   5   9  1   
  9   5  27  1   
 10   5  28  1   
 11   6  10  1   
 12   6  29  1   
 13   6  30  1   
 14   7  11  ar  
 15   7  12  1   
 16   8  13  ar  
 17   8  31  1   
 18   9  14  1   
 19   9  15  1   
 20   9  16  1   
 21  10  14  1   
 22  10  32  1   
 23  10  33  1   
 24  11  17  ar  
 25  12  34  1   
 26  12  35  1   
 27  12  36  1   
 28  13  17  ar  
 29  13  37  1   
 30  14  18  1   
 31  14  38  1   
 32  15  19  1   
 33  15  39  1   
 34  15  40  1   
 35  16  20  1   
 36  16  41  1   
 37  16  42  1   
 38  17  21  1   
 39  18  43  1   
 40  19  44  1   
 41  20  22  ar  
 42  20  23  ar  
 43  21  45  1   
 44  21  46  1   
 45  21  47  1   
 46  22  24  ar  
 47  22  48  1   
 48  23  25  ar  
 49  23  49  1   
 50  24  26  ar  
 51  24  50  1   
 52  25  26  ar  
 53  25  51  1   
 54  26  52  1   
@<TRIPOS>SUBSTRUCTURE
  1 ****   3 GROUP 4 **** **** 0

# MOE 2024.06 (io_trps.svl 2023.06)
