@<TRIPOS>MOLECULE
NONAME
45 47 1 0 0 
SMALL
USER_CHARGES


@<TRIPOS>ATOM
  1 CL      -3.1380    -1.6430     2.6290 Cl    1 <1>  -0.1770 
  2 C       -2.8930    -0.2230     1.6360 C.ar  1 <1>   0.1770 
  3 C       -2.9500    -0.3120     0.2510 C.ar  1 <1>  -0.1440 
  4 C       -2.6490     0.9800     2.2730 C.ar  1 <1>  -0.1500 
  5 C       -2.7600     0.8430    -0.4930 C.ar  1 <1>  -0.1500 
  6 C       -3.2180    -1.6330    -0.4570 C.3   1 <1>  -0.0160 
  7 C       -2.4590     2.1240     1.5180 C.ar  1 <1>  -0.1500 
  8 C       -2.5150     2.0530     0.1360 C.ar  1 <1>  -0.1500 
  9 C       -4.7220    -1.9270    -0.4990 C.3   1 <1>  -0.0990 
 10 C       -4.9850    -3.2980    -1.0750 C.2   1 <1>   0.5690 
 11 O       -5.2010    -3.4120    -2.2560 O.2   1 <1>  -0.5700 
 12 N       -4.9580    -4.3630    -0.2410 N.am  1 <1>  -0.7300 
 13 C       -5.1670    -5.7670    -0.6560 C.3   1 <1>   0.2200 
 14 C       -6.5130    -6.2450    -0.1410 C.3   1 <1>  -0.0800 
 15 C       -4.2020    -6.6740     0.1010 C.3   1 <1>   0.1200 
 16 C       -6.1770    -6.6650     1.2940 C.3   1 <1>   0.1200 
 17 C       -7.0550    -7.4180    -0.9810 C.3   1 <1>  -0.0170 
 18 O       -4.8080    -6.9510     1.3290 O.3   1 <1>  -0.5600 
 19 C       -8.4150    -7.8800    -0.4810 C.ar  1 <1>  -0.1430 
 20 C       -9.5620    -7.1520    -0.7220 C.ar  1 <1>  -0.1500 
 21 C       -8.5750    -9.0480     0.2370 C.ar  1 <1>  -0.1500 
 22 C      -10.7780    -7.6100    -0.2430 C.ar  1 <1>   0.1600 
 23 C       -9.8370    -9.4180     0.6710 C.ar  1 <1>   0.1600 
 24 N      -10.9430    -8.7260     0.4500 N.ar  1 <1>  -0.6200 
 25 H       -2.6090     1.0170     3.3470 H     1 <1>   0.1500 
 26 H       -2.8020     0.8080    -1.5690 H     1 <1>   0.1500 
 27 H       -2.8360    -1.5970    -1.4630 H     1 <1>   0.0800 
 28 H       -2.7000    -2.4290     0.0500 H     1 <1>   0.0800 
 29 H       -2.2680     3.0660     2.0030 H     1 <1>   0.1500 
 30 H       -2.3680     2.9430    -0.4520 H     1 <1>   0.1500 
 31 H       -5.2160    -1.1910    -1.1070 H     1 <1>   0.0800 
 32 H       -5.1390    -1.8750     0.4890 H     1 <1>   0.0800 
 33 H       -4.7650    -4.2400     0.7560 H     1 <1>   0.3700 
 34 H       -5.0610    -5.8620    -1.7250 H     1 <1>   0.0800 
 35 H       -7.2370    -5.4500    -0.1510 H     1 <1>   0.0800 
 36 H       -3.2430    -6.2150     0.2650 H     1 <1>   0.0800 
 37 H       -4.0740    -7.6080    -0.4170 H     1 <1>   0.0800 
 38 H       -6.7240    -7.5300     1.6230 H     1 <1>   0.0800 
 39 H       -6.3530    -5.8520     1.9770 H     1 <1>   0.0800 
 40 H       -6.3640    -8.2430    -0.9620 H     1 <1>   0.0800 
 41 H       -7.1560    -7.1040    -2.0060 H     1 <1>   0.0800 
 42 H       -9.5220    -6.2330    -1.2780 H     1 <1>   0.1500 
 43 H       -7.7320    -9.6750     0.4650 H     1 <1>   0.1500 
 44 H      -11.6620    -7.0290    -0.4410 H     1 <1>   0.1500 
 45 H       -9.9430   -10.3320     1.2310 H     1 <1>   0.1500 
@<TRIPOS>BOND
  1   1   2  1   
  2   2   3  ar  
  3   2   4  ar  
  4   3   5  ar  
  5   3   6  1   
  6   4   7  ar  
  7   4  25  1   
  8   5   8  ar  
  9   5  26  1   
 10   6   9  1   
 11   6  27  1   
 12   6  28  1   
 13   7   8  ar  
 14   7  29  1   
 15   8  30  1   
 16   9  10  1   
 17   9  31  1   
 18   9  32  1   
 19  10  11  2   
 20  10  12  am  
 21  12  13  1   
 22  12  33  1   
 23  13  14  1   
 24  13  15  1   
 25  13  34  1   
 26  14  16  1   
 27  14  17  1   
 28  14  35  1   
 29  15  18  1   
 30  15  36  1   
 31  15  37  1   
 32  16  18  1   
 33  16  38  1   
 34  16  39  1   
 35  17  19  1   
 36  17  40  1   
 37  17  41  1   
 38  19  20  ar  
 39  19  21  ar  
 40  20  22  ar  
 41  20  42  1   
 42  21  23  ar  
 43  21  43  1   
 44  22  24  ar  
 45  22  44  1   
 46  23  24  ar  
 47  23  45  1   
@<TRIPOS>SUBSTRUCTURE
  1 ****  12 GROUP 4 **** **** 0

# MOE 2024.06 (io_trps.svl 2023.06)
