@<TRIPOS>MOLECULE
NONAME
45 47 1 0 0 
SMALL
USER_CHARGES


@<TRIPOS>ATOM
  1 O       -0.4990     0.2510     1.0100 O.2   1 <1>  -0.5700 
  2 C       -1.4850     0.9160     0.7560 C.2   1 <1>   0.5440 
  3 N       -2.6990     0.2850     0.6130 N.am  1 <1>  -0.6600 
  4 C       -1.3580     2.3500     0.5890 C.ar  1 <1>   0.0860 
  5 C       -3.8150     0.7990    -0.2250 C.3   1 <1>   0.1400 
  6 C       -2.8860    -1.1670     0.8460 C.3   1 <1>   0.1400 
  7 C       -0.3630     2.9170    -0.1880 C.ar  1 <1>  -0.1500 
  8 C       -2.2140     3.2570     1.1990 C.ar  1 <1>  -0.1500 
  9 C       -4.7240    -0.4070    -0.5070 C.3   1 <1>   0.2000 
 10 C       -3.8160    -1.6190    -0.2790 C.3   1 <1>  -0.0800 
 11 C       -0.2820     4.2890    -0.3370 C.ar  1 <1>   0.3920 
 12 C       -2.0540     4.6130     0.9930 C.ar  1 <1>   0.1600 
 13 O       -5.7660    -0.4410     0.4280 O.3   1 <1>  -0.5600 
 14 C       -4.5570    -2.9340     0.0250 C.3   1 <1>   0.0200 
 15 O        0.7110     4.7610    -1.1190 O.3   1 <1>  -0.3630 
 16 N       -1.1160     5.1530     0.2350 N.ar  1 <1>  -0.6200 
 17 C       -6.8990     0.2900     0.0810 C.3   1 <1>   0.0400 
 18 C       -3.6340    -4.1400     0.0730 C.2   1 <1>  -0.0400 
 19 C        0.8890     6.1510    -1.3110 C.3   1 <1>   0.0400 
 20 O       -4.1330    -5.3010     0.4060 O.3   1 <1>  -0.0190 
 21 C       -2.3240    -4.3150    -0.1690 C.2   1 <1>  -0.1500 
 22 N       -3.2310    -6.2400     0.4030 N.2   1 <1>  -0.4100 
 23 C       -2.1300    -5.6740     0.0620 C.2   1 <1>   0.1080 
 24 C       -0.8070    -6.3940    -0.0690 C.3   1 <1>  -0.0590 
 25 H       -4.3510     1.5790     0.2840 H     1 <1>   0.0800 
 26 H       -3.4120     1.1760    -1.1490 H     1 <1>   0.0800 
 27 H       -1.9500    -1.6970     0.8300 H     1 <1>   0.0800 
 28 H       -3.3570    -1.3050     1.8040 H     1 <1>   0.0800 
 29 H        0.3570     2.2900    -0.6790 H     1 <1>   0.1500 
 30 H       -3.0000     2.8980     1.8380 H     1 <1>   0.1500 
 31 H       -5.1370    -0.3960    -1.5020 H     1 <1>   0.0800 
 32 H       -3.2210    -1.7530    -1.1650 H     1 <1>   0.0800 
 33 H       -2.7320     5.2950     1.4790 H     1 <1>   0.1500 
 34 H       -5.3010    -3.1070    -0.7320 H     1 <1>   0.0800 
 35 H       -5.0670    -2.8550     0.9700 H     1 <1>   0.0800 
 36 H       -7.6110     0.2020     0.8830 H     1 <1>   0.0800 
 37 H       -7.3230    -0.1170    -0.8210 H     1 <1>   0.0800 
 38 H       -6.6360     1.3250    -0.0550 H     1 <1>   0.0800 
 39 H        1.7340     6.2980    -1.9570 H     1 <1>   0.0800 
 40 H        1.0670     6.6130    -0.3550 H     1 <1>   0.0800 
 41 H        0.0010     6.5560    -1.7630 H     1 <1>   0.0800 
 42 H       -1.5690    -3.6130    -0.4690 H     1 <1>   0.1500 
 43 H       -0.0750    -5.9290     0.5650 H     1 <1>   0.0800 
 44 H       -0.4710    -6.3560    -1.0880 H     1 <1>   0.0800 
 45 H       -0.9190    -7.4220     0.2240 H     1 <1>   0.0800 
@<TRIPOS>BOND
  1   1   2  2   
  2   2   3  am  
  3   2   4  1   
  4   3   5  1   
  5   3   6  1   
  6   4   7  ar  
  7   4   8  ar  
  8   5   9  1   
  9   5  25  1   
 10   5  26  1   
 11   6  10  1   
 12   6  27  1   
 13   6  28  1   
 14   7  11  ar  
 15   7  29  1   
 16   8  12  ar  
 17   8  30  1   
 18   9  10  1   
 19   9  13  1   
 20   9  31  1   
 21  10  14  1   
 22  10  32  1   
 23  11  15  1   
 24  11  16  ar  
 25  12  16  ar  
 26  12  33  1   
 27  13  17  1   
 28  14  18  1   
 29  14  34  1   
 30  14  35  1   
 31  15  19  1   
 32  17  36  1   
 33  17  37  1   
 34  17  38  1   
 35  18  20  1   
 36  18  21  2   
 37  19  39  1   
 38  19  40  1   
 39  19  41  1   
 40  20  22  1   
 41  21  23  1   
 42  21  42  1   
 43  22  23  2   
 44  23  24  1   
 45  24  43  1   
 46  24  44  1   
 47  24  45  1   
@<TRIPOS>SUBSTRUCTURE
  1 ****   3 GROUP 4 **** **** 0

# MOE 2024.06 (io_trps.svl 2023.06)
