@<TRIPOS>MOLECULE
NONAME
43 44 1 0 0 
SMALL
USER_CHARGES


@<TRIPOS>ATOM
  1 O        1.3960    -0.2520     1.6200 O.2   1 <1>  -0.5700 
  2 C        1.2650    -1.0860     0.7460 C.2   1 <1>   0.6900 
  3 N        2.3120    -1.6830     0.1060 N.am  1 <1>  -0.4200 
  4 N        0.0720    -1.5280     0.2640 N.am  1 <1>  -0.6600 
  5 C        1.8430    -2.5590    -0.8240 C.2   1 <1>   0.5690 
  6 C        3.7480    -1.3730     0.3430 C.3   1 <1>   0.2010 
  7 C        0.3220    -2.5250    -0.8110 C.3   1 <1>   0.2010 
  8 C       -1.2880    -1.1070     0.6770 C.3   1 <1>   0.0600 
  9 O        2.5080    -3.2670    -1.5370 O.2   1 <1>  -0.5700 
 10 C        4.1390     0.0210    -0.1390 C.2   1 <1>   0.5690 
 11 O        4.9380     0.1090    -1.0420 O.2   1 <1>  -0.5700 
 12 N        3.5680     1.0980     0.4740 N.am  1 <1>  -0.4930 
 13 C        3.6440     2.4730     0.1400 C.2   1 <1>   0.0630 
 14 C        2.5530     3.3400     0.0730 C.2   1 <1>   0.1080 
 15 C        4.7130     3.2410    -0.1630 C.2   1 <1>  -0.3320 
 16 N        2.8970     4.5440    -0.2550 N.2   1 <1>  -0.7070 
 17 C        1.1170     2.9500     0.3450 C.3   1 <1>  -0.0590 
 18 N        4.2330     4.4870    -0.4100 N.pl3 1 <1>   0.3140 
 19 C        6.1860     2.8640    -0.2290 C.3   1 <1>  -0.0600 
 20 C        5.0010     5.6830    -0.8120 C.3   1 <1>   0.0960 
 21 C        5.4500     6.4870     0.4160 C.3   1 <1>  -0.1600 
 22 C        6.2650     7.7210     0.0110 C.3   1 <1>  -0.2400 
 23 H        4.3570    -2.0960    -0.1710 H     1 <1>   0.0800 
 24 H        3.9550    -1.4490     1.3940 H     1 <1>   0.0800 
 25 H       -0.0600    -2.1830    -1.7560 H     1 <1>   0.0800 
 26 H       -0.0800    -3.4870    -0.5510 H     1 <1>   0.0800 
 27 H       -1.2220    -0.3800     1.4680 H     1 <1>   0.0800 
 28 H       -1.8420    -1.9580     1.0310 H     1 <1>   0.0800 
 29 H       -1.8040    -0.6670    -0.1590 H     1 <1>   0.0800 
 30 H        2.8130     0.8750     1.1370 H     1 <1>   0.3700 
 31 H        0.8460     2.1080    -0.2640 H     1 <1>   0.0800 
 32 H        0.4660     3.7730     0.1120 H     1 <1>   0.0800 
 33 H        1.0000     2.6930     1.3810 H     1 <1>   0.0800 
 34 H        6.3470     1.8970     0.2120 H     1 <1>   0.0800 
 35 H        6.7850     3.5770     0.3070 H     1 <1>   0.0800 
 36 H        6.5090     2.8260    -1.2540 H     1 <1>   0.0800 
 37 H        4.3680     6.2890    -1.4350 H     1 <1>   0.0800 
 38 H        5.8490     5.3700    -1.3910 H     1 <1>   0.0800 
 39 H        6.0470     5.8630     1.0580 H     1 <1>   0.0800 
 40 H        4.5790     6.8020     0.9660 H     1 <1>   0.0800 
 41 H        7.1510     7.4300    -0.5260 H     1 <1>   0.0800 
 42 H        6.5620     8.2690     0.8880 H     1 <1>   0.0800 
 43 H        5.6770     8.3710    -0.6140 H     1 <1>   0.0800 
@<TRIPOS>BOND
  1   1   2  2   
  2   2   3  am  
  3   2   4  am  
  4   3   5  am  
  5   3   6  1   
  6   4   7  1   
  7   4   8  1   
  8   5   7  1   
  9   5   9  2   
 10   6  10  1   
 11   6  23  1   
 12   6  24  1   
 13   7  25  1   
 14   7  26  1   
 15   8  27  1   
 16   8  28  1   
 17   8  29  1   
 18  10  11  2   
 19  10  12  am  
 20  12  13  1   
 21  12  30  1   
 22  13  14  1   
 23  13  15  2   
 24  14  16  2   
 25  14  17  1   
 26  15  18  1   
 27  15  19  1   
 28  16  18  1   
 29  17  31  1   
 30  17  32  1   
 31  17  33  1   
 32  18  20  1   
 33  19  34  1   
 34  19  35  1   
 35  19  36  1   
 36  20  21  1   
 37  20  37  1   
 38  20  38  1   
 39  21  22  1   
 40  21  39  1   
 41  21  40  1   
 42  22  41  1   
 43  22  42  1   
 44  22  43  1   
@<TRIPOS>SUBSTRUCTURE
  1 ****  12 GROUP 4 **** **** 0

# MOE 2024.06 (io_trps.svl 2023.06)
