@<TRIPOS>MOLECULE
NONAME
38 40 1 0 0 
SMALL
USER_CHARGES


@<TRIPOS>ATOM
  1 S       -0.4180    -1.0700    -0.5470 S.o2  1 <1>   1.5000 
  2 O       -1.1110    -2.2920    -0.2050 O.2   1 <1>  -0.6500 
  3 O        0.0410    -0.8730    -1.9060 O.2   1 <1>  -0.6500 
  4 N       -1.4830     0.2090    -0.2110 N.am  1 <1>  -0.8490 
  5 C        0.9070    -0.7900     0.6530 C.2   1 <1>  -0.0220 
  6 C       -2.8220    -0.0460    -0.7770 C.3   1 <1>   0.1960 
  7 C       -0.9570     1.4950    -0.6860 C.3   1 <1>   0.1960 
  8 S        2.5370    -0.4920     0.0530 S.3   1 <1>  -0.0800 
  9 C        0.9150    -0.7450     2.0030 C.2   1 <1>  -0.1500 
 10 C       -3.8470     1.0410    -0.3580 C.3   1 <1>   0.0000 
 11 C       -1.8750     2.6430    -0.2530 C.3   1 <1>  -0.1600 
 12 C        3.1740    -0.3190     1.6770 C.2   1 <1>  -0.1100 
 13 C        2.1950    -0.4790     2.5850 C.2   1 <1>  -0.1500 
 14 C       -4.2350     0.9450     1.1350 C.3   1 <1>   0.2000 
 15 C       -3.3120     2.4330    -0.7530 C.3   1 <1>  -0.1600 
 16 C       -5.1940     0.7600    -1.0410 C.3   1 <1>  -0.1600 
 17 O       -3.1560     0.6340     1.9350 O.3   1 <1>  -0.6800 
 18 C       -5.2920    -0.1550     1.2320 C.3   1 <1>  -0.1600 
 19 C       -5.8820    -0.3020    -0.1780 C.3   1 <1>  -0.1600 
 20 H       -2.7500    -0.0830    -1.8520 H     1 <1>   0.0800 
 21 H       -3.1780    -1.0060    -0.4420 H     1 <1>   0.0800 
 22 H        0.0260     1.6620    -0.2780 H     1 <1>   0.0800 
 23 H       -0.8750     1.4860    -1.7620 H     1 <1>   0.0800 
 24 H        0.0470    -0.8900     2.6250 H     1 <1>   0.1500 
 25 H       -1.8620     2.7200     0.8200 H     1 <1>   0.0800 
 26 H       -1.4920     3.5680    -0.6460 H     1 <1>   0.0800 
 27 H        4.2250    -0.1130     1.7800 H     1 <1>   0.1500 
 28 H        2.3160    -0.4230     3.6540 H     1 <1>   0.1500 
 29 H       -4.6510     1.8770     1.4790 H     1 <1>   0.0800 
 30 H       -3.3180     2.5200    -1.8260 H     1 <1>   0.0800 
 31 H       -3.9500     3.2070    -0.3590 H     1 <1>   0.0800 
 32 H       -5.7970     1.6530    -1.0290 H     1 <1>   0.0800 
 33 H       -5.0850     0.4390    -2.0630 H     1 <1>   0.0800 
 34 H       -2.3970     0.4370     1.3270 H     1 <1>   0.4000 
 35 H       -4.8480    -1.0860     1.5390 H     1 <1>   0.0800 
 36 H       -6.0520     0.1270     1.9390 H     1 <1>   0.0800 
 37 H       -5.6610    -1.2850    -0.5580 H     1 <1>   0.0800 
 38 H       -6.9510    -0.1660    -0.1750 H     1 <1>   0.0800 
@<TRIPOS>BOND
  1   1   2  2   
  2   1   3  2   
  3   1   4  am  
  4   1   5  1   
  5   4   6  1   
  6   4   7  1   
  7   5   8  1   
  8   5   9  2   
  9   6  10  1   
 10   6  20  1   
 11   6  21  1   
 12   7  11  1   
 13   7  22  1   
 14   7  23  1   
 15   8  12  1   
 16   9  13  1   
 17   9  24  1   
 18  10  14  1   
 19  10  15  1   
 20  10  16  1   
 21  11  15  1   
 22  11  25  1   
 23  11  26  1   
 24  12  13  2   
 25  12  27  1   
 26  13  28  1   
 27  14  17  1   
 28  14  18  1   
 29  14  29  1   
 30  15  30  1   
 31  15  31  1   
 32  16  19  1   
 33  16  32  1   
 34  16  33  1   
 35  17  34  1   
 36  18  19  1   
 37  18  35  1   
 38  18  36  1   
 39  19  37  1   
 40  19  38  1   
@<TRIPOS>SUBSTRUCTURE
  1 ****   4 GROUP 4 **** **** 0

# MOE 2024.06 (io_trps.svl 2023.06)
