@<TRIPOS>MOLECULE
NONAME
47 51 1 0 0 
SMALL
USER_CHARGES


@<TRIPOS>ATOM
  1 O       -0.1890     0.3570     0.5140 O.2   1 <1>  -0.5700 
  2 C       -0.6570     1.4470     0.2340 C.2   1 <1>   0.7150 
  3 N       -2.0360     1.5540     0.1610 N.am  1 <1>  -0.6600 
  4 C        0.2620     2.5360    -0.0050 C.2   1 <1>   0.0550 
  5 C       -2.7810     2.6530    -0.5300 C.3   1 <1>   0.1400 
  6 C       -2.8980     0.4340     0.6520 C.3   1 <1>   0.1400 
  7 O       -0.0700     3.8010     0.1220 O.3   1 <1>  -0.0190 
  8 C        1.5700     2.5330    -0.3480 C.2   1 <1>  -0.1500 
  9 C       -3.8110     3.3100     0.4170 C.3   1 <1>   0.1440 
 10 C       -4.3820     0.8330     0.7520 C.3   1 <1>  -0.1600 
 11 N        0.9070     4.6180    -0.1240 N.2   1 <1>  -0.4100 
 12 C        1.9180     3.8740    -0.4080 C.2   1 <1>   0.2030 
 13 C       -4.7550     4.1210    -0.4560 C.ar  1 <1>   0.1670 
 14 C       -4.5410     2.2610     1.2990 C.3   1 <1>  -0.1600 
 15 C       -3.1700     4.4180     1.2920 C.3   1 <1>  -0.1600 
 16 C        3.2960     4.4050    -0.7600 C.3   1 <1>  -0.0140 
 17 N       -5.7290     3.6320    -1.1930 N.ar  1 <1>  -0.6200 
 18 C       -4.4590     5.4510    -0.4090 C.ar  1 <1>  -0.1430 
 19 C       -3.2890     5.7310     0.5010 C.3   1 <1>  -0.0170 
 20 C        4.5270     3.7910    -0.1630 C.3   1 <1>  -0.2000 
 21 C        4.0880     5.1560     0.2660 C.3   1 <1>  -0.2000 
 22 C       -6.4080     4.5430    -1.8760 C.ar  1 <1>   0.4760 
 23 C       -5.2260     6.3060    -1.1600 C.ar  1 <1>   0.1600 
 24 N       -6.2160     5.8560    -1.9040 N.ar  1 <1>  -0.6200 
 25 C       -7.5430     4.0240    -2.7250 C.3   1 <1>  -0.0970 
 26 H       -3.3080     2.2180    -1.3620 H     1 <1>   0.0800 
 27 H       -2.1250     3.3940    -0.9450 H     1 <1>   0.0800 
 28 H       -2.5470     0.1410     1.6280 H     1 <1>   0.0800 
 29 H       -2.7900    -0.4130    -0.0040 H     1 <1>   0.0800 
 30 H        2.2110     1.6910    -0.5320 H     1 <1>   0.1500 
 31 H       -4.8930     0.1350     1.3910 H     1 <1>   0.0800 
 32 H       -4.8380     0.7670    -0.2210 H     1 <1>   0.0800 
 33 H       -5.5850     2.5100     1.3800 H     1 <1>   0.0800 
 34 H       -4.1270     2.2720     2.2920 H     1 <1>   0.0800 
 35 H       -2.1570     4.1950     1.5710 H     1 <1>   0.0800 
 36 H       -3.7450     4.5340     2.1940 H     1 <1>   0.0800 
 37 H        3.3490     4.7560    -1.7760 H     1 <1>   0.1000 
 38 H       -2.4020     5.9040    -0.0850 H     1 <1>   0.0800 
 39 H       -3.4710     6.5700     1.1490 H     1 <1>   0.0800 
 40 H        5.4060     3.6980    -0.7760 H     1 <1>   0.1000 
 41 H        4.4250     2.9810     0.5380 H     1 <1>   0.1000 
 42 H        3.6590     5.2850     1.2450 H     1 <1>   0.1000 
 43 H        4.6550     6.0130    -0.0530 H     1 <1>   0.1000 
 44 H       -5.0310     7.3640    -1.1540 H     1 <1>   0.1500 
 45 H       -7.3500     3.0100    -3.0210 H     1 <1>   0.0800 
 46 H       -7.6510     4.6300    -3.6050 H     1 <1>   0.0800 
 47 H       -8.4530     4.0600    -2.1580 H     1 <1>   0.0800 
@<TRIPOS>BOND
  1   1   2  2   
  2   2   3  am  
  3   2   4  1   
  4   3   5  1   
  5   3   6  1   
  6   4   7  1   
  7   4   8  2   
  8   5   9  1   
  9   5  26  1   
 10   5  27  1   
 11   6  10  1   
 12   6  28  1   
 13   6  29  1   
 14   7  11  1   
 15   8  12  1   
 16   8  30  1   
 17   9  13  1   
 18   9  14  1   
 19   9  15  1   
 20  10  14  1   
 21  10  31  1   
 22  10  32  1   
 23  11  12  2   
 24  12  16  1   
 25  13  17  ar  
 26  13  18  ar  
 27  14  33  1   
 28  14  34  1   
 29  15  19  1   
 30  15  35  1   
 31  15  36  1   
 32  16  20  1   
 33  16  21  1   
 34  16  37  1   
 35  17  22  ar  
 36  18  19  1   
 37  18  23  ar  
 38  19  38  1   
 39  19  39  1   
 40  20  21  1   
 41  20  40  1   
 42  20  41  1   
 43  21  42  1   
 44  21  43  1   
 45  22  24  ar  
 46  22  25  1   
 47  23  24  ar  
 48  23  44  1   
 49  25  45  1   
 50  25  46  1   
 51  25  47  1   
@<TRIPOS>SUBSTRUCTURE
  1 ****   5 GROUP 4 **** **** 0

# MOE 2024.06 (io_trps.svl 2023.06)
