@<TRIPOS>MOLECULE
NONAME
52 55 1 0 0 
SMALL
USER_CHARGES


@<TRIPOS>ATOM
  1 O        0.0500    -0.9850     1.5050 O.2   1 <1>  -0.5700 
  2 C        0.5790    -1.8790     0.8920 C.2   1 <1>   0.5690 
  3 N        1.8690    -1.9140     0.4880 N.am  1 <1>  -0.6600 
  4 C       -0.1420    -3.1330     0.4830 C.3   1 <1>  -0.0990 
  5 C        2.2180    -3.1610    -0.2120 C.3   1 <1>   0.1400 
  6 C        2.8870    -0.8780     0.7810 C.3   1 <1>   0.1400 
  7 C        0.8650    -3.8530    -0.4310 C.3   1 <1>  -0.1600 
  8 C        3.1810    -0.0660    -0.4840 C.3   1 <1>  -0.1600 
  9 C        4.1490     1.1060    -0.2380 C.3   1 <1>  -0.0800 
 10 C        4.2710     1.9620    -1.5130 C.3   1 <1>  -0.1600 
 11 C        5.5470     0.6290     0.2100 C.3   1 <1>  -0.1600 
 12 C        5.2950     3.0870    -1.3450 C.3   1 <1>   0.2090 
 13 C        6.5340     1.7960     0.3190 C.3   1 <1>   0.2090 
 14 N        6.6040     2.4860    -0.9910 N.pl3 1 <1>  -0.8210 
 15 C        7.6780     3.3740    -1.1010 C.2   1 <1>   0.3720 
 16 N        8.6400     3.1800    -1.9320 N.2   1 <1>  -0.4100 
 17 C        7.8700     4.5490    -0.3760 C.2   1 <1>  -0.2330 
 18 O        9.4490     4.1960    -1.7760 O.3   1 <1>  -0.0190 
 19 C        9.0350     5.0450    -0.8640 C.2   1 <1>   0.0870 
 20 C        7.0040     5.0480     0.6370 C.2   1 <1>   1.0330 
 21 C        9.8080     6.2310    -0.5710 C.ar  1 <1>   0.0530 
 22 O        6.1120     5.8670     0.3530 O.co2 1 <1>  -0.9000 
 23 O        7.1270     4.6820     1.8180 O.co2 1 <1>  -0.9000 
 24 C        9.2440     7.3530     0.0380 C.ar  1 <1>  -0.1500 
 25 C       11.1640     6.3000    -0.8970 C.ar  1 <1>  -0.1500 
 26 C        9.9930     8.4820     0.3120 C.ar  1 <1>  -0.1500 
 27 C       11.9200     7.4270    -0.6280 C.ar  1 <1>  -0.1500 
 28 C       11.3350     8.5230    -0.0210 C.ar  1 <1>  -0.1500 
 29 H       -1.0530    -2.8920    -0.0320 H     1 <1>   0.0800 
 30 H       -0.3560    -3.7120     1.3620 H     1 <1>   0.0800 
 31 H        2.8590    -3.7560     0.4160 H     1 <1>   0.0800 
 32 H        2.7070    -2.9520    -1.1480 H     1 <1>   0.0800 
 33 H        3.7790    -1.3540     1.1470 H     1 <1>   0.0800 
 34 H        2.5120    -0.2220     1.5500 H     1 <1>   0.0800 
 35 H        0.5730    -3.7280    -1.4590 H     1 <1>   0.0800 
 36 H        0.9230    -4.9050    -0.2150 H     1 <1>   0.0800 
 37 H        2.2490     0.3290    -0.8490 H     1 <1>   0.0800 
 38 H        3.5920    -0.7120    -1.2390 H     1 <1>   0.0800 
 39 H        3.7430     1.7330     0.5400 H     1 <1>   0.0800 
 40 H        3.3180     2.3960    -1.7540 H     1 <1>   0.0800 
 41 H        4.5780     1.3490    -2.3430 H     1 <1>   0.0800 
 42 H        5.9400    -0.0800    -0.4970 H     1 <1>   0.0800 
 43 H        5.4900     0.1500     1.1690 H     1 <1>   0.0800 
 44 H        4.9730     3.7620    -0.5700 H     1 <1>   0.0800 
 45 H        5.3920     3.6440    -2.2620 H     1 <1>   0.0800 
 46 H        7.5120     1.4340     0.5870 H     1 <1>   0.0800 
 47 H        6.2040     2.4810     1.0820 H     1 <1>   0.0800 
 48 H        8.2000     7.3470     0.3010 H     1 <1>   0.1500 
 49 H       11.6320     5.4530    -1.3670 H     1 <1>   0.1500 
 50 H        9.5250     9.3270     0.7860 H     1 <1>   0.1500 
 51 H       12.9630     7.4500    -0.8900 H     1 <1>   0.1500 
 52 H       11.9170     9.4020     0.1920 H     1 <1>   0.1500 
@<TRIPOS>BOND
  1   1   2  2   
  2   2   3  am  
  3   2   4  1   
  4   3   5  1   
  5   3   6  1   
  6   4   7  1   
  7   4  29  1   
  8   4  30  1   
  9   5   7  1   
 10   5  31  1   
 11   5  32  1   
 12   6   8  1   
 13   6  33  1   
 14   6  34  1   
 15   7  35  1   
 16   7  36  1   
 17   8   9  1   
 18   8  37  1   
 19   8  38  1   
 20   9  10  1   
 21   9  11  1   
 22   9  39  1   
 23  10  12  1   
 24  10  40  1   
 25  10  41  1   
 26  11  13  1   
 27  11  42  1   
 28  11  43  1   
 29  12  14  1   
 30  12  44  1   
 31  12  45  1   
 32  13  14  1   
 33  13  46  1   
 34  13  47  1   
 35  14  15  1   
 36  15  16  2   
 37  15  17  1   
 38  16  18  1   
 39  17  19  2   
 40  17  20  1   
 41  18  19  1   
 42  19  21  1   
 43  20  22  ar  
 44  20  23  ar  
 45  21  24  ar  
 46  21  25  ar  
 47  24  26  ar  
 48  24  48  1   
 49  25  27  ar  
 50  25  49  1   
 51  26  28  ar  
 52  26  50  1   
 53  27  28  ar  
 54  27  51  1   
 55  28  52  1   
@<TRIPOS>SUBSTRUCTURE
  1 ****  14 GROUP 4 **** **** 0

# MOE 2024.06 (io_trps.svl 2023.06)
