@<TRIPOS>MOLECULE
NONAME
44 45 1 0 0 
SMALL
USER_CHARGES


@<TRIPOS>ATOM
  1 S       -0.3530    -0.6630     0.3940 S.3   1 <1>  -0.0800 
  2 C       -1.6000    -1.3490    -0.5820 C.2   1 <1>   0.4420 
  3 C       -0.5200     0.8150    -0.5100 C.2   1 <1>   0.3250 
  4 N       -2.0410    -0.5190    -1.4530 N.2   1 <1>  -0.3380 
  5 N       -1.9500    -2.6520    -0.3130 N.am  1 <1>  -0.4940 
  6 N       -1.4330     0.6970    -1.4100 N.2   1 <1>  -0.3380 
  7 C        0.3090     1.9600    -0.2010 C.ar  1 <1>   0.0530 
  8 C       -2.8510    -3.4680    -0.9440 C.2   1 <1>   0.5690 
  9 C        0.1470     3.1500    -0.9140 C.ar  1 <1>  -0.1500 
 10 C        1.2910     1.9520     0.7950 C.ar  1 <1>  -0.1500 
 11 O       -3.4890    -3.1360    -1.9100 O.2   1 <1>  -0.5700 
 12 C       -3.0340    -4.8980    -0.4030 C.3   1 <1>   0.2810 
 13 C        0.9170     4.2680    -0.6520 C.ar  1 <1>  -0.1500 
 14 C        2.0630     3.0680     1.0600 C.ar  1 <1>  -0.1500 
 15 N       -1.9020    -5.3270     0.4750 N.am  1 <1>  -0.7300 
 16 C       -4.3430    -5.0340     0.3870 C.3   1 <1>  -0.1600 
 17 C        1.8830     4.2340     0.3380 C.ar  1 <1>  -0.1430 
 18 C       -0.6640    -5.7170     0.1040 C.2   1 <1>   0.5690 
 19 C       -4.6240    -6.4780     0.8130 C.3   1 <1>   0.0700 
 20 C        2.7290     5.4610     0.6290 C.3   1 <1>  -0.0970 
 21 O        0.1630    -5.9280     0.9480 O.2   1 <1>  -0.5700 
 22 C       -0.2960    -5.8640    -1.3520 C.3   1 <1>  -0.1790 
 23 S       -6.1550    -6.4650     1.7740 S.3   1 <1>  -0.4600 
 24 C       -6.4040    -8.2110     2.1910 C.3   1 <1>  -0.0100 
 25 H       -1.4340    -3.0990     0.4430 H     1 <1>   0.3700 
 26 H       -0.5980     3.2000    -1.6890 H     1 <1>   0.1500 
 27 H        1.4670     1.0690     1.3800 H     1 <1>   0.1500 
 28 H       -3.0830    -5.5550    -1.2550 H     1 <1>   0.0800 
 29 H        0.7600     5.1660    -1.2230 H     1 <1>   0.1500 
 30 H        2.8090     3.0270     1.8350 H     1 <1>   0.1500 
 31 H       -2.0860    -5.3350     1.4820 H     1 <1>   0.3700 
 32 H       -5.1560    -4.7000    -0.2360 H     1 <1>   0.0800 
 33 H       -4.3130    -4.3940     1.2510 H     1 <1>   0.0800 
 34 H       -3.8540    -6.8760     1.4510 H     1 <1>   0.0800 
 35 H       -4.7790    -7.1230    -0.0340 H     1 <1>   0.0800 
 36 H        2.8620     6.0470    -0.2630 H     1 <1>   0.0800 
 37 H        3.7000     5.1710     0.9910 H     1 <1>   0.0800 
 38 H        2.2470     6.0670     1.3750 H     1 <1>   0.0800 
 39 H       -0.9300    -6.5920    -1.8200 H     1 <1>   0.0800 
 40 H        0.7240    -6.1950    -1.4330 H     1 <1>   0.0800 
 41 H       -0.3910    -4.9210    -1.8570 H     1 <1>   0.0800 
 42 H       -7.3060    -8.2820     2.7710 H     1 <1>   0.0800 
 43 H       -5.5550    -8.5430     2.7610 H     1 <1>   0.0800 
 44 H       -6.4960    -8.7630     1.2730 H     1 <1>   0.0800 
@<TRIPOS>BOND
  1   1   2  1   
  2   1   3  1   
  3   2   4  2   
  4   2   5  1   
  5   3   6  2   
  6   3   7  1   
  7   4   6  1   
  8   5   8  am  
  9   5  25  1   
 10   7   9  ar  
 11   7  10  ar  
 12   8  11  2   
 13   8  12  1   
 14   9  13  ar  
 15   9  26  1   
 16  10  14  ar  
 17  10  27  1   
 18  12  15  1   
 19  12  16  1   
 20  12  28  1   
 21  13  17  ar  
 22  13  29  1   
 23  14  17  ar  
 24  14  30  1   
 25  15  18  am  
 26  15  31  1   
 27  16  19  1   
 28  16  32  1   
 29  16  33  1   
 30  17  20  1   
 31  18  21  2   
 32  18  22  1   
 33  19  23  1   
 34  19  34  1   
 35  19  35  1   
 36  20  36  1   
 37  20  37  1   
 38  20  38  1   
 39  22  39  1   
 40  22  40  1   
 41  22  41  1   
 42  23  24  1   
 43  24  42  1   
 44  24  43  1   
 45  24  44  1   
@<TRIPOS>SUBSTRUCTURE
  1 ****   2 GROUP 4 **** **** 0

# MOE 2024.06 (io_trps.svl 2023.06)
