@<TRIPOS>MOLECULE
NONAME
33 33 1 0 0 
SMALL
USER_CHARGES


@<TRIPOS>ATOM
  1 F       -1.7090     1.1500     1.6370 F     1 <1>  -0.3400 
  2 C       -1.7550     0.9870     0.3200 C.3   1 <1>   1.0200 
  3 F       -1.9930    -0.3020     0.1110 F     1 <1>  -0.3400 
  4 F       -0.5230     1.2120    -0.1260 F     1 <1>  -0.3400 
  5 C       -2.8050     1.9150    -0.3630 C.3   1 <1>   0.2000 
  6 O       -2.8480     1.7800    -1.7690 O.3   1 <1>  -0.6800 
  7 C       -2.6110     3.3970     0.0180 C.3   1 <1>   0.0000 
  8 C       -3.5140     4.4150    -0.7200 C.3   1 <1>   0.2250 
  9 C       -1.4000     4.1260    -0.6120 C.3   1 <1>   0.2250 
 10 N       -2.3060     5.2870    -0.8690 N.am  1 <1>  -0.5100 
 11 C       -2.1520     6.5390    -0.3600 C.2   1 <1>   0.7800 
 12 O       -1.0640     6.9650    -0.0250 O.2   1 <1>  -0.5700 
 13 O       -3.2600     7.2730    -0.2350 O.3   1 <1>  -0.4300 
 14 C       -3.3620     8.5860     0.2700 C.3   1 <1>   0.2800 
 15 C       -2.9200     8.6260     1.7380 C.3   1 <1>  -0.2400 
 16 C       -2.5650     9.5570    -0.6090 C.3   1 <1>  -0.2400 
 17 C       -4.8490     8.9310     0.1830 C.3   1 <1>  -0.2400 
 18 H       -3.7710     1.6090    -0.0050 H     1 <1>   0.0800 
 19 H       -1.9620     1.9010    -2.1720 H     1 <1>   0.4000 
 20 H       -2.6520     3.5510     1.0830 H     1 <1>   0.0000 
 21 H       -4.2670     4.8550    -0.0900 H     1 <1>   0.0000 
 22 H       -3.8770     4.0980    -1.6810 H     1 <1>   0.0000 
 23 H       -1.0500     3.7010    -1.5360 H     1 <1>   0.0000 
 24 H       -0.6200     4.3550     0.0920 H     1 <1>   0.0000 
 25 H       -3.1300     9.5920     2.1570 H     1 <1>   0.0800 
 26 H       -1.8630     8.4570     1.8300 H     1 <1>   0.0800 
 27 H       -3.4490     7.8840     2.3080 H     1 <1>   0.0800 
 28 H       -2.7580    10.5700    -0.3040 H     1 <1>   0.0800 
 29 H       -2.8520     9.4510    -1.6390 H     1 <1>   0.0800 
 30 H       -1.5080     9.3880    -0.5160 H     1 <1>   0.0800 
 31 H       -5.0250     9.9260     0.5510 H     1 <1>   0.0800 
 32 H       -5.4280     8.2440     0.7730 H     1 <1>   0.0800 
 33 H       -5.1830     8.8850    -0.8380 H     1 <1>   0.0800 
@<TRIPOS>BOND
  1   1   2  1   
  2   2   3  1   
  3   2   4  1   
  4   2   5  1   
  5   5   6  1   
  6   5   7  1   
  7   5  18  1   
  8   6  19  1   
  9   7   8  1   
 10   7   9  1   
 11   7  20  1   
 12   8  10  1   
 13   8  21  1   
 14   8  22  1   
 15   9  10  1   
 16   9  23  1   
 17   9  24  1   
 18  10  11  am  
 19  11  12  2   
 20  11  13  1   
 21  13  14  1   
 22  14  15  1   
 23  14  16  1   
 24  14  17  1   
 25  15  25  1   
 26  15  26  1   
 27  15  27  1   
 28  16  28  1   
 29  16  29  1   
 30  16  30  1   
 31  17  31  1   
 32  17  32  1   
 33  17  33  1   
@<TRIPOS>SUBSTRUCTURE
  1 ****  10 GROUP 4 **** **** 0

# MOE 2024.06 (io_trps.svl 2023.06)
