@<TRIPOS>MOLECULE
NONAME
46 48 1 0 0 
SMALL
USER_CHARGES


@<TRIPOS>ATOM
  1 F       -0.9080    -2.0490     1.2380 F     1 <1>  -0.1900 
  2 C       -2.1560    -2.1020     0.8200 C.ar  1 <1>   0.1900 
  3 C       -2.8100    -0.9850     0.2990 C.ar  1 <1>   0.4100 
  4 C       -2.8290    -3.2880     0.9110 C.ar  1 <1>   0.1600 
  5 N       -4.0710    -1.0960    -0.0800 N.ar  1 <1>  -0.6200 
  6 N       -2.2200     0.2660     0.1450 N.pl3 1 <1>  -0.8380 
  7 N       -4.0870    -3.4090     0.5180 N.ar  1 <1>  -0.6200 
  8 C       -4.6250    -2.2820     0.0560 C.ar  1 <1>   0.7200 
  9 C       -3.0430     1.5080     0.1370 C.3   1 <1>   0.1290 
 10 C       -0.8380     0.4180    -0.3860 C.3   1 <1>   0.1290 
 11 N       -5.9190    -2.3160    -0.3410 N.pl3 1 <1>  -0.8690 
 12 C       -6.5660    -3.5170    -0.9150 C.3   1 <1>   0.2090 
 13 C       -7.0140    -4.4570     0.2230 C.3   1 <1>   0.3430 
 14 N       -6.7160    -5.9080    -0.0270 N.4   1 <1>  -0.9590 
 15 C       -7.3460    -6.7570     1.0210 C.3   1 <1>   0.4860 
 16 C       -5.2460    -6.1820    -0.0510 C.3   1 <1>   0.3430 
 17 C       -7.0630    -8.2240     0.7440 C.ar  1 <1>  -0.1430 
 18 C       -4.9760    -7.5990    -0.5610 C.3   1 <1>  -0.0170 
 19 C       -5.9460    -8.6210     0.0140 C.ar  1 <1>  -0.1430 
 20 C       -7.9330    -9.1830     1.2400 C.ar  1 <1>  -0.1500 
 21 C       -5.7140    -9.9690    -0.2080 C.ar  1 <1>  -0.1500 
 22 C       -7.6950   -10.5270     1.0140 C.ar  1 <1>  -0.1500 
 23 C       -6.5850   -10.9200     0.2900 C.ar  1 <1>  -0.1500 
 24 H       -2.3250    -4.1480     1.3150 H     1 <1>   0.1500 
 25 H       -3.9220     1.3760     0.7430 H     1 <1>   0.0800 
 26 H       -3.3450     1.7370    -0.8700 H     1 <1>   0.0800 
 27 H       -2.4730     2.3290     0.5350 H     1 <1>   0.0800 
 28 H       -0.4750    -0.5190    -0.7720 H     1 <1>   0.0800 
 29 H       -0.1840     0.7510     0.4010 H     1 <1>   0.0800 
 30 H       -0.8260     1.1390    -1.1840 H     1 <1>   0.0800 
 31 H       -6.1520    -1.4250    -0.7910 H     1 <1>   0.4000 
 32 H       -5.8700    -4.0040    -1.5750 H     1 <1>   0.0800 
 33 H       -7.4240    -3.2130    -1.4890 H     1 <1>   0.0800 
 34 H       -8.0720    -4.3230     0.3760 H     1 <1>   0.0800 
 35 H       -6.5090    -4.1490     1.1250 H     1 <1>   0.0800 
 36 H       -7.1130    -6.2160    -0.9230 H     1 <1>   0.4500 
 37 H       -8.4120    -6.5980     1.0330 H     1 <1>   0.0800 
 38 H       -6.9520    -6.4980     1.9910 H     1 <1>   0.0800 
 39 H       -4.8460    -6.0760     0.9450 H     1 <1>   0.0800 
 40 H       -4.7360    -5.4760    -0.6870 H     1 <1>   0.0800 
 41 H       -3.9670    -7.8730    -0.3080 H     1 <1>   0.0800 
 42 H       -5.0540    -7.6080    -1.6330 H     1 <1>   0.0800 
 43 H       -8.8030    -8.9030     1.8100 H     1 <1>   0.1500 
 44 H       -4.8550   -10.2920    -0.7720 H     1 <1>   0.1500 
 45 H       -8.3720   -11.2700     1.4010 H     1 <1>   0.1500 
 46 H       -6.4000   -11.9660     0.1150 H     1 <1>   0.1500 
@<TRIPOS>BOND
  1   1   2  1   
  2   2   3  ar  
  3   2   4  ar  
  4   3   5  ar  
  5   3   6  1   
  6   4   7  ar  
  7   4  24  1   
  8   5   8  ar  
  9   6   9  1   
 10   6  10  1   
 11   7   8  ar  
 12   8  11  1   
 13   9  25  1   
 14   9  26  1   
 15   9  27  1   
 16  10  28  1   
 17  10  29  1   
 18  10  30  1   
 19  11  12  1   
 20  11  31  1   
 21  12  13  1   
 22  12  32  1   
 23  12  33  1   
 24  13  14  1   
 25  13  34  1   
 26  13  35  1   
 27  14  15  1   
 28  14  16  1   
 29  14  36  1   
 30  15  17  1   
 31  15  37  1   
 32  15  38  1   
 33  16  18  1   
 34  16  39  1   
 35  16  40  1   
 36  17  19  ar  
 37  17  20  ar  
 38  18  19  1   
 39  18  41  1   
 40  18  42  1   
 41  19  21  ar  
 42  20  22  ar  
 43  20  43  1   
 44  21  23  ar  
 45  21  44  1   
 46  22  23  ar  
 47  22  45  1   
 48  23  46  1   
@<TRIPOS>SUBSTRUCTURE
  1 ****   7 GROUP 4 **** **** 0

# MOE 2024.06 (io_trps.svl 2023.06)
