@<TRIPOS>MOLECULE
NONAME
52 55 1 0 0 
SMALL
USER_CHARGES


@<TRIPOS>ATOM
  1 O       -3.3170     4.8530     0.5740 O.co2 1 <1>  -0.9000 
  2 C       -4.4500     4.3820     0.6860 C.2   1 <1>   0.9060 
  3 O       -5.4650     4.9690     0.2940 O.co2 1 <1>  -0.9000 
  4 C       -4.6180     3.0240     1.3300 C.3   1 <1>  -0.2660 
  5 C       -5.0880     1.9620     0.3210 C.3   1 <1>  -0.1600 
  6 C       -5.4950     0.6490     1.0070 C.3   1 <1>  -0.0990 
  7 C       -6.1770    -0.3270     0.0560 C.2   1 <1>   0.5690 
  8 O       -5.4990    -1.2300    -0.3780 O.2   1 <1>  -0.5700 
  9 N       -7.5100    -0.2070    -0.2680 N.am  1 <1>  -0.6600 
 10 C       -8.4240     0.8770     0.2290 C.3   1 <1>   0.1400 
 11 C       -8.1960    -1.2600    -1.0740 C.3   1 <1>   0.1400 
 12 C       -9.2390     1.5220    -0.9120 C.3   1 <1>   0.1430 
 13 C       -8.9850    -0.6340    -2.2290 C.3   1 <1>  -0.1600 
 14 C      -10.1910     2.5320    -0.2960 C.ar  1 <1>   0.1670 
 15 C       -9.9690     0.4360    -1.7280 C.3   1 <1>  -0.1600 
 16 C       -8.3550     2.4260    -1.8120 C.3   1 <1>  -0.1600 
 17 N      -11.3050     2.2500     0.3370 N.ar  1 <1>  -0.6200 
 18 C       -9.7350     3.8040    -0.4580 C.ar  1 <1>  -0.1440 
 19 C       -8.4300     3.8410    -1.2130 C.3   1 <1>  -0.0170 
 20 C      -11.9870     3.3000     0.8140 C.ar  1 <1>   0.6200 
 21 C      -10.4820     4.8240     0.0690 C.ar  1 <1>   0.1600 
 22 N      -11.6110     4.5830     0.7000 N.ar  1 <1>  -0.6200 
 23 C      -13.2350     3.0260     1.5140 C.ar  1 <1>   0.0000 
 24 C      -13.4580     1.8120     2.1710 C.ar  1 <1>  -0.1500 
 25 C      -14.2710     3.9650     1.5630 C.ar  1 <1>  -0.1500 
 26 C      -14.6420     1.5480     2.8360 C.ar  1 <1>  -0.1500 
 27 C      -15.4580     3.7090     2.2250 C.ar  1 <1>  -0.1500 
 28 C      -15.6470     2.4980     2.8640 C.ar  1 <1>  -0.1500 
 29 H       -5.3400     3.1390     2.1140 H     1 <1>   0.0800 
 30 H       -3.6800     2.7360     1.7660 H     1 <1>   0.0800 
 31 H       -4.3060     1.7750    -0.3960 H     1 <1>   0.0800 
 32 H       -5.9240     2.3640    -0.2140 H     1 <1>   0.0800 
 33 H       -6.1470     0.8450     1.8370 H     1 <1>   0.0800 
 34 H       -4.6130     0.1800     1.4040 H     1 <1>   0.0800 
 35 H       -7.8760     1.6470     0.7390 H     1 <1>   0.0800 
 36 H       -9.1080     0.4430     0.9380 H     1 <1>   0.0800 
 37 H       -8.8650    -1.8040    -0.4300 H     1 <1>   0.0800 
 38 H       -7.4810    -1.9600    -1.4720 H     1 <1>   0.0800 
 39 H       -9.5270    -1.4080    -2.7430 H     1 <1>   0.0800 
 40 H       -8.2910    -0.2040    -2.9300 H     1 <1>   0.0800 
 41 H      -10.4900     0.8810    -2.5570 H     1 <1>   0.0800 
 42 H      -10.7050    -0.0360    -1.1000 H     1 <1>   0.0800 
 43 H       -8.7780     2.4670    -2.8000 H     1 <1>   0.0800 
 44 H       -7.3450     2.0710    -1.9000 H     1 <1>   0.0800 
 45 H       -8.4160     4.6010    -1.9740 H     1 <1>   0.0800 
 46 H       -7.6230     4.0110    -0.5230 H     1 <1>   0.0800 
 47 H      -10.1480     5.8430    -0.0270 H     1 <1>   0.1500 
 48 H      -12.6880     1.0600     2.1620 H     1 <1>   0.1500 
 49 H      -14.1420     4.9130     1.0710 H     1 <1>   0.1500 
 50 H      -14.7830     0.6030     3.3310 H     1 <1>   0.1500 
 51 H      -16.2350     4.4530     2.2430 H     1 <1>   0.1500 
 52 H      -16.5690     2.2960     3.3800 H     1 <1>   0.1500 
@<TRIPOS>BOND
  1   1   2  ar  
  2   2   3  ar  
  3   2   4  1   
  4   4   5  1   
  5   4  29  1   
  6   4  30  1   
  7   5   6  1   
  8   5  31  1   
  9   5  32  1   
 10   6   7  1   
 11   6  33  1   
 12   6  34  1   
 13   7   8  2   
 14   7   9  am  
 15   9  10  1   
 16   9  11  1   
 17  10  12  1   
 18  10  35  1   
 19  10  36  1   
 20  11  13  1   
 21  11  37  1   
 22  11  38  1   
 23  12  14  1   
 24  12  15  1   
 25  12  16  1   
 26  13  15  1   
 27  13  39  1   
 28  13  40  1   
 29  14  17  ar  
 30  14  18  ar  
 31  15  41  1   
 32  15  42  1   
 33  16  19  1   
 34  16  43  1   
 35  16  44  1   
 36  17  20  ar  
 37  18  19  1   
 38  18  21  ar  
 39  19  45  1   
 40  19  46  1   
 41  20  22  ar  
 42  20  23  1   
 43  21  22  ar  
 44  21  47  1   
 45  23  24  ar  
 46  23  25  ar  
 47  24  26  ar  
 48  24  48  1   
 49  25  27  ar  
 50  25  49  1   
 51  26  28  ar  
 52  26  50  1   
 53  27  28  ar  
 54  27  51  1   
 55  28  52  1   
@<TRIPOS>SUBSTRUCTURE
  1 ****  14 GROUP 4 **** **** 0

# MOE 2024.06 (io_trps.svl 2023.06)
