@<TRIPOS>MOLECULE
NONAME
54 56 1 0 0 
SMALL
USER_CHARGES


@<TRIPOS>ATOM
  1 S        1.6080     1.7210    -1.0170 S.o2  1 <1>   1.3330 
  2 O        2.5080     0.6410    -1.3510 O.2   1 <1>  -0.6500 
  3 O        0.8600     2.3580    -2.0780 O.2   1 <1>  -0.6500 
  4 N        2.5430     2.9180    -0.2630 N.am  1 <1>  -0.8490 
  5 C        0.4380     1.1040     0.2110 C.3   1 <1>  -0.0550 
  6 C        3.2650     3.7410    -1.2370 C.3   1 <1>   0.1160 
  7 C        3.4910     2.4000     0.7290 C.3   1 <1>   0.1160 
  8 C       -0.5720     2.0600     0.9000 C.3   1 <1>  -0.0800 
  9 C       -1.3060     3.0280    -0.0350 C.3   1 <1>   0.2000 
 10 C        0.0650     2.9660     1.9580 C.3   1 <1>   0.1400 
 11 O       -2.5560     3.2690     0.5140 O.3   1 <1>  -0.6800 
 12 C       -0.5060     4.3330     0.0230 C.3   1 <1>   0.1400 
 13 N        0.2170     4.2930     1.3230 N.am  1 <1>  -0.6600 
 14 C        1.1890     5.1620     1.7350 C.2   1 <1>   0.5690 
 15 O        1.8050     4.9670     2.7570 O.2   1 <1>  -0.5700 
 16 C        1.5030     6.4060     0.9090 C.3   1 <1>  -0.0990 
 17 C        2.9150     6.9680     1.1540 C.3   1 <1>  -0.1600 
 18 C        3.2300     8.1490     0.2270 C.3   1 <1>   0.0210 
 19 C        4.6470     8.6670     0.4080 C.2   1 <1>  -0.1810 
 20 C        5.2100     9.6830    -0.3980 C.ar  1 <1>   0.0000 
 21 C        5.5920     8.2920     1.3050 C.2   1 <1>  -0.3020 
 22 C        6.5080     9.8800     0.0610 C.ar  1 <1>  -0.1520 
 23 C        4.7360    10.4500    -1.4690 C.ar  1 <1>  -0.1500 
 24 N        6.7280     9.0220     1.1060 N.pl3 1 <1>   0.0330 
 25 C        7.3460    10.8270    -0.5320 C.ar  1 <1>  -0.1500 
 26 C        5.5610    11.3830    -2.0540 C.ar  1 <1>  -0.1500 
 27 C        6.8670    11.5720    -1.5850 C.ar  1 <1>  -0.1500 
 28 H       -0.1440     0.3470    -0.2780 H     1 <1>   0.0800 
 29 H        0.9900     0.5990     0.9780 H     1 <1>   0.0800 
 30 H        3.8320     4.5060    -0.7340 H     1 <1>   0.0800 
 31 H        2.5700     4.2200    -1.9040 H     1 <1>   0.0800 
 32 H        3.9360     3.1290    -1.8190 H     1 <1>   0.0800 
 33 H        3.9700     3.2180     1.2400 H     1 <1>   0.0800 
 34 H        4.2420     1.7910     0.2520 H     1 <1>   0.0800 
 35 H        2.9790     1.8040     1.4630 H     1 <1>   0.0800 
 36 H       -1.2880     1.4230     1.3910 H     1 <1>   0.0800 
 37 H       -1.4470     2.6560    -1.0360 H     1 <1>   0.0800 
 38 H        1.0140     2.5910     2.2990 H     1 <1>   0.0800 
 39 H       -0.5900     3.0670     2.8070 H     1 <1>   0.0800 
 40 H       -2.4480     3.7550     1.3560 H     1 <1>   0.4000 
 41 H       -1.1480     5.1940    -0.0450 H     1 <1>   0.0800 
 42 H        0.2070     4.3610    -0.7800 H     1 <1>   0.0800 
 43 H        1.4160     6.1660    -0.1330 H     1 <1>   0.0800 
 44 H        0.7710     7.1560     1.1450 H     1 <1>   0.0800 
 45 H        2.9990     7.2880     2.1790 H     1 <1>   0.0800 
 46 H        3.6370     6.1880     0.9920 H     1 <1>   0.0800 
 47 H        2.5420     8.9540     0.4200 H     1 <1>   0.0800 
 48 H        3.1100     7.8430    -0.7970 H     1 <1>   0.0800 
 49 H        5.5290     7.5490     2.0800 H     1 <1>   0.1500 
 50 H        3.7330    10.2980    -1.8200 H     1 <1>   0.1500 
 51 H        7.5990     8.9510     1.6410 H     1 <1>   0.2700 
 52 H        8.3470    10.9660    -0.1660 H     1 <1>   0.1500 
 53 H        5.2100    11.9790    -2.8780 H     1 <1>   0.1500 
 54 H        7.4920    12.3080    -2.0600 H     1 <1>   0.1500 
@<TRIPOS>BOND
  1   1   2  2   
  2   1   3  2   
  3   1   4  am  
  4   1   5  1   
  5   4   6  1   
  6   4   7  1   
  7   5   8  1   
  8   5  28  1   
  9   5  29  1   
 10   6  30  1   
 11   6  31  1   
 12   6  32  1   
 13   7  33  1   
 14   7  34  1   
 15   7  35  1   
 16   8   9  1   
 17   8  10  1   
 18   8  36  1   
 19   9  11  1   
 20   9  12  1   
 21   9  37  1   
 22  10  13  1   
 23  10  38  1   
 24  10  39  1   
 25  11  40  1   
 26  12  13  1   
 27  12  41  1   
 28  12  42  1   
 29  13  14  am  
 30  14  15  2   
 31  14  16  1   
 32  16  17  1   
 33  16  43  1   
 34  16  44  1   
 35  17  18  1   
 36  17  45  1   
 37  17  46  1   
 38  18  19  1   
 39  18  47  1   
 40  18  48  1   
 41  19  20  1   
 42  19  21  2   
 43  20  22  ar  
 44  20  23  ar  
 45  21  24  1   
 46  21  49  1   
 47  22  24  1   
 48  22  25  ar  
 49  23  26  ar  
 50  23  50  1   
 51  24  51  1   
 52  25  27  ar  
 53  25  52  1   
 54  26  27  ar  
 55  26  53  1   
 56  27  54  1   
@<TRIPOS>SUBSTRUCTURE
  1 ****  17 GROUP 4 **** **** 0

# MOE 2024.06 (io_trps.svl 2023.06)
