@<TRIPOS>MOLECULE
NONAME
51 53 1 0 0 
SMALL
USER_CHARGES


@<TRIPOS>ATOM
  1 O       -0.1530     3.3190    -0.0210 O.2   1 <1>  -0.5700 
  2 C        1.0100     3.0290    -0.1890 C.2   1 <1>   0.5690 
  3 N        1.5810     3.0930    -1.4320 N.am  1 <1>  -0.7300 
  4 C        1.8670     2.6210     1.0400 C.3   1 <1>   0.4940 
  5 C        0.8720     3.3990    -2.7000 C.3   1 <1>   0.0600 
  6 N        3.1870     3.3320     1.0850 N.pl3 1 <1>  -0.8690 
  7 C        2.1690     1.1200     1.1350 C.ar  1 <1>  -0.1430 
  8 C        3.4340     4.5740     0.6400 C.ar  1 <1>   0.4100 
  9 C        1.7440     0.1980     0.1830 C.ar  1 <1>  -0.1500 
 10 C        2.8950     0.6560     2.2260 C.ar  1 <1>  -0.1500 
 11 N        4.4310     4.6300    -0.2100 N.ar  1 <1>  -0.6200 
 12 C        2.6950     5.7190     1.0280 C.ar  1 <1>  -0.1430 
 13 C        2.0470    -1.1460     0.3170 C.ar  1 <1>  -0.1500 
 14 C        3.1990    -0.6870     2.3610 C.ar  1 <1>  -0.1500 
 15 C        4.7230     5.8030    -0.7540 C.ar  1 <1>   0.7710 
 16 C        3.0050     6.9030     0.4330 C.ar  1 <1>   0.2180 
 17 C        1.6020     5.6410     2.0970 C.3   1 <1>  -0.0170 
 18 C        2.7760    -1.5900     1.4050 C.ar  1 <1>  -0.1500 
 19 N        4.0200     6.9080    -0.4610 N.ar  1 <1>  -0.1790 
 20 N        5.7560     5.8940    -1.6390 N.pl3 1 <1>  -0.8380 
 21 C        2.3000     8.2240     0.7290 C.3   1 <1>  -0.0170 
 22 C        1.2450     7.0160     2.6750 C.3   1 <1>  -0.1600 
 23 C        6.4990     4.6720    -2.0980 C.3   1 <1>   0.1290 
 24 C        6.3530     7.1490    -2.2010 C.3   1 <1>   0.1290 
 25 C        1.0190     8.0310     1.5510 C.3   1 <1>  -0.1600 
 26 H        2.5860     2.9020    -1.5050 H     1 <1>   0.3700 
 27 H        1.3080     2.8850     1.9190 H     1 <1>   0.0800 
 28 H       -0.1750     3.5740    -2.5120 H     1 <1>   0.0800 
 29 H        0.9660     2.5690    -3.3780 H     1 <1>   0.0800 
 30 H        1.2950     4.2780    -3.1530 H     1 <1>   0.0800 
 31 H        3.9440     2.6560     0.9440 H     1 <1>   0.4000 
 32 H        1.1680     0.4980    -0.6750 H     1 <1>   0.1500 
 33 H        3.2310     1.3430     2.9860 H     1 <1>   0.1500 
 34 H        1.7130    -1.8490    -0.4260 H     1 <1>   0.1500 
 35 H        3.7640    -1.0290     3.2110 H     1 <1>   0.1500 
 36 H        1.9200     5.0020     2.9030 H     1 <1>   0.0800 
 37 H        0.7140     5.2150     1.6630 H     1 <1>   0.0800 
 38 H        3.0100    -2.6360     1.5080 H     1 <1>   0.1500 
 39 H        4.3010     7.7430    -0.9550 H     1 <1>   0.4570 
 40 H        2.0460     8.7260    -0.1890 H     1 <1>   0.0800 
 41 H        2.9730     8.8570     1.2820 H     1 <1>   0.0800 
 42 H        2.0390     7.3560     3.3190 H     1 <1>   0.0800 
 43 H        0.3530     6.9300     3.2730 H     1 <1>   0.0800 
 44 H        5.9010     3.7820    -2.0010 H     1 <1>   0.0800 
 45 H        7.3950     4.5490    -1.5130 H     1 <1>   0.0800 
 46 H        6.7730     4.7700    -3.1360 H     1 <1>   0.0800 
 47 H        6.0860     8.0170    -1.6260 H     1 <1>   0.0800 
 48 H        6.0310     7.2830    -3.2210 H     1 <1>   0.0800 
 49 H        7.4290     7.0740    -2.1930 H     1 <1>   0.0800 
 50 H        0.2270     7.6760     0.9110 H     1 <1>   0.0800 
 51 H        0.7050     8.9740     1.9650 H     1 <1>   0.0800 
@<TRIPOS>BOND
  1   1   2  2   
  2   2   3  am  
  3   2   4  1   
  4   3   5  1   
  5   3  26  1   
  6   4   6  1   
  7   4   7  1   
  8   4  27  1   
  9   5  28  1   
 10   5  29  1   
 11   5  30  1   
 12   6   8  1   
 13   6  31  1   
 14   7   9  ar  
 15   7  10  ar  
 16   8  11  ar  
 17   8  12  ar  
 18   9  13  ar  
 19   9  32  1   
 20  10  14  ar  
 21  10  33  1   
 22  11  15  ar  
 23  12  16  ar  
 24  12  17  1   
 25  13  18  ar  
 26  13  34  1   
 27  14  18  ar  
 28  14  35  1   
 29  15  19  ar  
 30  15  20  1   
 31  16  19  ar  
 32  16  21  1   
 33  17  22  1   
 34  17  36  1   
 35  17  37  1   
 36  18  38  1   
 37  19  39  1   
 38  20  23  1   
 39  20  24  1   
 40  21  25  1   
 41  21  40  1   
 42  21  41  1   
 43  22  25  1   
 44  22  42  1   
 45  22  43  1   
 46  23  44  1   
 47  23  45  1   
 48  23  46  1   
 49  24  47  1   
 50  24  48  1   
 51  24  49  1   
 52  25  50  1   
 53  25  51  1   
@<TRIPOS>SUBSTRUCTURE
  1 ****   8 GROUP 4 **** **** 0

# MOE 2024.06 (io_trps.svl 2023.06)
