@<TRIPOS>MOLECULE
NONAME
54 57 1 0 0 
SMALL
USER_CHARGES


@<TRIPOS>ATOM
  1 F       -2.5020    -0.2520    -2.0440 F     1 <1>  -0.1900 
  2 C       -2.7820     0.8290    -1.3660 C.ar  1 <1>   0.1900 
  3 C       -2.0190     1.9590    -1.5670 C.ar  1 <1>  -0.1500 
  4 C       -3.8340     0.7930    -0.4720 C.ar  1 <1>  -0.1500 
  5 C       -2.2900     3.1340    -0.8600 C.ar  1 <1>   0.0860 
  6 C       -4.1220     1.9430     0.2380 C.ar  1 <1>  -0.1500 
  7 C       -1.4720     4.3130    -1.1010 C.2   1 <1>   0.5440 
  8 C       -3.3700     3.0970     0.0450 C.ar  1 <1>   0.0830 
  9 O       -0.7860     4.3980    -2.1010 O.2   1 <1>  -0.5700 
 10 N       -1.4630     5.3670    -0.2360 N.am  1 <1>  -0.7300 
 11 O       -3.7120     4.1710     0.7860 O.3   1 <1>  -0.3630 
 12 C       -1.0320     6.7380    -0.5970 C.3   1 <1>   0.2200 
 13 C       -4.7680     4.9830     0.3230 C.3   1 <1>   0.1200 
 14 C       -0.6470     7.5400     0.6570 C.3   1 <1>   0.2000 
 15 C       -2.1700     7.4240    -1.3520 C.3   1 <1>  -0.1600 
 16 C       -5.2390     5.8330     1.5050 C.3   1 <1>  -0.1600 
 17 O        0.4500     6.9390     1.2610 O.3   1 <1>  -0.6800 
 18 C       -0.3170     8.9930     0.3010 C.3   1 <1>   0.1400 
 19 C       -1.8120     8.8650    -1.7080 C.3   1 <1>   0.1400 
 20 C       -6.3320     6.8380     1.1130 C.3   1 <1>   0.0960 
 21 N       -1.4530     9.6090    -0.4640 N.am  1 <1>  -0.6600 
 22 N       -5.7850     7.9830     0.3570 N.pl3 1 <1>   0.3140 
 23 C       -2.1180    10.7050     0.0340 C.2   1 <1>   0.5690 
 24 N       -5.7100     8.0240    -0.9770 N.2   1 <1>  -0.4180 
 25 C       -5.3650     9.1430     0.8600 C.2   1 <1>  -0.3020 
 26 O       -1.9010    11.1210     1.1470 O.2   1 <1>  -0.5700 
 27 C       -3.1410    11.4870    -0.7750 C.3   1 <1>  -0.0990 
 28 N       -5.2620     9.1830    -1.3240 N.2   1 <1>  -0.2270 
 29 C       -5.0500     9.8890    -0.2070 C.2   1 <1>   0.0460 
 30 C       -4.5610    11.3270    -0.2180 C.3   1 <1>   0.0210 
 31 H       -1.2110     1.9290    -2.2770 H     1 <1>   0.1500 
 32 H       -4.4020    -0.1110    -0.3400 H     1 <1>   0.1500 
 33 H       -4.9290     1.9470     0.9480 H     1 <1>   0.1500 
 34 H       -2.1190     5.3050     0.5500 H     1 <1>   0.3700 
 35 H       -0.1740     6.6850    -1.2480 H     1 <1>   0.0800 
 36 H       -4.4000     5.5880    -0.4870 H     1 <1>   0.0800 
 37 H       -5.5640     4.3510    -0.0360 H     1 <1>   0.0800 
 38 H       -1.4580     7.5330     1.3640 H     1 <1>   0.0800 
 39 H       -2.3830     6.8850    -2.2580 H     1 <1>   0.0800 
 40 H       -3.0550     7.4360    -0.7450 H     1 <1>   0.0800 
 41 H       -5.6400     5.1720     2.2530 H     1 <1>   0.0800 
 42 H       -4.4060     6.3620     1.9360 H     1 <1>   0.0800 
 43 H        0.3550     5.9670     1.1810 H     1 <1>   0.4000 
 44 H        0.5680     9.0220    -0.3100 H     1 <1>   0.0800 
 45 H       -0.1220     9.5420     1.2060 H     1 <1>   0.0800 
 46 H       -2.6530     9.3010    -2.2120 H     1 <1>   0.0800 
 47 H       -0.9730     8.8800    -2.3830 H     1 <1>   0.0800 
 48 H       -6.8010     7.2250     1.9990 H     1 <1>   0.0800 
 49 H       -7.0870     6.3610     0.5150 H     1 <1>   0.0800 
 50 H       -5.3260     9.3710     1.9090 H     1 <1>   0.1500 
 51 H       -2.8710    12.5240    -0.7100 H     1 <1>   0.0800 
 52 H       -3.1210    11.2340    -1.8150 H     1 <1>   0.0800 
 53 H       -5.2420    11.9150    -0.8060 H     1 <1>   0.0800 
 54 H       -4.5850    11.7070     0.7880 H     1 <1>   0.0800 
@<TRIPOS>BOND
  1   1   2  1   
  2   2   3  ar  
  3   2   4  ar  
  4   3   5  ar  
  5   3  31  1   
  6   4   6  ar  
  7   4  32  1   
  8   5   7  1   
  9   5   8  ar  
 10   6   8  ar  
 11   6  33  1   
 12   7   9  2   
 13   7  10  am  
 14   8  11  1   
 15  10  12  1   
 16  10  34  1   
 17  11  13  1   
 18  12  14  1   
 19  12  15  1   
 20  12  35  1   
 21  13  16  1   
 22  13  36  1   
 23  13  37  1   
 24  14  17  1   
 25  14  18  1   
 26  14  38  1   
 27  15  19  1   
 28  15  39  1   
 29  15  40  1   
 30  16  20  1   
 31  16  41  1   
 32  16  42  1   
 33  17  43  1   
 34  18  21  1   
 35  18  44  1   
 36  18  45  1   
 37  19  21  1   
 38  19  46  1   
 39  19  47  1   
 40  20  22  1   
 41  20  48  1   
 42  20  49  1   
 43  21  23  am  
 44  22  24  1   
 45  22  25  1   
 46  23  26  2   
 47  23  27  1   
 48  24  28  2   
 49  25  29  2   
 50  25  50  1   
 51  27  30  1   
 52  27  51  1   
 53  27  52  1   
 54  28  29  1   
 55  29  30  1   
 56  30  53  1   
 57  30  54  1   
@<TRIPOS>SUBSTRUCTURE
  1 ****  15 GROUP 4 **** **** 0

# MOE 2024.06 (io_trps.svl 2023.06)
