@<TRIPOS>MOLECULE
NONAME
49 52 1 0 0 
SMALL
USER_CHARGES


@<TRIPOS>ATOM
  1 O        0.0890     1.5390    -0.2790 O.2   1 <1>  -0.5700 
  2 C       -0.2590     2.6360    -0.6480 C.2   1 <1>   0.5690 
  3 N       -1.1710     3.4090     0.0210 N.am  1 <1>  -0.5090 
  4 C        0.3580     3.2000    -1.9210 C.3   1 <1>   0.1810 
  5 C       -1.5710     4.7550    -0.5070 C.3   1 <1>   0.3640 
  6 C       -1.6200     3.0800     1.3980 C.3   1 <1>   0.0490 
  7 O        0.5680     4.5830    -1.7990 O.3   1 <1>  -0.5600 
  8 C       -2.9870     4.6910    -1.0820 C.ar  1 <1>  -0.1440 
  9 C       -0.6170     5.3420    -1.5900 C.3   1 <1>   0.2610 
 10 C       -2.3030     1.7700     1.6350 C.3   1 <1>  -0.2000 
 11 C       -3.0780     3.0420     1.7430 C.3   1 <1>  -0.2000 
 12 C       -3.8520     5.7590    -0.8840 C.ar  1 <1>   0.1600 
 13 C       -3.4430     3.6010    -1.8040 C.ar  1 <1>  -0.1500 
 14 C       -0.2680     6.7910    -1.2330 C.2   1 <1>   0.5690 
 15 N       -5.0960     5.8230    -1.3320 N.ar  1 <1>  -0.6200 
 16 C       -4.7360     3.6530    -2.2780 C.ar  1 <1>  -0.1500 
 17 O       -1.1550     7.5520    -0.9270 O.2   1 <1>  -0.5700 
 18 N        1.0320     7.1930    -1.2530 N.am  1 <1>  -0.7300 
 19 C       -5.5090     4.7700    -2.0170 C.ar  1 <1>   0.1600 
 20 C        1.5120     8.5680    -0.9820 C.3   1 <1>   0.1400 
 21 C        1.9290     8.6960     0.4830 C.3   1 <1>  -0.0170 
 22 C        2.3880    10.1150     0.7810 C.ar  1 <1>  -0.1440 
 23 C        3.7360    10.4450     0.8040 C.ar  1 <1>   0.1600 
 24 C        1.4590    11.1060     1.0300 C.ar  1 <1>  -0.1500 
 25 N        4.2190    11.6530     1.0480 N.ar  1 <1>  -0.6200 
 26 C        1.9440    12.3700     1.2880 C.ar  1 <1>  -0.1500 
 27 C        3.3120    12.5860     1.2840 C.ar  1 <1>   0.1600 
 28 H       -0.2830     3.0130    -2.7640 H     1 <1>   0.0800 
 29 H        1.3120     2.7350    -2.0930 H     1 <1>   0.0800 
 30 H       -1.5850     5.4270     0.3340 H     1 <1>   0.0800 
 31 H       -0.9230     3.4200     2.1460 H     1 <1>   0.1000 
 32 H       -1.1330     5.3700    -2.5330 H     1 <1>   0.0800 
 33 H       -2.4720     1.1220     0.7930 H     1 <1>   0.1000 
 34 H       -2.0730     1.2280     2.5350 H     1 <1>   0.1000 
 35 H       -3.3880     3.3600     2.7230 H     1 <1>   0.1000 
 36 H       -3.8350     3.2180     1.0000 H     1 <1>   0.1000 
 37 H       -3.5070     6.6170    -0.3290 H     1 <1>   0.1500 
 38 H       -2.8310     2.7360    -1.9900 H     1 <1>   0.1500 
 39 H       -5.1460     2.8350    -2.8420 H     1 <1>   0.1500 
 40 H        1.7350     6.4870    -1.4970 H     1 <1>   0.3700 
 41 H       -6.5180     4.8000    -2.3900 H     1 <1>   0.1500 
 42 H        2.3450     8.7920    -1.6270 H     1 <1>   0.0800 
 43 H        0.7240     9.2720    -1.1940 H     1 <1>   0.0800 
 44 H        1.0900     8.4560     1.1130 H     1 <1>   0.0800 
 45 H        2.7220     8.0020     0.6970 H     1 <1>   0.0800 
 46 H        4.4620     9.6740     0.6110 H     1 <1>   0.1500 
 47 H        0.4010    10.9060     1.0240 H     1 <1>   0.1500 
 48 H        1.2710    13.1830     1.4900 H     1 <1>   0.1500 
 49 H        3.6780    13.5780     1.4870 H     1 <1>   0.1500 
@<TRIPOS>BOND
  1   1   2  2   
  2   2   3  am  
  3   2   4  1   
  4   3   5  1   
  5   3   6  1   
  6   4   7  1   
  7   4  28  1   
  8   4  29  1   
  9   5   8  1   
 10   5   9  1   
 11   5  30  1   
 12   6  10  1   
 13   6  11  1   
 14   6  31  1   
 15   7   9  1   
 16   8  12  ar  
 17   8  13  ar  
 18   9  14  1   
 19   9  32  1   
 20  10  11  1   
 21  10  33  1   
 22  10  34  1   
 23  11  35  1   
 24  11  36  1   
 25  12  15  ar  
 26  12  37  1   
 27  13  16  ar  
 28  13  38  1   
 29  14  17  2   
 30  14  18  am  
 31  15  19  ar  
 32  16  19  ar  
 33  16  39  1   
 34  18  20  1   
 35  18  40  1   
 36  19  41  1   
 37  20  21  1   
 38  20  42  1   
 39  20  43  1   
 40  21  22  1   
 41  21  44  1   
 42  21  45  1   
 43  22  23  ar  
 44  22  24  ar  
 45  23  25  ar  
 46  23  46  1   
 47  24  26  ar  
 48  24  47  1   
 49  25  27  ar  
 50  26  27  ar  
 51  26  48  1   
 52  27  49  1   
@<TRIPOS>SUBSTRUCTURE
  1 ****  14 GROUP 4 **** **** 0

# MOE 2024.06 (io_trps.svl 2023.06)
