@<TRIPOS>MOLECULE
NONAME
50 52 1 0 0 
SMALL
USER_CHARGES


@<TRIPOS>ATOM
  1 F        2.2510     1.2210    -2.8230 F     1 <1>  -0.1900 
  2 C        3.0020     1.5520    -1.7930 C.ar  1 <1>   0.1900 
  3 C        3.2030     0.6920    -0.7110 C.ar  1 <1>   0.4100 
  4 C        3.5910     2.7860    -1.7860 C.ar  1 <1>   0.1600 
  5 N        3.9490     1.0970     0.3020 N.ar  1 <1>  -0.6200 
  6 N        2.6560    -0.5870    -0.6080 N.pl3 1 <1>  -0.8380 
  7 N        4.3440     3.1870    -0.7810 N.ar  1 <1>  -0.6200 
  8 C        4.4730     2.3060     0.2060 C.ar  1 <1>   0.7200 
  9 C        2.3900    -1.4520    -1.7830 C.3   1 <1>   0.2090 
 10 C        2.8210    -1.4130     0.6130 C.3   1 <1>   0.2090 
 11 N        5.2330     2.6550     1.2700 N.pl3 1 <1>  -0.8690 
 12 C        2.5700    -2.8790    -1.2780 C.3   1 <1>  -0.1600 
 13 C        2.3100    -2.7930     0.2220 C.3   1 <1>  -0.1600 
 14 C        5.3890     4.0610     1.7210 C.3   1 <1>   0.2090 
 15 C        6.5920     4.7030     1.0330 C.3   1 <1>   0.1200 
 16 O        6.7870     5.9950     1.5700 O.3   1 <1>  -0.3630 
 17 C        7.7690     6.8040     1.0990 C.ar  1 <1>   0.0820 
 18 C        8.6600     6.4370     0.0950 C.ar  1 <1>  -0.1500 
 19 C        7.8680     8.0630     1.6670 C.ar  1 <1>  -0.1500 
 20 C        9.6330     7.3270    -0.3270 C.ar  1 <1>  -0.1500 
 21 C        8.8410     8.9510     1.2430 C.ar  1 <1>  -0.1500 
 22 C        9.7300     8.5870     0.2430 C.ar  1 <1>  -0.1430 
 23 C       10.7970     9.5620    -0.2270 C.3   1 <1>  -0.0170 
 24 C       10.2750    10.4070    -1.3940 C.3   1 <1>  -0.1600 
 25 C       11.3340    11.3970    -1.8920 C.3   1 <1>  -0.2400 
 26 H        3.4420     3.4560    -2.6130 H     1 <1>   0.1500 
 27 H        3.0700    -1.2380    -2.5900 H     1 <1>   0.0800 
 28 H        1.3760    -1.2950    -2.1100 H     1 <1>   0.0800 
 29 H        2.2620    -0.9960     1.4330 H     1 <1>   0.0800 
 30 H        3.8650    -1.4630     0.8740 H     1 <1>   0.0800 
 31 H        5.1340     1.9660     2.0150 H     1 <1>   0.4000 
 32 H        3.5860    -3.1840    -1.4560 H     1 <1>   0.0800 
 33 H        1.9050    -3.5640    -1.7720 H     1 <1>   0.0800 
 34 H        1.2530    -2.8380     0.4150 H     1 <1>   0.0800 
 35 H        2.8050    -3.5720     0.7730 H     1 <1>   0.0800 
 36 H        5.5390     4.0740     2.7870 H     1 <1>   0.0800 
 37 H        4.4990     4.6210     1.4860 H     1 <1>   0.0800 
 38 H        6.4080     4.7970    -0.0230 H     1 <1>   0.0800 
 39 H        7.4780     4.1240     1.2150 H     1 <1>   0.0800 
 40 H        8.6140     5.4710    -0.3700 H     1 <1>   0.1500 
 41 H        7.1770     8.3440     2.4410 H     1 <1>   0.1500 
 42 H       10.3150     7.0360    -1.1060 H     1 <1>   0.1500 
 43 H        8.9010     9.9260     1.6920 H     1 <1>   0.1500 
 44 H       11.6720     9.0170    -0.5340 H     1 <1>   0.0800 
 45 H       11.0830    10.2040     0.5880 H     1 <1>   0.0800 
 46 H        9.4000    10.9480    -1.0780 H     1 <1>   0.0800 
 47 H        9.9860     9.7570    -2.2020 H     1 <1>   0.0800 
 48 H       11.6190    12.0710    -1.1040 H     1 <1>   0.0800 
 49 H       10.9400    11.9750    -2.7100 H     1 <1>   0.0800 
 50 H       12.2090    10.8720    -2.2350 H     1 <1>   0.0800 
@<TRIPOS>BOND
  1   1   2  1   
  2   2   3  ar  
  3   2   4  ar  
  4   3   5  ar  
  5   3   6  1   
  6   4   7  ar  
  7   4  26  1   
  8   5   8  ar  
  9   6   9  1   
 10   6  10  1   
 11   7   8  ar  
 12   8  11  1   
 13   9  12  1   
 14   9  27  1   
 15   9  28  1   
 16  10  13  1   
 17  10  29  1   
 18  10  30  1   
 19  11  14  1   
 20  11  31  1   
 21  12  13  1   
 22  12  32  1   
 23  12  33  1   
 24  13  34  1   
 25  13  35  1   
 26  14  15  1   
 27  14  36  1   
 28  14  37  1   
 29  15  16  1   
 30  15  38  1   
 31  15  39  1   
 32  16  17  1   
 33  17  18  ar  
 34  17  19  ar  
 35  18  20  ar  
 36  18  40  1   
 37  19  21  ar  
 38  19  41  1   
 39  20  22  ar  
 40  20  42  1   
 41  21  22  ar  
 42  21  43  1   
 43  22  23  1   
 44  23  24  1   
 45  23  44  1   
 46  23  45  1   
 47  24  25  1   
 48  24  46  1   
 49  24  47  1   
 50  25  48  1   
 51  25  49  1   
 52  25  50  1   
@<TRIPOS>SUBSTRUCTURE
  1 ****  15 GROUP 4 **** **** 0

# MOE 2024.06 (io_trps.svl 2023.06)
