@<TRIPOS>MOLECULE
NONAME
55 57 1 0 0 
SMALL
USER_CHARGES


@<TRIPOS>ATOM
  1 S       -0.9800     0.6540     1.0050 S.o2  1 <1>   1.4470 
  2 O       -0.9070    -0.4740     1.9040 O.2   1 <1>  -0.6500 
  3 O       -1.8140     1.7770     1.3580 O.2   1 <1>  -0.6500 
  4 N       -1.6580     0.1250    -0.4400 N.am  1 <1>  -0.9140 
  5 C        0.6750     1.2240     0.5300 C.ar  1 <1>  -0.0090 
  6 C       -1.5060    -1.2700    -0.8710 C.3   1 <1>   0.2760 
  7 C        1.8120     0.7710     1.1900 C.ar  1 <1>  -0.1500 
  8 C        0.8490     2.1280    -0.5110 C.ar  1 <1>  -0.1500 
  9 C       -2.3240    -2.2740    -0.0520 C.3   1 <1>  -0.0800 
 10 C       -0.0820    -1.8380    -0.8610 C.3   1 <1>   0.1200 
 11 C        3.0750     1.1970     0.8200 C.ar  1 <1>  -0.1500 
 12 C        2.1100     2.5590    -0.8870 C.ar  1 <1>  -0.1500 
 13 C       -1.2700    -3.3000     0.3770 C.3   1 <1>   0.1200 
 14 C       -3.4440    -2.9100    -0.8970 C.3   1 <1>  -0.0170 
 15 O       -0.2420    -3.1830    -0.5510 O.3   1 <1>  -0.5600 
 16 C        3.2330     2.0930    -0.2240 C.ar  1 <1>  -0.1430 
 17 C       -4.2530    -3.9210    -0.1000 C.ar  1 <1>  -0.1430 
 18 C        4.6200     2.5630    -0.6330 C.3   1 <1>  -0.0170 
 19 C       -4.1550    -5.2790    -0.3290 C.ar  1 <1>  -0.1500 
 20 C       -5.1310    -3.5340     0.8930 C.ar  1 <1>  -0.1500 
 21 C        5.0150     3.8190     0.1510 C.3   1 <1>  -0.1600 
 22 C       -4.9150    -6.1590     0.4250 C.ar  1 <1>   0.1600 
 23 C       -5.8450    -4.4960     1.5890 C.ar  1 <1>   0.1600 
 24 C        6.4120     4.3150    -0.2450 C.3   1 <1>  -0.1600 
 25 N       -5.7580    -5.8000     1.3790 N.ar  1 <1>  -0.6200 
 26 C        6.7970     5.5710     0.5450 C.3   1 <1>  -0.1600 
 27 C        8.1900     6.0660     0.1490 C.3   1 <1>  -0.2400 
 28 H       -2.6480     0.3300    -0.3270 H     1 <1>   0.4200 
 29 H       -1.8380    -1.3140    -1.8950 H     1 <1>   0.0800 
 30 H        1.7090     0.0740     2.0060 H     1 <1>   0.1500 
 31 H       -0.0150     2.5000    -1.0350 H     1 <1>   0.1500 
 32 H       -2.7590    -1.8290     0.8250 H     1 <1>   0.0800 
 33 H        0.5400    -1.4080    -0.0990 H     1 <1>   0.0800 
 34 H        0.3950    -1.7570    -1.8220 H     1 <1>   0.0800 
 35 H        3.9370     0.8290     1.3500 H     1 <1>   0.1500 
 36 H        2.2140     3.2610    -1.6960 H     1 <1>   0.1500 
 37 H       -1.6280    -4.3140     0.3830 H     1 <1>   0.0800 
 38 H       -0.8700    -3.0550     1.3470 H     1 <1>   0.0800 
 39 H       -3.0160    -3.3920    -1.7600 H     1 <1>   0.0800 
 40 H       -4.1080    -2.1410    -1.2510 H     1 <1>   0.0800 
 41 H        5.3340     1.7790    -0.4500 H     1 <1>   0.0800 
 42 H        4.6310     2.7740    -1.6880 H     1 <1>   0.0800 
 43 H       -3.4940    -5.6640    -1.0840 H     1 <1>   0.1500 
 44 H       -5.2690    -2.4960     1.1340 H     1 <1>   0.1500 
 45 H        4.2910     4.5940    -0.0360 H     1 <1>   0.0800 
 46 H        4.9970     3.5970     1.2050 H     1 <1>   0.0800 
 47 H       -4.8240    -7.2140     0.2320 H     1 <1>   0.1500 
 48 H       -6.5240    -4.1760     2.3610 H     1 <1>   0.1500 
 49 H        7.1360     3.5410    -0.0560 H     1 <1>   0.0800 
 50 H        6.4290     4.5390    -1.2990 H     1 <1>   0.0800 
 51 H        6.0780     6.3510     0.3580 H     1 <1>   0.0800 
 52 H        6.7860     5.3530     1.6000 H     1 <1>   0.0800 
 53 H        8.2180     6.3120    -0.8980 H     1 <1>   0.0800 
 54 H        8.9290     5.3100     0.3480 H     1 <1>   0.0800 
 55 H        8.4420     6.9470     0.7130 H     1 <1>   0.0800 
@<TRIPOS>BOND
  1   1   2  2   
  2   1   3  2   
  3   1   4  am  
  4   1   5  1   
  5   4   6  1   
  6   4  28  1   
  7   5   7  ar  
  8   5   8  ar  
  9   6   9  1   
 10   6  10  1   
 11   6  29  1   
 12   7  11  ar  
 13   7  30  1   
 14   8  12  ar  
 15   8  31  1   
 16   9  13  1   
 17   9  14  1   
 18   9  32  1   
 19  10  15  1   
 20  10  33  1   
 21  10  34  1   
 22  11  16  ar  
 23  11  35  1   
 24  12  16  ar  
 25  12  36  1   
 26  13  15  1   
 27  13  37  1   
 28  13  38  1   
 29  14  17  1   
 30  14  39  1   
 31  14  40  1   
 32  16  18  1   
 33  17  19  ar  
 34  17  20  ar  
 35  18  21  1   
 36  18  41  1   
 37  18  42  1   
 38  19  22  ar  
 39  19  43  1   
 40  20  23  ar  
 41  20  44  1   
 42  21  24  1   
 43  21  45  1   
 44  21  46  1   
 45  22  25  ar  
 46  22  47  1   
 47  23  25  ar  
 48  23  48  1   
 49  24  26  1   
 50  24  49  1   
 51  24  50  1   
 52  26  27  1   
 53  26  51  1   
 54  26  52  1   
 55  27  53  1   
 56  27  54  1   
 57  27  55  1   
@<TRIPOS>SUBSTRUCTURE
  1 ****   1 GROUP 4 **** **** 0

# MOE 2024.06 (io_trps.svl 2023.06)
