@<TRIPOS>MOLECULE
NONAME
44 46 1 0 0 
SMALL
USER_CHARGES


@<TRIPOS>ATOM
  1 S        0.6870     0.0820    -0.5780 S.o2  1 <1>   1.3330 
  2 O        0.6870     0.1690    -2.0210 O.2   1 <1>  -0.6500 
  3 O        1.9430     0.0630     0.1360 O.2   1 <1>  -0.6500 
  4 N       -0.1930    -1.2980    -0.1270 N.am  1 <1>  -0.8490 
  5 C       -0.3150     1.4300     0.0410 C.3   1 <1>  -0.0550 
  6 C        0.0720    -2.4370    -1.0120 C.3   1 <1>   0.1160 
  7 C        0.0210    -1.6930     1.2700 C.3   1 <1>   0.1160 
  8 C        0.2470     2.8190    -0.3240 C.3   1 <1>  -0.0800 
  9 C       -0.6570     3.9850     0.0750 C.3   1 <1>   0.2000 
 10 C        1.6000     3.1460     0.3280 C.3   1 <1>   0.2090 
 11 O       -1.1100     3.7800     1.3700 O.3   1 <1>  -0.6800 
 12 C        0.3000     5.1720     0.0930 C.3   1 <1>   0.2090 
 13 N        1.5680     4.6070     0.6280 N.pl3 1 <1>  -0.8210 
 14 C        2.7380     5.3350     0.4170 C.2   1 <1>   0.5990 
 15 N        3.9220     4.8480     0.4690 N.2   1 <1>  -0.4100 
 16 N        2.6890     6.6450     0.1500 N.2   1 <1>  -0.5650 
 17 O        4.6710     5.8680     0.2300 O.3   1 <1>  -0.0190 
 18 C        3.9370     6.9320     0.0440 C.2   1 <1>   0.4250 
 19 C        4.5430     8.2150    -0.2400 C.ar  1 <1>   0.0530 
 20 C        5.9260     8.3650    -0.3710 C.ar  1 <1>  -0.1500 
 21 C        3.7590     9.3600    -0.3970 C.ar  1 <1>  -0.1500 
 22 C        6.4970     9.5940    -0.6450 C.ar  1 <1>  -0.1500 
 23 C        4.3240    10.5920    -0.6700 C.ar  1 <1>  -0.1500 
 24 C        5.6960    10.7120    -0.7950 C.ar  1 <1>  -0.1500 
 25 H       -1.3020     1.3410    -0.3710 H     1 <1>   0.0800 
 26 H       -0.4010     1.3460     1.1070 H     1 <1>   0.0800 
 27 H       -0.5140    -3.2880    -0.7110 H     1 <1>   0.0800 
 28 H        1.1170    -2.6970    -0.9850 H     1 <1>   0.0800 
 29 H       -0.1960    -2.1860    -2.0250 H     1 <1>   0.0800 
 30 H       -0.6200    -2.5200     1.5230 H     1 <1>   0.0800 
 31 H       -0.2090    -0.8730     1.9280 H     1 <1>   0.0800 
 32 H        1.0470    -1.9850     1.4270 H     1 <1>   0.0800 
 33 H        0.3850     2.8620    -1.3910 H     1 <1>   0.0800 
 34 H       -1.5040     4.1220    -0.5750 H     1 <1>   0.0800 
 35 H        2.4120     2.8910    -0.3340 H     1 <1>   0.0800 
 36 H        1.7240     2.6070     1.2520 H     1 <1>   0.0800 
 37 H       -0.3540     3.9490     1.9740 H     1 <1>   0.4000 
 38 H       -0.0670     5.9730     0.7120 H     1 <1>   0.0800 
 39 H        0.4580     5.5340    -0.9080 H     1 <1>   0.0800 
 40 H        6.5680     7.5080    -0.2580 H     1 <1>   0.1500 
 41 H        2.6900     9.2810    -0.3010 H     1 <1>   0.1500 
 42 H        7.5650     9.6840    -0.7410 H     1 <1>   0.1500 
 43 H        3.6970    11.4600    -0.7860 H     1 <1>   0.1500 
 44 H        6.1380    11.6700    -1.0080 H     1 <1>   0.1500 
@<TRIPOS>BOND
  1   1   2  2   
  2   1   3  2   
  3   1   4  am  
  4   1   5  1   
  5   4   6  1   
  6   4   7  1   
  7   5   8  1   
  8   5  25  1   
  9   5  26  1   
 10   6  27  1   
 11   6  28  1   
 12   6  29  1   
 13   7  30  1   
 14   7  31  1   
 15   7  32  1   
 16   8   9  1   
 17   8  10  1   
 18   8  33  1   
 19   9  11  1   
 20   9  12  1   
 21   9  34  1   
 22  10  13  1   
 23  10  35  1   
 24  10  36  1   
 25  11  37  1   
 26  12  13  1   
 27  12  38  1   
 28  12  39  1   
 29  13  14  1   
 30  14  15  2   
 31  14  16  1   
 32  15  17  1   
 33  16  18  2   
 34  17  18  1   
 35  18  19  1   
 36  19  20  ar  
 37  19  21  ar  
 38  20  22  ar  
 39  20  40  1   
 40  21  23  ar  
 41  21  41  1   
 42  22  24  ar  
 43  22  42  1   
 44  23  24  ar  
 45  23  43  1   
 46  24  44  1   
@<TRIPOS>SUBSTRUCTURE
  1 ****  13 GROUP 4 **** **** 0

# MOE 2024.06 (io_trps.svl 2023.06)
