@<TRIPOS>MOLECULE
NONAME
42 44 1 0 0 
SMALL
USER_CHARGES


@<TRIPOS>ATOM
  1 O        3.6600    -0.9300    -0.6750 O.2   1 <1>  -0.5700 
  2 C        2.7290    -0.9310     0.0970 C.2   1 <1>   0.5690 
  3 N        2.0950     0.2240     0.4580 N.am  1 <1>  -0.4940 
  4 C        2.2290    -2.2640     0.7080 C.3   1 <1>   0.2810 
  5 C        2.3780     1.5430     0.1140 C.2   1 <1>   0.2040 
  6 N        0.7810    -2.5830     0.4580 N.am  1 <1>  -0.6600 
  7 C        2.9790    -3.5150     0.2110 C.3   1 <1>  -0.1600 
  8 O        1.3910     2.4000     0.0270 O.3   1 <1>  -0.0190 
  9 C        3.5290     2.2080    -0.1630 C.2   1 <1>  -0.0540 
 10 C       -0.2410    -1.9010     1.0530 C.2   1 <1>   0.5690 
 11 C        0.6470    -3.9100    -0.1840 C.3   1 <1>   0.1400 
 12 C        1.9380    -4.6290     0.1760 C.3   1 <1>  -0.1600 
 13 N        1.8000     3.5940    -0.3110 N.2   1 <1>  -0.4100 
 14 C        4.9020     1.7720    -0.1470 C.ar  1 <1>   0.0540 
 15 C        3.0740     3.5040    -0.4330 C.2   1 <1>   0.1080 
 16 O       -0.0340    -0.9560     1.7750 O.2   1 <1>  -0.5700 
 17 C       -1.6750    -2.3100     0.8160 C.3   1 <1>  -0.1790 
 18 C        5.5190     1.4170     1.0490 C.ar  1 <1>  -0.1500 
 19 C        5.6510     1.7020    -1.3180 C.ar  1 <1>  -0.1500 
 20 C        3.9630     4.6700    -0.8100 C.3   1 <1>  -0.0590 
 21 C        6.8420     1.0140     1.0780 C.ar  1 <1>  -0.1500 
 22 C        6.9740     1.2990    -1.2960 C.ar  1 <1>  -0.1500 
 23 C        7.5730     0.9560    -0.0960 C.ar  1 <1>  -0.1500 
 24 H        1.2170     0.0810     0.9780 H     1 <1>   0.3700 
 25 H        2.3640    -2.1970     1.7740 H     1 <1>   0.0800 
 26 H        3.3440    -3.3570    -0.7890 H     1 <1>   0.0800 
 27 H        3.8160    -3.7500     0.8440 H     1 <1>   0.0800 
 28 H       -0.2100    -4.4530     0.1770 H     1 <1>   0.0800 
 29 H        0.5750    -3.7800    -1.2510 H     1 <1>   0.0800 
 30 H        1.8380    -5.0730     1.1510 H     1 <1>   0.0800 
 31 H        2.1830    -5.3960    -0.5380 H     1 <1>   0.0800 
 32 H       -1.8440    -2.4750    -0.2310 H     1 <1>   0.0800 
 33 H       -2.3330    -1.5280     1.1510 H     1 <1>   0.0800 
 34 H       -1.8940    -3.2040     1.3670 H     1 <1>   0.0800 
 35 H        4.9510     1.4590     1.9600 H     1 <1>   0.1500 
 36 H        5.1840     1.9550    -2.2520 H     1 <1>   0.1500 
 37 H        4.7850     4.7410    -0.1220 H     1 <1>   0.0800 
 38 H        3.4010     5.5860    -0.7790 H     1 <1>   0.0800 
 39 H        4.3450     4.5280    -1.8040 H     1 <1>   0.0800 
 40 H        7.3030     0.7430     2.0120 H     1 <1>   0.1500 
 41 H        7.5360     1.2470    -2.2120 H     1 <1>   0.1500 
 42 H        8.6010     0.6400    -0.0770 H     1 <1>   0.1500 
@<TRIPOS>BOND
  1   1   2  2   
  2   2   3  am  
  3   2   4  1   
  4   3   5  1   
  5   3  24  1   
  6   4   6  1   
  7   4   7  1   
  8   4  25  1   
  9   5   8  1   
 10   5   9  2   
 11   6  10  am  
 12   6  11  1   
 13   7  12  1   
 14   7  26  1   
 15   7  27  1   
 16   8  13  1   
 17   9  14  1   
 18   9  15  1   
 19  10  16  2   
 20  10  17  1   
 21  11  12  1   
 22  11  28  1   
 23  11  29  1   
 24  12  30  1   
 25  12  31  1   
 26  13  15  2   
 27  14  18  ar  
 28  14  19  ar  
 29  15  20  1   
 30  17  32  1   
 31  17  33  1   
 32  17  34  1   
 33  18  21  ar  
 34  18  35  1   
 35  19  22  ar  
 36  19  36  1   
 37  20  37  1   
 38  20  38  1   
 39  20  39  1   
 40  21  23  ar  
 41  21  40  1   
 42  22  23  ar  
 43  22  41  1   
 44  23  42  1   
@<TRIPOS>SUBSTRUCTURE
  1 ****   3 GROUP 4 **** **** 0

# MOE 2024.06 (io_trps.svl 2023.06)
