@<TRIPOS>MOLECULE
NONAME
52 54 1 0 0 
SMALL
USER_CHARGES


@<TRIPOS>ATOM
  1 S       -0.9320     0.2820     0.4480 S.o2  1 <1>   1.4470 
  2 O       -0.8730    -0.8860     1.2950 O.2   1 <1>  -0.6500 
  3 O       -1.8400     1.3470     0.7960 O.2   1 <1>  -0.6500 
  4 N       -1.4910    -0.1900    -1.0670 N.am  1 <1>  -0.9140 
  5 C        0.7240     0.9440     0.1190 C.ar  1 <1>  -0.0090 
  6 C       -1.3040    -1.5550    -1.5850 C.3   1 <1>   0.2760 
  7 C        0.9180     1.9500    -0.8210 C.ar  1 <1>  -0.1500 
  8 C        1.8410     0.4630     0.7920 C.ar  1 <1>  -0.1500 
  9 C       -2.2500    -2.6270    -1.0300 C.3   1 <1>  -0.0800 
 10 C        0.0980    -2.1580    -1.3960 C.3   1 <1>   0.1200 
 11 C        2.1800     2.4530    -1.0850 C.ar  1 <1>  -0.1500 
 12 C        3.1060     0.9610     0.5320 C.ar  1 <1>  -0.1500 
 13 C       -1.3060    -3.5700    -0.2890 C.3   1 <1>   0.1200 
 14 C       -3.4770    -2.1780    -0.2130 C.3   1 <1>  -0.0170 
 15 O       -0.0970    -3.4710    -0.9690 O.3   1 <1>  -0.5600 
 16 C        3.2830     1.9590    -0.4110 C.ar  1 <1>  -0.1430 
 17 C       -4.2970    -3.3770     0.2370 C.ar  1 <1>  -0.1430 
 18 C        4.6710     2.5100    -0.6980 C.3   1 <1>  -0.0170 
 19 C       -4.1840    -3.8950     1.5110 C.ar  1 <1>  -0.1500 
 20 C       -5.1920    -4.0100    -0.6020 C.ar  1 <1>  -0.1500 
 21 C        4.9820     3.6940     0.2250 C.3   1 <1>  -0.1600 
 22 C       -4.9470    -4.9920     1.8740 C.ar  1 <1>   0.1600 
 23 C       -5.9080    -5.1020    -0.1390 C.ar  1 <1>   0.1600 
 24 C        6.3780     4.2690    -0.0450 C.3   1 <1>  -0.1600 
 25 N       -5.8060    -5.6090     1.0790 N.ar  1 <1>  -0.6200 
 26 C        6.6740     5.4500     0.8830 C.3   1 <1>  -0.2400 
 27 H       -2.4830     0.0320    -1.0420 H     1 <1>   0.4200 
 28 H       -1.4800    -1.4990    -2.6460 H     1 <1>   0.0800 
 29 H        0.0680     2.3450    -1.3520 H     1 <1>   0.1500 
 30 H        1.7230    -0.3140     1.5290 H     1 <1>   0.1500 
 31 H       -2.6150    -3.1870    -1.8730 H     1 <1>   0.0800 
 32 H        0.6780    -1.6610    -0.6440 H     1 <1>   0.0800 
 33 H        0.6460    -2.1840    -2.3210 H     1 <1>   0.0800 
 34 H        2.2990     3.2340    -1.8170 H     1 <1>   0.1500 
 35 H        3.9530     0.5700     1.0690 H     1 <1>   0.1500 
 36 H       -1.6430    -4.5920    -0.3130 H     1 <1>   0.0800 
 37 H       -1.1460    -3.2630     0.7300 H     1 <1>   0.0800 
 38 H       -4.0980    -1.5360    -0.8130 H     1 <1>   0.0800 
 39 H       -3.1810    -1.6230     0.6570 H     1 <1>   0.0800 
 40 H        5.4030     1.7340    -0.5530 H     1 <1>   0.0800 
 41 H        4.7290     2.8250    -1.7250 H     1 <1>   0.0800 
 42 H       -3.5090    -3.4570     2.2240 H     1 <1>   0.1500 
 43 H       -5.3400    -3.6670    -1.6090 H     1 <1>   0.1500 
 44 H        4.2410     4.4610     0.0760 H     1 <1>   0.0800 
 45 H        4.9180     3.3680     1.2500 H     1 <1>   0.0800 
 46 H       -4.8450    -5.3820     2.8720 H     1 <1>   0.1500 
 47 H       -6.6020    -5.5840    -0.8070 H     1 <1>   0.1500 
 48 H        7.1220     3.5060     0.1070 H     1 <1>   0.0800 
 49 H        6.4430     4.6000    -1.0680 H     1 <1>   0.0800 
 50 H        6.6370     5.1390     1.9130 H     1 <1>   0.0800 
 51 H        5.9550     6.2370     0.7330 H     1 <1>   0.0800 
 52 H        7.6550     5.8410     0.6800 H     1 <1>   0.0800 
@<TRIPOS>BOND
  1   1   2  2   
  2   1   3  2   
  3   1   4  am  
  4   1   5  1   
  5   4   6  1   
  6   4  27  1   
  7   5   7  ar  
  8   5   8  ar  
  9   6   9  1   
 10   6  10  1   
 11   6  28  1   
 12   7  11  ar  
 13   7  29  1   
 14   8  12  ar  
 15   8  30  1   
 16   9  13  1   
 17   9  14  1   
 18   9  31  1   
 19  10  15  1   
 20  10  32  1   
 21  10  33  1   
 22  11  16  ar  
 23  11  34  1   
 24  12  16  ar  
 25  12  35  1   
 26  13  15  1   
 27  13  36  1   
 28  13  37  1   
 29  14  17  1   
 30  14  38  1   
 31  14  39  1   
 32  16  18  1   
 33  17  19  ar  
 34  17  20  ar  
 35  18  21  1   
 36  18  40  1   
 37  18  41  1   
 38  19  22  ar  
 39  19  42  1   
 40  20  23  ar  
 41  20  43  1   
 42  21  24  1   
 43  21  44  1   
 44  21  45  1   
 45  22  25  ar  
 46  22  46  1   
 47  23  25  ar  
 48  23  47  1   
 49  24  26  1   
 50  24  48  1   
 51  24  49  1   
 52  26  50  1   
 53  26  51  1   
 54  26  52  1   
@<TRIPOS>SUBSTRUCTURE
  1 ****   1 GROUP 4 **** **** 0

# MOE 2024.06 (io_trps.svl 2023.06)
