@<TRIPOS>MOLECULE
NONAME
35 35 1 0 0 
SMALL
USER_CHARGES


@<TRIPOS>ATOM
  1 F       -0.1600     0.4390     0.3530 F     1 <1>  -0.1900 
  2 C       -1.3200    -0.1530     0.2510 C.ar  1 <1>   0.1900 
  3 C       -2.0860     0.0720    -0.8760 C.ar  1 <1>  -0.1500 
  4 C       -1.7380    -0.9830     1.2730 C.ar  1 <1>  -0.1500 
  5 C       -3.3150    -0.5570    -0.9800 C.ar  1 <1>  -0.1500 
  6 C       -2.9690    -1.6060     1.1570 C.ar  1 <1>  -0.1500 
  7 C       -3.7610    -1.3980     0.0340 C.ar  1 <1>  -0.1430 
  8 C       -5.1130    -2.0900    -0.0750 C.3   1 <1>   0.2540 
  9 N       -4.9730    -3.5580    -0.0710 N.3   1 <1>  -0.8100 
 10 C       -6.2940    -4.2030     0.0230 C.3   1 <1>   0.3100 
 11 C       -4.1770    -4.0560    -1.2290 C.3   1 <1>   0.1100 
 12 C       -6.1330    -5.6280     0.4270 C.1   1 <1>  -0.2000 
 13 C       -2.7530    -4.4370    -0.7990 C.3   1 <1>   0.1200 
 14 C       -5.9660    -6.7610     0.7420 C.1   1 <1>  -0.2000 
 15 O       -2.8430    -5.2130     0.3390 O.3   1 <1>  -0.6800 
 16 C       -5.7040    -8.1750     1.1320 C.3   1 <1>   0.0400 
 17 C       -6.5440    -9.1310     0.2840 C.3   1 <1>  -0.2400 
 18 H       -1.7250     0.7260    -1.6500 H     1 <1>   0.1500 
 19 H       -1.1140    -1.1390     2.1340 H     1 <1>   0.1500 
 20 H       -3.9220    -0.3900    -1.8540 H     1 <1>   0.1500 
 21 H       -3.3110    -2.2670     1.9360 H     1 <1>   0.1500 
 22 H       -5.6210    -1.7760    -0.9710 H     1 <1>   0.0800 
 23 H       -5.7080    -1.7870     0.7690 H     1 <1>   0.0800 
 24 H       -6.8090    -4.1410    -0.9200 H     1 <1>   0.0800 
 25 H       -6.8890    -3.7110     0.7740 H     1 <1>   0.0800 
 26 H       -4.1310    -3.3170    -2.0100 H     1 <1>   0.0800 
 27 H       -4.6330    -4.9360    -1.6520 H     1 <1>   0.0800 
 28 H       -2.1760    -3.5610    -0.5660 H     1 <1>   0.0800 
 29 H       -2.2470    -5.0030    -1.5620 H     1 <1>   0.0800 
 30 H       -3.6850    -4.9390     0.7770 H     1 <1>   0.4000 
 31 H       -5.9410    -8.3030     2.1730 H     1 <1>   0.0800 
 32 H       -4.6580    -8.3860     0.9940 H     1 <1>   0.0800 
 33 H       -7.5910    -8.9280     0.4220 H     1 <1>   0.0800 
 34 H       -6.3470   -10.1480     0.5710 H     1 <1>   0.0800 
 35 H       -6.3020    -9.0120    -0.7570 H     1 <1>   0.0800 
@<TRIPOS>BOND
  1   1   2  1   
  2   2   3  ar  
  3   2   4  ar  
  4   3   5  ar  
  5   3  18  1   
  6   4   6  ar  
  7   4  19  1   
  8   5   7  ar  
  9   5  20  1   
 10   6   7  ar  
 11   6  21  1   
 12   7   8  1   
 13   8   9  1   
 14   8  22  1   
 15   8  23  1   
 16   9  10  1   
 17   9  11  1   
 18  10  12  1   
 19  10  24  1   
 20  10  25  1   
 21  11  13  1   
 22  11  26  1   
 23  11  27  1   
 24  12  14  3   
 25  13  15  1   
 26  13  28  1   
 27  13  29  1   
 28  14  16  1   
 29  15  30  1   
 30  16  17  1   
 31  16  31  1   
 32  16  32  1   
 33  17  33  1   
 34  17  34  1   
 35  17  35  1   
@<TRIPOS>SUBSTRUCTURE
  1 ****   9 GROUP 4 **** **** 0

# MOE 2024.06 (io_trps.svl 2023.06)
