@<TRIPOS>MOLECULE
NONAME
48 50 1 0 0 
SMALL
USER_CHARGES


@<TRIPOS>ATOM
  1 O       -0.2380     1.2820    -1.2580 O.2   1 <1>  -0.5700 
  2 C       -0.5310     2.4430    -1.0890 C.2   1 <1>   0.5690 
  3 N       -1.3480     2.8840    -0.0780 N.am  1 <1>  -0.6600 
  4 C        0.0380     3.4620    -2.0720 C.3   1 <1>   0.1810 
  5 C       -1.6930     4.3420     0.0440 C.3   1 <1>   0.3640 
  6 C       -1.8860     2.0240     1.0130 C.3   1 <1>   0.2200 
  7 O        0.2500     4.7080    -1.4630 O.3   1 <1>  -0.5600 
  8 C       -3.1990     4.5170    -0.1660 C.ar  1 <1>  -0.1440 
  9 C       -0.9210     5.2940    -0.9150 C.3   1 <1>   0.2610 
 10 C       -0.7400     1.4670     1.8580 C.3   1 <1>  -0.2400 
 11 C       -2.7810     0.9140     0.4610 C.3   1 <1>  -0.2400 
 12 C       -3.8510     3.9210    -1.2390 C.ar  1 <1>  -0.1500 
 13 C       -3.9370     5.2900     0.7200 C.ar  1 <1>  -0.1500 
 14 C       -0.5650     6.5980    -0.1890 C.2   1 <1>   0.5690 
 15 C       -5.2120     4.0920    -1.4200 C.ar  1 <1>  -0.1500 
 16 C       -5.2980     5.4620     0.5400 C.ar  1 <1>  -0.1500 
 17 O       -1.3920     7.1650     0.4860 O.2   1 <1>  -0.5700 
 18 N        0.6870     7.1030    -0.3070 N.am  1 <1>  -0.7300 
 19 C       -5.9370     4.8620    -0.5300 C.ar  1 <1>  -0.1500 
 20 C        1.1910     8.3230     0.3720 C.3   1 <1>   0.3210 
 21 C        2.7110     8.4500     0.2750 C.2   1 <1>   0.3350 
 22 N        3.4840     7.6740    -0.3820 N.2   1 <1>  -0.4100 
 23 N        3.3570     9.4280     0.8980 N.2   1 <1>  -0.5650 
 24 O        4.6950     8.1110    -0.2190 O.3   1 <1>  -0.0190 
 25 C        4.5510     9.1590     0.5540 C.2   1 <1>   0.2980 
 26 C        5.7800     9.9370     0.9610 C.3   1 <1>  -0.0600 
 27 H       -0.6340     3.5880    -2.9010 H     1 <1>   0.0800 
 28 H        0.9850     3.1120    -2.4380 H     1 <1>   0.0800 
 29 H       -1.4550     4.6360     1.0530 H     1 <1>   0.0800 
 30 H       -2.4980     2.6310     1.6600 H     1 <1>   0.0800 
 31 H       -1.5590     5.5520    -1.7410 H     1 <1>   0.0800 
 32 H       -0.1350     0.7900     1.2830 H     1 <1>   0.0800 
 33 H       -1.1370     0.9290     2.6990 H     1 <1>   0.0800 
 34 H       -0.1260     2.2680     2.2250 H     1 <1>   0.0800 
 35 H       -2.2180     0.2160    -0.1300 H     1 <1>   0.0800 
 36 H       -3.5680     1.3340    -0.1380 H     1 <1>   0.0800 
 37 H       -3.2300     0.3740     1.2740 H     1 <1>   0.0800 
 38 H       -3.3040     3.3120    -1.9370 H     1 <1>   0.1500 
 39 H       -3.4560     5.7730     1.5540 H     1 <1>   0.1500 
 40 H       -5.7070     3.6230    -2.2520 H     1 <1>   0.1500 
 41 H       -5.8600     6.0650     1.2320 H     1 <1>   0.1500 
 42 H        1.3910     6.5710    -0.8340 H     1 <1>   0.3700 
 43 H       -6.9960     4.9960    -0.6690 H     1 <1>   0.1500 
 44 H        0.7390     9.1890    -0.0770 H     1 <1>   0.0800 
 45 H        0.9080     8.2940     1.4100 H     1 <1>   0.0800 
 46 H        5.5000    10.7620     1.5900 H     1 <1>   0.0800 
 47 H        6.2750    10.3150     0.0860 H     1 <1>   0.0800 
 48 H        6.4520     9.2960     1.5000 H     1 <1>   0.0800 
@<TRIPOS>BOND
  1   1   2  2   
  2   2   3  am  
  3   2   4  1   
  4   3   5  1   
  5   3   6  1   
  6   4   7  1   
  7   4  27  1   
  8   4  28  1   
  9   5   8  1   
 10   5   9  1   
 11   5  29  1   
 12   6  10  1   
 13   6  11  1   
 14   6  30  1   
 15   7   9  1   
 16   8  12  ar  
 17   8  13  ar  
 18   9  14  1   
 19   9  31  1   
 20  10  32  1   
 21  10  33  1   
 22  10  34  1   
 23  11  35  1   
 24  11  36  1   
 25  11  37  1   
 26  12  15  ar  
 27  12  38  1   
 28  13  16  ar  
 29  13  39  1   
 30  14  17  2   
 31  14  18  am  
 32  15  19  ar  
 33  15  40  1   
 34  16  19  ar  
 35  16  41  1   
 36  18  20  1   
 37  18  42  1   
 38  19  43  1   
 39  20  21  1   
 40  20  44  1   
 41  20  45  1   
 42  21  22  2   
 43  21  23  1   
 44  22  24  1   
 45  23  25  2   
 46  24  25  1   
 47  25  26  1   
 48  26  46  1   
 49  26  47  1   
 50  26  48  1   
@<TRIPOS>SUBSTRUCTURE
  1 ****   9 GROUP 4 **** **** 0

# MOE 2024.06 (io_trps.svl 2023.06)
