@<TRIPOS>MOLECULE
NONAME
43 45 1 0 0 
SMALL
USER_CHARGES


@<TRIPOS>ATOM
  1 S        0.3650    -0.1000     1.8690 S.o2  1 <1>   1.4470 
  2 O       -0.2680     0.9380     2.6520 O.2   1 <1>  -0.6500 
  3 O        1.0260    -1.1900     2.5540 O.2   1 <1>  -0.6500 
  4 N        1.5600     0.6430     0.9220 N.am  1 <1>  -0.8490 
  5 C       -0.8120    -0.7470     0.6480 C.ar  1 <1>  -0.0090 
  6 C        2.2720     1.6980     1.6710 C.3   1 <1>   0.1960 
  7 C        2.4350    -0.3260     0.2500 C.3   1 <1>   0.1960 
  8 C       -1.0440    -0.0870    -0.5570 C.ar  1 <1>  -0.1500 
  9 C       -1.5240    -1.9160     0.8990 C.ar  1 <1>  -0.1500 
 10 C        3.3770     2.4480     0.8900 C.3   1 <1>   0.2200 
 11 C        3.2110     0.2380    -0.9590 C.3   1 <1>  -0.0190 
 12 C       -1.9450    -0.5830    -1.4840 C.ar  1 <1>  -0.1500 
 13 C       -2.4300    -2.4230    -0.0190 C.ar  1 <1>  -0.1500 
 14 N        2.9510     2.6870    -0.5280 N.am  1 <1>  -0.6600 
 15 C        4.7520     1.7390     1.0280 C.3   1 <1>   0.1200 
 16 C        2.7860     1.6340    -1.3900 C.2   1 <1>   0.5690 
 17 C        4.7360     0.1570    -0.7690 C.3   1 <1>   0.1200 
 18 C       -2.6340    -1.7490    -1.2110 C.ar  1 <1>   0.1020 
 19 C        2.6190     4.0860    -0.9030 C.3   1 <1>   0.0600 
 20 O        5.2900     1.2970    -0.1840 O.3   1 <1>  -0.5600 
 21 O        2.3120     1.7660    -2.4960 O.2   1 <1>  -0.5700 
 22 S       -3.7890    -2.3360    -2.4620 S.3   1 <1>  -0.3310 
 23 C       -4.5550    -3.8800    -1.7990 C.3   1 <1>  -0.0100 
 24 H        1.5500     2.4400     1.9680 H     1 <1>   0.0800 
 25 H        2.6820     1.2860     2.5780 H     1 <1>   0.0800 
 26 H        3.1100    -0.7580     0.9700 H     1 <1>   0.0800 
 27 H        1.8240    -1.1330    -0.1210 H     1 <1>   0.0800 
 28 H       -0.5130     0.8260    -0.7780 H     1 <1>   0.1500 
 29 H       -1.3640    -2.4390     1.8280 H     1 <1>   0.1500 
 30 H        3.4890     3.4020     1.3730 H     1 <1>   0.0800 
 31 H        2.9890    -0.4210    -1.7780 H     1 <1>   0.0800 
 32 H       -2.1130    -0.0680    -2.4140 H     1 <1>   0.1500 
 33 H       -2.9590    -3.3270     0.2080 H     1 <1>   0.1500 
 34 H        4.7080     0.9060     1.7080 H     1 <1>   0.0800 
 35 H        5.4570     2.4430     1.4330 H     1 <1>   0.0800 
 36 H        5.2010     0.0660    -1.7360 H     1 <1>   0.0800 
 37 H        5.0190    -0.7000    -0.1830 H     1 <1>   0.0800 
 38 H        3.4760     4.7170    -0.7470 H     1 <1>   0.0800 
 39 H        1.7970     4.4380    -0.3050 H     1 <1>   0.0800 
 40 H        2.3380     4.1420    -1.9410 H     1 <1>   0.0800 
 41 H       -5.2520    -4.2380    -2.5360 H     1 <1>   0.0800 
 42 H       -5.0610    -3.6340    -0.8830 H     1 <1>   0.0800 
 43 H       -3.7700    -4.5970    -1.6380 H     1 <1>   0.0800 
@<TRIPOS>BOND
  1   1   2  2   
  2   1   3  2   
  3   1   4  am  
  4   1   5  1   
  5   4   6  1   
  6   4   7  1   
  7   5   8  ar  
  8   5   9  ar  
  9   6  10  1   
 10   6  24  1   
 11   6  25  1   
 12   7  11  1   
 13   7  26  1   
 14   7  27  1   
 15   8  12  ar  
 16   8  28  1   
 17   9  13  ar  
 18   9  29  1   
 19  10  14  1   
 20  10  15  1   
 21  10  30  1   
 22  11  16  1   
 23  11  17  1   
 24  11  31  1   
 25  12  18  ar  
 26  12  32  1   
 27  13  18  ar  
 28  13  33  1   
 29  14  16  am  
 30  14  19  1   
 31  15  20  1   
 32  15  34  1   
 33  15  35  1   
 34  16  21  2   
 35  17  20  1   
 36  17  36  1   
 37  17  37  1   
 38  18  22  1   
 39  19  38  1   
 40  19  39  1   
 41  19  40  1   
 42  22  23  1   
 43  23  41  1   
 44  23  42  1   
 45  23  43  1   
@<TRIPOS>SUBSTRUCTURE
  1 ****   4 GROUP 4 **** **** 0

# MOE 2024.06 (io_trps.svl 2023.06)
