@<TRIPOS>MOLECULE
NONAME
46 47 1 0 0 
SMALL
USER_CHARGES


@<TRIPOS>ATOM
  1 O        3.4010    -0.2560     1.3640 O.co2 1 <1>  -0.9000 
  2 C        2.6850    -0.1160     0.3600 C.2   1 <1>   0.9060 
  3 O        2.5640    -1.0190    -0.4660 O.co2 1 <1>  -0.9000 
  4 C        2.1870     1.2930    -0.0170 C.3   1 <1>  -0.1060 
  5 C        2.9910     1.6210    -1.2970 C.3   1 <1>   0.2000 
  6 C        2.5520     2.3620     1.0680 C.3   1 <1>  -0.1600 
  7 C        0.6570     1.2860    -0.2910 C.3   1 <1>  -0.1600 
  8 O        2.6780     2.9100    -1.7330 O.3   1 <1>  -0.6800 
  9 C        4.5170     1.5390    -1.0190 C.3   1 <1>   0.3430 
 10 C        4.0090     2.8580     0.9990 C.3   1 <1>   0.3430 
 11 C       -0.1840     0.8660     0.9260 C.3   1 <1>  -0.1600 
 12 N        4.8640     1.7930     0.4260 N.4   1 <1>  -0.9590 
 13 C       -1.6760     0.8570     0.5840 C.3   1 <1>  -0.2400 
 14 C        6.3120     1.9980     0.6750 C.3   1 <1>   0.5240 
 15 C        6.8360     3.2560    -0.0170 C.2   1 <1>   0.1080 
 16 N        6.5830     4.4650     0.3940 N.2   1 <1>  -0.7070 
 17 C        7.6270     3.2510    -1.1610 C.2   1 <1>  -0.1500 
 18 N        7.2050     5.2720    -0.4880 N.pl3 1 <1>   0.3140 
 19 C        7.8420     4.5550    -1.4340 C.2   1 <1>  -0.3020 
 20 C        7.1510     6.7450    -0.3840 C.3   1 <1>   0.0960 
 21 C        6.0280     7.3180    -1.2560 C.3   1 <1>  -0.2400 
 22 H        2.7380     0.9410    -2.0940 H     1 <1>   0.0800 
 23 H        2.3670     1.9590     2.0480 H     1 <1>   0.0800 
 24 H        1.9180     3.2230     0.9640 H     1 <1>   0.0800 
 25 H        0.3350     2.2600    -0.6120 H     1 <1>   0.0800 
 26 H        0.4580     0.5940    -1.0930 H     1 <1>   0.0800 
 27 H        1.7200     2.9590    -1.9190 H     1 <1>   0.4000 
 28 H        5.0190     2.2450    -1.6590 H     1 <1>   0.0800 
 29 H        4.8480     0.5460    -1.2760 H     1 <1>   0.0800 
 30 H        4.3510     3.1300     1.9840 H     1 <1>   0.0800 
 31 H        4.0680     3.7310     0.3670 H     1 <1>   0.0800 
 32 H        0.1060    -0.1220     1.2450 H     1 <1>   0.0800 
 33 H       -0.0180     1.5420     1.7470 H     1 <1>   0.0800 
 34 H        4.5590     0.9250     0.9390 H     1 <1>   0.4500 
 35 H       -1.8720     0.1630    -0.2150 H     1 <1>   0.0800 
 36 H       -2.0010     1.8370     0.2820 H     1 <1>   0.0800 
 37 H       -2.2470     0.5560     1.4440 H     1 <1>   0.0800 
 38 H        6.4820     2.0940     1.7340 H     1 <1>   0.0800 
 39 H        6.8620     1.1420     0.3240 H     1 <1>   0.0800 
 40 H        7.9810     2.3900    -1.7010 H     1 <1>   0.1500 
 41 H        8.4010     5.0050    -2.2330 H     1 <1>   0.1500 
 42 H        6.9850     7.0030     0.6470 H     1 <1>   0.0800 
 43 H        8.1010     7.1450    -0.6880 H     1 <1>   0.0800 
 44 H        5.0780     6.9160    -0.9480 H     1 <1>   0.0800 
 45 H        6.1960     7.0780    -2.2910 H     1 <1>   0.0800 
 46 H        5.9950     8.3870    -1.1540 H     1 <1>   0.0800 
@<TRIPOS>BOND
  1   1   2  ar  
  2   2   3  ar  
  3   2   4  1   
  4   4   5  1   
  5   4   6  1   
  6   4   7  1   
  7   5   8  1   
  8   5   9  1   
  9   5  22  1   
 10   6  10  1   
 11   6  23  1   
 12   6  24  1   
 13   7  11  1   
 14   7  25  1   
 15   7  26  1   
 16   8  27  1   
 17   9  12  1   
 18   9  28  1   
 19   9  29  1   
 20  10  12  1   
 21  10  30  1   
 22  10  31  1   
 23  11  13  1   
 24  11  32  1   
 25  11  33  1   
 26  12  14  1   
 27  12  34  1   
 28  13  35  1   
 29  13  36  1   
 30  13  37  1   
 31  14  15  1   
 32  14  38  1   
 33  14  39  1   
 34  15  16  2   
 35  15  17  1   
 36  16  18  1   
 37  17  19  2   
 38  17  40  1   
 39  18  19  1   
 40  18  20  1   
 41  19  41  1   
 42  20  21  1   
 43  20  42  1   
 44  20  43  1   
 45  21  44  1   
 46  21  45  1   
 47  21  46  1   
@<TRIPOS>SUBSTRUCTURE
  1 ****  12 GROUP 4 **** **** 0

# MOE 2024.06 (io_trps.svl 2023.06)
