@<TRIPOS>MOLECULE
NONAME
44 46 1 0 0 
SMALL
USER_CHARGES


@<TRIPOS>ATOM
  1 O       -0.4300    -0.9970     0.6720 O.3   1 <1>  -0.6800 
  2 C       -1.6050    -1.3760     0.0370 C.3   1 <1>   0.1200 
  3 C       -2.7360    -0.3720     0.3820 C.3   1 <1>   0.4230 
  4 N       -4.0760    -0.7580    -0.2070 N.4   1 <1>  -0.9590 
  5 C       -2.3660     1.0410    -0.1100 C.3   1 <1>  -0.1600 
  6 C       -5.1340     0.2150     0.2120 C.3   1 <1>   0.3430 
  7 C       -4.4780    -2.1720     0.1380 C.3   1 <1>   0.3430 
  8 C       -3.4420     2.0830     0.2100 C.3   1 <1>  -0.1600 
  9 C       -4.8030     1.6130    -0.3060 C.3   1 <1>  -0.1600 
 10 C       -5.7490    -2.6650    -0.5880 C.3   1 <1>   0.2090 
 11 N       -5.8910    -4.1370    -0.4310 N.pl3 1 <1>  -0.8690 
 12 C       -6.9740    -4.8970    -0.1360 C.2   1 <1>   0.2710 
 13 N       -6.7110    -6.2010    -0.2060 N.2   1 <1>  -0.6210 
 14 C       -8.2240    -4.4260     0.1940 C.2   1 <1>  -0.1410 
 15 C       -7.6630    -7.0450     0.0440 C.2   1 <1>   0.9190 
 16 C       -9.1980    -5.3660     0.4490 C.cat 1 <1>   0.7910 
 17 N       -8.9150    -6.6640     0.3760 N.pl3 1 <1>  -0.6690 
 18 N       -7.3860    -8.3440    -0.0320 N.pl3 1 <1>  -0.8500 
 19 N      -10.4950    -5.2800     0.7900 N.pl3 1 <1>  -0.3930 
 20 C      -10.0820    -7.3190     0.6830 C.2   1 <1>   0.5030 
 21 N      -11.0450    -6.5150     0.9350 N.2   1 <1>  -0.2600 
 22 H        0.3110    -1.6070     0.4660 H     1 <1>   0.4000 
 23 H       -1.8370    -2.3660     0.3860 H     1 <1>   0.0800 
 24 H       -1.4160    -1.3910    -1.0230 H     1 <1>   0.0800 
 25 H       -2.8280    -0.3460     1.4560 H     1 <1>   0.0800 
 26 H       -3.9690    -0.6720    -1.2260 H     1 <1>   0.4500 
 27 H       -2.1830     1.0190    -1.1700 H     1 <1>   0.0800 
 28 H       -1.4480     1.3530     0.3610 H     1 <1>   0.0800 
 29 H       -5.2020     0.2400     1.2880 H     1 <1>   0.0800 
 30 H       -6.0930    -0.0800    -0.1810 H     1 <1>   0.0800 
 31 H       -4.6290    -2.2570     1.2020 H     1 <1>   0.0800 
 32 H       -3.6810    -2.8410    -0.1370 H     1 <1>   0.0800 
 33 H       -3.1840     3.0280    -0.2400 H     1 <1>   0.0800 
 34 H       -3.4910     2.2320     1.2770 H     1 <1>   0.0800 
 35 H       -5.5620     2.3010     0.0240 H     1 <1>   0.0800 
 36 H       -4.8130     1.6150    -1.3820 H     1 <1>   0.0800 
 37 H       -5.6740    -2.4450    -1.6400 H     1 <1>   0.0800 
 38 H       -6.6150    -2.1700    -0.1880 H     1 <1>   0.0800 
 39 H       -5.0970    -4.6990    -0.7710 H     1 <1>   0.4000 
 40 H       -8.4460    -3.3820     0.2500 H     1 <1>   0.1500 
 41 H       -6.4340    -8.6140    -0.2870 H     1 <1>   0.4000 
 42 H       -8.0290    -9.1110     0.1340 H     1 <1>   0.4000 
 43 H      -11.0310    -4.4150     0.9280 H     1 <1>   0.4500 
 44 H      -10.1590    -8.3950     0.7030 H     1 <1>   0.1500 
@<TRIPOS>BOND
  1   1   2  1   
  2   1  22  1   
  3   2   3  1   
  4   2  23  1   
  5   2  24  1   
  6   3   4  1   
  7   3   5  1   
  8   3  25  1   
  9   4   6  1   
 10   4   7  1   
 11   4  26  1   
 12   5   8  1   
 13   5  27  1   
 14   5  28  1   
 15   6   9  1   
 16   6  29  1   
 17   6  30  1   
 18   7  10  1   
 19   7  31  1   
 20   7  32  1   
 21   8   9  1   
 22   8  33  1   
 23   8  34  1   
 24   9  35  1   
 25   9  36  1   
 26  10  11  1   
 27  10  37  1   
 28  10  38  1   
 29  11  12  1   
 30  11  39  1   
 31  12  13  1   
 32  12  14  2   
 33  13  15  2   
 34  14  16  1   
 35  14  40  1   
 36  15  17  1   
 37  15  18  1   
 38  16  17  ar  
 39  16  19  ar  
 40  17  20  1   
 41  18  41  1   
 42  18  42  1   
 43  19  21  1   
 44  19  43  1   
 45  20  21  2   
 46  20  44  1   
@<TRIPOS>SUBSTRUCTURE
  1 ****  11 GROUP 4 **** **** 0

# MOE 2024.06 (io_trps.svl 2023.06)
