@<TRIPOS>MOLECULE
NONAME
49 52 1 0 0 
SMALL
USER_CHARGES


@<TRIPOS>ATOM
  1 O       -0.7790    -2.0390    -0.7050 O.2   1 <1>  -0.5700 
  2 C        0.2190    -2.5180    -0.2260 C.2   1 <1>   0.5690 
  3 N        0.2680    -3.2880     0.8790 N.am  1 <1>  -0.6600 
  4 C        1.5900    -2.3530    -0.8190 C.3   1 <1>  -0.0990 
  5 C        1.6160    -3.8010     1.1730 C.3   1 <1>   0.1400 
  6 C       -0.9050    -3.6980     1.7100 C.3   1 <1>   0.2010 
  7 C        2.4460    -3.3730    -0.0460 C.3   1 <1>  -0.1600 
  8 C       -1.2860    -5.1690     1.5230 C.2   1 <1>   0.5690 
  9 O       -0.9640    -5.9540     2.3860 O.2   1 <1>  -0.5700 
 10 N       -1.9680    -5.5840     0.4100 N.am  1 <1>  -0.6600 
 11 C       -2.4180    -4.7290    -0.7210 C.3   1 <1>   0.1400 
 12 C       -2.2710    -7.0080     0.1320 C.3   1 <1>   0.1400 
 13 C       -3.4080    -5.6090    -1.4820 C.3   1 <1>   0.2000 
 14 C       -2.8460    -7.0210    -1.2900 C.3   1 <1>  -0.0800 
 15 O       -4.6410    -5.5180    -0.8540 O.3   1 <1>  -0.6800 
 16 C       -3.8340    -8.1670    -1.5830 C.3   1 <1>  -0.0170 
 17 C       -3.1460    -9.5260    -1.4720 C.ar  1 <1>  -0.1440 
 18 C       -3.1640   -10.3230    -0.3010 C.ar  1 <1>   0.0000 
 19 C       -2.4610   -10.0080    -2.5490 C.ar  1 <1>  -0.1500 
 20 C       -2.4440   -11.5440    -0.3280 C.ar  1 <1>   0.3100 
 21 C       -3.8480    -9.9910     0.8930 C.ar  1 <1>  -0.1500 
 22 C       -1.7960   -11.2370    -2.4740 C.ar  1 <1>   0.1600 
 23 N       -1.7710   -11.9860    -1.4190 N.ar  1 <1>  -0.6200 
 24 C       -2.4190   -12.3460     0.8240 C.ar  1 <1>  -0.1500 
 25 C       -3.8050   -10.7970     1.9980 C.ar  1 <1>  -0.1500 
 26 C       -3.0790   -11.9890     1.9670 C.ar  1 <1>  -0.1500 
 27 H        1.5740    -2.5570    -1.8740 H     1 <1>   0.0800 
 28 H        1.9260    -1.3480    -0.6420 H     1 <1>   0.0800 
 29 H        1.9860    -3.3440     2.0750 H     1 <1>   0.0800 
 30 H        1.6010    -4.8730     1.2830 H     1 <1>   0.0800 
 31 H       -0.6710    -3.5340     2.7460 H     1 <1>   0.0800 
 32 H       -1.7500    -3.0820     1.4660 H     1 <1>   0.0800 
 33 H        3.3930    -2.9590     0.2520 H     1 <1>   0.0800 
 34 H        2.6270    -4.2360    -0.6630 H     1 <1>   0.0800 
 35 H       -2.8710    -3.8110    -0.3900 H     1 <1>   0.0800 
 36 H       -1.5720    -4.5060    -1.3480 H     1 <1>   0.0800 
 37 H       -1.3830    -7.6130     0.2080 H     1 <1>   0.0800 
 38 H       -2.9950    -7.3490     0.8490 H     1 <1>   0.0800 
 39 H       -3.5230    -5.3240    -2.5140 H     1 <1>   0.0800 
 40 H       -2.0120    -7.1260    -1.9620 H     1 <1>   0.0800 
 41 H       -4.5020    -5.5850     0.1120 H     1 <1>   0.4000 
 42 H       -4.2030    -8.0470    -2.5870 H     1 <1>   0.0800 
 43 H       -4.6930    -8.1140    -0.9410 H     1 <1>   0.0800 
 44 H       -2.4090    -9.4620    -3.4730 H     1 <1>   0.1500 
 45 H       -4.4220    -9.0870     0.9450 H     1 <1>   0.1500 
 46 H       -1.2690   -11.5790    -3.3490 H     1 <1>   0.1500 
 47 H       -1.8570   -13.2600     0.7750 H     1 <1>   0.1500 
 48 H       -4.3260   -10.5260     2.9000 H     1 <1>   0.1500 
 49 H       -3.0490   -12.6130     2.8440 H     1 <1>   0.1500 
@<TRIPOS>BOND
  1   1   2  2   
  2   2   3  am  
  3   2   4  1   
  4   3   5  1   
  5   3   6  1   
  6   4   7  1   
  7   4  27  1   
  8   4  28  1   
  9   5   7  1   
 10   5  29  1   
 11   5  30  1   
 12   6   8  1   
 13   6  31  1   
 14   6  32  1   
 15   7  33  1   
 16   7  34  1   
 17   8   9  2   
 18   8  10  am  
 19  10  11  1   
 20  10  12  1   
 21  11  13  1   
 22  11  35  1   
 23  11  36  1   
 24  12  14  1   
 25  12  37  1   
 26  12  38  1   
 27  13  14  1   
 28  13  15  1   
 29  13  39  1   
 30  14  16  1   
 31  14  40  1   
 32  15  41  1   
 33  16  17  1   
 34  16  42  1   
 35  16  43  1   
 36  17  18  ar  
 37  17  19  ar  
 38  18  20  ar  
 39  18  21  ar  
 40  19  22  ar  
 41  19  44  1   
 42  20  23  ar  
 43  20  24  ar  
 44  21  25  ar  
 45  21  45  1   
 46  22  23  ar  
 47  22  46  1   
 48  24  26  ar  
 49  24  47  1   
 50  25  26  ar  
 51  25  48  1   
 52  26  49  1   
@<TRIPOS>SUBSTRUCTURE
  1 ****  12 GROUP 4 **** **** 0

# MOE 2024.06 (io_trps.svl 2023.06)
