@<TRIPOS>MOLECULE
NONAME
46 48 1 0 0 
SMALL
USER_CHARGES


@<TRIPOS>ATOM
  1 S        0.8260     1.0680    -1.9440 S.3   1 <1>  -0.1570 
  2 C        2.4780     1.0050    -1.3090 C.2   1 <1>   0.2420 
  3 C        0.2910    -0.1240    -0.7280 C.2   1 <1>  -0.0370 
  4 N        3.5660     1.6130    -1.6460 N.2   1 <1>  -0.5650 
  5 N        2.5440     0.1440    -0.2770 N.pl3 1 <1>   0.3340 
  6 C        1.3220    -0.4930     0.0550 C.2   1 <1>  -0.1690 
  7 C       -1.1760    -0.4980    -0.7890 C.3   1 <1>  -0.1020 
  8 C        4.4440     1.1030    -0.7420 C.2   1 <1>   0.0460 
  9 C        3.8420     0.2160     0.0920 C.2   1 <1>  -0.3020 
 10 C        1.3220    -1.4800     1.2120 C.3   1 <1>  -0.1020 
 11 C        5.8990     1.5500    -0.7370 C.3   1 <1>   0.3210 
 12 N        5.9270     3.0210    -0.7020 N.am  1 <1>  -0.7300 
 13 C        6.7290     3.7750     0.0830 C.2   1 <1>   0.5690 
 14 O        7.5860     3.2790     0.7730 O.2   1 <1>  -0.5700 
 15 C        6.5410     5.2890     0.1050 C.3   1 <1>  -0.0190 
 16 C        5.0890     5.6930     0.4350 C.3   1 <1>  -0.1600 
 17 C        7.0170     5.9460    -1.2130 C.3   1 <1>  -0.1600 
 18 C        4.9420     7.2180     0.6240 C.3   1 <1>   0.2000 
 19 C        6.4080     7.3400    -1.4650 C.3   1 <1>  -0.1600 
 20 O        3.6620     7.5950     0.1780 O.3   1 <1>  -0.5600 
 21 C        6.0110     8.0290    -0.1560 C.3   1 <1>   0.2000 
 22 C        2.6200     7.3280     1.0650 C.3   1 <1>   0.0400 
 23 O        5.5010     9.2720    -0.4660 O.3   1 <1>  -0.6800 
 24 H       -1.4040    -0.9210    -1.7510 H     1 <1>   0.0800 
 25 H       -1.7810     0.3780    -0.6440 H     1 <1>   0.0800 
 26 H       -1.4200    -1.2170    -0.0290 H     1 <1>   0.0800 
 27 H        4.2430    -0.3540     0.9090 H     1 <1>   0.1500 
 28 H        2.0040    -2.2860     1.0090 H     1 <1>   0.0800 
 29 H        0.3420    -1.8940     1.3630 H     1 <1>   0.0800 
 30 H        1.6260    -0.9860     2.1180 H     1 <1>   0.0800 
 31 H        6.3830     1.2080    -1.6350 H     1 <1>   0.0800 
 32 H        6.4140     1.1420     0.1160 H     1 <1>   0.0800 
 33 H        5.1520     3.4350    -1.2280 H     1 <1>   0.3700 
 34 H        7.1630     5.6620     0.9010 H     1 <1>   0.0800 
 35 H        4.7760     5.1930     1.3340 H     1 <1>   0.0800 
 36 H        4.4520     5.3730    -0.3710 H     1 <1>   0.0800 
 37 H        8.0900     6.0240    -1.1800 H     1 <1>   0.0800 
 38 H        6.7710     5.3160    -2.0510 H     1 <1>   0.0800 
 39 H        5.0350     7.4730     1.6660 H     1 <1>   0.0800 
 40 H        5.5250     7.2300    -2.0720 H     1 <1>   0.0800 
 41 H        7.1130     7.9500    -2.0020 H     1 <1>   0.0800 
 42 H        6.8890     8.1730     0.4500 H     1 <1>   0.0800 
 43 H        1.7060     7.6810     0.6220 H     1 <1>   0.0800 
 44 H        2.7970     7.8490     1.9910 H     1 <1>   0.0800 
 45 H        2.5510     6.2670     1.2330 H     1 <1>   0.0800 
 46 H        4.5300     9.1420    -0.5660 H     1 <1>   0.4000 
@<TRIPOS>BOND
  1   1   2  1   
  2   1   3  1   
  3   2   4  2   
  4   2   5  1   
  5   3   6  2   
  6   3   7  1   
  7   4   8  1   
  8   5   6  1   
  9   5   9  1   
 10   6  10  1   
 11   7  24  1   
 12   7  25  1   
 13   7  26  1   
 14   8   9  2   
 15   8  11  1   
 16   9  27  1   
 17  10  28  1   
 18  10  29  1   
 19  10  30  1   
 20  11  12  1   
 21  11  31  1   
 22  11  32  1   
 23  12  13  am  
 24  12  33  1   
 25  13  14  2   
 26  13  15  1   
 27  15  16  1   
 28  15  17  1   
 29  15  34  1   
 30  16  18  1   
 31  16  35  1   
 32  16  36  1   
 33  17  19  1   
 34  17  37  1   
 35  17  38  1   
 36  18  20  1   
 37  18  21  1   
 38  18  39  1   
 39  19  21  1   
 40  19  40  1   
 41  19  41  1   
 42  20  22  1   
 43  21  23  1   
 44  21  42  1   
 45  22  43  1   
 46  22  44  1   
 47  22  45  1   
 48  23  46  1   
@<TRIPOS>SUBSTRUCTURE
  1 ****  12 GROUP 4 **** **** 0

# MOE 2024.06 (io_trps.svl 2023.06)
