@<TRIPOS>MOLECULE
NONAME
49 51 1 0 0 
SMALL
USER_CHARGES


@<TRIPOS>ATOM
  1 O       -2.4380    -3.8610    -0.5950 O.co2 1 <1>  -0.9000 
  2 C       -3.3060    -3.0270    -0.3490 C.2   1 <1>   0.9060 
  3 O       -4.4900    -3.1300    -0.7160 O.co2 1 <1>  -0.9000 
  4 C       -2.9430    -1.7330     0.3920 C.3   1 <1>   0.2370 
  5 N       -4.0390    -0.7100     0.1920 N.4   1 <1>  -0.9590 
  6 C       -4.4310     0.1320     1.3610 C.3   1 <1>   0.3430 
  7 C       -3.9880    -0.0470    -1.1350 C.3   1 <1>   0.3430 
  8 C       -5.9270     0.5250     1.2800 C.3   1 <1>   0.2200 
  9 C       -5.3670     0.4590    -1.6060 C.3   1 <1>  -0.0800 
 10 N       -6.6810    -0.4680     0.4170 N.am  1 <1>  -0.6600 
 11 C       -6.1200     1.9880     0.8520 C.3   1 <1>   0.1200 
 12 C       -5.5240     1.9740    -1.4230 C.3   1 <1>   0.1200 
 13 C       -6.5820    -0.3380    -1.0810 C.3   1 <1>   0.1400 
 14 C       -7.2080    -1.5810     1.0350 C.2   1 <1>   0.5690 
 15 O       -5.2020     2.3600    -0.1300 O.3   1 <1>  -0.5600 
 16 O       -7.1900    -1.6760     2.2400 O.2   1 <1>  -0.5700 
 17 C       -7.8000    -2.7300     0.2270 C.3   1 <1>  -0.0990 
 18 C       -8.1520    -3.9680     1.0650 C.3   1 <1>  -0.0170 
 19 C       -8.6020    -5.1050     0.1620 C.ar  1 <1>  -0.1440 
 20 C       -9.9390    -5.4690     0.0860 C.ar  1 <1>  -0.1500 
 21 C       -7.6620    -5.7860    -0.5990 C.ar  1 <1>  -0.1500 
 22 C      -10.3330    -6.5050    -0.7440 C.ar  1 <1>  -0.1500 
 23 C       -8.0510    -6.8220    -1.4300 C.ar  1 <1>  -0.1500 
 24 C       -9.3880    -7.1770    -1.4990 C.ar  1 <1>   0.0820 
 25 O       -9.7770    -8.1800    -2.3010 O.3   1 <1>  -0.5330 
 26 H       -2.0020    -1.3700     0.0230 H     1 <1>   0.0800 
 27 H       -2.8450    -1.9780     1.4330 H     1 <1>   0.0800 
 28 H       -4.8470    -1.3670     0.0700 H     1 <1>   0.4500 
 29 H       -4.2890    -0.4360     2.2650 H     1 <1>   0.0800 
 30 H       -3.8160     1.0140     1.4170 H     1 <1>   0.0800 
 31 H       -3.2830     0.7680    -1.1140 H     1 <1>   0.0800 
 32 H       -3.6400    -0.7700    -1.8560 H     1 <1>   0.0800 
 33 H       -6.3200     0.4800     2.2800 H     1 <1>   0.0800 
 34 H       -5.3750     0.3180    -2.6720 H     1 <1>   0.0800 
 35 H       -5.9300     2.6240     1.6990 H     1 <1>   0.0800 
 36 H       -7.1260     2.1730     0.5150 H     1 <1>   0.0800 
 37 H       -6.5240     2.3050    -1.6530 H     1 <1>   0.0800 
 38 H       -4.8430     2.4910    -2.0770 H     1 <1>   0.0800 
 39 H       -6.5210    -1.3150    -1.5260 H     1 <1>   0.0800 
 40 H       -7.4880     0.1170    -1.4430 H     1 <1>   0.0800 
 41 H       -8.6790    -2.3850    -0.2840 H     1 <1>   0.0800 
 42 H       -7.0810    -3.0430    -0.5050 H     1 <1>   0.0800 
 43 H       -8.9220    -3.7230     1.7760 H     1 <1>   0.0800 
 44 H       -7.2830    -4.2850     1.6170 H     1 <1>   0.0800 
 45 H      -10.6770    -4.9500     0.6710 H     1 <1>   0.1500 
 46 H       -6.6200    -5.5070    -0.5480 H     1 <1>   0.1500 
 47 H      -11.3660    -6.7950    -0.8090 H     1 <1>   0.1500 
 48 H       -7.3110    -7.3370    -2.0140 H     1 <1>   0.1500 
 49 H       -9.0330    -8.5810    -2.7830 H     1 <1>   0.4500 
@<TRIPOS>BOND
  1   1   2  ar  
  2   2   3  ar  
  3   2   4  1   
  4   4   5  1   
  5   4  26  1   
  6   4  27  1   
  7   5   6  1   
  8   5   7  1   
  9   5  28  1   
 10   6   8  1   
 11   6  29  1   
 12   6  30  1   
 13   7   9  1   
 14   7  31  1   
 15   7  32  1   
 16   8  10  1   
 17   8  11  1   
 18   8  33  1   
 19   9  12  1   
 20   9  13  1   
 21   9  34  1   
 22  10  13  1   
 23  10  14  am  
 24  11  15  1   
 25  11  35  1   
 26  11  36  1   
 27  12  15  1   
 28  12  37  1   
 29  12  38  1   
 30  13  39  1   
 31  13  40  1   
 32  14  16  2   
 33  14  17  1   
 34  17  18  1   
 35  17  41  1   
 36  17  42  1   
 37  18  19  1   
 38  18  43  1   
 39  18  44  1   
 40  19  20  ar  
 41  19  21  ar  
 42  20  22  ar  
 43  20  45  1   
 44  21  23  ar  
 45  21  46  1   
 46  22  24  ar  
 47  22  47  1   
 48  23  24  ar  
 49  23  48  1   
 50  24  25  1   
 51  25  49  1   
@<TRIPOS>SUBSTRUCTURE
  1 ****  17 GROUP 4 **** **** 0

# MOE 2024.06 (io_trps.svl 2023.06)
