@<TRIPOS>MOLECULE
NONAME
52 54 1 0 0 
SMALL
USER_CHARGES


@<TRIPOS>ATOM
  1 O       -2.7810     3.0480     2.6660 O.2   1 <1>  -0.5700 
  2 C       -2.5410     2.5560     1.5780 C.2   1 <1>   0.5440 
  3 N       -3.3720     1.5740     1.0810 N.am  1 <1>  -0.6600 
  4 C       -1.3960     3.0430     0.8290 C.ar  1 <1>   0.0860 
  5 C       -3.2940     1.0400    -0.3140 C.3   1 <1>   0.1400 
  6 C       -4.4880     0.9850     1.8760 C.3   1 <1>   0.1400 
  7 C       -0.2420     2.2810     0.5970 C.ar  1 <1>  -0.1440 
  8 C       -1.4480     4.3360     0.3110 C.ar  1 <1>  -0.1500 
  9 C       -4.6240     1.2990    -1.0340 C.3   1 <1>   0.2000 
 10 C       -5.8250     1.2010     1.1510 C.3   1 <1>  -0.1600 
 11 C        0.8050     2.8060    -0.1580 C.ar  1 <1>   0.0820 
 12 C       -0.1220     0.8660     1.1690 C.3   1 <1>  -0.0960 
 13 C       -0.4080     4.8620    -0.4280 C.ar  1 <1>  -0.1500 
 14 O       -4.5330     0.8300    -2.3340 O.3   1 <1>  -0.6800 
 15 C       -5.8230     0.6420    -0.3030 C.3   1 <1>  -0.1060 
 16 O        1.8930     2.0170    -0.3740 O.3   1 <1>  -0.3630 
 17 C        0.7170     4.0990    -0.6670 C.ar  1 <1>  -0.1500 
 18 C       -5.6520    -0.8900    -0.3340 C.2   1 <1>   0.9060 
 19 C       -7.1360     1.0300    -1.0370 C.3   1 <1>  -0.0160 
 20 C        3.0040     2.4590    -1.1220 C.3   1 <1>   0.0400 
 21 O       -5.3620    -1.4300    -1.4140 O.co2 1 <1>  -0.9000 
 22 O       -5.7890    -1.5680     0.6900 O.co2 1 <1>  -0.9000 
 23 C       -8.4200     0.8190    -0.2360 C.ar  1 <1>  -0.1440 
 24 C       -8.8760    -0.4600     0.0410 C.ar  1 <1>  -0.1500 
 25 C       -9.1480     1.9080     0.2200 C.ar  1 <1>  -0.1500 
 26 C      -10.0420    -0.6500     0.7610 C.ar  1 <1>  -0.1500 
 27 C      -10.3160     1.7220     0.9390 C.ar  1 <1>  -0.1500 
 28 C      -10.7650     0.4410     1.2110 C.ar  1 <1>  -0.1500 
 29 H       -2.5030     1.5150    -0.8650 H     1 <1>   0.0800 
 30 H       -3.0990    -0.0190    -0.2740 H     1 <1>   0.0800 
 31 H       -4.3070    -0.0680     2.0080 H     1 <1>   0.0800 
 32 H       -4.5370     1.4310     2.8540 H     1 <1>   0.0800 
 33 H       -2.3250     4.9300     0.5010 H     1 <1>   0.1500 
 34 H       -4.7660     2.3630    -1.0990 H     1 <1>   0.0800 
 35 H       -6.5940     0.7120     1.7230 H     1 <1>   0.0800 
 36 H       -6.0460     2.2530     1.1440 H     1 <1>   0.0800 
 37 H       -0.7650     0.7210     2.0190 H     1 <1>   0.0800 
 38 H        0.8840     0.6720     1.4940 H     1 <1>   0.0800 
 39 H       -0.3840     0.1460     0.4140 H     1 <1>   0.0800 
 40 H       -0.4750     5.8640    -0.8170 H     1 <1>   0.1500 
 41 H       -4.7640    -0.1490    -2.2800 H     1 <1>   0.4000 
 42 H        1.5100     4.5290    -1.2480 H     1 <1>   0.1500 
 43 H       -7.0810     2.0650    -1.3220 H     1 <1>   0.0800 
 44 H       -7.2090     0.4660    -1.9510 H     1 <1>   0.0800 
 45 H        3.7260     1.6630    -1.1480 H     1 <1>   0.0800 
 46 H        3.4280     3.3220    -0.6410 H     1 <1>   0.0800 
 47 H        2.6810     2.6910    -2.1220 H     1 <1>   0.0800 
 48 H       -8.3160    -1.3170    -0.2980 H     1 <1>   0.1500 
 49 H       -8.8060     2.9070     0.0160 H     1 <1>   0.1500 
 50 H      -10.3760    -1.6500     0.9720 H     1 <1>   0.1500 
 51 H      -10.8730     2.5720     1.2890 H     1 <1>   0.1500 
 52 H      -11.6700     0.2920     1.7710 H     1 <1>   0.1500 
@<TRIPOS>BOND
  1   1   2  2   
  2   2   3  am  
  3   2   4  1   
  4   3   5  1   
  5   3   6  1   
  6   4   7  ar  
  7   4   8  ar  
  8   5   9  1   
  9   5  29  1   
 10   5  30  1   
 11   6  10  1   
 12   6  31  1   
 13   6  32  1   
 14   7  11  ar  
 15   7  12  1   
 16   8  13  ar  
 17   8  33  1   
 18   9  14  1   
 19   9  15  1   
 20   9  34  1   
 21  10  15  1   
 22  10  35  1   
 23  10  36  1   
 24  11  16  1   
 25  11  17  ar  
 26  12  37  1   
 27  12  38  1   
 28  12  39  1   
 29  13  17  ar  
 30  13  40  1   
 31  14  41  1   
 32  15  18  1   
 33  15  19  1   
 34  16  20  1   
 35  17  42  1   
 36  18  21  ar  
 37  18  22  ar  
 38  19  23  1   
 39  19  43  1   
 40  19  44  1   
 41  20  45  1   
 42  20  46  1   
 43  20  47  1   
 44  23  24  ar  
 45  23  25  ar  
 46  24  26  ar  
 47  24  48  1   
 48  25  27  ar  
 49  25  49  1   
 50  26  28  ar  
 51  26  50  1   
 52  27  28  ar  
 53  27  51  1   
 54  28  52  1   
@<TRIPOS>SUBSTRUCTURE
  1 ****   5 GROUP 4 **** **** 0

# MOE 2024.06 (io_trps.svl 2023.06)
