@<TRIPOS>MOLECULE
NONAME
42 44 1 0 0 
SMALL
USER_CHARGES


@<TRIPOS>ATOM
  1 CL      -0.3450    -1.2570    -0.9640 Cl    1 <1>  -0.1770 
  2 C       -1.6770    -0.1230    -0.8880 C.ar  1 <1>   0.1770 
  3 C       -2.9650    -0.5750    -0.6150 C.ar  1 <1>   0.0820 
  4 C       -1.4120     1.2160    -1.1030 C.ar  1 <1>  -0.1500 
  5 O       -3.1480    -1.9080    -0.4130 O.3   1 <1>  -0.3630 
  6 C       -4.0000     0.3570    -0.5610 C.ar  1 <1>  -0.1500 
  7 C       -2.4490     2.1330    -1.0460 C.ar  1 <1>  -0.1500 
  8 C       -4.4020    -2.4500    -0.0900 C.3   1 <1>   0.1200 
  9 C       -3.7380     1.7000    -0.7760 C.ar  1 <1>  -0.1500 
 10 C       -4.2040    -3.9560     0.0730 C.3   1 <1>  -0.1600 
 11 C       -5.5090    -4.6470     0.4610 C.3   1 <1>   0.3430 
 12 N       -5.3220    -6.1230     0.4900 N.4   1 <1>  -0.9590 
 13 C       -6.6300    -6.8650     0.5240 C.3   1 <1>   0.5240 
 14 C       -4.4190    -6.6040     1.5830 C.3   1 <1>   0.2630 
 15 C       -6.4560    -8.2620    -0.0800 C.2   1 <1>   0.3350 
 16 N       -5.5640    -8.5190    -0.9930 N.2   1 <1>  -0.7070 
 17 N       -7.2190    -9.2700     0.3300 N.2   1 <1>  -0.5650 
 18 N       -5.7730    -9.8180    -1.2170 N.pl3 1 <1>   0.6010 
 19 C       -6.7770   -10.2470    -0.3980 C.2   1 <1>   0.3120 
 20 C       -5.1580   -10.6980    -2.0800 C.2   1 <1>  -0.1810 
 21 N       -7.2270   -11.5430    -0.3740 N.2   1 <1>  -0.5760 
 22 C       -5.5940   -11.9860    -2.0700 C.2   1 <1>  -0.1360 
 23 C       -6.6460   -12.3650    -1.1870 C.2   1 <1>   0.3760 
 24 H       -0.4070     1.5340    -1.3120 H     1 <1>   0.1500 
 25 H       -5.0110     0.0630    -0.3550 H     1 <1>   0.1500 
 26 H       -2.2540     3.1790    -1.2130 H     1 <1>   0.1500 
 27 H       -5.0830    -2.2280    -0.8950 H     1 <1>   0.0800 
 28 H       -4.7380    -1.9950     0.8270 H     1 <1>   0.0800 
 29 H       -4.5410     2.4170    -0.7330 H     1 <1>   0.1500 
 30 H       -3.4610    -4.1130     0.8340 H     1 <1>   0.0800 
 31 H       -3.8480    -4.3530    -0.8620 H     1 <1>   0.0800 
 32 H       -6.2640    -4.3950    -0.2670 H     1 <1>   0.0800 
 33 H       -5.8380    -4.2950     1.4260 H     1 <1>   0.0800 
 34 H       -4.9040    -6.4340    -0.4070 H     1 <1>   0.4500 
 35 H       -7.3690    -6.3430    -0.0600 H     1 <1>   0.0800 
 36 H       -6.9900    -6.9530     1.5340 H     1 <1>   0.0800 
 37 H       -4.8160    -6.3340     2.5480 H     1 <1>   0.0800 
 38 H       -3.4370    -6.1700     1.4790 H     1 <1>   0.0800 
 39 H       -4.3190    -7.6770     1.5380 H     1 <1>   0.0800 
 40 H       -4.3750   -10.3080    -2.7040 H     1 <1>   0.1500 
 41 H       -5.1750   -12.7420    -2.7090 H     1 <1>   0.1500 
 42 H       -6.9660   -13.3930    -1.2050 H     1 <1>   0.0600 
@<TRIPOS>BOND
  1   1   2  1   
  2   2   3  ar  
  3   2   4  ar  
  4   3   5  1   
  5   3   6  ar  
  6   4   7  ar  
  7   4  24  1   
  8   5   8  1   
  9   6   9  ar  
 10   6  25  1   
 11   7   9  ar  
 12   7  26  1   
 13   8  10  1   
 14   8  27  1   
 15   8  28  1   
 16   9  29  1   
 17  10  11  1   
 18  10  30  1   
 19  10  31  1   
 20  11  12  1   
 21  11  32  1   
 22  11  33  1   
 23  12  13  1   
 24  12  14  1   
 25  12  34  1   
 26  13  15  1   
 27  13  35  1   
 28  13  36  1   
 29  14  37  1   
 30  14  38  1   
 31  14  39  1   
 32  15  16  2   
 33  15  17  1   
 34  16  18  1   
 35  17  19  2   
 36  18  19  1   
 37  18  20  1   
 38  19  21  1   
 39  20  22  2   
 40  20  40  1   
 41  21  23  2   
 42  22  23  1   
 43  22  41  1   
 44  23  42  1   
@<TRIPOS>SUBSTRUCTURE
  1 ****  11 GROUP 4 **** **** 0

# MOE 2024.06 (io_trps.svl 2023.06)
