@<TRIPOS>MOLECULE
NONAME
45 47 1 0 0 
SMALL
USER_CHARGES


@<TRIPOS>ATOM
  1 O        0.6130     0.9100    -1.1060 O.co2 1 <1>  -0.9000 
  2 C       -0.0220     0.2950    -0.2370 C.2   1 <1>   0.9060 
  3 O        0.3070    -0.8070     0.2040 O.co2 1 <1>  -0.9000 
  4 C       -1.2900     0.9890     0.3020 C.3   1 <1>   0.3170 
  5 N       -1.3760     2.4370    -0.1250 N.4   1 <1>  -0.9590 
  6 C       -2.5800     0.3260    -0.2050 C.3   1 <1>  -0.1600 
  7 C       -2.6180     2.6000    -0.9200 C.3   1 <1>   0.3430 
  8 C       -1.2630     3.3570     1.0250 C.3   1 <1>   0.4860 
  9 C       -3.5430     1.4740    -0.4530 C.3   1 <1>   0.2000 
 10 C       -1.3710     4.7980     0.5580 C.ar  1 <1>  -0.1430 
 11 O       -4.1200     1.8270     0.7640 O.3   1 <1>  -0.6800 
 12 C       -0.3520     5.3510    -0.2070 C.ar  1 <1>   0.0830 
 13 C       -2.4750     5.5650     0.8980 C.ar  1 <1>  -0.1500 
 14 O        0.6870     4.5360    -0.5150 O.3   1 <1>  -0.3630 
 15 C       -0.4400     6.6770    -0.6210 C.ar  1 <1>  -0.1500 
 16 C       -2.5610     6.8820     0.4800 C.ar  1 <1>  -0.1500 
 17 C        1.8750     4.9770    -1.1410 C.3   1 <1>   0.2000 
 18 C       -1.5440     7.4370    -0.2770 C.ar  1 <1>  -0.1500 
 19 C        2.6670     3.7390    -1.5400 C.3   1 <1>  -0.1600 
 20 C        2.7700     5.6460    -0.0990 C.3   1 <1>  -0.1600 
 21 C        3.3600     3.2680    -0.2590 C.3   1 <1>  -0.1600 
 22 C        3.4360     4.4940     0.6630 C.3   1 <1>  -0.1600 
 23 H       -1.2610     0.9270     1.3740 H     1 <1>   0.0800 
 24 H       -0.5260     2.5670    -0.7230 H     1 <1>   0.4500 
 25 H       -2.9500    -0.4070     0.4880 H     1 <1>   0.0800 
 26 H       -2.3680    -0.1700    -1.1370 H     1 <1>   0.0800 
 27 H       -3.0720     3.5670    -0.7860 H     1 <1>   0.0800 
 28 H       -2.3860     2.4560    -1.9620 H     1 <1>   0.0800 
 29 H       -2.0460     3.1460     1.7340 H     1 <1>   0.0800 
 30 H       -0.3100     3.2130     1.5080 H     1 <1>   0.0800 
 31 H       -4.3210     1.2480    -1.1620 H     1 <1>   0.0800 
 32 H       -4.7030     1.1090     1.0850 H     1 <1>   0.4000 
 33 H       -3.2720     5.1460     1.4890 H     1 <1>   0.1500 
 34 H        0.3340     7.1310    -1.2080 H     1 <1>   0.1500 
 35 H       -3.4190     7.4780     0.7450 H     1 <1>   0.1500 
 36 H        1.6350     5.5930    -1.9890 H     1 <1>   0.0800 
 37 H       -1.6130     8.4630    -0.5980 H     1 <1>   0.1500 
 38 H        2.0430     2.9750    -1.9700 H     1 <1>   0.0800 
 39 H        3.4150     4.0200    -2.2600 H     1 <1>   0.0800 
 40 H        3.5290     6.2090    -0.6110 H     1 <1>   0.0800 
 41 H        2.2260     6.3080     0.5510 H     1 <1>   0.0800 
 42 H        2.7630     2.4990     0.2040 H     1 <1>   0.0800 
 43 H        4.3340     2.8640    -0.4720 H     1 <1>   0.0800 
 44 H        4.4540     4.7340     0.9150 H     1 <1>   0.0800 
 45 H        2.8900     4.2910     1.5680 H     1 <1>   0.0800 
@<TRIPOS>BOND
  1   1   2  ar  
  2   2   3  ar  
  3   2   4  1   
  4   4   5  1   
  5   4   6  1   
  6   4  23  1   
  7   5   7  1   
  8   5   8  1   
  9   5  24  1   
 10   6   9  1   
 11   6  25  1   
 12   6  26  1   
 13   7   9  1   
 14   7  27  1   
 15   7  28  1   
 16   8  10  1   
 17   8  29  1   
 18   8  30  1   
 19   9  11  1   
 20   9  31  1   
 21  10  12  ar  
 22  10  13  ar  
 23  11  32  1   
 24  12  14  1   
 25  12  15  ar  
 26  13  16  ar  
 27  13  33  1   
 28  14  17  1   
 29  15  18  ar  
 30  15  34  1   
 31  16  18  ar  
 32  16  35  1   
 33  17  19  1   
 34  17  20  1   
 35  17  36  1   
 36  18  37  1   
 37  19  21  1   
 38  19  38  1   
 39  19  39  1   
 40  20  22  1   
 41  20  40  1   
 42  20  41  1   
 43  21  22  1   
 44  21  42  1   
 45  21  43  1   
 46  22  44  1   
 47  22  45  1   
@<TRIPOS>SUBSTRUCTURE
  1 ****   5 GROUP 4 **** **** 0

# MOE 2024.06 (io_trps.svl 2023.06)
