@<TRIPOS>MOLECULE
NONAME
47 49 1 0 0 
SMALL
USER_CHARGES


@<TRIPOS>ATOM
  1 O        0.0830     1.1170    -1.6400 O.3   1 <1>  -0.3630 
  2 C        0.0110     2.2310    -0.8840 C.ar  1 <1>   0.0830 
  3 C       -1.0060     0.2300    -1.7820 C.3   1 <1>   0.0400 
  4 C        1.1370     3.0150    -0.8240 C.ar  1 <1>  -0.1500 
  5 C       -1.1320     2.6140    -0.1730 C.ar  1 <1>  -0.1500 
  6 C        1.1550     4.1860    -0.0680 C.ar  1 <1>   0.3610 
  7 C       -1.1270     3.7640     0.5760 C.ar  1 <1>  -0.1500 
  8 N        2.2900     4.9750    -0.0150 N.ar  1 <1>  -0.1790 
  9 C        0.0120     4.5850     0.6530 C.ar  1 <1>   0.0000 
 10 C        2.3840     6.1110     0.6780 C.ar  1 <1>   0.4610 
 11 C        0.0890     5.7910     1.4130 C.ar  1 <1>  -0.1430 
 12 N        3.5370     6.7990     0.6440 N.pl3 1 <1>  -0.8690 
 13 C        1.2440     6.5140     1.4140 C.ar  1 <1>  -0.1500 
 14 C       -1.1140     6.2650     2.2210 C.3   1 <1>  -0.0970 
 15 C        3.8560     8.0960     1.3130 C.3   1 <1>   0.2090 
 16 C        4.8180     8.9190     0.4440 C.3   1 <1>   0.0000 
 17 C        6.2160     8.2460     0.2880 C.3   1 <1>   0.0000 
 18 C        5.5100    10.0600     1.2470 C.3   1 <1>   0.0000 
 19 C        4.1450     9.3920    -0.8670 C.3   1 <1>   0.1200 
 20 C        6.8750     9.5960     0.6750 C.3   1 <1>   0.0000 
 21 O        5.0590    10.0260    -1.7010 O.3   1 <1>  -0.5600 
 22 C        4.5040    10.5740    -2.8530 C.3   1 <1>   0.0400 
 23 H       -0.7020    -0.5730    -2.4290 H     1 <1>   0.0800 
 24 H       -1.8340     0.7580    -2.2220 H     1 <1>   0.0800 
 25 H       -1.2680    -0.1620    -0.8150 H     1 <1>   0.0800 
 26 H        2.0030     2.7020    -1.3770 H     1 <1>   0.1500 
 27 H       -2.0240     2.0130    -0.2070 H     1 <1>   0.1500 
 28 H       -2.0200     4.0360     1.1130 H     1 <1>   0.1500 
 29 H        3.1010     4.6670    -0.5430 H     1 <1>   0.4570 
 30 H        4.3670     6.4570     0.1430 H     1 <1>   0.4000 
 31 H        1.3090     7.4170     1.9910 H     1 <1>   0.1500 
 32 H       -1.3860     5.5260     2.9530 H     1 <1>   0.0800 
 33 H       -1.9540     6.4410     1.5720 H     1 <1>   0.0800 
 34 H       -0.8970     7.1830     2.7400 H     1 <1>   0.0800 
 35 H        4.3140     7.8910     2.2680 H     1 <1>   0.0800 
 36 H        2.9630     8.6720     1.4860 H     1 <1>   0.0800 
 37 H        6.4460     7.9240    -0.7120 H     1 <1>   0.0000 
 38 H        6.4050     7.4860     1.0270 H     1 <1>   0.0000 
 39 H        5.4570     9.9240     2.3140 H     1 <1>   0.0000 
 40 H        5.2310    11.0520     0.9380 H     1 <1>   0.0000 
 41 H        3.3530    10.0850    -0.6400 H     1 <1>   0.0800 
 42 H        3.7390     8.5530    -1.4040 H     1 <1>   0.0800 
 43 H        7.1880    10.1700    -0.1790 H     1 <1>   0.0000 
 44 H        7.6420     9.4990     1.4230 H     1 <1>   0.0000 
 45 H        5.2970    11.0270    -3.4220 H     1 <1>   0.0800 
 46 H        3.7840    11.3250    -2.5790 H     1 <1>   0.0800 
 47 H        4.0420     9.7950    -3.4330 H     1 <1>   0.0800 
@<TRIPOS>BOND
  1   1   2  1   
  2   1   3  1   
  3   2   4  ar  
  4   2   5  ar  
  5   3  23  1   
  6   3  24  1   
  7   3  25  1   
  8   4   6  ar  
  9   4  26  1   
 10   5   7  ar  
 11   5  27  1   
 12   6   8  ar  
 13   6   9  ar  
 14   7   9  ar  
 15   7  28  1   
 16   8  10  ar  
 17   8  29  1   
 18   9  11  ar  
 19  10  12  1   
 20  10  13  ar  
 21  11  13  ar  
 22  11  14  1   
 23  12  15  1   
 24  12  30  1   
 25  13  31  1   
 26  14  32  1   
 27  14  33  1   
 28  14  34  1   
 29  15  16  1   
 30  15  35  1   
 31  15  36  1   
 32  16  17  1   
 33  16  18  1   
 34  16  19  1   
 35  17  20  1   
 36  17  37  1   
 37  17  38  1   
 38  18  20  1   
 39  18  39  1   
 40  18  40  1   
 41  19  21  1   
 42  19  41  1   
 43  19  42  1   
 44  20  43  1   
 45  20  44  1   
 46  21  22  1   
 47  22  45  1   
 48  22  46  1   
 49  22  47  1   
@<TRIPOS>SUBSTRUCTURE
  1 ****  10 GROUP 4 **** **** 0

# MOE 2024.06 (io_trps.svl 2023.06)
