@<TRIPOS>MOLECULE
NONAME
46 48 1 0 0 
SMALL
USER_CHARGES


@<TRIPOS>ATOM
  1 F        0.1940    -0.1980    -1.3950 F     1 <1>  -0.3400 
  2 C       -0.4030    -1.3830    -1.5360 C.3   1 <1>   0.9600 
  3 F        0.5730    -2.1890    -1.9510 F     1 <1>  -0.3400 
  4 O       -0.7440    -1.8400    -0.2300 O.3   1 <1>  -0.3630 
  5 C       -1.5520    -1.3390    -2.5960 C.3   1 <1>   0.6000 
  6 C       -1.7750    -1.2860     0.4460 C.ar  1 <1>   0.0830 
  7 F       -1.1130    -0.9390    -3.7930 F     1 <1>  -0.3400 
  8 F       -2.5020    -0.4500    -2.2890 F     1 <1>  -0.3400 
  9 C       -2.9460    -2.0270     0.6520 C.ar  1 <1>   0.0860 
 10 C       -1.6410    -0.0060     0.9660 C.ar  1 <1>  -0.1500 
 11 C       -3.1060    -3.3660     0.1280 C.2   1 <1>   0.5440 
 12 C       -3.9730    -1.4240     1.3810 C.ar  1 <1>  -0.1500 
 13 C       -2.6740     0.5650     1.6840 C.ar  1 <1>  -0.1500 
 14 O       -2.8200    -3.6280    -1.0250 O.2   1 <1>  -0.5700 
 15 N       -3.6060    -4.3600     0.9160 N.am  1 <1>  -0.7300 
 16 C       -3.8430    -0.1460     1.8900 C.ar  1 <1>  -0.1500 
 17 C       -3.8160    -5.7640     0.4960 C.3   1 <1>   0.2200 
 18 C       -5.2960    -5.9880     0.2410 C.3   1 <1>  -0.0800 
 19 C       -3.5610    -6.6920     1.6770 C.3   1 <1>   0.1200 
 20 C       -5.8300    -6.3000     1.6450 C.3   1 <1>   0.1200 
 21 C       -5.5300    -7.1480    -0.7450 C.3   1 <1>  -0.0170 
 22 O       -4.7350    -6.6730     2.4320 O.3   1 <1>  -0.5600 
 23 C       -7.0120    -7.3430    -1.0290 C.ar  1 <1>  -0.1430 
 24 C       -7.7150    -6.4710    -1.8350 C.ar  1 <1>  -0.1500 
 25 C       -7.7300    -8.3970    -0.5000 C.ar  1 <1>  -0.1500 
 26 C       -9.0650    -6.6850    -2.0620 C.ar  1 <1>   0.1600 
 27 C       -9.0780    -8.5200    -0.7900 C.ar  1 <1>   0.1600 
 28 N       -9.7640    -7.6880    -1.5570 N.ar  1 <1>  -0.6200 
 29 H       -2.0220    -2.2920    -2.7330 H     1 <1>   0.0800 
 30 H       -0.7290     0.5460     0.8210 H     1 <1>   0.1500 
 31 H       -4.8900    -1.9630     1.5440 H     1 <1>   0.1500 
 32 H       -2.5700     1.5600     2.0820 H     1 <1>   0.1500 
 33 H       -3.8290    -4.1810     1.8980 H     1 <1>   0.3700 
 34 H       -4.6490     0.3010     2.4470 H     1 <1>   0.1500 
 35 H       -3.1940    -6.0020    -0.3510 H     1 <1>   0.0800 
 36 H       -5.7580    -5.1010    -0.1570 H     1 <1>   0.0800 
 37 H       -2.7320    -6.3750     2.2850 H     1 <1>   0.0800 
 38 H       -3.4030    -7.7020     1.3430 H     1 <1>   0.0800 
 39 H       -6.5520    -7.0970     1.6550 H     1 <1>   0.0800 
 40 H       -6.2650    -5.4220     2.0910 H     1 <1>   0.0800 
 41 H       -5.1130    -8.0600    -0.3560 H     1 <1>   0.0800 
 42 H       -5.0300    -6.9320    -1.6740 H     1 <1>   0.0800 
 43 H       -7.2280    -5.6270    -2.2890 H     1 <1>   0.1500 
 44 H       -7.2560    -9.1230     0.1350 H     1 <1>   0.1500 
 45 H       -9.5970    -5.9940    -2.6940 H     1 <1>   0.1500 
 46 H       -9.6220    -9.3480    -0.3680 H     1 <1>   0.1500 
@<TRIPOS>BOND
  1   1   2  1   
  2   2   3  1   
  3   2   4  1   
  4   2   5  1   
  5   4   6  1   
  6   5   7  1   
  7   5   8  1   
  8   5  29  1   
  9   6   9  ar  
 10   6  10  ar  
 11   9  11  1   
 12   9  12  ar  
 13  10  13  ar  
 14  10  30  1   
 15  11  14  2   
 16  11  15  am  
 17  12  16  ar  
 18  12  31  1   
 19  13  16  ar  
 20  13  32  1   
 21  15  17  1   
 22  15  33  1   
 23  16  34  1   
 24  17  18  1   
 25  17  19  1   
 26  17  35  1   
 27  18  20  1   
 28  18  21  1   
 29  18  36  1   
 30  19  22  1   
 31  19  37  1   
 32  19  38  1   
 33  20  22  1   
 34  20  39  1   
 35  20  40  1   
 36  21  23  1   
 37  21  41  1   
 38  21  42  1   
 39  23  24  ar  
 40  23  25  ar  
 41  24  26  ar  
 42  24  43  1   
 43  25  27  ar  
 44  25  44  1   
 45  26  28  ar  
 46  26  45  1   
 47  27  28  ar  
 48  27  46  1   
@<TRIPOS>SUBSTRUCTURE
  1 ****  11 GROUP 4 **** **** 0

# MOE 2024.06 (io_trps.svl 2023.06)
