@<TRIPOS>MOLECULE
NONAME
43 45 1 0 0 
SMALL
USER_CHARGES


@<TRIPOS>ATOM
  1 S        0.2510     0.0640     2.1400 S.o2  1 <1>   1.4470 
  2 O        0.8890    -1.0140     2.8660 O.2   1 <1>  -0.6500 
  3 O       -0.3370     1.1570     2.8820 O.2   1 <1>  -0.6500 
  4 N        1.4540     0.7230     1.1440 N.am  1 <1>  -0.8490 
  5 C       -0.9600    -0.6000     0.9620 C.ar  1 <1>  -0.0090 
  6 C        2.2190     1.7800     1.8370 C.3   1 <1>   0.1960 
  7 C        2.2790    -0.3030     0.4950 C.3   1 <1>   0.1960 
  8 C       -1.6970    -1.7400     1.2650 C.ar  1 <1>  -0.1500 
  9 C       -1.1920     0.0150    -0.2640 C.ar  1 <1>  -0.1500 
 10 C        3.3340     2.4570     1.0040 C.3   1 <1>   0.2200 
 11 C        3.0500     0.1840    -0.7510 C.3   1 <1>  -0.0190 
 12 C       -2.6250    -2.2590     0.3780 C.ar  1 <1>  -0.1500 
 13 C       -2.1160    -0.4960    -1.1580 C.ar  1 <1>  -0.1500 
 14 N        2.8870     2.6550    -0.4130 N.am  1 <1>  -0.6600 
 15 C        4.6850     1.7030     1.1450 C.3   1 <1>   0.1200 
 16 C        2.6670     1.5760    -1.2300 C.2   1 <1>   0.5690 
 17 C        4.5750     0.0540    -0.5880 C.3   1 <1>   0.1200 
 18 C       -2.8380    -1.6360    -0.8470 C.ar  1 <1>   0.0820 
 19 C        2.5890     4.0490    -0.8350 C.3   1 <1>   0.0600 
 20 O        5.1810     1.1940    -0.0590 O.3   1 <1>  -0.5600 
 21 O        2.1760     1.6820    -2.3310 O.2   1 <1>  -0.5700 
 22 O       -3.7210    -2.0750    -1.7750 O.3   1 <1>  -0.3630 
 23 C       -4.5200    -3.2150    -1.5500 C.3   1 <1>   0.0400 
 24 H        1.5300     2.5590     2.1170 H     1 <1>   0.0800 
 25 H        2.6320     1.3890     2.7510 H     1 <1>   0.0800 
 26 H        2.9530    -0.7310     1.2190 H     1 <1>   0.0800 
 27 H        1.6330    -1.1010     0.1690 H     1 <1>   0.0800 
 28 H       -1.5400    -2.2300     2.2120 H     1 <1>   0.1500 
 29 H       -0.6440     0.9050    -0.5280 H     1 <1>   0.1500 
 30 H        3.4900     3.4250     1.4470 H     1 <1>   0.0800 
 31 H        2.7870    -0.4990    -1.5380 H     1 <1>   0.0800 
 32 H       -3.1690    -3.1420     0.6560 H     1 <1>   0.1500 
 33 H       -2.2810    -0.0130    -2.1050 H     1 <1>   0.1500 
 34 H        4.6240     0.9000     1.8580 H     1 <1>   0.0800 
 35 H        5.4230     2.3970     1.5070 H     1 <1>   0.0800 
 36 H        5.0160    -0.0920    -1.5590 H     1 <1>   0.0800 
 37 H        4.8380    -0.7900     0.0260 H     1 <1>   0.0800 
 38 H        3.4660     4.6590    -0.7190 H     1 <1>   0.0800 
 39 H        1.7890     4.4470    -0.2360 H     1 <1>   0.0800 
 40 H        2.2890     4.0740    -1.8690 H     1 <1>   0.0800 
 41 H       -5.1400    -3.3630    -2.4160 H     1 <1>   0.0800 
 42 H       -5.1350    -3.0450    -0.6840 H     1 <1>   0.0800 
 43 H       -3.8800    -4.0680    -1.4100 H     1 <1>   0.0800 
@<TRIPOS>BOND
  1   1   2  2   
  2   1   3  2   
  3   1   4  am  
  4   1   5  1   
  5   4   6  1   
  6   4   7  1   
  7   5   8  ar  
  8   5   9  ar  
  9   6  10  1   
 10   6  24  1   
 11   6  25  1   
 12   7  11  1   
 13   7  26  1   
 14   7  27  1   
 15   8  12  ar  
 16   8  28  1   
 17   9  13  ar  
 18   9  29  1   
 19  10  14  1   
 20  10  15  1   
 21  10  30  1   
 22  11  16  1   
 23  11  17  1   
 24  11  31  1   
 25  12  18  ar  
 26  12  32  1   
 27  13  18  ar  
 28  13  33  1   
 29  14  16  am  
 30  14  19  1   
 31  15  20  1   
 32  15  34  1   
 33  15  35  1   
 34  16  21  2   
 35  17  20  1   
 36  17  36  1   
 37  17  37  1   
 38  18  22  1   
 39  19  38  1   
 40  19  39  1   
 41  19  40  1   
 42  22  23  1   
 43  23  41  1   
 44  23  42  1   
 45  23  43  1   
@<TRIPOS>SUBSTRUCTURE
  1 ****   4 GROUP 4 **** **** 0

# MOE 2024.06 (io_trps.svl 2023.06)
