@<TRIPOS>MOLECULE
NONAME
36 37 1 0 0 
SMALL
USER_CHARGES


@<TRIPOS>ATOM
  1 O       -1.1270    -1.0280     0.0800 O.2   1 <1>  -0.5700 
  2 C       -2.0440    -0.6230    -0.5840 C.2   1 <1>   0.4230 
  3 C       -3.4150    -0.8470    -0.2160 C.ar  1 <1>   0.0860 
  4 C       -1.6820     0.0750    -1.8810 C.3   1 <1>  -0.1790 
  5 C       -4.4640     0.0640    -0.3230 C.ar  1 <1>   0.1660 
  6 C       -3.7720    -2.0810     0.3020 C.ar  1 <1>   0.1600 
  7 N       -5.6960    -0.2480    -0.0140 N.ar  1 <1>  -0.6200 
  8 C       -4.2680     1.5010    -0.7770 C.3   1 <1>  -0.0960 
  9 N       -4.9970    -2.4140     0.6260 N.ar  1 <1>  -0.6200 
 10 C       -5.9230    -1.4730     0.4540 C.ar  1 <1>   0.7200 
 11 N       -7.2090    -1.7940     0.7780 N.pl3 1 <1>  -0.8380 
 12 C       -7.5360    -2.8670     1.7630 C.3   1 <1>   0.3890 
 13 C       -8.3910    -1.1190     0.1730 C.3   1 <1>   0.1290 
 14 C       -7.8590    -4.1660     1.0460 C.2   1 <1>   0.0060 
 15 N       -7.0180    -4.6610     0.1170 N.pl3 1 <1>   0.0330 
 16 N       -8.9110    -4.8990     1.2370 N.2   1 <1>  -0.5650 
 17 C       -7.5890    -5.8010    -0.3140 C.2   1 <1>  -0.3320 
 18 C       -8.7420    -5.9270     0.3810 C.2   1 <1>   0.0770 
 19 C       -6.9780    -6.6940    -1.3760 C.3   1 <1>  -0.0600 
 20 H       -2.5000     0.0440    -2.5760 H     1 <1>   0.0800 
 21 H       -0.8390    -0.4200    -2.3270 H     1 <1>   0.0800 
 22 H       -1.4090     1.0950    -1.6830 H     1 <1>   0.0800 
 23 H       -2.9990    -2.8180     0.4440 H     1 <1>   0.1500 
 24 H       -3.3310     1.8920    -0.4250 H     1 <1>   0.0800 
 25 H       -5.0510     2.1220    -0.3770 H     1 <1>   0.0800 
 26 H       -4.3090     1.5590    -1.8490 H     1 <1>   0.0800 
 27 H       -8.3820    -2.5680     2.3570 H     1 <1>   0.0800 
 28 H       -6.7070    -3.0250     2.4310 H     1 <1>   0.0800 
 29 H       -8.1120    -0.5910    -0.7220 H     1 <1>   0.0800 
 30 H       -8.8080    -0.4190     0.8760 H     1 <1>   0.0800 
 31 H       -9.1390    -1.8500    -0.0840 H     1 <1>   0.0800 
 32 H       -6.1430    -4.2030    -0.1670 H     1 <1>   0.2700 
 33 H       -9.4720    -6.7160     0.3100 H     1 <1>   0.1500 
 34 H       -6.8650    -6.1500    -2.2970 H     1 <1>   0.0800 
 35 H       -7.6130    -7.5440    -1.5550 H     1 <1>   0.0800 
 36 H       -6.0140    -7.0450    -1.0550 H     1 <1>   0.0800 
@<TRIPOS>BOND
  1   1   2  2   
  2   2   3  1   
  3   2   4  1   
  4   3   5  ar  
  5   3   6  ar  
  6   4  20  1   
  7   4  21  1   
  8   4  22  1   
  9   5   7  ar  
 10   5   8  1   
 11   6   9  ar  
 12   6  23  1   
 13   7  10  ar  
 14   8  24  1   
 15   8  25  1   
 16   8  26  1   
 17   9  10  ar  
 18  10  11  1   
 19  11  12  1   
 20  11  13  1   
 21  12  14  1   
 22  12  27  1   
 23  12  28  1   
 24  13  29  1   
 25  13  30  1   
 26  13  31  1   
 27  14  15  1   
 28  14  16  2   
 29  15  17  1   
 30  15  32  1   
 31  16  18  1   
 32  17  18  2   
 33  17  19  1   
 34  18  33  1   
 35  19  34  1   
 36  19  35  1   
 37  19  36  1   
@<TRIPOS>SUBSTRUCTURE
  1 ****   9 GROUP 4 **** **** 0

# MOE 2024.06 (io_trps.svl 2023.06)
