@<TRIPOS>MOLECULE
NONAME
47 48 1 0 0 
SMALL
USER_CHARGES


@<TRIPOS>ATOM
  1 S        0.4630     0.1170     0.8430 S.o2  1 <1>   1.3330 
  2 O       -0.1680     0.2970     2.1310 O.2   1 <1>  -0.6500 
  3 O        1.9050     0.1220     0.7420 O.2   1 <1>  -0.6500 
  4 N       -0.1010    -1.3350     0.1670 N.am  1 <1>  -0.8490 
  5 C       -0.2040     1.3570    -0.2640 C.3   1 <1>  -0.0550 
  6 C       -0.2940    -2.3790     1.1780 C.3   1 <1>   0.1160 
  7 C        0.7470    -1.8410    -0.9170 C.3   1 <1>   0.1160 
  8 C        0.0810     2.7970     0.1950 C.3   1 <1>  -0.0800 
  9 C       -0.5880     3.8330    -0.7040 C.3   1 <1>   0.2000 
 10 C        1.5610     3.1880     0.1710 C.3   1 <1>   0.1400 
 11 O       -1.9090     4.0070    -0.3290 O.3   1 <1>  -0.6800 
 12 C        0.2260     5.1130    -0.5280 C.3   1 <1>   0.1400 
 13 N        1.5670     4.6460    -0.0980 N.am  1 <1>  -0.6600 
 14 C        2.6930     5.4110     0.0330 C.2   1 <1>   0.5690 
 15 O        3.7470     4.9200     0.3580 O.2   1 <1>  -0.5700 
 16 C        2.6130     6.9090    -0.2400 C.3   1 <1>  -0.0990 
 17 C        3.9270     7.6760     0.0060 C.3   1 <1>  -0.1600 
 18 C        3.7670     9.1770    -0.2670 C.3   1 <1>   0.0200 
 19 C        5.0590     9.9270    -0.0020 C.2   1 <1>  -0.1400 
 20 S        6.3910     9.6840    -1.1230 S.3   1 <1>  -0.0800 
 21 C        5.4110    10.7960     0.9640 C.2   1 <1>  -0.1500 
 22 C        7.4100    10.7930    -0.2220 C.2   1 <1>  -0.1100 
 23 C        6.7490    11.2880     0.8400 C.2   1 <1>  -0.1500 
 24 H        0.1950     1.2100    -1.2490 H     1 <1>   0.0800 
 25 H       -1.2670     1.2230    -0.3200 H     1 <1>   0.0800 
 26 H       -0.6660    -3.2790     0.7190 H     1 <1>   0.0800 
 27 H       -1.0140    -2.0550     1.9110 H     1 <1>   0.0800 
 28 H        0.6360    -2.5940     1.6770 H     1 <1>   0.0800 
 29 H        0.2940    -2.7090    -1.3660 H     1 <1>   0.0800 
 30 H        1.7210    -2.1080    -0.5410 H     1 <1>   0.0800 
 31 H        0.8660    -1.0890    -1.6790 H     1 <1>   0.0800 
 32 H       -0.2660     2.9250     1.2070 H     1 <1>   0.0800 
 33 H       -0.5650     3.5300    -1.7380 H     1 <1>   0.0800 
 34 H        2.0880     2.6850    -0.6230 H     1 <1>   0.0800 
 35 H        2.0470     2.9700     1.1080 H     1 <1>   0.0800 
 36 H       -1.9760     4.1830     0.6300 H     1 <1>   0.4000 
 37 H       -0.1970     5.7340     0.2430 H     1 <1>   0.0800 
 38 H        0.2900     5.6540    -1.4560 H     1 <1>   0.0800 
 39 H        2.3190     7.0440    -1.2650 H     1 <1>   0.0800 
 40 H        1.8470     7.3200     0.3900 H     1 <1>   0.0800 
 41 H        4.6960     7.2740    -0.6310 H     1 <1>   0.0800 
 42 H        4.2400     7.5320     1.0260 H     1 <1>   0.0800 
 43 H        2.9980     9.5770     0.3700 H     1 <1>   0.0800 
 44 H        3.4730     9.3390    -1.2890 H     1 <1>   0.0800 
 45 H        4.7810    11.1190     1.7740 H     1 <1>   0.1500 
 46 H        8.4070    10.9560    -0.5890 H     1 <1>   0.1500 
 47 H        7.1480    11.9880     1.5530 H     1 <1>   0.1500 
@<TRIPOS>BOND
  1   1   2  2   
  2   1   3  2   
  3   1   4  am  
  4   1   5  1   
  5   4   6  1   
  6   4   7  1   
  7   5   8  1   
  8   5  24  1   
  9   5  25  1   
 10   6  26  1   
 11   6  27  1   
 12   6  28  1   
 13   7  29  1   
 14   7  30  1   
 15   7  31  1   
 16   8   9  1   
 17   8  10  1   
 18   8  32  1   
 19   9  11  1   
 20   9  12  1   
 21   9  33  1   
 22  10  13  1   
 23  10  34  1   
 24  10  35  1   
 25  11  36  1   
 26  12  13  1   
 27  12  37  1   
 28  12  38  1   
 29  13  14  am  
 30  14  15  2   
 31  14  16  1   
 32  16  17  1   
 33  16  39  1   
 34  16  40  1   
 35  17  18  1   
 36  17  41  1   
 37  17  42  1   
 38  18  19  1   
 39  18  43  1   
 40  18  44  1   
 41  19  20  1   
 42  19  21  2   
 43  20  22  1   
 44  21  23  1   
 45  21  45  1   
 46  22  23  2   
 47  22  46  1   
 48  23  47  1   
@<TRIPOS>SUBSTRUCTURE
  1 ****  13 GROUP 4 **** **** 0

# MOE 2024.06 (io_trps.svl 2023.06)
