@<TRIPOS>MOLECULE
NONAME
42 45 1 0 0 
SMALL
USER_CHARGES


@<TRIPOS>ATOM
  1 S        0.4710    -0.3400     2.0640 S.3   1 <1>  -0.0800 
  2 C        1.5010    -1.0920     0.8190 C.2   1 <1>  -0.0450 
  3 C        1.1610     1.2550     1.7940 C.2   1 <1>  -0.1100 
  4 C        2.2890    -0.1230     0.2830 C.2   1 <1>   0.0620 
  5 C        1.4110    -2.5030     0.5770 C.2   1 <1>   0.7150 
  6 C        2.0940     1.1890     0.8280 C.2   1 <1>   0.0620 
  7 O        3.1930    -0.3240    -0.6980 O.3   1 <1>  -0.3420 
  8 O        2.4240    -3.1740     0.4880 O.2   1 <1>  -0.5700 
  9 N        0.1960    -3.1420     0.4370 N.am  1 <1>  -0.6600 
 10 O        2.8140     2.2530     0.3800 O.3   1 <1>  -0.3420 
 11 C        4.1540     0.6910    -0.9120 C.3   1 <1>   0.1200 
 12 C       -1.0730    -2.4640     0.0750 C.3   1 <1>   0.1400 
 13 C        0.0950    -4.6020     0.1830 C.3   1 <1>   0.1400 
 14 C        3.4870     2.0740    -0.8540 C.3   1 <1>   0.1200 
 15 C       -1.9320    -3.5510    -0.5720 C.3   1 <1>   0.2000 
 16 C       -1.3970    -4.8710    -0.0240 C.3   1 <1>  -0.0800 
 17 O       -3.2710    -3.4060    -0.2410 O.3   1 <1>  -0.6800 
 18 C       -1.7010    -6.0630    -0.9470 C.3   1 <1>  -0.0170 
 19 C       -1.2150    -7.3740    -0.3520 C.ar  1 <1>   0.1670 
 20 N        0.0640    -7.6640    -0.5320 N.ar  1 <1>  -0.6200 
 21 C       -2.1040    -8.1860     0.3370 C.ar  1 <1>  -0.1500 
 22 C        0.4750    -8.8050    -0.0050 C.ar  1 <1>   0.1600 
 23 C       -1.6630    -9.3730     0.8820 C.ar  1 <1>  -0.1500 
 24 C       -0.3320    -9.6820     0.7000 C.ar  1 <1>  -0.1500 
 25 H        0.7990     2.0760     2.3840 H     1 <1>   0.1500 
 26 H        4.9080     0.6040    -0.1500 H     1 <1>   0.0800 
 27 H        4.6030     0.5220    -1.8740 H     1 <1>   0.0800 
 28 H       -1.5420    -2.0920     0.9680 H     1 <1>   0.0800 
 29 H       -0.8910    -1.6580    -0.6150 H     1 <1>   0.0800 
 30 H        0.6580    -4.8460    -0.7030 H     1 <1>   0.0800 
 31 H        0.4890    -5.1650     1.0130 H     1 <1>   0.0800 
 32 H        2.7660     2.1750    -1.6460 H     1 <1>   0.0800 
 33 H        4.2200     2.8550    -0.9450 H     1 <1>   0.0800 
 34 H       -1.8360    -3.5020    -1.6430 H     1 <1>   0.0800 
 35 H       -1.8220    -5.0560     0.9470 H     1 <1>   0.0800 
 36 H       -3.3880    -3.4550     0.7270 H     1 <1>   0.4000 
 37 H       -1.2310    -5.9180    -1.9040 H     1 <1>   0.0800 
 38 H       -2.7610    -6.1180    -1.1150 H     1 <1>   0.0800 
 39 H       -3.1320    -7.8940     0.4490 H     1 <1>   0.1500 
 40 H        1.5130    -9.0560    -0.1410 H     1 <1>   0.1500 
 41 H       -2.3250   -10.0270     1.4220 H     1 <1>   0.1500 
 42 H        0.0780   -10.5920     1.0980 H     1 <1>   0.1500 
@<TRIPOS>BOND
  1   1   2  1   
  2   1   3  1   
  3   2   4  2   
  4   2   5  1   
  5   3   6  2   
  6   3  25  1   
  7   4   6  1   
  8   4   7  1   
  9   5   8  2   
 10   5   9  am  
 11   6  10  1   
 12   7  11  1   
 13   9  12  1   
 14   9  13  1   
 15  10  14  1   
 16  11  14  1   
 17  11  26  1   
 18  11  27  1   
 19  12  15  1   
 20  12  28  1   
 21  12  29  1   
 22  13  16  1   
 23  13  30  1   
 24  13  31  1   
 25  14  32  1   
 26  14  33  1   
 27  15  16  1   
 28  15  17  1   
 29  15  34  1   
 30  16  18  1   
 31  16  35  1   
 32  17  36  1   
 33  18  19  1   
 34  18  37  1   
 35  18  38  1   
 36  19  20  ar  
 37  19  21  ar  
 38  20  22  ar  
 39  21  23  ar  
 40  21  39  1   
 41  22  24  ar  
 42  22  40  1   
 43  23  24  ar  
 44  23  41  1   
 45  24  42  1   
@<TRIPOS>SUBSTRUCTURE
  1 ****   9 GROUP 4 **** **** 0

# MOE 2024.06 (io_trps.svl 2023.06)
