@<TRIPOS>MOLECULE
NONAME
43 45 1 0 0 
SMALL
USER_CHARGES


@<TRIPOS>ATOM
  1 F        0.9950     0.6950     2.8830 F     1 <1>  -0.1900 
  2 C        1.6680     1.1400     1.8530 C.ar  1 <1>   0.1900 
  3 C        2.2930     0.2300     1.0050 C.ar  1 <1>   0.0860 
  4 C        1.7250     2.5030     1.6230 C.ar  1 <1>   0.1900 
  5 C        2.9800     0.7660    -0.0950 C.ar  1 <1>   0.0830 
  6 C        2.2140    -1.1860     1.2510 C.2   1 <1>   0.5440 
  7 F        1.1280     3.3370     2.4380 F     1 <1>  -0.1900 
  8 C        2.4010     3.0200     0.5330 C.ar  1 <1>  -0.1500 
  9 O        3.6000    -0.0330    -0.9850 O.3   1 <1>  -0.3630 
 10 C        3.0260     2.1360    -0.3290 C.ar  1 <1>  -0.1500 
 11 O        2.9220    -1.6960     2.0980 O.2   1 <1>  -0.5700 
 12 N        1.3620    -1.9900     0.5330 N.am  1 <1>  -0.6600 
 13 C        4.8330    -0.6050    -0.5970 C.3   1 <1>   0.0400 
 14 C        0.5430    -1.5620    -0.6270 C.3   1 <1>   0.1400 
 15 C        1.2640    -3.4560     0.7320 C.3   1 <1>   0.1400 
 16 C       -0.4020    -2.7370    -0.8700 C.3   1 <1>   0.2000 
 17 C        0.4220    -3.9600    -0.4470 C.3   1 <1>  -0.0800 
 18 O       -1.4900    -2.5940    -0.0210 O.3   1 <1>  -0.6800 
 19 C       -0.4050    -5.2210    -0.1300 C.3   1 <1>   0.0200 
 20 C        0.4540    -6.4450     0.1400 C.2   1 <1>  -0.0400 
 21 O       -0.1300    -7.5420     0.5440 O.3   1 <1>  -0.0190 
 22 C        1.7710    -6.6940     0.0530 C.2   1 <1>  -0.1500 
 23 N        0.7220    -8.5070     0.7360 N.2   1 <1>  -0.4100 
 24 C        1.8770    -8.0250     0.4480 C.2   1 <1>   0.1080 
 25 C        3.1690    -8.8050     0.5320 C.3   1 <1>  -0.0590 
 26 H        2.4310     4.0830     0.3680 H     1 <1>   0.1500 
 27 H        3.5560     2.5030    -1.1910 H     1 <1>   0.1500 
 28 H        5.2520    -1.1100    -1.4490 H     1 <1>   0.0800 
 29 H        4.6690    -1.3100     0.1980 H     1 <1>   0.0800 
 30 H        5.4950     0.1780    -0.2720 H     1 <1>   0.0800 
 31 H        0.0060    -0.6510    -0.4300 H     1 <1>   0.0800 
 32 H        1.1880    -1.4270    -1.4780 H     1 <1>   0.0800 
 33 H        2.2430    -3.9020     0.7470 H     1 <1>   0.0800 
 34 H        0.7730    -3.6480     1.6710 H     1 <1>   0.0800 
 35 H       -0.7630    -2.7900    -1.8830 H     1 <1>   0.0800 
 36 H        1.0940    -4.1880    -1.2550 H     1 <1>   0.0800 
 37 H       -1.1620    -2.3850     0.8780 H     1 <1>   0.4000 
 38 H       -1.0550    -5.4380    -0.9590 H     1 <1>   0.0800 
 39 H       -1.0260    -5.0460     0.7310 H     1 <1>   0.0800 
 40 H        2.5850    -6.0600    -0.2440 H     1 <1>   0.1500 
 41 H        3.8330    -8.3360     1.2340 H     1 <1>   0.0800 
 42 H        3.6380    -8.8390    -0.4340 H     1 <1>   0.0800 
 43 H        2.9710    -9.8100     0.8590 H     1 <1>   0.0800 
@<TRIPOS>BOND
  1   1   2  1   
  2   2   3  ar  
  3   2   4  ar  
  4   3   5  ar  
  5   3   6  1   
  6   4   7  1   
  7   4   8  ar  
  8   5   9  1   
  9   5  10  ar  
 10   6  11  2   
 11   6  12  am  
 12   8  10  ar  
 13   8  26  1   
 14   9  13  1   
 15  10  27  1   
 16  12  14  1   
 17  12  15  1   
 18  13  28  1   
 19  13  29  1   
 20  13  30  1   
 21  14  16  1   
 22  14  31  1   
 23  14  32  1   
 24  15  17  1   
 25  15  33  1   
 26  15  34  1   
 27  16  17  1   
 28  16  18  1   
 29  16  35  1   
 30  17  19  1   
 31  17  36  1   
 32  18  37  1   
 33  19  20  1   
 34  19  38  1   
 35  19  39  1   
 36  20  21  1   
 37  20  22  2   
 38  21  23  1   
 39  22  24  1   
 40  22  40  1   
 41  23  24  2   
 42  24  25  1   
 43  25  41  1   
 44  25  42  1   
 45  25  43  1   
@<TRIPOS>SUBSTRUCTURE
  1 ****  12 GROUP 4 **** **** 0

# MOE 2024.06 (io_trps.svl 2023.06)
