@<TRIPOS>MOLECULE
NONAME
43 44 1 0 0 
SMALL
USER_CHARGES


@<TRIPOS>ATOM
  1 S       -0.6970    -1.1140     2.3260 S.3   1 <1>  -0.2860 
  2 C       -1.5630    -2.4480     1.4910 C.2   1 <1>   0.2420 
  3 C        0.8700    -1.9140     2.8840 C.3   1 <1>  -0.0100 
  4 N       -1.0780    -3.6400     1.3930 N.2   1 <1>  -0.5650 
  5 N       -2.7780    -2.2610     0.9270 N.pl3 1 <1>   0.0480 
  6 C       -2.0430    -4.2910     0.7150 C.2   1 <1>   0.0770 
  7 C       -3.0910    -3.4790     0.4270 C.2   1 <1>  -0.3320 
  8 C       -3.5680    -1.0140     0.8840 C.3   1 <1>   0.0160 
  9 C       -4.3850    -3.7760    -0.3060 C.3   1 <1>   0.3200 
 10 N       -4.5860    -5.2280    -0.3570 N.am  1 <1>  -0.7300 
 11 C       -5.1800    -5.8810    -1.3810 C.2   1 <1>   0.5690 
 12 O       -5.6300    -5.3020    -2.3380 O.2   1 <1>  -0.5700 
 13 C       -5.3090    -7.3820    -1.3060 C.3   1 <1>  -0.0990 
 14 C       -6.6890    -7.7490    -0.7700 C.3   1 <1>   0.1400 
 15 N       -6.7690    -9.2130    -0.5580 N.am  1 <1>  -0.7300 
 16 C       -6.3390    -9.8550     0.5720 C.2   1 <1>   0.5440 
 17 O       -5.8020    -9.1920     1.4380 O.2   1 <1>  -0.5700 
 18 C       -6.5260   -11.2870     0.7390 C.ar  1 <1>   0.0860 
 19 C       -6.6420   -11.8430     2.0170 C.ar  1 <1>  -0.1500 
 20 C       -6.5950   -12.1570    -0.3570 C.ar  1 <1>  -0.1500 
 21 C       -6.8310   -13.2020     2.2050 C.ar  1 <1>  -0.1500 
 22 C       -6.7850   -13.5190    -0.1880 C.ar  1 <1>  -0.1500 
 23 C       -6.9020   -14.0180     1.0940 C.ar  1 <1>   0.1900 
 24 F       -7.0820   -15.2980     1.2600 F     1 <1>  -0.1900 
 25 H        1.4550    -1.1740     3.3990 H     1 <1>   0.0800 
 26 H        1.3800    -2.2770     2.0100 H     1 <1>   0.0800 
 27 H        0.6070    -2.7270     3.5360 H     1 <1>   0.0800 
 28 H       -1.9280    -5.3320     0.4620 H     1 <1>   0.1500 
 29 H       -2.9070    -0.1670     0.8450 H     1 <1>   0.0800 
 30 H       -4.1770    -0.9510     1.7670 H     1 <1>   0.0800 
 31 H       -4.1930    -1.0080     0.0100 H     1 <1>   0.0800 
 32 H       -4.3470    -3.3710    -1.3040 H     1 <1>   0.0800 
 33 H       -5.2160    -3.3330     0.2150 H     1 <1>   0.0800 
 34 H       -4.2670    -5.7350     0.4710 H     1 <1>   0.3700 
 35 H       -4.5470    -7.7720    -0.6580 H     1 <1>   0.0800 
 36 H       -5.1750    -7.7920    -2.2900 H     1 <1>   0.0800 
 37 H       -7.4520    -7.4380    -1.4640 H     1 <1>   0.0800 
 38 H       -6.8590    -7.2460     0.1680 H     1 <1>   0.0800 
 39 H       -7.2940    -9.7340    -1.2620 H     1 <1>   0.3700 
 40 H       -6.5820   -11.1930     2.8740 H     1 <1>   0.1500 
 41 H       -6.4910   -11.7680    -1.3540 H     1 <1>   0.1500 
 42 H       -6.9210   -13.6230     3.1910 H     1 <1>   0.1500 
 43 H       -6.8390   -14.1870    -1.0290 H     1 <1>   0.1500 
@<TRIPOS>BOND
  1   1   2  1   
  2   1   3  1   
  3   2   4  2   
  4   2   5  1   
  5   3  25  1   
  6   3  26  1   
  7   3  27  1   
  8   4   6  1   
  9   5   7  1   
 10   5   8  1   
 11   6   7  2   
 12   6  28  1   
 13   7   9  1   
 14   8  29  1   
 15   8  30  1   
 16   8  31  1   
 17   9  10  1   
 18   9  32  1   
 19   9  33  1   
 20  10  11  am  
 21  10  34  1   
 22  11  12  2   
 23  11  13  1   
 24  13  14  1   
 25  13  35  1   
 26  13  36  1   
 27  14  15  1   
 28  14  37  1   
 29  14  38  1   
 30  15  16  am  
 31  15  39  1   
 32  16  17  2   
 33  16  18  1   
 34  18  19  ar  
 35  18  20  ar  
 36  19  21  ar  
 37  19  40  1   
 38  20  22  ar  
 39  20  41  1   
 40  21  23  ar  
 41  21  42  1   
 42  22  23  ar  
 43  22  43  1   
 44  23  24  1   
@<TRIPOS>SUBSTRUCTURE
  1 ****  13 GROUP 4 **** **** 0

# MOE 2024.06 (io_trps.svl 2023.06)
