@<TRIPOS>MOLECULE
NONAME
48 49 1 0 0 
SMALL
USER_CHARGES


@<TRIPOS>ATOM
  1 O        1.0520    -1.5190     0.7110 O.2   1 <1>  -0.5700 
  2 C        1.9190    -1.2450    -0.0890 C.2   1 <1>   0.5690 
  3 N        2.4980    -0.0120    -0.1890 N.am  1 <1>  -0.4940 
  4 C        2.4020    -2.3610    -1.0070 C.3   1 <1>  -0.0190 
  5 C        2.1800     1.1670     0.5290 C.2   1 <1>  -0.0880 
  6 C        1.1870    -3.1940    -1.4570 C.3   1 <1>   0.3430 
  7 C        3.4740    -3.2270    -0.2950 C.3   1 <1>  -0.1600 
  8 N        3.1020     2.0110     1.0700 N.pl3 1 <1>   0.3140 
  9 C        0.9680     1.7020     0.8180 C.2   1 <1>  -0.1810 
 10 N        0.7610    -4.0800    -0.3340 N.4   1 <1>  -0.9590 
 11 C        3.1950    -4.7330    -0.4410 C.3   1 <1>  -0.1600 
 12 N        2.5180     3.0570     1.6890 N.2   1 <1>  -0.7070 
 13 C        4.5720     1.8560     1.0820 C.3   1 <1>   0.0960 
 14 C        1.2460     2.8600     1.5350 C.2   1 <1>   0.1390 
 15 C       -0.4250     1.2160     0.4670 C.3   1 <1>  -0.0590 
 16 C        1.7790    -5.1250     0.0150 C.3   1 <1>   0.3430 
 17 C       -0.6060    -4.6450    -0.5650 C.3   1 <1>   0.3430 
 18 C        5.1990     2.3730    -0.2190 C.3   1 <1>  -0.2400 
 19 C       -1.2340    -5.2040     0.7160 C.3   1 <1>   0.1200 
 20 O       -2.4630    -5.7460     0.3680 O.3   1 <1>  -0.5600 
 21 C       -3.1930    -6.2520     1.4420 C.3   1 <1>   0.0400 
 22 H        3.2890     0.0780    -0.8270 H     1 <1>   0.3700 
 23 H        2.8300    -1.9180    -1.8880 H     1 <1>   0.0800 
 24 H        1.4480    -3.7950    -2.3130 H     1 <1>   0.0800 
 25 H        0.3830    -2.5310    -1.7340 H     1 <1>   0.0800 
 26 H        3.4940    -2.9900     0.7570 H     1 <1>   0.0800 
 27 H        4.4500    -2.9980    -0.6890 H     1 <1>   0.0800 
 28 H        0.6930    -3.4180     0.4690 H     1 <1>   0.4500 
 29 H        3.9130    -5.2930     0.1330 H     1 <1>   0.0800 
 30 H        3.3240    -5.0260    -1.4690 H     1 <1>   0.0800 
 31 H        4.8080     0.8190     1.2320 H     1 <1>   0.0800 
 32 H        4.9570     2.4130     1.9170 H     1 <1>   0.0800 
 33 H        0.4970     3.5300     1.9240 H     1 <1>   0.1500 
 34 H       -0.3930     0.5810    -0.3990 H     1 <1>   0.0800 
 35 H       -1.0670     2.0520     0.2550 H     1 <1>   0.0800 
 36 H       -0.8330     0.6610     1.2920 H     1 <1>   0.0800 
 37 H        1.5160    -6.0650    -0.4440 H     1 <1>   0.0800 
 38 H        1.7780    -5.2680     1.0840 H     1 <1>   0.0800 
 39 H       -0.5550    -5.4300    -1.3010 H     1 <1>   0.0800 
 40 H       -1.2550    -3.8710    -0.9390 H     1 <1>   0.0800 
 41 H        4.8320     1.8270    -1.0680 H     1 <1>   0.0800 
 42 H        6.2680     2.2650    -0.1760 H     1 <1>   0.0800 
 43 H        4.9690     3.4170    -0.3440 H     1 <1>   0.0800 
 44 H       -1.3960    -4.4180     1.4340 H     1 <1>   0.0800 
 45 H       -0.6310    -5.9880     1.1390 H     1 <1>   0.0800 
 46 H       -4.1190    -6.6470     1.0610 H     1 <1>   0.0800 
 47 H       -3.4000    -5.4600     2.1410 H     1 <1>   0.0800 
 48 H       -2.6350    -7.0410     1.9160 H     1 <1>   0.0800 
@<TRIPOS>BOND
  1   1   2  2   
  2   2   3  am  
  3   2   4  1   
  4   3   5  1   
  5   3  22  1   
  6   4   6  1   
  7   4   7  1   
  8   4  23  1   
  9   5   8  1   
 10   5   9  2   
 11   6  10  1   
 12   6  24  1   
 13   6  25  1   
 14   7  11  1   
 15   7  26  1   
 16   7  27  1   
 17   8  12  1   
 18   8  13  1   
 19   9  14  1   
 20   9  15  1   
 21  10  16  1   
 22  10  17  1   
 23  10  28  1   
 24  11  16  1   
 25  11  29  1   
 26  11  30  1   
 27  12  14  2   
 28  13  18  1   
 29  13  31  1   
 30  13  32  1   
 31  14  33  1   
 32  15  34  1   
 33  15  35  1   
 34  15  36  1   
 35  16  37  1   
 36  16  38  1   
 37  17  19  1   
 38  17  39  1   
 39  17  40  1   
 40  18  41  1   
 41  18  42  1   
 42  18  43  1   
 43  19  20  1   
 44  19  44  1   
 45  19  45  1   
 46  20  21  1   
 47  21  46  1   
 48  21  47  1   
 49  21  48  1   
@<TRIPOS>SUBSTRUCTURE
  1 ****   1 GROUP 4 **** **** 0

# MOE 2024.06 (io_trps.svl 2023.06)
