@<TRIPOS>MOLECULE
NONAME
50 53 1 0 0 
SMALL
USER_CHARGES


@<TRIPOS>ATOM
  1 O        0.0780    -0.1560    -1.2740 O.2   1 <1>  -0.5700 
  2 C        0.9270    -0.7020    -0.5940 C.2   1 <1>   0.5440 
  3 N        1.8420     0.0330     0.1090 N.am  1 <1>  -0.4930 
  4 C        1.0100    -2.1430    -0.5420 C.ar  1 <1>   0.0860 
  5 C        2.1300     1.4200     0.0880 C.2   1 <1>   0.0630 
  6 C       -0.0930    -2.9640    -0.1850 C.ar  1 <1>   0.0000 
  7 C        2.1830    -2.7880    -0.8330 C.ar  1 <1>  -0.1500 
  8 C        3.4390     1.9110     0.1530 C.2   1 <1>   0.3720 
  9 C        1.3490     2.5210     0.0250 C.2   1 <1>  -0.3320 
 10 C        0.1030    -4.3640    -0.1600 C.ar  1 <1>   0.3100 
 11 C       -1.3700    -2.4670     0.1570 C.ar  1 <1>  -0.1500 
 12 C        2.2730    -4.1790    -0.7770 C.ar  1 <1>   0.3930 
 13 N        3.4890     3.2050     0.1060 N.2   1 <1>  -0.7070 
 14 N        4.5810     1.0910     0.2560 N.pl3 1 <1>  -0.8210 
 15 N        2.1950     3.5830     0.0180 N.pl3 1 <1>   0.3140 
 16 C       -0.1670     2.6400    -0.0180 C.3   1 <1>  -0.0600 
 17 N        1.2830    -4.9590    -0.4530 N.ar  1 <1>  -0.6200 
 18 C       -0.9740    -5.1940     0.1940 C.ar  1 <1>  -0.1500 
 19 C       -2.4000    -3.3020     0.4990 C.ar  1 <1>  -0.1500 
 20 O        3.4730    -4.7090    -1.0800 O.3   1 <1>  -0.3630 
 21 C        5.3750     1.3790     1.4830 C.3   1 <1>   0.2090 
 22 C        5.4770     1.2570    -0.9210 C.3   1 <1>   0.2090 
 23 C        1.8330     5.0030    -0.0690 C.3   1 <1>   0.0160 
 24 C       -2.2020    -4.6830     0.5180 C.ar  1 <1>  -0.1500 
 25 C        3.6760    -6.1090    -1.0690 C.3   1 <1>   0.0400 
 26 C        6.8340     1.3620     1.0530 C.3   1 <1>  -0.1600 
 27 C        6.7870     1.8260    -0.3920 C.3   1 <1>  -0.1600 
 28 H        2.6370    -0.4830     0.4890 H     1 <1>   0.3700 
 29 H        3.0620    -2.2420    -1.1210 H     1 <1>   0.1500 
 30 H       -1.5440    -1.4050     0.1460 H     1 <1>   0.1500 
 31 H       -0.6220     1.7160     0.2900 H     1 <1>   0.0800 
 32 H       -0.4900     2.8600    -1.0200 H     1 <1>   0.0800 
 33 H       -0.5080     3.4130     0.6450 H     1 <1>   0.0800 
 34 H       -0.8010    -6.2540     0.2020 H     1 <1>   0.1500 
 35 H       -3.3680    -2.9060     0.7540 H     1 <1>   0.1500 
 36 H        5.1820     0.6360     2.2360 H     1 <1>   0.0800 
 37 H        5.1230     2.3510     1.8760 H     1 <1>   0.0800 
 38 H        5.0470     1.9090    -1.6650 H     1 <1>   0.0800 
 39 H        5.6450     0.2900    -1.3620 H     1 <1>   0.0800 
 40 H        1.1690     5.1470    -0.9000 H     1 <1>   0.0800 
 41 H        2.7240     5.5840    -0.2150 H     1 <1>   0.0800 
 42 H        1.3530     5.2990     0.8440 H     1 <1>   0.0800 
 43 H       -3.0180    -5.3320     0.7870 H     1 <1>   0.1500 
 44 H        4.6960    -6.3060    -1.3430 H     1 <1>   0.0800 
 45 H        3.0060    -6.5630    -1.7780 H     1 <1>   0.0800 
 46 H        3.4800    -6.4800    -0.0780 H     1 <1>   0.0800 
 47 H        7.2050     0.3540     1.1080 H     1 <1>   0.0800 
 48 H        7.4390     2.0010     1.6710 H     1 <1>   0.0800 
 49 H        6.7340     2.9000    -0.4310 H     1 <1>   0.0800 
 50 H        7.6320     1.4900    -0.9660 H     1 <1>   0.0800 
@<TRIPOS>BOND
  1   1   2  2   
  2   2   3  am  
  3   2   4  1   
  4   3   5  1   
  5   3  28  1   
  6   4   6  ar  
  7   4   7  ar  
  8   5   8  1   
  9   5   9  2   
 10   6  10  ar  
 11   6  11  ar  
 12   7  12  ar  
 13   7  29  1   
 14   8  13  2   
 15   8  14  1   
 16   9  15  1   
 17   9  16  1   
 18  10  17  ar  
 19  10  18  ar  
 20  11  19  ar  
 21  11  30  1   
 22  12  17  ar  
 23  12  20  1   
 24  13  15  1   
 25  14  21  1   
 26  14  22  1   
 27  15  23  1   
 28  16  31  1   
 29  16  32  1   
 30  16  33  1   
 31  18  24  ar  
 32  18  34  1   
 33  19  24  ar  
 34  19  35  1   
 35  20  25  1   
 36  21  26  1   
 37  21  36  1   
 38  21  37  1   
 39  22  27  1   
 40  22  38  1   
 41  22  39  1   
 42  23  40  1   
 43  23  41  1   
 44  23  42  1   
 45  24  43  1   
 46  25  44  1   
 47  25  45  1   
 48  25  46  1   
 49  26  27  1   
 50  26  47  1   
 51  26  48  1   
 52  27  49  1   
 53  27  50  1   
@<TRIPOS>SUBSTRUCTURE
  1 ****   3 GROUP 4 **** **** 0

# MOE 2024.06 (io_trps.svl 2023.06)
