@<TRIPOS>MOLECULE
NONAME
53 56 1 0 0 
SMALL
USER_CHARGES


@<TRIPOS>ATOM
  1 O        0.1410    -0.7140     0.0900 O.3   1 <1>  -0.2800 
  2 C        0.8370    -1.6640    -0.5070 C.2   1 <1>  -0.0400 
  3 C        0.3360     0.4060    -0.5780 C.2   1 <1>  -0.0100 
  4 C        1.4900    -1.1640    -1.5800 C.2   1 <1>  -0.1500 
  5 C        0.8000    -3.0740     0.0520 C.3   1 <1>   0.5230 
  6 C        1.1600     0.1960    -1.6250 C.2   1 <1>  -0.1500 
  7 N       -0.6220    -3.5420     0.0740 N.4   1 <1>  -0.9590 
  8 C       -1.3130    -3.0600     1.3070 C.3   1 <1>   0.3430 
  9 C       -0.7160    -5.0150    -0.1290 C.3   1 <1>   0.3430 
 10 C       -2.7840    -3.4720     1.2740 C.3   1 <1>  -0.1600 
 11 C       -2.1830    -5.4380    -0.1750 C.3   1 <1>  -0.1600 
 12 C       -2.9160    -4.9850     1.0940 C.3   1 <1>   0.4230 
 13 N       -4.3540    -5.3750     1.0910 N.4   1 <1>  -0.9590 
 14 C       -5.2290    -4.9050    -0.0310 C.3   1 <1>   0.3430 
 15 C       -4.6020    -6.8500     1.2260 C.3   1 <1>   0.3430 
 16 C       -6.4240    -5.8560     0.0100 C.3   1 <1>   0.2000 
 17 C       -5.7680    -7.2060     0.2870 C.3   1 <1>  -0.0800 
 18 O       -7.1910    -5.5150     1.1180 O.3   1 <1>  -0.6800 
 19 C       -5.2960    -7.8750    -1.0240 C.3   1 <1>  -0.0170 
 20 C       -4.5200    -9.1610    -0.7830 C.ar  1 <1>   0.1670 
 21 N       -3.2320    -9.0260    -0.4960 N.ar  1 <1>  -0.6200 
 22 C       -5.1680   -10.3930    -0.8770 C.ar  1 <1>   0.1600 
 23 C       -2.6430   -10.2030    -0.3250 C.ar  1 <1>   0.1600 
 24 N       -4.5800   -11.5600    -0.6890 N.ar  1 <1>  -0.6200 
 25 C       -3.2950   -11.4270    -0.4160 C.ar  1 <1>   0.1600 
 26 H       -0.1450     1.3100    -0.2430 H     1 <1>   0.1500 
 27 H        2.1420    -1.6550    -2.2840 H     1 <1>   0.1500 
 28 H        1.2230    -3.0890     1.0430 H     1 <1>   0.0800 
 29 H        1.3940    -3.7090    -0.5850 H     1 <1>   0.0800 
 30 H        1.5120     0.9040    -2.3560 H     1 <1>   0.1500 
 31 H       -1.0430    -3.0510    -0.7300 H     1 <1>   0.4500 
 32 H       -0.8360    -3.4770     2.1800 H     1 <1>   0.0800 
 33 H       -1.2460    -1.9850     1.3760 H     1 <1>   0.0800 
 34 H       -0.2330    -5.2920    -1.0540 H     1 <1>   0.0800 
 35 H       -0.2150    -5.5280     0.6770 H     1 <1>   0.0800 
 36 H       -3.2730    -2.9420     0.4760 H     1 <1>   0.0800 
 37 H       -3.2380    -3.1760     2.2030 H     1 <1>   0.0800 
 38 H       -2.2140    -6.5090    -0.2590 H     1 <1>   0.0800 
 39 H       -2.6310    -5.0180    -1.0570 H     1 <1>   0.0800 
 40 H       -2.4440    -5.4610     1.9400 H     1 <1>   0.0800 
 41 H       -4.8100    -4.9750     1.9270 H     1 <1>   0.4500 
 42 H       -5.5440    -3.8820     0.0990 H     1 <1>   0.0800 
 43 H       -4.7240    -5.0120    -0.9750 H     1 <1>   0.0800 
 44 H       -3.7190    -7.4160     0.9920 H     1 <1>   0.0800 
 45 H       -4.8830    -7.0740     2.2430 H     1 <1>   0.0800 
 46 H       -7.0370    -5.8170    -0.8760 H     1 <1>   0.0800 
 47 H       -6.4490    -7.8790     0.7810 H     1 <1>   0.0800 
 48 H       -8.0680    -5.9580     1.1000 H     1 <1>   0.4000 
 49 H       -4.6690    -7.2090    -1.5910 H     1 <1>   0.0800 
 50 H       -6.1540    -8.0960    -1.6360 H     1 <1>   0.0800 
 51 H       -6.2160   -10.4190    -1.1160 H     1 <1>   0.1500 
 52 H       -1.5910   -10.2070    -0.1000 H     1 <1>   0.1500 
 53 H       -2.7300   -12.3290    -0.2570 H     1 <1>   0.1500 
@<TRIPOS>BOND
  1   1   2  1   
  2   1   3  1   
  3   2   4  2   
  4   2   5  1   
  5   3   6  2   
  6   3  26  1   
  7   4   6  1   
  8   4  27  1   
  9   5   7  1   
 10   5  28  1   
 11   5  29  1   
 12   6  30  1   
 13   7   8  1   
 14   7   9  1   
 15   7  31  1   
 16   8  10  1   
 17   8  32  1   
 18   8  33  1   
 19   9  11  1   
 20   9  34  1   
 21   9  35  1   
 22  10  12  1   
 23  10  36  1   
 24  10  37  1   
 25  11  12  1   
 26  11  38  1   
 27  11  39  1   
 28  12  13  1   
 29  12  40  1   
 30  13  14  1   
 31  13  15  1   
 32  13  41  1   
 33  14  16  1   
 34  14  42  1   
 35  14  43  1   
 36  15  17  1   
 37  15  44  1   
 38  15  45  1   
 39  16  17  1   
 40  16  18  1   
 41  16  46  1   
 42  17  19  1   
 43  17  47  1   
 44  18  48  1   
 45  19  20  1   
 46  19  49  1   
 47  19  50  1   
 48  20  21  ar  
 49  20  22  ar  
 50  21  23  ar  
 51  22  24  ar  
 52  22  51  1   
 53  23  25  ar  
 54  23  52  1   
 55  24  25  ar  
 56  25  53  1   
@<TRIPOS>SUBSTRUCTURE
  1 ****  11 GROUP 4 **** **** 0

# MOE 2024.06 (io_trps.svl 2023.06)
