@<TRIPOS>MOLECULE
NONAME
45 47 1 0 0 
SMALL
USER_CHARGES


@<TRIPOS>ATOM
  1 O        0.5930     1.4980    -0.6210 O.co2 1 <1>  -0.9000 
  2 C        1.2110     0.4860    -0.2450 C.2   1 <1>   0.9790 
  3 O        0.6240    -0.6090    -0.2170 O.co2 1 <1>  -0.9000 
  4 C        2.6100     0.5910     0.1450 C.ar  1 <1>  -0.1790 
  5 C        3.3680    -0.5270     0.4890 C.ar  1 <1>  -0.1500 
  6 C        3.2460     1.8290     0.1830 C.ar  1 <1>  -0.1500 
  7 C        4.7060    -0.4070     0.8500 C.ar  1 <1>   0.0830 
  8 C        4.5900     1.9880     0.5160 C.ar  1 <1>   0.0860 
  9 O        5.4870    -1.4610     1.1980 O.3   1 <1>  -0.3630 
 10 C        5.3010     0.8410     0.8600 C.ar  1 <1>  -0.1500 
 11 C        5.2190     3.2950     0.4910 C.2   1 <1>   0.5440 
 12 C        4.9550    -2.7660     1.2440 C.3   1 <1>   0.0400 
 13 O        6.1900     3.5370     1.1830 O.2   1 <1>  -0.5700 
 14 N        4.7060     4.2630    -0.3410 N.am  1 <1>  -0.4940 
 15 C        4.9450     5.6540    -0.4170 C.2   1 <1>  -0.0880 
 16 N        6.1480     6.3030    -0.4480 N.pl3 1 <1>   0.3140 
 17 C        3.9870     6.6080    -0.5080 C.2   1 <1>  -0.1810 
 18 N        5.9610     7.6480    -0.5590 N.2   1 <1>  -0.7070 
 19 C        7.5060     5.6670    -0.4830 C.3   1 <1>   0.1760 
 20 C        4.6770     7.8090    -0.5870 C.2   1 <1>   0.1390 
 21 C        2.4760     6.4510    -0.5170 C.3   1 <1>  -0.0590 
 22 C        8.2680     5.8980     0.8250 C.3   1 <1>  -0.1600 
 23 C        8.4200     6.2860    -1.5490 C.3   1 <1>  -0.1600 
 24 C        9.0040     7.2260     0.6500 C.3   1 <1>  -0.1600 
 25 C        9.2080     7.4070    -0.8590 C.3   1 <1>  -0.1600 
 26 H        2.8730    -1.4810     0.4630 H     1 <1>   0.1500 
 27 H        2.6440     2.6890    -0.0550 H     1 <1>   0.1500 
 28 H        6.3360     0.9230     1.1390 H     1 <1>   0.1500 
 29 H        5.7360    -3.4360     1.5540 H     1 <1>   0.0800 
 30 H        4.6070    -3.0360     0.2620 H     1 <1>   0.0800 
 31 H        4.1480    -2.7880     1.9550 H     1 <1>   0.0800 
 32 H        3.8770     3.9570    -0.8530 H     1 <1>   0.3700 
 33 H        7.3820     4.6190    -0.6750 H     1 <1>   0.0800 
 34 H        4.2090     8.7760    -0.6660 H     1 <1>   0.1500 
 35 H        2.1940     5.4360    -0.3000 H     1 <1>   0.0800 
 36 H        2.0860     6.7190    -1.4820 H     1 <1>   0.0800 
 37 H        2.0390     7.0910     0.2270 H     1 <1>   0.0800 
 38 H        8.9890     5.1090     0.9440 H     1 <1>   0.0800 
 39 H        7.6120     5.8970     1.6790 H     1 <1>   0.0800 
 40 H        7.8630     6.6430    -2.3980 H     1 <1>   0.0800 
 41 H        9.1120     5.5330    -1.8820 H     1 <1>   0.0800 
 42 H        9.9360     7.2370     1.1870 H     1 <1>   0.0800 
 43 H        8.3810     8.0250     1.0170 H     1 <1>   0.0800 
 44 H        8.8230     8.3660    -1.1600 H     1 <1>   0.0800 
 45 H       10.2510     7.3520    -1.1190 H     1 <1>   0.0800 
@<TRIPOS>BOND
  1   1   2  ar  
  2   2   3  ar  
  3   2   4  1   
  4   4   5  ar  
  5   4   6  ar  
  6   5   7  ar  
  7   5  26  1   
  8   6   8  ar  
  9   6  27  1   
 10   7   9  1   
 11   7  10  ar  
 12   8  10  ar  
 13   8  11  1   
 14   9  12  1   
 15  10  28  1   
 16  11  13  2   
 17  11  14  am  
 18  12  29  1   
 19  12  30  1   
 20  12  31  1   
 21  14  15  1   
 22  14  32  1   
 23  15  16  1   
 24  15  17  2   
 25  16  18  1   
 26  16  19  1   
 27  17  20  1   
 28  17  21  1   
 29  18  20  2   
 30  19  22  1   
 31  19  23  1   
 32  19  33  1   
 33  20  34  1   
 34  21  35  1   
 35  21  36  1   
 36  21  37  1   
 37  22  24  1   
 38  22  38  1   
 39  22  39  1   
 40  23  25  1   
 41  23  40  1   
 42  23  41  1   
 43  24  25  1   
 44  24  42  1   
 45  24  43  1   
 46  25  44  1   
 47  25  45  1   
@<TRIPOS>SUBSTRUCTURE
  1 ****  11 GROUP 4 **** **** 0

# MOE 2024.06 (io_trps.svl 2023.06)
