@<TRIPOS>MOLECULE
NONAME
37 38 1 0 0 
SMALL
USER_CHARGES


@<TRIPOS>ATOM
  1 S        1.9890     0.7950    -1.0850 S.3   1 <1>  -0.0800 
  2 C        1.8740     2.4450    -0.5220 C.2   1 <1>  -0.1100 
  3 C        0.2640     0.7350    -1.3780 C.2   1 <1>  -0.1100 
  4 C        0.5970     2.9050    -0.5450 C.2   1 <1>  -0.0860 
  5 C       -0.3100     1.9060    -1.0500 C.2   1 <1>  -0.1500 
  6 C        0.1180     4.2200    -0.1640 C.2   1 <1>   0.7160 
  7 O       -0.5950     4.8190    -0.9470 O.2   1 <1>  -0.5700 
  8 N        0.4190     4.8150     1.0480 N.am  1 <1>  -0.6600 
  9 C        1.1180     4.1120     2.1770 C.3   1 <1>   0.1400 
 10 C        0.0410     6.2340     1.3040 C.3   1 <1>   0.1400 
 11 C        2.2270     4.9500     2.8410 C.3   1 <1>   0.1400 
 12 C        1.1540     7.1700     0.8150 C.3   1 <1>  -0.1600 
 13 N        2.9660     5.7890     1.8520 N.am  1 <1>  -0.6600 
 14 C        2.4210     7.1640     1.6810 C.3   1 <1>   0.1400 
 15 C        3.9810     5.2420     1.1110 C.2   1 <1>   0.5690 
 16 O        4.3680     4.1150     1.3180 O.2   1 <1>  -0.5700 
 17 C        4.6240     6.0390    -0.0120 C.3   1 <1>  -0.0990 
 18 C        5.6500     5.2250    -0.8020 C.3   1 <1>   0.1200 
 19 O        6.1380     6.0100    -1.8340 O.3   1 <1>  -0.6800 
 20 H        2.7880     2.9240    -0.2220 H     1 <1>   0.1500 
 21 H       -0.1400    -0.1800    -1.7730 H     1 <1>   0.1500 
 22 H       -1.3590     2.1320    -1.1440 H     1 <1>   0.1500 
 23 H        1.5600     3.1960     1.8380 H     1 <1>   0.0800 
 24 H        0.3910     3.8460     2.9230 H     1 <1>   0.0800 
 25 H       -0.1500     6.3850     2.3520 H     1 <1>   0.0800 
 26 H       -0.8700     6.4640     0.7770 H     1 <1>   0.0800 
 27 H        2.9140     4.2880     3.3400 H     1 <1>   0.0800 
 28 H        1.7940     5.5790     3.5970 H     1 <1>   0.0800 
 29 H        0.7660     8.1720     0.8090 H     1 <1>   0.0800 
 30 H        1.4030     6.9260    -0.2020 H     1 <1>   0.0800 
 31 H        2.1940     7.5720     2.6510 H     1 <1>   0.0800 
 32 H        3.1600     7.8070     1.2360 H     1 <1>   0.0800 
 33 H        5.1170     6.8920     0.4150 H     1 <1>   0.0800 
 34 H        3.8490     6.3670    -0.6780 H     1 <1>   0.0800 
 35 H        5.2100     4.3370    -1.2230 H     1 <1>   0.0800 
 36 H        6.4790     4.9450    -0.1720 H     1 <1>   0.0800 
 37 H        5.4560     6.1400    -2.5210 H     1 <1>   0.4000 
@<TRIPOS>BOND
  1   1   2  1   
  2   1   3  1   
  3   2   4  2   
  4   2  20  1   
  5   3   5  2   
  6   3  21  1   
  7   4   5  1   
  8   4   6  1   
  9   5  22  1   
 10   6   7  2   
 11   6   8  am  
 12   8   9  1   
 13   8  10  1   
 14   9  11  1   
 15   9  23  1   
 16   9  24  1   
 17  10  12  1   
 18  10  25  1   
 19  10  26  1   
 20  11  13  1   
 21  11  27  1   
 22  11  28  1   
 23  12  14  1   
 24  12  29  1   
 25  12  30  1   
 26  13  14  1   
 27  13  15  am  
 28  14  31  1   
 29  14  32  1   
 30  15  16  2   
 31  15  17  1   
 32  17  18  1   
 33  17  33  1   
 34  17  34  1   
 35  18  19  1   
 36  18  35  1   
 37  18  36  1   
 38  19  37  1   
@<TRIPOS>SUBSTRUCTURE
  1 ****   8 GROUP 4 **** **** 0

# MOE 2024.06 (io_trps.svl 2023.06)
