@<TRIPOS>MOLECULE
NONAME
52 54 1 0 0 
SMALL
USER_CHARGES


@<TRIPOS>ATOM
  1 O       -0.5470     0.1120    -1.0400 O.2   1 <1>  -0.5700 
  2 C       -1.5650     0.7410    -0.8140 C.2   1 <1>   0.5440 
  3 N       -2.7510     0.0550    -0.6960 N.am  1 <1>  -0.6600 
  4 C       -1.5270     2.1860    -0.6700 C.ar  1 <1>   0.0860 
  5 C       -4.0300     0.6420    -0.2430 C.3   1 <1>   0.1400 
  6 C       -2.8530    -1.4120    -0.8220 C.3   1 <1>   0.1400 
  7 C       -0.8540     2.8240     0.3760 C.ar  1 <1>  -0.1440 
  8 C       -2.1990     2.9850    -1.5930 C.ar  1 <1>  -0.1500 
  9 C       -4.8310    -0.5410     0.3170 C.3   1 <1>  -0.0800 
 10 C       -4.2980    -1.7640    -0.4560 C.3   1 <1>  -0.0800 
 11 C       -0.8740     4.2050     0.4750 C.ar  1 <1>  -0.1500 
 12 C       -0.0970     2.0120     1.4180 C.3   1 <1>  -0.0970 
 13 C       -2.2230     4.3650    -1.4960 C.ar  1 <1>  -0.1430 
 14 C       -6.3830    -0.3830     0.3160 C.3   1 <1>   0.2800 
 15 C       -5.1630    -2.0520    -1.6930 C.3   1 <1>  -0.1600 
 16 C       -1.5530     4.9840    -0.4480 C.ar  1 <1>  -0.1430 
 17 C       -2.9840     5.1680    -2.5410 C.3   1 <1>  -0.0970 
 18 O       -6.7810     0.4680    -0.6990 O.3   1 <1>  -0.6800 
 19 C       -7.0530    -1.7410     0.0330 C.3   1 <1>  -0.1600 
 20 C       -6.9250     0.2070     1.6360 C.3   1 <1>  -0.1600 
 21 C       -6.6180    -2.3780    -1.3050 C.3   1 <1>  -0.1600 
 22 C       -1.5450     6.4970    -0.2920 C.3   1 <1>  -0.0970 
 23 C       -6.4030     1.6080     2.0050 C.3   1 <1>  -0.2400 
 24 H       -3.8670     1.4000     0.5020 H     1 <1>   0.0800 
 25 H       -4.5130     1.0810    -1.0980 H     1 <1>   0.0800 
 26 H       -2.6010    -1.7180    -1.8220 H     1 <1>   0.0800 
 27 H       -2.1660    -1.8680    -0.1300 H     1 <1>   0.0800 
 28 H       -2.7110     2.4950    -2.4020 H     1 <1>   0.1500 
 29 H       -4.5140    -0.6760     1.3350 H     1 <1>   0.0800 
 30 H       -4.3000    -2.6390     0.1720 H     1 <1>   0.0800 
 31 H       -0.3500     4.6830     1.2840 H     1 <1>   0.1500 
 32 H        0.2830     2.6400     2.2030 H     1 <1>   0.0800 
 33 H        0.7320     1.5080     0.9530 H     1 <1>   0.0800 
 34 H       -0.7450     1.2740     1.8560 H     1 <1>   0.0800 
 35 H       -5.1580    -1.1810    -2.3260 H     1 <1>   0.0800 
 36 H       -4.7490    -2.8680    -2.2590 H     1 <1>   0.0800 
 37 H       -3.4360     4.5220    -3.2710 H     1 <1>   0.0800 
 38 H       -2.3140     5.8360    -3.0510 H     1 <1>   0.0800 
 39 H       -3.7620     5.7410    -2.0700 H     1 <1>   0.0800 
 40 H       -7.7530     0.5030    -0.7260 H     1 <1>   0.4000 
 41 H       -6.7820    -2.4130     0.8280 H     1 <1>   0.0800 
 42 H       -8.1240    -1.6470     0.0570 H     1 <1>   0.0800 
 43 H       -7.9990     0.2470     1.5850 H     1 <1>   0.0800 
 44 H       -6.6800    -0.4640     2.4400 H     1 <1>   0.0800 
 45 H       -6.7410    -3.4450    -1.2330 H     1 <1>   0.0800 
 46 H       -7.2630    -2.0320    -2.0940 H     1 <1>   0.0800 
 47 H       -0.9810     6.7940     0.5740 H     1 <1>   0.0800 
 48 H       -2.5500     6.8620    -0.1800 H     1 <1>   0.0800 
 49 H       -1.0990     6.9540    -1.1570 H     1 <1>   0.0800 
 50 H       -6.5750     2.3040     1.2020 H     1 <1>   0.0800 
 51 H       -5.3510     1.5800     2.2220 H     1 <1>   0.0800 
 52 H       -6.9140     1.9680     2.8800 H     1 <1>   0.0800 
@<TRIPOS>BOND
  1   1   2  2   
  2   2   3  am  
  3   2   4  1   
  4   3   5  1   
  5   3   6  1   
  6   4   7  ar  
  7   4   8  ar  
  8   5   9  1   
  9   5  24  1   
 10   5  25  1   
 11   6  10  1   
 12   6  26  1   
 13   6  27  1   
 14   7  11  ar  
 15   7  12  1   
 16   8  13  ar  
 17   8  28  1   
 18   9  10  1   
 19   9  14  1   
 20   9  29  1   
 21  10  15  1   
 22  10  30  1   
 23  11  16  ar  
 24  11  31  1   
 25  12  32  1   
 26  12  33  1   
 27  12  34  1   
 28  13  16  ar  
 29  13  17  1   
 30  14  18  1   
 31  14  19  1   
 32  14  20  1   
 33  15  21  1   
 34  15  35  1   
 35  15  36  1   
 36  16  22  1   
 37  17  37  1   
 38  17  38  1   
 39  17  39  1   
 40  18  40  1   
 41  19  21  1   
 42  19  41  1   
 43  19  42  1   
 44  20  23  1   
 45  20  43  1   
 46  20  44  1   
 47  21  45  1   
 48  21  46  1   
 49  22  47  1   
 50  22  48  1   
 51  22  49  1   
 52  23  50  1   
 53  23  51  1   
 54  23  52  1   
@<TRIPOS>SUBSTRUCTURE
  1 ****   5 GROUP 4 **** **** 0

# MOE 2024.06 (io_trps.svl 2023.06)
