@<TRIPOS>MOLECULE
NONAME
43 45 1 0 0 
SMALL
USER_CHARGES


@<TRIPOS>ATOM
  1 O       -0.3430     0.1040     0.1620 O.2   1 <1>  -0.5700 
  2 C       -1.3860     0.7300     0.0860 C.2   1 <1>   0.7150 
  3 N       -2.5550     0.0020    -0.0200 N.am  1 <1>  -0.6600 
  4 C       -1.3580     2.1800     0.1000 C.2   1 <1>   0.0550 
  5 C       -3.9000     0.5460    -0.3320 C.3   1 <1>   0.1400 
  6 C       -2.5750    -1.4810    -0.0410 C.3   1 <1>   0.1400 
  7 O       -2.4110     2.8880     0.4950 O.3   1 <1>  -0.2800 
  8 C       -0.3690     3.0410    -0.2280 C.2   1 <1>   0.0460 
  9 C       -4.7550    -0.6760    -0.6670 C.3   1 <1>   0.2000 
 10 C       -4.0570    -1.8610    -0.0030 C.3   1 <1>  -0.0800 
 11 C       -1.9800     4.1270     0.3770 C.2   1 <1>   0.2980 
 12 N       -0.7820     4.2900    -0.0480 N.2   1 <1>  -0.5650 
 13 C        1.0380     2.7970    -0.7380 C.3   1 <1>  -0.0590 
 14 O       -6.0440    -0.5500    -0.1740 O.3   1 <1>  -0.6800 
 15 C       -4.3840    -3.1990    -0.6870 C.3   1 <1>  -0.0170 
 16 C       -2.9540     5.2330     0.7600 C.3   1 <1>   0.0200 
 17 C       -3.7090    -4.3690     0.0110 C.ar  1 <1>   0.1670 
 18 C       -2.3890     6.6500     0.5810 C.3   1 <1>  -0.2400 
 19 N       -2.4470    -4.6020    -0.3110 N.ar  1 <1>  -0.6200 
 20 C       -4.4180    -5.1290     0.9400 C.ar  1 <1>   0.1600 
 21 C       -1.9460    -5.6320     0.3500 C.ar  1 <1>   0.1600 
 22 N       -3.9190    -6.1580     1.6040 N.ar  1 <1>  -0.6200 
 23 C       -2.6580    -6.3840     1.2770 C.ar  1 <1>   0.1600 
 24 H       -4.2840     1.0570     0.5340 H     1 <1>   0.0800 
 25 H       -3.8490     1.2200    -1.1700 H     1 <1>   0.0800 
 26 H       -2.1110    -1.8260    -0.9510 H     1 <1>   0.0800 
 27 H       -2.0400    -1.8870     0.8010 H     1 <1>   0.0800 
 28 H       -4.8090    -0.8010    -1.7360 H     1 <1>   0.0800 
 29 H       -4.3430    -1.9090     1.0330 H     1 <1>   0.0800 
 30 H        1.2140     1.7540    -0.9220 H     1 <1>   0.0800 
 31 H        1.7470     3.1450    -0.0100 H     1 <1>   0.0800 
 32 H        1.1870     3.3370    -1.6540 H     1 <1>   0.0800 
 33 H       -6.0280    -0.4220     0.7940 H     1 <1>   0.4000 
 34 H       -4.0660    -3.1760    -1.7150 H     1 <1>   0.0800 
 35 H       -5.4500    -3.3460    -0.6840 H     1 <1>   0.0800 
 36 H       -3.8370     5.1270     0.1570 H     1 <1>   0.0800 
 37 H       -3.2340     5.0920     1.7880 H     1 <1>   0.0800 
 38 H       -2.1160     6.8120    -0.4470 H     1 <1>   0.0800 
 39 H       -1.5120     6.7780     1.1920 H     1 <1>   0.0800 
 40 H       -3.1220     7.3830     0.8670 H     1 <1>   0.0800 
 41 H       -5.4430    -4.8730     1.1450 H     1 <1>   0.1500 
 42 H       -0.9230    -5.8930     0.1500 H     1 <1>   0.1500 
 43 H       -2.1630    -7.2050     1.7650 H     1 <1>   0.1500 
@<TRIPOS>BOND
  1   1   2  2   
  2   2   3  am  
  3   2   4  1   
  4   3   5  1   
  5   3   6  1   
  6   4   7  1   
  7   4   8  2   
  8   5   9  1   
  9   5  24  1   
 10   5  25  1   
 11   6  10  1   
 12   6  26  1   
 13   6  27  1   
 14   7  11  1   
 15   8  12  1   
 16   8  13  1   
 17   9  10  1   
 18   9  14  1   
 19   9  28  1   
 20  10  15  1   
 21  10  29  1   
 22  11  12  2   
 23  11  16  1   
 24  13  30  1   
 25  13  31  1   
 26  13  32  1   
 27  14  33  1   
 28  15  17  1   
 29  15  34  1   
 30  15  35  1   
 31  16  18  1   
 32  16  36  1   
 33  16  37  1   
 34  17  19  ar  
 35  17  20  ar  
 36  18  38  1   
 37  18  39  1   
 38  18  40  1   
 39  19  21  ar  
 40  20  22  ar  
 41  20  41  1   
 42  21  23  ar  
 43  21  42  1   
 44  22  23  ar  
 45  23  43  1   
@<TRIPOS>SUBSTRUCTURE
  1 ****   3 GROUP 4 **** **** 0

# MOE 2024.06 (io_trps.svl 2023.06)
