@<TRIPOS>MOLECULE
NONAME
52 54 1 0 0 
SMALL
USER_CHARGES


@<TRIPOS>ATOM
  1 F        0.0430    -0.1280     0.6470 F     1 <1>  -0.1900 
  2 C        1.1150    -0.8530     0.4810 C.ar  1 <1>   0.1900 
  3 C        1.0600    -2.1990     0.7730 C.ar  1 <1>  -0.1500 
  4 C        2.2630    -0.2440     0.0150 C.ar  1 <1>  -0.1500 
  5 C        2.1910    -2.9920     0.5920 C.ar  1 <1>   0.0860 
  6 C        3.3950    -1.0210    -0.1570 C.ar  1 <1>  -0.1500 
  7 C        3.3660    -2.3790     0.1290 C.ar  1 <1>  -0.1440 
  8 C        2.1230    -4.4130     0.8760 C.2   1 <1>   0.5440 
  9 C        4.6340    -3.2040    -0.0560 C.3   1 <1>  -0.0960 
 10 O        2.5030    -4.8240     1.9540 O.2   1 <1>  -0.5700 
 11 N        1.6390    -5.2970    -0.0590 N.am  1 <1>  -0.6600 
 12 C        1.6300    -6.7780     0.2120 C.3   1 <1>   0.3640 
 13 C        1.0410    -4.8370    -1.3510 C.3   1 <1>   0.1400 
 14 C        2.9110    -7.4570    -0.2950 C.ar  1 <1>  -0.1430 
 15 C        0.3690    -7.5000    -0.3620 C.3   1 <1>   0.2000 
 16 C        0.4850    -5.9970    -2.1870 C.3   1 <1>   0.1200 
 17 C        3.2690    -8.6710     0.2800 C.ar  1 <1>  -0.1500 
 18 C        3.7250    -6.9330    -1.2940 C.ar  1 <1>  -0.1500 
 19 O       -0.3130    -6.7980    -1.3770 O.3   1 <1>  -0.5600 
 20 C       -0.6610    -7.7910     0.7360 C.3   1 <1>   0.1200 
 21 C        4.3970    -9.3580    -0.1340 C.ar  1 <1>   0.0830 
 22 C        4.8670    -7.6010    -1.7030 C.ar  1 <1>  -0.1500 
 23 O       -0.1860    -8.7790     1.5950 O.3   1 <1>  -0.6800 
 24 O        4.6430   -10.5580     0.4480 O.3   1 <1>  -0.3630 
 25 C        5.2210    -8.8040    -1.1190 C.ar  1 <1>   0.0830 
 26 C        4.6150   -11.6890    -0.3950 C.3   1 <1>   0.0400 
 27 O        6.3720    -9.3860    -1.5350 O.3   1 <1>  -0.3630 
 28 C        7.4100    -9.4560    -0.5820 C.3   1 <1>   0.0400 
 29 H        0.1490    -2.6330     1.1410 H     1 <1>   0.1500 
 30 H        2.2670     0.8090    -0.2010 H     1 <1>   0.1500 
 31 H        4.2990    -0.5570    -0.5130 H     1 <1>   0.1500 
 32 H        5.4650    -2.5840    -0.3380 H     1 <1>   0.0800 
 33 H        4.4870    -3.9450    -0.8200 H     1 <1>   0.0800 
 34 H        4.8850    -3.7050     0.8630 H     1 <1>   0.0800 
 35 H        1.6220    -6.9250     1.2790 H     1 <1>   0.0800 
 36 H        0.2340    -4.1570    -1.1400 H     1 <1>   0.0800 
 37 H        1.7810    -4.3050    -1.9220 H     1 <1>   0.0800 
 38 H        0.6680    -8.4380    -0.7950 H     1 <1>   0.0800 
 39 H        1.2720    -6.5980    -2.6090 H     1 <1>   0.0800 
 40 H       -0.1280    -5.6190    -2.9860 H     1 <1>   0.0800 
 41 H        2.6680    -9.1010     1.0620 H     1 <1>   0.1500 
 42 H        3.4890    -5.9970    -1.7620 H     1 <1>   0.1500 
 43 H       -1.5850    -8.1380     0.3080 H     1 <1>   0.0800 
 44 H       -0.8440    -6.9040     1.3180 H     1 <1>   0.0800 
 45 H        5.4950    -7.1880    -2.4710 H     1 <1>   0.1500 
 46 H       -0.2540    -9.6620     1.1820 H     1 <1>   0.4000 
 47 H        4.6790   -12.5680     0.2190 H     1 <1>   0.0800 
 48 H        5.4510   -11.6530    -1.0700 H     1 <1>   0.0800 
 49 H        3.6910   -11.6890    -0.9460 H     1 <1>   0.0800 
 50 H        8.2850    -9.8510    -1.0650 H     1 <1>   0.0800 
 51 H        7.1130   -10.1010     0.2240 H     1 <1>   0.0800 
 52 H        7.6080    -8.4650    -0.2120 H     1 <1>   0.0800 
@<TRIPOS>BOND
  1   1   2  1   
  2   2   3  ar  
  3   2   4  ar  
  4   3   5  ar  
  5   3  29  1   
  6   4   6  ar  
  7   4  30  1   
  8   5   7  ar  
  9   5   8  1   
 10   6   7  ar  
 11   6  31  1   
 12   7   9  1   
 13   8  10  2   
 14   8  11  am  
 15   9  32  1   
 16   9  33  1   
 17   9  34  1   
 18  11  12  1   
 19  11  13  1   
 20  12  14  1   
 21  12  15  1   
 22  12  35  1   
 23  13  16  1   
 24  13  36  1   
 25  13  37  1   
 26  14  17  ar  
 27  14  18  ar  
 28  15  19  1   
 29  15  20  1   
 30  15  38  1   
 31  16  19  1   
 32  16  39  1   
 33  16  40  1   
 34  17  21  ar  
 35  17  41  1   
 36  18  22  ar  
 37  18  42  1   
 38  20  23  1   
 39  20  43  1   
 40  20  44  1   
 41  21  24  1   
 42  21  25  ar  
 43  22  25  ar  
 44  22  45  1   
 45  23  46  1   
 46  24  26  1   
 47  25  27  1   
 48  26  47  1   
 49  26  48  1   
 50  26  49  1   
 51  27  28  1   
 52  28  50  1   
 53  28  51  1   
 54  28  52  1   
@<TRIPOS>SUBSTRUCTURE
  1 ****  11 GROUP 4 **** **** 0

# MOE 2024.06 (io_trps.svl 2023.06)
