@<TRIPOS>MOLECULE
NONAME
47 49 1 0 0 
SMALL
USER_CHARGES


@<TRIPOS>ATOM
  1 F       -4.1580    -1.3720    -3.1480 F     1 <1>  -0.3400 
  2 C       -4.3400    -0.1750    -2.6020 C.3   1 <1>   1.1640 
  3 F       -3.1320     0.2950    -2.3190 F     1 <1>  -0.3400 
  4 F       -4.8250     0.5990    -3.5660 F     1 <1>  -0.3400 
  5 C       -5.2530    -0.2080    -1.3650 C.ar  1 <1>  -0.1440 
  6 C       -5.8620     0.9570    -0.9130 C.ar  1 <1>  -0.1500 
  7 C       -5.4820    -1.3880    -0.6630 C.ar  1 <1>  -0.1500 
  8 C       -6.6830     0.9420     0.2010 C.ar  1 <1>  -0.1500 
  9 C       -6.3030    -1.4020     0.4510 C.ar  1 <1>  -0.1500 
 10 C       -6.9190    -0.2380     0.8900 C.ar  1 <1>  -0.1430 
 11 C       -7.8460    -0.2310     2.1060 C.3   1 <1>   0.4050 
 12 O       -7.0470    -0.0890     3.2390 O.3   1 <1>  -0.6800 
 13 C       -8.7320    -1.4980     2.2060 C.2   1 <1>   0.5690 
 14 O       -8.3250    -2.4190     2.8850 O.2   1 <1>  -0.5700 
 15 N       -9.9310    -1.6020     1.5360 N.am  1 <1>  -0.6600 
 16 C      -10.7980    -2.8120     1.7050 C.3   1 <1>   0.1400 
 17 C      -10.4400    -0.6300     0.5250 C.3   1 <1>   0.1400 
 18 C      -10.6070    -3.8300     0.5690 C.3   1 <1>   0.1400 
 19 C       -9.8690    -0.8990    -0.8760 C.3   1 <1>  -0.1600 
 20 N      -10.7850    -3.2120    -0.7830 N.am  1 <1>  -0.6600 
 21 C       -9.6390    -2.3740    -1.2260 C.3   1 <1>   0.1400 
 22 C      -11.8900    -3.3670    -1.5800 C.2   1 <1>   0.6300 
 23 O      -11.9710    -2.8370    -2.6630 O.2   1 <1>  -0.5700 
 24 C      -13.0650    -4.2190    -1.1080 C.3   1 <1>  -0.1000 
 25 C      -14.4830    -3.8370    -1.4270 C.3   1 <1>  -0.2000 
 26 C      -13.9860    -3.7400    -0.0200 C.3   1 <1>  -0.2000 
 27 H       -5.6970     1.8900    -1.4260 H     1 <1>   0.1500 
 28 H       -5.0190    -2.3090    -0.9750 H     1 <1>   0.1500 
 29 H       -7.1350     1.8610     0.5340 H     1 <1>   0.1500 
 30 H       -6.4530    -2.3310     0.9760 H     1 <1>   0.1500 
 31 H       -8.4770     0.6360     2.0750 H     1 <1>   0.0800 
 32 H       -6.7990    -0.9920     3.5290 H     1 <1>   0.4000 
 33 H      -11.8300    -2.5120     1.7450 H     1 <1>   0.0800 
 34 H      -10.5750    -3.2940     2.6410 H     1 <1>   0.0800 
 35 H      -10.2200     0.3790     0.8220 H     1 <1>   0.0800 
 36 H      -11.5130    -0.7140     0.4750 H     1 <1>   0.0800 
 37 H      -11.2990    -4.6400     0.7070 H     1 <1>   0.0800 
 38 H       -9.6170    -4.2470     0.6420 H     1 <1>   0.0800 
 39 H       -8.9380    -0.3770    -0.9920 H     1 <1>   0.0800 
 40 H      -10.5430    -0.4800    -1.6010 H     1 <1>   0.0800 
 41 H       -8.7370    -2.7200    -0.7530 H     1 <1>   0.0800 
 42 H       -9.5060    -2.4740    -2.2910 H     1 <1>   0.0800 
 43 H      -12.8330    -5.2660    -1.1610 H     1 <1>   0.1000 
 44 H      -15.1770    -4.6180    -1.6860 H     1 <1>   0.1000 
 45 H      -14.6510    -2.9340    -1.9890 H     1 <1>   0.1000 
 46 H      -13.8480    -2.7560     0.3930 H     1 <1>   0.1000 
 47 H      -14.3480    -4.4480     0.7050 H     1 <1>   0.1000 
@<TRIPOS>BOND
  1   1   2  1   
  2   2   3  1   
  3   2   4  1   
  4   2   5  1   
  5   5   6  ar  
  6   5   7  ar  
  7   6   8  ar  
  8   6  27  1   
  9   7   9  ar  
 10   7  28  1   
 11   8  10  ar  
 12   8  29  1   
 13   9  10  ar  
 14   9  30  1   
 15  10  11  1   
 16  11  12  1   
 17  11  13  1   
 18  11  31  1   
 19  12  32  1   
 20  13  14  2   
 21  13  15  am  
 22  15  16  1   
 23  15  17  1   
 24  16  18  1   
 25  16  33  1   
 26  16  34  1   
 27  17  19  1   
 28  17  35  1   
 29  17  36  1   
 30  18  20  1   
 31  18  37  1   
 32  18  38  1   
 33  19  21  1   
 34  19  39  1   
 35  19  40  1   
 36  20  21  1   
 37  20  22  am  
 38  21  41  1   
 39  21  42  1   
 40  22  23  2   
 41  22  24  1   
 42  24  25  1   
 43  24  26  1   
 44  24  43  1   
 45  25  26  1   
 46  25  44  1   
 47  25  45  1   
 48  26  46  1   
 49  26  47  1   
@<TRIPOS>SUBSTRUCTURE
  1 ****  19 GROUP 4 **** **** 0

# MOE 2024.06 (io_trps.svl 2023.06)
