@<TRIPOS>MOLECULE
NONAME
53 56 1 0 0 
SMALL
USER_CHARGES


@<TRIPOS>ATOM
  1 S       -0.5290    -0.2040     1.1940 S.3   1 <1>  -0.3310 
  2 C       -0.7300     1.5330     1.5670 C.ar  1 <1>   0.4120 
  3 C       -2.2100    -0.7270     0.6390 C.3   1 <1>   0.2140 
  4 N       -1.9420     2.0350     1.3920 N.ar  1 <1>  -0.6200 
  5 C        0.3830     2.2270     2.0090 C.ar  1 <1>  -0.1500 
  6 C       -2.1690    -2.2110     0.3110 C.ar  1 <1>  -0.1440 
  7 C       -2.0430     3.3240     1.6810 C.ar  1 <1>   0.1600 
  8 C        0.2530     3.5670     2.3040 C.ar  1 <1>  -0.1500 
  9 C       -2.0850    -3.1490     1.3280 C.ar  1 <1>  -0.1500 
 10 C       -2.2080    -2.6440    -1.0040 C.ar  1 <1>  -0.1500 
 11 C       -1.0000     4.1190     2.1310 C.ar  1 <1>  -0.1500 
 12 C       -2.0600    -4.4990     1.0310 C.ar  1 <1>  -0.1500 
 13 C       -2.1820    -3.9960    -1.2940 C.ar  1 <1>  -0.1500 
 14 C       -2.1320    -4.9550    -0.2850 C.ar  1 <1>   0.0860 
 15 C       -2.1340    -6.3730    -0.5890 C.2   1 <1>   0.5440 
 16 O       -1.1960    -6.8370    -1.2100 O.2   1 <1>  -0.5700 
 17 N       -3.1480    -7.2270    -0.1900 N.am  1 <1>  -0.6600 
 18 C       -4.6110    -6.9450    -0.3020 C.3   1 <1>   0.2200 
 19 C       -2.8390    -8.6740    -0.0060 C.3   1 <1>   0.0600 
 20 C       -5.1570    -6.0640     0.8150 C.3   1 <1>  -0.1600 
 21 C       -5.0170    -6.2540    -1.6010 C.3   1 <1>  -0.1600 
 22 C       -6.4540    -5.4630     0.2570 C.3   1 <1>  -0.0800 
 23 C       -6.3510    -5.5620    -1.2870 C.3   1 <1>  -0.0800 
 24 C       -6.7330    -4.0520     0.8150 C.3   1 <1>   0.1400 
 25 C       -6.5110    -4.2150    -2.0210 C.3   1 <1>  -0.0990 
 26 N       -7.6940    -3.3520    -0.0610 N.am  1 <1>  -0.7300 
 27 C       -7.6310    -3.4030    -1.4080 C.2   1 <1>   0.5690 
 28 O       -8.4260    -2.8230    -2.1010 O.2   1 <1>  -0.5700 
 29 H       -2.8920    -0.5190     1.4430 H     1 <1>   0.0800 
 30 H       -2.4610    -0.1300    -0.2200 H     1 <1>   0.0800 
 31 H        1.3230     1.7180     2.1150 H     1 <1>   0.1500 
 32 H       -3.0130     3.7740     1.5530 H     1 <1>   0.1500 
 33 H        1.0880     4.1530     2.6510 H     1 <1>   0.1500 
 34 H       -2.0310    -2.8260     2.3540 H     1 <1>   0.1500 
 35 H       -2.2520    -1.9290    -1.8080 H     1 <1>   0.1500 
 36 H       -1.1700     5.1600     2.3420 H     1 <1>   0.1500 
 37 H       -1.9870    -5.2220     1.8250 H     1 <1>   0.1500 
 38 H       -2.1950    -4.3240    -2.3190 H     1 <1>   0.1500 
 39 H       -5.1510    -7.8780    -0.2640 H     1 <1>   0.0800 
 40 H       -3.3870    -9.0640     0.8330 H     1 <1>   0.0800 
 41 H       -1.7860    -8.8100     0.1800 H     1 <1>   0.0800 
 42 H       -3.1040    -9.2170    -0.8960 H     1 <1>   0.0800 
 43 H       -5.3360    -6.6330     1.7100 H     1 <1>   0.0800 
 44 H       -4.4710    -5.2730     1.0320 H     1 <1>   0.0800 
 45 H       -4.2910    -5.5200    -1.8850 H     1 <1>   0.0800 
 46 H       -5.1230    -6.9660    -2.4000 H     1 <1>   0.0800 
 47 H       -7.2680    -6.0980     0.5640 H     1 <1>   0.0800 
 48 H       -7.1500    -6.2070    -1.6150 H     1 <1>   0.0800 
 49 H       -5.8240    -3.4750     0.8450 H     1 <1>   0.0800 
 50 H       -7.1290    -4.1210     1.8130 H     1 <1>   0.0800 
 51 H       -6.7140    -4.3810    -3.0630 H     1 <1>   0.0800 
 52 H       -5.6120    -3.6330    -1.9400 H     1 <1>   0.0800 
 53 H       -8.4270    -2.7770     0.3590 H     1 <1>   0.3700 
@<TRIPOS>BOND
  1   1   2  1   
  2   1   3  1   
  3   2   4  ar  
  4   2   5  ar  
  5   3   6  1   
  6   3  29  1   
  7   3  30  1   
  8   4   7  ar  
  9   5   8  ar  
 10   5  31  1   
 11   6   9  ar  
 12   6  10  ar  
 13   7  11  ar  
 14   7  32  1   
 15   8  11  ar  
 16   8  33  1   
 17   9  12  ar  
 18   9  34  1   
 19  10  13  ar  
 20  10  35  1   
 21  11  36  1   
 22  12  14  ar  
 23  12  37  1   
 24  13  14  ar  
 25  13  38  1   
 26  14  15  1   
 27  15  16  2   
 28  15  17  am  
 29  17  18  1   
 30  17  19  1   
 31  18  20  1   
 32  18  21  1   
 33  18  39  1   
 34  19  40  1   
 35  19  41  1   
 36  19  42  1   
 37  20  22  1   
 38  20  43  1   
 39  20  44  1   
 40  21  23  1   
 41  21  45  1   
 42  21  46  1   
 43  22  23  1   
 44  22  24  1   
 45  22  47  1   
 46  23  25  1   
 47  23  48  1   
 48  24  26  1   
 49  24  49  1   
 50  24  50  1   
 51  25  27  1   
 52  25  51  1   
 53  25  52  1   
 54  26  27  am  
 55  26  53  1   
 56  27  28  2   
@<TRIPOS>SUBSTRUCTURE
  1 ****   6 GROUP 4 **** **** 0

# MOE 2024.06 (io_trps.svl 2023.06)
