@<TRIPOS>MOLECULE
NONAME
48 50 1 0 0 
SMALL
USER_CHARGES


@<TRIPOS>ATOM
  1 CL      -0.0290    -0.9770     2.4040 Cl    1 <1>  -0.1230 
  2 C       -0.8690    -2.0830     1.3420 C.2   1 <1>   0.4120 
  3 N       -1.7810    -1.7270     0.5130 N.2   1 <1>  -0.4100 
  4 C       -0.6220    -3.4490     1.3070 C.2   1 <1>  -0.1500 
  5 O       -2.1450    -2.8310    -0.0790 O.3   1 <1>  -0.0190 
  6 C       -1.4820    -3.8720     0.3670 C.2   1 <1>  -0.0400 
  7 C       -1.7660    -5.2510    -0.1970 C.3   1 <1>   0.0200 
  8 C       -3.2300    -5.6500     0.0450 C.3   1 <1>  -0.0990 
  9 C       -3.5610    -7.0130    -0.5390 C.2   1 <1>   0.5690 
 10 O       -2.7280    -7.8830    -0.4820 O.2   1 <1>  -0.5700 
 11 N       -4.7880    -7.2650    -1.0950 N.am  1 <1>  -0.6600 
 12 C       -6.0540    -6.5530    -0.7260 C.3   1 <1>   0.1400 
 13 C       -5.0050    -8.4940    -1.9130 C.3   1 <1>   0.1400 
 14 C       -7.2040    -7.5320    -0.3590 C.3   1 <1>   0.4230 
 15 C       -5.8610    -9.5260    -1.1510 C.3   1 <1>   0.3430 
 16 N       -6.7030    -8.9280    -0.0400 N.4   1 <1>  -0.9590 
 17 C       -8.2970    -7.5930    -1.4480 C.3   1 <1>   0.1200 
 18 C       -7.8680    -9.7890     0.3590 C.3   1 <1>   0.4230 
 19 O       -9.3370    -8.4340    -1.0340 O.3   1 <1>  -0.5600 
 20 C       -8.9750    -9.7540    -0.7260 C.3   1 <1>   0.1200 
 21 C       -7.3980   -11.2130     0.6960 C.3   1 <1>  -0.1600 
 22 C       -8.4740   -12.0250     1.4350 C.3   1 <1>  -0.1600 
 23 C       -7.9410   -13.4070     1.8250 C.3   1 <1>  -0.2400 
 24 H        0.0930    -3.9820     1.9050 H     1 <1>   0.1500 
 25 H       -1.5590    -5.2490    -1.2530 H     1 <1>   0.0800 
 26 H       -1.1090    -5.9660     0.2690 H     1 <1>   0.0800 
 27 H       -3.8600    -4.9050    -0.4030 H     1 <1>   0.0800 
 28 H       -3.4210    -5.6710     1.1020 H     1 <1>   0.0800 
 29 H       -5.8780    -5.9190     0.1260 H     1 <1>   0.0800 
 30 H       -6.3530    -5.9130    -1.5380 H     1 <1>   0.0800 
 31 H       -5.5020    -8.2210    -2.8270 H     1 <1>   0.0800 
 32 H       -4.0660    -8.9440    -2.1920 H     1 <1>   0.0800 
 33 H       -7.6860    -7.1300     0.5170 H     1 <1>   0.0800 
 34 H       -5.1990   -10.2660    -0.7300 H     1 <1>   0.0800 
 35 H       -6.4900   -10.0310    -1.8640 H     1 <1>   0.0800 
 36 H       -6.0710    -8.8320     0.7650 H     1 <1>   0.4500 
 37 H       -7.9110    -7.9540    -2.3850 H     1 <1>   0.0800 
 38 H       -8.7200    -6.6160    -1.6060 H     1 <1>   0.0800 
 39 H       -8.2990    -9.3750     1.2570 H     1 <1>   0.0800 
 40 H       -9.8600   -10.2500    -0.3700 H     1 <1>   0.0800 
 41 H       -8.6560   -10.2440    -1.6300 H     1 <1>   0.0800 
 42 H       -7.1290   -11.7430    -0.2010 H     1 <1>   0.0800 
 43 H       -6.5330   -11.1550     1.3330 H     1 <1>   0.0800 
 44 H       -8.7800   -11.5070     2.3290 H     1 <1>   0.0800 
 45 H       -9.3440   -12.1590     0.8130 H     1 <1>   0.0800 
 46 H       -7.0910   -13.3190     2.4780 H     1 <1>   0.0800 
 47 H       -7.6520   -13.9660     0.9520 H     1 <1>   0.0800 
 48 H       -8.7050   -13.9620     2.3410 H     1 <1>   0.0800 
@<TRIPOS>BOND
  1   1   2  1   
  2   2   3  2   
  3   2   4  1   
  4   3   5  1   
  5   4   6  2   
  6   4  24  1   
  7   5   6  1   
  8   6   7  1   
  9   7   8  1   
 10   7  25  1   
 11   7  26  1   
 12   8   9  1   
 13   8  27  1   
 14   8  28  1   
 15   9  10  2   
 16   9  11  am  
 17  11  12  1   
 18  11  13  1   
 19  12  14  1   
 20  12  29  1   
 21  12  30  1   
 22  13  15  1   
 23  13  31  1   
 24  13  32  1   
 25  14  16  1   
 26  14  17  1   
 27  14  33  1   
 28  15  16  1   
 29  15  34  1   
 30  15  35  1   
 31  16  18  1   
 32  16  36  1   
 33  17  19  1   
 34  17  37  1   
 35  17  38  1   
 36  18  20  1   
 37  18  21  1   
 38  18  39  1   
 39  19  20  1   
 40  20  40  1   
 41  20  41  1   
 42  21  22  1   
 43  21  42  1   
 44  21  43  1   
 45  22  23  1   
 46  22  44  1   
 47  22  45  1   
 48  23  46  1   
 49  23  47  1   
 50  23  48  1   
@<TRIPOS>SUBSTRUCTURE
  1 ****  11 GROUP 4 **** **** 0

# MOE 2024.06 (io_trps.svl 2023.06)
