@<TRIPOS>MOLECULE
NONAME
48 50 1 0 0 
SMALL
USER_CHARGES


@<TRIPOS>ATOM
  1 S        0.8450     0.0310    -0.2570 S.3   1 <1>  -0.0800 
  2 C       -0.5480     1.0530    -0.5500 C.2   1 <1>  -0.0450 
  3 C       -0.2090    -1.2600     0.2660 C.2   1 <1>   0.1980 
  4 C       -1.6440     0.3240    -0.2430 C.2   1 <1>   0.0460 
  5 C       -0.3600     2.3860    -1.0590 C.2   1 <1>   0.7150 
  6 N       -1.4450    -0.9550     0.2260 N.2   1 <1>  -0.5650 
  7 C        0.4480    -2.5700     0.6980 C.3   1 <1>   0.1000 
  8 C       -3.0870     0.7700    -0.3670 C.3   1 <1>  -0.0590 
  9 O       -0.9960     2.7540    -2.0260 O.2   1 <1>  -0.5700 
 10 N        0.5370     3.2770    -0.4960 N.am  1 <1>  -0.6600 
 11 C        0.8610    -3.3920    -0.5290 C.3   1 <1>  -0.2400 
 12 C       -0.4790    -3.4020     1.5960 C.3   1 <1>  -0.2400 
 13 C        1.0110     3.1350     0.9320 C.3   1 <1>   0.2200 
 14 C        0.8650     4.5310    -1.2510 C.3   1 <1>   0.1400 
 15 C        0.7050     4.3770     1.7870 C.3   1 <1>   0.1200 
 16 C        2.5190     2.7890     0.9880 C.3   1 <1>   0.3430 
 17 C        2.0570     5.3410    -0.7070 C.3   1 <1>  -0.0800 
 18 O        1.7340     5.3150     1.6810 O.3   1 <1>  -0.5600 
 19 N        3.2290     3.0990    -0.3030 N.4   1 <1>  -0.9590 
 20 C        1.6910     6.1300     0.5600 C.3   1 <1>   0.1200 
 21 C        3.3840     4.5690    -0.5490 C.3   1 <1>   0.3430 
 22 C        4.5400     2.3910    -0.3870 C.3   1 <1>   0.2630 
 23 H        1.3300    -2.3300     1.2650 H     1 <1>   0.0800 
 24 H       -3.1540     1.7770    -0.7340 H     1 <1>   0.0800 
 25 H       -3.5680     0.7140     0.5930 H     1 <1>   0.0800 
 26 H       -3.6050     0.1190    -1.0480 H     1 <1>   0.0800 
 27 H       -0.0050    -3.6350    -1.1200 H     1 <1>   0.0800 
 28 H        1.3390    -4.3070    -0.2250 H     1 <1>   0.0800 
 29 H        1.5470    -2.8350    -1.1420 H     1 <1>   0.0800 
 30 H       -1.3710    -3.6760     1.0600 H     1 <1>   0.0800 
 31 H       -0.7670    -2.8290     2.4590 H     1 <1>   0.0800 
 32 H        0.0170    -4.2970     1.9260 H     1 <1>   0.0800 
 33 H        0.4710     2.3310     1.4000 H     1 <1>   0.0800 
 34 H        1.0690     4.2640    -2.2750 H     1 <1>   0.0800 
 35 H       -0.0130     5.1570    -1.2660 H     1 <1>   0.0800 
 36 H        0.6630     4.0900     2.8230 H     1 <1>   0.0800 
 37 H       -0.2390     4.8240     1.5250 H     1 <1>   0.0800 
 38 H        2.6070     1.7360     1.1950 H     1 <1>   0.0800 
 39 H        2.9830     3.3170     1.8060 H     1 <1>   0.0800 
 40 H        2.2460     6.1010    -1.4440 H     1 <1>   0.0800 
 41 H        2.5930     2.7480    -1.0380 H     1 <1>   0.4500 
 42 H        0.7150     6.5820     0.4850 H     1 <1>   0.0800 
 43 H        2.4090     6.9160     0.7210 H     1 <1>   0.0800 
 44 H        3.9540     5.0120     0.2520 H     1 <1>   0.0800 
 45 H        3.9500     4.7010    -1.4580 H     1 <1>   0.0800 
 46 H        5.2040     2.7400     0.3870 H     1 <1>   0.0800 
 47 H        5.0010     2.5700    -1.3450 H     1 <1>   0.0800 
 48 H        4.3990     1.3280    -0.2690 H     1 <1>   0.0800 
@<TRIPOS>BOND
  1   1   2  1   
  2   1   3  1   
  3   2   4  2   
  4   2   5  1   
  5   3   6  2   
  6   3   7  1   
  7   4   6  1   
  8   4   8  1   
  9   5   9  2   
 10   5  10  am  
 11   7  11  1   
 12   7  12  1   
 13   7  23  1   
 14   8  24  1   
 15   8  25  1   
 16   8  26  1   
 17  10  13  1   
 18  10  14  1   
 19  11  27  1   
 20  11  28  1   
 21  11  29  1   
 22  12  30  1   
 23  12  31  1   
 24  12  32  1   
 25  13  15  1   
 26  13  16  1   
 27  13  33  1   
 28  14  17  1   
 29  14  34  1   
 30  14  35  1   
 31  15  18  1   
 32  15  36  1   
 33  15  37  1   
 34  16  19  1   
 35  16  38  1   
 36  16  39  1   
 37  17  20  1   
 38  17  21  1   
 39  17  40  1   
 40  18  20  1   
 41  19  21  1   
 42  19  22  1   
 43  19  41  1   
 44  20  42  1   
 45  20  43  1   
 46  21  44  1   
 47  21  45  1   
 48  22  46  1   
 49  22  47  1   
 50  22  48  1   
@<TRIPOS>SUBSTRUCTURE
  1 ****  10 GROUP 4 **** **** 0

# MOE 2024.06 (io_trps.svl 2023.06)
