@<TRIPOS>MOLECULE
NONAME
53 55 1 0 0 
SMALL
USER_CHARGES


@<TRIPOS>ATOM
  1 O       -0.8770    -0.1920     0.1480 O.3   1 <1>  -0.2800 
  2 C       -1.6400    -0.7890    -0.7460 C.2   1 <1>  -0.0400 
  3 C       -0.6610     1.0430    -0.2610 C.2   1 <1>  -0.0400 
  4 C       -1.9270     0.0590    -1.7580 C.2   1 <1>  -0.1500 
  5 C       -2.0290    -2.2360    -0.4980 C.3   1 <1>   0.2900 
  6 C       -1.2870     1.2620    -1.4390 C.2   1 <1>  -0.1500 
  7 C        0.2000     1.9390     0.6120 C.3   1 <1>   0.0200 
  8 N       -3.1670    -2.6740    -1.3460 N.3   1 <1>  -0.8100 
  9 C        0.3700     3.3480     0.0270 C.3   1 <1>  -0.1600 
 10 C       -3.2920    -4.1330    -1.4760 C.3   1 <1>   0.1100 
 11 C       -4.4440    -2.0100    -1.0160 C.3   1 <1>   0.1100 
 12 C        1.2420     4.2310     0.9270 C.3   1 <1>  -0.2400 
 13 C       -3.9390    -4.7900    -0.2300 C.3   1 <1>   0.4230 
 14 C       -5.0820    -2.6130     0.2440 C.3   1 <1>  -0.1600 
 15 N       -3.9720    -6.3130    -0.2880 N.4   1 <1>  -0.9590 
 16 C       -5.3060    -4.1460     0.1390 C.3   1 <1>   0.0000 
 17 C       -4.9380    -6.9400     0.6740 C.3   1 <1>   0.3430 
 18 C       -4.1730    -6.8970    -1.6570 C.3   1 <1>   0.2630 
 19 C       -5.7670    -4.6860     1.5250 C.3   1 <1>  -0.1600 
 20 C       -6.3680    -4.4620    -0.9540 C.3   1 <1>   0.1200 
 21 C       -5.1500    -6.0490     1.8970 C.3   1 <1>  -0.1600 
 22 O       -7.5420    -3.7560    -0.7520 O.3   1 <1>  -0.6800 
 23 H       -2.5190    -0.1270    -2.6360 H     1 <1>   0.1500 
 24 H       -2.2710    -2.3560     0.5420 H     1 <1>   0.0800 
 25 H       -1.1630    -2.8390    -0.7100 H     1 <1>   0.0800 
 26 H       -1.3140     2.1530    -2.0380 H     1 <1>   0.1500 
 27 H       -0.2550     2.0050     1.5850 H     1 <1>   0.0800 
 28 H        1.1650     1.4770     0.7270 H     1 <1>   0.0800 
 29 H        0.8250     3.2760    -0.9460 H     1 <1>   0.0800 
 30 H       -0.5980     3.8050    -0.0870 H     1 <1>   0.0800 
 31 H       -3.8900    -4.3270    -2.3490 H     1 <1>   0.0800 
 32 H       -2.3160    -4.5520    -1.6470 H     1 <1>   0.0800 
 33 H       -4.2870    -0.9540    -0.8690 H     1 <1>   0.0800 
 34 H       -5.1180    -2.1120    -1.8500 H     1 <1>   0.0800 
 35 H        2.2230     3.8030     1.0390 H     1 <1>   0.0800 
 36 H        0.7950     4.3340     1.9010 H     1 <1>   0.0800 
 37 H        1.3440     5.2110     0.4940 H     1 <1>   0.0800 
 38 H       -3.2860    -4.5370     0.5880 H     1 <1>   0.0800 
 39 H       -4.4520    -2.3800     1.0830 H     1 <1>   0.0800 
 40 H       -6.0160    -2.1090     0.4230 H     1 <1>   0.0800 
 41 H       -3.0350    -6.6070     0.0220 H     1 <1>   0.4500 
 42 H       -5.8900    -7.0870     0.1920 H     1 <1>   0.0800 
 43 H       -4.5720    -7.9060     0.9850 H     1 <1>   0.0800 
 44 H       -5.1230    -6.5930    -2.0630 H     1 <1>   0.0800 
 45 H       -4.1500    -7.9740    -1.6100 H     1 <1>   0.0800 
 46 H       -3.3930    -6.5720    -2.3260 H     1 <1>   0.0800 
 47 H       -5.5070    -3.9920     2.3070 H     1 <1>   0.0800 
 48 H       -6.8390    -4.7700     1.5500 H     1 <1>   0.0800 
 49 H       -6.6240    -5.5050    -0.9660 H     1 <1>   0.0800 
 50 H       -6.0150    -4.1880    -1.9330 H     1 <1>   0.0800 
 51 H       -5.8010    -6.5510     2.5930 H     1 <1>   0.0800 
 52 H       -4.2070    -5.9060     2.3970 H     1 <1>   0.0800 
 53 H       -7.9440    -3.9450     0.1180 H     1 <1>   0.4000 
@<TRIPOS>BOND
  1   1   2  1   
  2   1   3  1   
  3   2   4  2   
  4   2   5  1   
  5   3   6  2   
  6   3   7  1   
  7   4   6  1   
  8   4  23  1   
  9   5   8  1   
 10   5  24  1   
 11   5  25  1   
 12   6  26  1   
 13   7   9  1   
 14   7  27  1   
 15   7  28  1   
 16   8  10  1   
 17   8  11  1   
 18   9  12  1   
 19   9  29  1   
 20   9  30  1   
 21  10  13  1   
 22  10  31  1   
 23  10  32  1   
 24  11  14  1   
 25  11  33  1   
 26  11  34  1   
 27  12  35  1   
 28  12  36  1   
 29  12  37  1   
 30  13  15  1   
 31  13  16  1   
 32  13  38  1   
 33  14  16  1   
 34  14  39  1   
 35  14  40  1   
 36  15  17  1   
 37  15  18  1   
 38  15  41  1   
 39  16  19  1   
 40  16  20  1   
 41  17  21  1   
 42  17  42  1   
 43  17  43  1   
 44  18  44  1   
 45  18  45  1   
 46  18  46  1   
 47  19  21  1   
 48  19  47  1   
 49  19  48  1   
 50  20  22  1   
 51  20  49  1   
 52  20  50  1   
 53  21  51  1   
 54  21  52  1   
 55  22  53  1   
@<TRIPOS>SUBSTRUCTURE
  1 ****   8 GROUP 4 **** **** 0

# MOE 2024.06 (io_trps.svl 2023.06)
