@<TRIPOS>MOLECULE
NONAME
48 50 1 0 0 
SMALL
USER_CHARGES


@<TRIPOS>ATOM
  1 F        0.3260     0.1730    -0.9980 F     1 <1>  -0.1900 
  2 C        1.2760    -0.6050    -0.5590 C.ar  1 <1>   0.1900 
  3 C        1.1790    -1.9560    -0.7450 C.ar  1 <1>  -0.1500 
  4 C        2.3610    -0.0160     0.0800 C.ar  1 <1>  -0.1500 
  5 C        2.1750    -2.8260    -0.2530 C.ar  1 <1>   0.0000 
  6 C        3.3840    -0.8280     0.5000 C.ar  1 <1>  -0.1500 
  7 C        3.3270    -2.2200     0.3020 C.ar  1 <1>   0.3610 
  8 C        2.1160    -4.2580    -0.3350 C.ar  1 <1>   0.1000 
  9 N        4.4210    -3.0000     0.5960 N.ar  1 <1>  -0.1790 
 10 N        0.9720    -4.9640    -0.5670 N.pl3 1 <1>  -0.8380 
 11 C        3.3140    -4.9410    -0.1060 C.ar  1 <1>  -0.1500 
 12 C        4.4410    -4.3210     0.3610 C.ar  1 <1>   0.2180 
 13 C        0.9320    -6.3730    -1.1080 C.3   1 <1>   0.2090 
 14 C       -0.4160    -4.5070    -0.1950 C.3   1 <1>   0.2090 
 15 C        5.7180    -5.0960     0.6420 C.3   1 <1>  -0.0970 
 16 C        0.5110    -7.4200    -0.0380 C.3   1 <1>  -0.1060 
 17 C       -1.2730    -5.6410     0.3870 C.3   1 <1>  -0.1600 
 18 C       -0.2530    -8.5050    -0.8190 C.2   1 <1>   0.9060 
 19 C       -0.3730    -6.6960     1.0180 C.3   1 <1>   0.2000 
 20 C        1.7180    -8.0420     0.7280 C.3   1 <1>  -0.1600 
 21 O       -1.2360    -9.0680    -0.3160 O.co2 1 <1>  -0.9000 
 22 O        0.1280    -8.7960    -1.9600 O.co2 1 <1>  -0.9000 
 23 O       -1.1510    -7.5760     1.7380 O.3   1 <1>  -0.6800 
 24 C        2.7120    -8.8550    -0.1220 C.3   1 <1>  -0.1600 
 25 C        3.8810    -9.3560     0.7320 C.3   1 <1>  -0.2400 
 26 H        0.3380    -2.3410    -1.2880 H     1 <1>   0.1500 
 27 H        2.3770     1.0540     0.2150 H     1 <1>   0.1500 
 28 H        4.2420    -0.3840     0.9740 H     1 <1>   0.1500 
 29 H        5.2510    -2.5350     0.9670 H     1 <1>   0.4570 
 30 H        3.3500    -5.9990    -0.2660 H     1 <1>   0.1500 
 31 H        0.2000    -6.3740    -1.9000 H     1 <1>   0.0800 
 32 H        1.8540    -6.6450    -1.5840 H     1 <1>   0.0800 
 33 H       -0.3430    -3.7290     0.5450 H     1 <1>   0.0800 
 34 H       -0.9130    -4.1130    -1.0650 H     1 <1>   0.0800 
 35 H        5.5890    -6.1370     0.4010 H     1 <1>   0.0800 
 36 H        5.9800    -5.0250     1.6830 H     1 <1>   0.0800 
 37 H        6.5290    -4.7150     0.0460 H     1 <1>   0.0800 
 38 H       -1.8590    -6.0910    -0.3950 H     1 <1>   0.0800 
 39 H       -1.9450    -5.2370     1.1220 H     1 <1>   0.0800 
 40 H        0.2580    -6.1980     1.7350 H     1 <1>   0.0800 
 41 H        2.2430    -7.2650     1.2510 H     1 <1>   0.0800 
 42 H        1.3190    -8.7060     1.4770 H     1 <1>   0.0800 
 43 H       -1.4050    -8.3040     1.0860 H     1 <1>   0.4000 
 44 H        2.2040    -9.7050    -0.5490 H     1 <1>   0.0800 
 45 H        3.0960    -8.2710    -0.9370 H     1 <1>   0.0800 
 46 H        3.5150    -9.9850     1.5250 H     1 <1>   0.0800 
 47 H        4.4190    -8.5310     1.1620 H     1 <1>   0.0800 
 48 H        4.5550    -9.9330     0.1240 H     1 <1>   0.0800 
@<TRIPOS>BOND
  1   1   2  1   
  2   2   3  ar  
  3   2   4  ar  
  4   3   5  ar  
  5   3  26  1   
  6   4   6  ar  
  7   4  27  1   
  8   5   7  ar  
  9   5   8  ar  
 10   6   7  ar  
 11   6  28  1   
 12   7   9  ar  
 13   8  10  1   
 14   8  11  ar  
 15   9  12  ar  
 16   9  29  1   
 17  10  13  1   
 18  10  14  1   
 19  11  12  ar  
 20  11  30  1   
 21  12  15  1   
 22  13  16  1   
 23  13  31  1   
 24  13  32  1   
 25  14  17  1   
 26  14  33  1   
 27  14  34  1   
 28  15  35  1   
 29  15  36  1   
 30  15  37  1   
 31  16  18  1   
 32  16  19  1   
 33  16  20  1   
 34  17  19  1   
 35  17  38  1   
 36  17  39  1   
 37  18  21  ar  
 38  18  22  ar  
 39  19  23  1   
 40  19  40  1   
 41  20  24  1   
 42  20  41  1   
 43  20  42  1   
 44  23  43  1   
 45  24  25  1   
 46  24  44  1   
 47  24  45  1   
 48  25  46  1   
 49  25  47  1   
 50  25  48  1   
@<TRIPOS>SUBSTRUCTURE
  1 ****  10 GROUP 4 **** **** 0

# MOE 2024.06 (io_trps.svl 2023.06)
