@<TRIPOS>MOLECULE
NONAME
46 47 1 0 0 
SMALL
USER_CHARGES


@<TRIPOS>ATOM
  1 S        0.2530    -0.0580     0.6530 S.o2  1 <1>   1.3330 
  2 O       -0.9390    -0.0220     1.4690 O.2   1 <1>  -0.6500 
  3 O        1.5520     0.0490     1.2770 O.2   1 <1>  -0.6500 
  4 N        0.2320    -1.4850    -0.2670 N.am  1 <1>  -0.8490 
  5 C        0.0950     1.2210    -0.5900 C.3   1 <1>  -0.0550 
  6 C       -0.3260    -2.6170     0.4770 C.3   1 <1>   0.1160 
  7 C        1.5450    -1.8450    -0.8130 C.3   1 <1>   0.1160 
  8 C        0.0120     2.6350     0.0090 C.3   1 <1>  -0.0800 
  9 C       -0.2570     3.7010    -1.0480 C.3   1 <1>   0.2000 
 10 C        1.3020     3.1070     0.6860 C.3   1 <1>   0.1400 
 11 O       -1.6120     3.7610    -1.3300 O.3   1 <1>  -0.6800 
 12 C        0.2580     5.0040    -0.4420 C.3   1 <1>   0.1400 
 13 N        1.3270     4.5800     0.4970 N.am  1 <1>  -0.6600 
 14 C        2.4420     5.3320     0.7900 C.2   1 <1>   0.5440 
 15 O        3.4490     4.7600     1.1600 O.2   1 <1>  -0.5700 
 16 C        2.4470     6.7740     0.6460 C.ar  1 <1>   0.0860 
 17 C        1.4140     7.5850     1.0910 C.ar  1 <1>  -0.1500 
 18 C        3.5020     7.4470     0.0500 C.ar  1 <1>  -0.1500 
 19 C        1.4670     8.9540     0.9080 C.ar  1 <1>   0.1670 
 20 C        3.4680     8.8220    -0.0900 C.ar  1 <1>   0.1670 
 21 N        2.4690     9.5820     0.3200 N.ar  1 <1>  -0.6200 
 22 C        0.3360     9.8350     1.3920 C.3   1 <1>  -0.0970 
 23 C        4.6220     9.5500    -0.7460 C.3   1 <1>  -0.0970 
 24 H        0.9230     1.1690    -1.2690 H     1 <1>   0.0800 
 25 H       -0.8000     1.0380    -1.1530 H     1 <1>   0.0800 
 26 H       -0.3400    -3.5000    -0.1390 H     1 <1>   0.0800 
 27 H       -1.3390    -2.4000     0.7750 H     1 <1>   0.0800 
 28 H        0.2600    -2.8100     1.3610 H     1 <1>   0.0800 
 29 H        1.4540    -2.7030    -1.4590 H     1 <1>   0.0800 
 30 H        2.2330    -2.0770    -0.0170 H     1 <1>   0.0800 
 31 H        1.9460    -1.0290    -1.3880 H     1 <1>   0.0800 
 32 H       -0.7670     2.6650     0.7510 H     1 <1>   0.0800 
 33 H        0.2730     3.4930    -1.9620 H     1 <1>   0.0800 
 34 H        2.1710     2.6770     0.2140 H     1 <1>   0.0800 
 35 H        1.3160     2.8600     1.7350 H     1 <1>   0.0800 
 36 H       -2.1330     3.8560    -0.5090 H     1 <1>   0.4000 
 37 H       -0.5210     5.5000     0.1110 H     1 <1>   0.0800 
 38 H        0.6500     5.6540    -1.2050 H     1 <1>   0.0800 
 39 H        0.5740     7.1370     1.5880 H     1 <1>   0.1500 
 40 H        4.3470     6.8820    -0.3000 H     1 <1>   0.1500 
 41 H       -0.4380     9.2570     1.8620 H     1 <1>   0.0800 
 42 H       -0.0840    10.3690     0.5590 H     1 <1>   0.0800 
 43 H        0.7170    10.5480     2.1010 H     1 <1>   0.0800 
 44 H        5.3930     8.8660    -1.0470 H     1 <1>   0.0800 
 45 H        5.0360    10.2600    -0.0540 H     1 <1>   0.0800 
 46 H        4.2660    10.0790    -1.6110 H     1 <1>   0.0800 
@<TRIPOS>BOND
  1   1   2  2   
  2   1   3  2   
  3   1   4  am  
  4   1   5  1   
  5   4   6  1   
  6   4   7  1   
  7   5   8  1   
  8   5  24  1   
  9   5  25  1   
 10   6  26  1   
 11   6  27  1   
 12   6  28  1   
 13   7  29  1   
 14   7  30  1   
 15   7  31  1   
 16   8   9  1   
 17   8  10  1   
 18   8  32  1   
 19   9  11  1   
 20   9  12  1   
 21   9  33  1   
 22  10  13  1   
 23  10  34  1   
 24  10  35  1   
 25  11  36  1   
 26  12  13  1   
 27  12  37  1   
 28  12  38  1   
 29  13  14  am  
 30  14  15  2   
 31  14  16  1   
 32  16  17  ar  
 33  16  18  ar  
 34  17  19  ar  
 35  17  39  1   
 36  18  20  ar  
 37  18  40  1   
 38  19  21  ar  
 39  19  22  1   
 40  20  21  ar  
 41  20  23  1   
 42  22  41  1   
 43  22  42  1   
 44  22  43  1   
 45  23  44  1   
 46  23  45  1   
 47  23  46  1   
@<TRIPOS>SUBSTRUCTURE
  1 ****  13 GROUP 4 **** **** 0

# MOE 2024.06 (io_trps.svl 2023.06)
