@<TRIPOS>MOLECULE
NONAME
67 71 1 0 0 
SMALL
USER_CHARGES


@<TRIPOS>ATOM
  1 O       -0.6770    -0.5070     1.3540 O.3   1 <1>  -0.3630 
  2 C       -0.9670    -1.8340     1.2840 C.ar  1 <1>   0.0820 
  3 C       -1.6910     0.4760     1.2570 C.3   1 <1>   0.0400 
  4 C        0.0330    -2.7400     1.6300 C.ar  1 <1>  -0.1440 
  5 C       -2.2150    -2.3070     0.8910 C.ar  1 <1>  -0.1500 
  6 C       -0.2270    -4.1040     1.5780 C.ar  1 <1>  -0.1500 
  7 C        1.3890    -2.2360     2.1090 C.3   1 <1>   0.4870 
  8 C       -2.4660    -3.6650     0.8540 C.ar  1 <1>  -0.1500 
  9 C       -1.4770    -4.5750     1.1940 C.ar  1 <1>  -0.1440 
 10 N        1.9750    -1.3260     1.0940 N.4   1 <1>  -0.9590 
 11 C       -1.7980    -6.0630     1.1790 C.3   1 <1>   0.4860 
 12 C        2.3240    -1.9600    -0.1930 C.3   1 <1>   0.3430 
 13 C        3.1650    -0.5750     1.5480 C.3   1 <1>   0.3430 
 14 N       -1.3040    -6.6880    -0.0810 N.4   1 <1>  -0.9590 
 15 C        3.2330    -0.9430    -0.8680 C.3   1 <1>  -0.1600 
 16 C        3.8100    -0.0800     0.2600 C.3   1 <1>  -0.1600 
 17 C       -2.0740    -6.1940    -1.2720 C.3   1 <1>   0.3430 
 18 C       -1.5190    -8.1710    -0.0280 C.3   1 <1>   0.3430 
 19 C       -3.1680    -7.2350    -1.5220 C.3   1 <1>   0.2000 
 20 C       -2.4430    -8.5390    -1.1970 C.3   1 <1>  -0.0800 
 21 O       -4.1930    -7.0210    -0.6030 O.3   1 <1>  -0.6800 
 22 C       -3.3320    -9.7730    -0.9350 C.3   1 <1>  -0.0170 
 23 C       -2.4810   -10.9240    -0.4090 C.ar  1 <1>  -0.1430 
 24 C       -2.2960   -11.1850     0.9720 C.ar  1 <1>   0.0000 
 25 C       -1.8370   -11.7360    -1.2970 C.ar  1 <1>  -0.1500 
 26 C       -1.4110   -12.2350     1.3260 C.ar  1 <1>   0.3100 
 27 C       -2.9280   -10.4770     2.0240 C.ar  1 <1>  -0.1500 
 28 C       -1.0020   -12.7620    -0.8400 C.ar  1 <1>   0.1600 
 29 N       -0.7740   -13.0040     0.4110 N.ar  1 <1>  -0.6200 
 30 C       -1.1710   -12.4980     2.6830 C.ar  1 <1>  -0.1500 
 31 C       -2.6750   -10.7620     3.3380 C.ar  1 <1>  -0.1500 
 32 C       -1.7820   -11.7810     3.6750 C.ar  1 <1>  -0.1500 
 33 H       -1.2490     1.4400     1.4390 H     1 <1>   0.0800 
 34 H       -2.4460     0.2790     1.9990 H     1 <1>   0.0800 
 35 H       -2.1130     0.4540     0.2670 H     1 <1>   0.0800 
 36 H       -3.0080    -1.6340     0.6170 H     1 <1>   0.1500 
 37 H        0.5410    -4.8060     1.8590 H     1 <1>   0.1500 
 38 H        2.0540    -3.0630     2.2930 H     1 <1>   0.0800 
 39 H        1.2470    -1.7000     3.0340 H     1 <1>   0.0800 
 40 H       -3.4500    -4.0030     0.5660 H     1 <1>   0.1500 
 41 H        1.2180    -0.6460     0.8990 H     1 <1>   0.4500 
 42 H       -2.8650    -6.2030     1.2640 H     1 <1>   0.0800 
 43 H       -1.3320    -6.5330     2.0300 H     1 <1>   0.0800 
 44 H        2.8710    -2.8720    -0.0160 H     1 <1>   0.0800 
 45 H        1.4470    -2.1690    -0.7840 H     1 <1>   0.0800 
 46 H        2.8960     0.2410     2.2000 H     1 <1>   0.0800 
 47 H        3.8450    -1.2370     2.0600 H     1 <1>   0.0800 
 48 H       -0.3090    -6.4640    -0.1870 H     1 <1>   0.4500 
 49 H        4.0060    -1.4380    -1.4300 H     1 <1>   0.0800 
 50 H        2.6560    -0.3360    -1.5430 H     1 <1>   0.0800 
 51 H        3.5660     0.9570     0.1030 H     1 <1>   0.0800 
 52 H        4.8810    -0.1710     0.3230 H     1 <1>   0.0800 
 53 H       -2.4960    -5.2150    -1.1180 H     1 <1>   0.0800 
 54 H       -1.4230    -6.1630    -2.1300 H     1 <1>   0.0800 
 55 H       -0.5870    -8.7090    -0.1000 H     1 <1>   0.0800 
 56 H       -1.9970    -8.4360     0.8990 H     1 <1>   0.0800 
 57 H       -3.5690    -7.1870    -2.5210 H     1 <1>   0.0800 
 58 H       -1.8030    -8.7770    -2.0290 H     1 <1>   0.0800 
 59 H       -5.0240    -7.4560    -0.8930 H     1 <1>   0.4000 
 60 H       -3.7960   -10.0710    -1.8590 H     1 <1>   0.0800 
 61 H       -4.1320    -9.5560    -0.2530 H     1 <1>   0.0800 
 62 H       -1.9430   -11.6150    -2.3600 H     1 <1>   0.1500 
 63 H       -3.6340    -9.7010     1.8040 H     1 <1>   0.1500 
 64 H       -0.5140   -13.3830    -1.5720 H     1 <1>   0.1500 
 65 H       -0.4880   -13.2930     2.9200 H     1 <1>   0.1500 
 66 H       -3.1630   -10.2180     4.1300 H     1 <1>   0.1500 
 67 H       -1.5900   -11.9980     4.7130 H     1 <1>   0.1500 
@<TRIPOS>BOND
  1   1   2  1   
  2   1   3  1   
  3   2   4  ar  
  4   2   5  ar  
  5   3  33  1   
  6   3  34  1   
  7   3  35  1   
  8   4   6  ar  
  9   4   7  1   
 10   5   8  ar  
 11   5  36  1   
 12   6   9  ar  
 13   6  37  1   
 14   7  10  1   
 15   7  38  1   
 16   7  39  1   
 17   8   9  ar  
 18   8  40  1   
 19   9  11  1   
 20  10  12  1   
 21  10  13  1   
 22  10  41  1   
 23  11  14  1   
 24  11  42  1   
 25  11  43  1   
 26  12  15  1   
 27  12  44  1   
 28  12  45  1   
 29  13  16  1   
 30  13  46  1   
 31  13  47  1   
 32  14  17  1   
 33  14  18  1   
 34  14  48  1   
 35  15  16  1   
 36  15  49  1   
 37  15  50  1   
 38  16  51  1   
 39  16  52  1   
 40  17  19  1   
 41  17  53  1   
 42  17  54  1   
 43  18  20  1   
 44  18  55  1   
 45  18  56  1   
 46  19  20  1   
 47  19  21  1   
 48  19  57  1   
 49  20  22  1   
 50  20  58  1   
 51  21  59  1   
 52  22  23  1   
 53  22  60  1   
 54  22  61  1   
 55  23  24  ar  
 56  23  25  ar  
 57  24  26  ar  
 58  24  27  ar  
 59  25  28  ar  
 60  25  62  1   
 61  26  29  ar  
 62  26  30  ar  
 63  27  31  ar  
 64  27  63  1   
 65  28  29  ar  
 66  28  64  1   
 67  30  32  ar  
 68  30  65  1   
 69  31  32  ar  
 70  31  66  1   
 71  32  67  1   
@<TRIPOS>SUBSTRUCTURE
  1 ****  14 GROUP 4 **** **** 0

# MOE 2024.06 (io_trps.svl 2023.06)
