@<TRIPOS>MOLECULE
NONAME
48 50 1 0 0 
SMALL
USER_CHARGES


@<TRIPOS>ATOM
  1 S        0.8750     0.1580     1.4050 S.o2  1 <1>   1.4470 
  2 O        0.4780     0.2800     2.7860 O.2   1 <1>  -0.6500 
  3 O        2.1900     0.5280     0.9420 O.2   1 <1>  -0.6500 
  4 N       -0.1820     1.1230     0.5530 N.am  1 <1>  -0.9780 
  5 C        0.4480    -1.4960     0.7900 C.ar  1 <1>  -0.0090 
  6 C        1.0390    -2.0150    -0.3550 C.ar  1 <1>  -0.1500 
  7 C       -0.5080    -2.2780     1.4270 C.ar  1 <1>  -0.1500 
  8 C        0.6840    -3.2590    -0.8450 C.ar  1 <1>  -0.1500 
  9 C       -0.8610    -3.5230     0.9370 C.ar  1 <1>  -0.1500 
 10 C       -0.2790    -4.0480    -0.2170 C.ar  1 <1>   0.0860 
 11 C       -0.6510    -5.3530    -0.7490 C.2   1 <1>   0.5440 
 12 O       -0.0630    -5.8310    -1.7010 O.2   1 <1>  -0.5700 
 13 N       -1.6730    -6.0840    -0.1970 N.am  1 <1>  -0.6600 
 14 C       -2.9960    -6.1080    -0.8780 C.3   1 <1>   0.2200 
 15 C       -1.3020    -7.3720     0.4500 C.3   1 <1>   0.0600 
 16 C       -4.1340    -6.3520     0.1100 C.3   1 <1>  -0.1600 
 17 C       -3.3740    -4.7760    -1.5240 C.3   1 <1>  -0.1600 
 18 C       -5.3940    -5.8330    -0.5960 C.3   1 <1>  -0.0800 
 19 C       -4.9010    -4.8200    -1.6520 C.3   1 <1>  -0.0800 
 20 C       -6.4480    -5.2890     0.3870 C.3   1 <1>   0.1400 
 21 C       -5.5610    -3.4330    -1.5420 C.3   1 <1>  -0.0990 
 22 N       -7.4490    -4.4700    -0.3410 N.am  1 <1>  -0.6600 
 23 C       -7.0480    -3.5640    -1.2840 C.2   1 <1>   0.5690 
 24 C       -8.8760    -4.6610     0.0340 C.3   1 <1>   0.0600 
 25 O       -7.8150    -2.8660    -1.9030 O.2   1 <1>  -0.5700 
 26 H       -1.1220     0.8090     0.7640 H     1 <1>   0.4200 
 27 H        0.0230     1.0020    -0.4320 H     1 <1>   0.4200 
 28 H        1.7930    -1.4410    -0.8700 H     1 <1>   0.1500 
 29 H       -0.9800    -1.9100     2.3240 H     1 <1>   0.1500 
 30 H        1.1640    -3.6340    -1.7350 H     1 <1>   0.1500 
 31 H       -1.6020    -4.1010     1.4620 H     1 <1>   0.1500 
 32 H       -2.9980    -6.8790    -1.6320 H     1 <1>   0.0800 
 33 H       -1.8700    -7.5090     1.3530 H     1 <1>   0.0800 
 34 H       -0.2540    -7.3730     0.6970 H     1 <1>   0.0800 
 35 H       -1.4940    -8.1900    -0.2240 H     1 <1>   0.0800 
 36 H       -4.2280    -7.3950     0.3580 H     1 <1>   0.0800 
 37 H       -3.9500    -5.7810     1.0030 H     1 <1>   0.0800 
 38 H       -3.0920    -3.9680    -0.8730 H     1 <1>   0.0800 
 39 H       -2.9000    -4.6530    -2.4820 H     1 <1>   0.0800 
 40 H       -5.8420    -6.6580    -1.1240 H     1 <1>   0.0800 
 41 H       -5.1480    -5.2240    -2.6210 H     1 <1>   0.0800 
 42 H       -5.9800    -4.6660     1.1300 H     1 <1>   0.0800 
 43 H       -6.9320    -6.1100     0.8890 H     1 <1>   0.0800 
 44 H       -5.4000    -2.8750    -2.4460 H     1 <1>   0.0800 
 45 H       -5.1400    -2.8770    -0.7250 H     1 <1>   0.0800 
 46 H       -9.0090    -4.4500     1.0800 H     1 <1>   0.0800 
 47 H       -9.1720    -5.6750    -0.1680 H     1 <1>   0.0800 
 48 H       -9.5070    -3.9990    -0.5340 H     1 <1>   0.0800 
@<TRIPOS>BOND
  1   1   2  2   
  2   1   3  2   
  3   1   4  am  
  4   1   5  1   
  5   4  26  1   
  6   4  27  1   
  7   5   6  ar  
  8   5   7  ar  
  9   6   8  ar  
 10   6  28  1   
 11   7   9  ar  
 12   7  29  1   
 13   8  10  ar  
 14   8  30  1   
 15   9  10  ar  
 16   9  31  1   
 17  10  11  1   
 18  11  12  2   
 19  11  13  am  
 20  13  14  1   
 21  13  15  1   
 22  14  16  1   
 23  14  17  1   
 24  14  32  1   
 25  15  33  1   
 26  15  34  1   
 27  15  35  1   
 28  16  18  1   
 29  16  36  1   
 30  16  37  1   
 31  17  19  1   
 32  17  38  1   
 33  17  39  1   
 34  18  19  1   
 35  18  20  1   
 36  18  40  1   
 37  19  21  1   
 38  19  41  1   
 39  20  22  1   
 40  20  42  1   
 41  20  43  1   
 42  21  23  1   
 43  21  44  1   
 44  21  45  1   
 45  22  23  am  
 46  22  24  1   
 47  23  25  2   
 48  24  46  1   
 49  24  47  1   
 50  24  48  1   
@<TRIPOS>SUBSTRUCTURE
  1 ****  17 GROUP 4 **** **** 0

# MOE 2024.06 (io_trps.svl 2023.06)
