@<TRIPOS>MOLECULE
NONAME
45 47 1 0 0 
SMALL
USER_CHARGES


@<TRIPOS>ATOM
  1 O       -1.2580     0.1790    -1.1820 O.2   1 <1>  -0.5700 
  2 C       -1.2380     0.4590     0.0070 C.2   1 <1>   0.7160 
  3 N       -1.4740    -0.5460     0.9000 N.am  1 <1>  -0.7300 
  4 C       -0.9990     1.8070     0.5130 C.2   1 <1>   0.2030 
  5 C       -1.8730    -1.9280     0.5680 C.3   1 <1>   0.2200 
  6 N       -1.0400     2.1190     1.7990 N.2   1 <1>  -0.7070 
  7 C       -0.7030     2.9550    -0.2490 C.2   1 <1>  -0.1810 
  8 C       -3.3940    -2.0420     0.5880 C.3   1 <1>  -0.0800 
  9 C       -1.4110    -2.9230     1.6340 C.3   1 <1>   0.1200 
 10 N       -0.7730     3.4290     1.8560 N.pl3 1 <1>   0.3000 
 11 C       -0.5640     3.9630     0.6380 C.2   1 <1>  -0.3320 
 12 C       -0.5750     3.0130    -1.7630 C.3   1 <1>  -0.0590 
 13 C       -3.6540    -3.2250     1.5160 C.3   1 <1>   0.1200 
 14 C       -3.9950    -2.2080    -0.8170 C.3   1 <1>  -0.0170 
 15 O       -2.5480    -3.2780     2.3550 O.3   1 <1>  -0.5600 
 16 C       -0.2370     5.4340     0.4390 C.3   1 <1>   0.0200 
 17 C       -5.5070    -2.3440    -0.7520 C.ar  1 <1>  -0.1430 
 18 C       -1.4730     6.2940     0.7040 C.3   1 <1>  -0.2400 
 19 C       -6.3200    -1.2500    -0.5380 C.ar  1 <1>  -0.1500 
 20 C       -6.1460    -3.5580    -0.9020 C.ar  1 <1>  -0.1500 
 21 C       -7.6940    -1.4170    -0.4800 C.ar  1 <1>   0.1600 
 22 C       -7.5280    -3.6180    -0.8270 C.ar  1 <1>   0.1600 
 23 N       -8.3180    -2.5760    -0.6180 N.ar  1 <1>  -0.6200 
 24 H       -1.5440    -0.2560     1.8800 H     1 <1>   0.3700 
 25 H       -1.4570    -2.2060    -0.3870 H     1 <1>   0.0800 
 26 H       -3.8230    -1.1700     1.0510 H     1 <1>   0.0800 
 27 H       -0.6800    -2.5070     2.3050 H     1 <1>   0.0800 
 28 H       -1.0240    -3.8150     1.1740 H     1 <1>   0.0800 
 29 H       -0.7400     3.9450     2.7430 H     1 <1>   0.2700 
 30 H        0.2220     2.3690    -2.0880 H     1 <1>   0.0800 
 31 H       -0.3690     4.0110    -2.1010 H     1 <1>   0.0800 
 32 H       -1.4910     2.6830    -2.2190 H     1 <1>   0.0800 
 33 H       -3.7030    -4.1540     0.9730 H     1 <1>   0.0800 
 34 H       -4.5440    -3.0960     2.1070 H     1 <1>   0.0800 
 35 H       -3.5710    -3.0700    -1.3000 H     1 <1>   0.0800 
 36 H       -3.7430    -1.3470    -1.4130 H     1 <1>   0.0800 
 37 H        0.5600     5.7220     1.1020 H     1 <1>   0.0800 
 38 H        0.1020     5.6050    -0.5670 H     1 <1>   0.0800 
 39 H       -1.8060     6.1790     1.7190 H     1 <1>   0.0800 
 40 H       -2.2710     6.0020     0.0430 H     1 <1>   0.0800 
 41 H       -1.2450     7.3310     0.5310 H     1 <1>   0.0800 
 42 H       -5.8980    -0.2690    -0.4150 H     1 <1>   0.1500 
 43 H       -5.5860    -4.4580    -1.0750 H     1 <1>   0.1500 
 44 H       -8.3110    -0.5520    -0.3110 H     1 <1>   0.1500 
 45 H       -8.0100    -4.5730    -0.9460 H     1 <1>   0.1500 
@<TRIPOS>BOND
  1   1   2  2   
  2   2   3  am  
  3   2   4  1   
  4   3   5  1   
  5   3  24  1   
  6   4   6  2   
  7   4   7  1   
  8   5   8  1   
  9   5   9  1   
 10   5  25  1   
 11   6  10  1   
 12   7  11  2   
 13   7  12  1   
 14   8  13  1   
 15   8  14  1   
 16   8  26  1   
 17   9  15  1   
 18   9  27  1   
 19   9  28  1   
 20  10  11  1   
 21  10  29  1   
 22  11  16  1   
 23  12  30  1   
 24  12  31  1   
 25  12  32  1   
 26  13  15  1   
 27  13  33  1   
 28  13  34  1   
 29  14  17  1   
 30  14  35  1   
 31  14  36  1   
 32  16  18  1   
 33  16  37  1   
 34  16  38  1   
 35  17  19  ar  
 36  17  20  ar  
 37  18  39  1   
 38  18  40  1   
 39  18  41  1   
 40  19  21  ar  
 41  19  42  1   
 42  20  22  ar  
 43  20  43  1   
 44  21  23  ar  
 45  21  44  1   
 46  22  23  ar  
 47  22  45  1   
@<TRIPOS>SUBSTRUCTURE
  1 ****   3 GROUP 4 **** **** 0

# MOE 2024.06 (io_trps.svl 2023.06)
