@<TRIPOS>MOLECULE
NONAME
53 57 1 0 0 
SMALL
USER_CHARGES


@<TRIPOS>ATOM
  1 S       -0.5570    -0.1480     1.3530 S.3   1 <1>  -0.0800 
  2 C       -1.4630    -1.2300     0.3160 C.ar  1 <1>   0.0400 
  3 C       -1.3940     1.2190     0.6270 C.2   1 <1>   0.1980 
  4 C       -2.2990    -0.4620    -0.4710 C.ar  1 <1>   0.2270 
  5 C       -1.4010    -2.6070     0.2460 C.ar  1 <1>  -0.1500 
  6 N       -2.2390     0.9130    -0.2710 N.2   1 <1>  -0.5650 
  7 C       -1.0290     2.5930     1.1370 C.3   1 <1>  -0.0600 
  8 C       -3.1130    -1.1160    -1.3830 C.ar  1 <1>  -0.1500 
  9 C       -2.2270    -3.2730    -0.6580 C.ar  1 <1>   0.0860 
 10 C       -3.0700    -2.4980    -1.4720 C.ar  1 <1>  -0.1500 
 11 C       -2.2000    -4.7210    -0.7540 C.2   1 <1>   0.5440 
 12 O       -1.1280    -5.2900    -0.8440 O.2   1 <1>  -0.5700 
 13 N       -3.3530    -5.4780    -0.7310 N.am  1 <1>  -0.6600 
 14 C       -3.2960    -6.9290    -1.0760 C.3   1 <1>   0.1400 
 15 C       -4.6420    -4.9550    -0.1860 C.3   1 <1>   0.1400 
 16 C       -4.6620    -7.4390    -1.5430 C.3   1 <1>  -0.1600 
 17 C       -5.4230    -6.0820     0.4850 C.3   1 <1>  -0.1600 
 18 C       -5.8060    -7.1660    -0.5410 C.3   1 <1>   0.4240 
 19 O       -6.8460    -6.6340    -1.3290 O.3   1 <1>  -0.5600 
 20 C       -6.2260    -8.4750     0.1650 C.ar  1 <1>  -0.1430 
 21 C       -8.1550    -6.7610    -0.8610 C.3   1 <1>   0.1200 
 22 C       -7.5130    -8.9860     0.0350 C.ar  1 <1>  -0.1430 
 23 C       -5.3130    -9.1750     0.9470 C.ar  1 <1>  -0.1500 
 24 C       -8.5240    -8.2390    -0.8110 C.3   1 <1>  -0.0170 
 25 C       -7.8760   -10.1650     0.6660 C.ar  1 <1>  -0.1500 
 26 C       -5.6740   -10.3500     1.5800 C.ar  1 <1>  -0.1500 
 27 C       -6.9540   -10.8550     1.4460 C.ar  1 <1>   0.0830 
 28 O       -7.2270   -12.0130     2.0980 O.3   1 <1>  -0.3630 
 29 C       -8.4970   -12.6200     2.0140 C.3   1 <1>   0.0400 
 30 H       -0.7270    -3.1600     0.8760 H     1 <1>   0.1500 
 31 H       -1.2380     2.6590     2.1890 H     1 <1>   0.0800 
 32 H       -1.6050     3.3380     0.6190 H     1 <1>   0.0800 
 33 H        0.0150     2.7790     0.9690 H     1 <1>   0.0800 
 34 H       -3.7640    -0.5320    -2.0090 H     1 <1>   0.1500 
 35 H       -3.6960    -3.0010    -2.1890 H     1 <1>   0.1500 
 36 H       -2.9670    -7.4770    -0.2100 H     1 <1>   0.0800 
 37 H       -2.5710    -7.0840    -1.8580 H     1 <1>   0.0800 
 38 H       -5.2260    -4.5390    -0.9900 H     1 <1>   0.0800 
 39 H       -4.4470    -4.1790     0.5340 H     1 <1>   0.0800 
 40 H       -4.5920    -8.4940    -1.7360 H     1 <1>   0.0800 
 41 H       -4.8760    -6.9620    -2.4830 H     1 <1>   0.0800 
 42 H       -6.3010    -5.6910     0.9610 H     1 <1>   0.0800 
 43 H       -4.8090    -6.4990     1.2610 H     1 <1>   0.0800 
 44 H       -8.8000    -6.2350    -1.5420 H     1 <1>   0.0800 
 45 H       -8.2310    -6.3130     0.1140 H     1 <1>   0.0800 
 46 H       -4.3090    -8.8130     1.0720 H     1 <1>   0.1500 
 47 H       -8.5310    -8.6410    -1.8090 H     1 <1>   0.0800 
 48 H       -9.5090    -8.3440    -0.3950 H     1 <1>   0.0800 
 49 H       -8.8750   -10.5350     0.5430 H     1 <1>   0.1500 
 50 H       -4.9630   -10.8850     2.1840 H     1 <1>   0.1500 
 51 H       -8.4750   -13.5210     2.6000 H     1 <1>   0.0800 
 52 H       -8.7020   -12.8580     0.9850 H     1 <1>   0.0800 
 53 H       -9.2340   -11.9440     2.4090 H     1 <1>   0.0800 
@<TRIPOS>BOND
  1   1   2  1   
  2   1   3  1   
  3   2   4  ar  
  4   2   5  ar  
  5   3   6  2   
  6   3   7  1   
  7   4   6  1   
  8   4   8  ar  
  9   5   9  ar  
 10   5  30  1   
 11   7  31  1   
 12   7  32  1   
 13   7  33  1   
 14   8  10  ar  
 15   8  34  1   
 16   9  10  ar  
 17   9  11  1   
 18  10  35  1   
 19  11  12  2   
 20  11  13  am  
 21  13  14  1   
 22  13  15  1   
 23  14  16  1   
 24  14  36  1   
 25  14  37  1   
 26  15  17  1   
 27  15  38  1   
 28  15  39  1   
 29  16  18  1   
 30  16  40  1   
 31  16  41  1   
 32  17  18  1   
 33  17  42  1   
 34  17  43  1   
 35  18  19  1   
 36  18  20  1   
 37  19  21  1   
 38  20  22  ar  
 39  20  23  ar  
 40  21  24  1   
 41  21  44  1   
 42  21  45  1   
 43  22  24  1   
 44  22  25  ar  
 45  23  26  ar  
 46  23  46  1   
 47  24  47  1   
 48  24  48  1   
 49  25  27  ar  
 50  25  49  1   
 51  26  27  ar  
 52  26  50  1   
 53  27  28  1   
 54  28  29  1   
 55  29  51  1   
 56  29  52  1   
 57  29  53  1   
@<TRIPOS>SUBSTRUCTURE
  1 ****  15 GROUP 4 **** **** 0

# MOE 2024.06 (io_trps.svl 2023.06)
