@<TRIPOS>MOLECULE
NONAME
44 45 1 0 0 
SMALL
USER_CHARGES


@<TRIPOS>ATOM
  1 S       -2.1090     0.4000     0.9100 S.3   1 <1>  -0.0800 
  2 C       -2.5640    -1.1900     0.3250 C.2   1 <1>  -0.1100 
  3 C       -2.7660     1.1600    -0.5280 C.2   1 <1>  -0.1100 
  4 C       -3.1830    -1.1060    -0.8690 C.2   1 <1>  -0.1810 
  5 C       -3.2890     0.2380    -1.3570 C.2   1 <1>  -0.1500 
  6 C       -3.7380    -2.2690    -1.6850 C.3   1 <1>   0.0820 
  7 C       -3.9280    -3.5630    -0.8970 C.2   1 <1>   0.5690 
  8 O       -3.2570    -4.5100    -1.2300 O.2   1 <1>  -0.5700 
  9 N       -4.8440    -3.6650     0.1260 N.am  1 <1>  -0.6600 
 10 C       -4.9590    -4.9470     0.8980 C.3   1 <1>   0.3210 
 11 C       -5.7350    -2.5720     0.6150 C.3   1 <1>   0.1400 
 12 C       -6.3110    -5.6230     0.6720 C.2   1 <1>   0.0460 
 13 C       -7.0520    -2.5370    -0.1810 C.3   1 <1>   0.3430 
 14 N       -7.4210    -5.2510     1.3530 N.2   1 <1>  -0.5650 
 15 C       -6.5850    -6.6480    -0.1690 C.2   1 <1>  -0.3320 
 16 N       -8.1070    -1.6980     0.4830 N.4   1 <1>  -0.9590 
 17 C       -8.3270    -6.0780     0.9360 C.2   1 <1>   0.0360 
 18 N       -7.8840    -6.9490     0.0070 N.pl3 1 <1>   0.0330 
 19 C       -5.6920    -7.3980    -1.1440 C.3   1 <1>  -0.0600 
 20 C       -8.6360    -2.3900     1.7040 C.3   1 <1>   0.2630 
 21 C       -9.2260    -1.4270    -0.4690 C.3   1 <1>   0.2630 
 22 H       -2.3130    -2.0300     0.9500 H     1 <1>   0.1500 
 23 H       -2.6830     2.2300    -0.6010 H     1 <1>   0.1500 
 24 H       -3.7420     0.4560    -2.3090 H     1 <1>   0.1500 
 25 H       -3.0640    -2.4610    -2.5010 H     1 <1>   0.0800 
 26 H       -4.6820    -1.9930    -2.1100 H     1 <1>   0.0800 
 27 H       -4.8390    -4.7480     1.9480 H     1 <1>   0.0800 
 28 H       -4.1780    -5.6320     0.6210 H     1 <1>   0.0800 
 29 H       -5.2430    -1.6210     0.5350 H     1 <1>   0.0800 
 30 H       -5.9400    -2.7460     1.6560 H     1 <1>   0.0800 
 31 H       -7.4200    -3.5430    -0.2980 H     1 <1>   0.0800 
 32 H       -6.8440    -2.1450    -1.1620 H     1 <1>   0.0800 
 33 H       -7.6890    -0.7980     0.7650 H     1 <1>   0.4500 
 34 H       -9.3450    -6.0970     1.2850 H     1 <1>   0.1500 
 35 H       -8.4160    -7.6950    -0.4510 H     1 <1>   0.2700 
 36 H       -4.7090    -6.9610    -1.1810 H     1 <1>   0.0800 
 37 H       -6.1090    -7.3630    -2.1350 H     1 <1>   0.0800 
 38 H       -5.5940    -8.4270    -0.8440 H     1 <1>   0.0800 
 39 H       -9.0730    -3.3380     1.4350 H     1 <1>   0.0800 
 40 H       -9.3880    -1.7860     2.1850 H     1 <1>   0.0800 
 41 H       -7.8430    -2.5770     2.4100 H     1 <1>   0.0800 
 42 H       -9.6820    -2.3530    -0.7830 H     1 <1>   0.0800 
 43 H       -8.8610    -0.9090    -1.3410 H     1 <1>   0.0800 
 44 H       -9.9790    -0.8160     0.0020 H     1 <1>   0.0800 
@<TRIPOS>BOND
  1   1   2  1   
  2   1   3  1   
  3   2   4  2   
  4   2  22  1   
  5   3   5  2   
  6   3  23  1   
  7   4   5  1   
  8   4   6  1   
  9   5  24  1   
 10   6   7  1   
 11   6  25  1   
 12   6  26  1   
 13   7   8  2   
 14   7   9  am  
 15   9  10  1   
 16   9  11  1   
 17  10  12  1   
 18  10  27  1   
 19  10  28  1   
 20  11  13  1   
 21  11  29  1   
 22  11  30  1   
 23  12  14  1   
 24  12  15  2   
 25  13  16  1   
 26  13  31  1   
 27  13  32  1   
 28  14  17  2   
 29  15  18  1   
 30  15  19  1   
 31  16  20  1   
 32  16  21  1   
 33  16  33  1   
 34  17  18  1   
 35  17  34  1   
 36  18  35  1   
 37  19  36  1   
 38  19  37  1   
 39  19  38  1   
 40  20  39  1   
 41  20  40  1   
 42  20  41  1   
 43  21  42  1   
 44  21  43  1   
 45  21  44  1   
@<TRIPOS>SUBSTRUCTURE
  1 ****   9 GROUP 4 **** **** 0

# MOE 2024.06 (io_trps.svl 2023.06)
