@<TRIPOS>MOLECULE
NONAME
42 43 1 0 0 
SMALL
USER_CHARGES


@<TRIPOS>ATOM
  1 O        1.9620     3.9600    -1.6390 O.2   1 <1>  -0.5700 
  2 C        1.0520     3.5140    -0.9740 C.2   1 <1>   0.6160 
  3 N        1.2780     2.7630     0.1720 N.am  1 <1>  -0.4200 
  4 C       -0.3040     3.7520    -1.3950 C.2   1 <1>  -0.1360 
  5 C        2.4900     2.1770     0.5120 C.2   1 <1>   0.6160 
  6 C        0.1170     2.5450     1.1020 C.3   1 <1>   0.1400 
  7 C       -1.3770     3.1900    -0.8170 C.2   1 <1>  -0.2880 
  8 O        2.4610     1.0970     1.0710 O.2   1 <1>  -0.5700 
  9 C        3.7650     2.8000     0.2720 C.2   1 <1>  -0.1360 
 10 C       -1.2050     2.2570     0.3670 C.3   1 <1>  -0.0220 
 11 C        4.9920     2.2450     0.4180 C.2   1 <1>  -0.1780 
 12 C        6.2730     2.8520     0.1630 C.ar  1 <1>   0.0280 
 13 C        6.4170     3.9530    -0.6790 C.ar  1 <1>  -0.1500 
 14 C        7.4220     2.3360     0.7550 C.ar  1 <1>  -0.1500 
 15 C        7.6570     4.5380    -0.9120 C.ar  1 <1>   0.0830 
 16 C        8.6690     2.8900     0.5340 C.ar  1 <1>   0.0830 
 17 O        7.8100     5.6160    -1.7370 O.3   1 <1>  -0.3630 
 18 C        8.7930     4.0160    -0.2880 C.ar  1 <1>   0.0830 
 19 O        9.7130     2.2840     1.1660 O.3   1 <1>  -0.3630 
 20 C        6.7680     6.0500    -2.5840 C.3   1 <1>   0.0400 
 21 O       10.0020     4.6050    -0.4820 O.3   1 <1>  -0.3630 
 22 C       10.8970     2.0300     0.4410 C.3   1 <1>   0.0400 
 23 C       10.2370     5.7770     0.2630 C.3   1 <1>   0.0400 
 24 H       -0.3930     4.4120    -2.2390 H     1 <1>   0.1500 
 25 H       -0.0040     3.4410     1.6860 H     1 <1>   0.0800 
 26 H        0.3140     1.7390     1.7880 H     1 <1>   0.0800 
 27 H       -2.3930     3.3380    -1.1430 H     1 <1>   0.1500 
 28 H        3.6970     3.8210    -0.0420 H     1 <1>   0.1500 
 29 H       -2.0190     2.3880     1.0590 H     1 <1>   0.0800 
 30 H       -1.2200     1.2350     0.0290 H     1 <1>   0.0800 
 31 H        5.0520     1.2270     0.7660 H     1 <1>   0.1500 
 32 H        5.5390     4.3400    -1.1550 H     1 <1>   0.1500 
 33 H        7.3470     1.4830     1.4030 H     1 <1>   0.1500 
 34 H        7.1510     6.8370    -3.2070 H     1 <1>   0.0800 
 35 H        5.9590     6.4230    -1.9810 H     1 <1>   0.0800 
 36 H        6.4460     5.2250    -3.1940 H     1 <1>   0.0800 
 37 H       11.4090     1.2100     0.9110 H     1 <1>   0.0800 
 38 H       11.5170     2.9070     0.4670 H     1 <1>   0.0800 
 39 H       10.6440     1.7750    -0.5730 H     1 <1>   0.0800 
 40 H       11.2330     6.1180     0.0490 H     1 <1>   0.0800 
 41 H       10.1390     5.5460     1.3090 H     1 <1>   0.0800 
 42 H        9.5210     6.5260    -0.0260 H     1 <1>   0.0800 
@<TRIPOS>BOND
  1   1   2  2   
  2   2   3  am  
  3   2   4  1   
  4   3   5  am  
  5   3   6  1   
  6   4   7  2   
  7   4  24  1   
  8   5   8  2   
  9   5   9  1   
 10   6  10  1   
 11   6  25  1   
 12   6  26  1   
 13   7  10  1   
 14   7  27  1   
 15   9  11  2   
 16   9  28  1   
 17  10  29  1   
 18  10  30  1   
 19  11  12  1   
 20  11  31  1   
 21  12  13  ar  
 22  12  14  ar  
 23  13  15  ar  
 24  13  32  1   
 25  14  16  ar  
 26  14  33  1   
 27  15  17  1   
 28  15  18  ar  
 29  16  18  ar  
 30  16  19  1   
 31  17  20  1   
 32  18  21  1   
 33  19  22  1   
 34  20  34  1   
 35  20  35  1   
 36  20  36  1   
 37  21  23  1   
 38  22  37  1   
 39  22  38  1   
 40  22  39  1   
 41  23  40  1   
 42  23  41  1   
 43  23  42  1   
@<TRIPOS>SUBSTRUCTURE
  1 ****  11 GROUP 4 **** **** 0

# MOE 2024.06 (io_trps.svl 2023.06)
