@<TRIPOS>MOLECULE
NONAME
49 51 1 0 0 
SMALL
USER_CHARGES


@<TRIPOS>ATOM
  1 O       -0.3340     0.1090    -0.0780 O.2   1 <1>  -0.5700 
  2 C       -1.3450     0.7390     0.1210 C.2   1 <1>   0.5690 
  3 N       -2.5380     0.1130     0.3760 N.am  1 <1>  -0.6600 
  4 C       -1.2750     2.2580     0.0810 C.3   1 <1>  -0.0990 
  5 C       -2.6300    -1.3790     0.4770 C.3   1 <1>   0.1400 
  6 C       -3.8700     0.7820     0.5070 C.3   1 <1>   0.1400 
  7 C        0.1520     2.8120    -0.0230 C.3   1 <1>   0.0210 
  8 C       -3.7420    -1.9320    -0.4310 C.3   1 <1>   0.3440 
  9 C       -4.9210     0.1160    -0.4110 C.3   1 <1>   0.2000 
 10 C        0.1230     4.3280    -0.0440 C.2   1 <1>  -0.1810 
 11 O       -4.9480    -1.2640    -0.1670 O.3   1 <1>  -0.5600 
 12 C       -3.9260    -3.4300    -0.2080 C.ar  1 <1>  -0.1440 
 13 C       -6.3510     0.6680    -0.2030 C.3   1 <1>  -0.0800 
 14 C       -0.1290     5.1710     1.0340 C.2   1 <1>   0.1390 
 15 C        0.3250     5.1590    -1.0880 C.2   1 <1>  -0.3020 
 16 C       -4.7900    -3.9190     0.7640 C.ar  1 <1>  -0.1500 
 17 C       -3.2060    -4.3310    -0.9810 C.ar  1 <1>  -0.1500 
 18 C       -7.3690    -0.0490    -1.1060 C.3   1 <1>  -0.2400 
 19 C       -6.4380     2.1810    -0.4720 C.3   1 <1>  -0.2400 
 20 N       -0.0960     6.4240     0.6980 N.2   1 <1>  -0.7070 
 21 N        0.1910     6.4150    -0.6170 N.pl3 1 <1>   0.3000 
 22 C       -4.9310    -5.2820     0.9590 C.ar  1 <1>  -0.1500 
 23 C       -3.3460    -5.6940    -0.7870 C.ar  1 <1>  -0.1500 
 24 C       -4.2090    -6.1710     0.1840 C.ar  1 <1>  -0.1500 
 25 H       -1.8390     2.6030    -0.7660 H     1 <1>   0.0800 
 26 H       -1.7280     2.6440     0.9750 H     1 <1>   0.0800 
 27 H       -1.6970    -1.8400     0.2030 H     1 <1>   0.0800 
 28 H       -2.8410    -1.6530     1.4950 H     1 <1>   0.0800 
 29 H       -4.2000     0.7110     1.5290 H     1 <1>   0.0800 
 30 H       -3.7960     1.8220     0.2540 H     1 <1>   0.0800 
 31 H        0.6170     2.4500    -0.9240 H     1 <1>   0.0800 
 32 H        0.7410     2.4740     0.8130 H     1 <1>   0.0800 
 33 H       -3.4860    -1.7570    -1.4610 H     1 <1>   0.0800 
 34 H       -4.6400     0.2640    -1.4390 H     1 <1>   0.0800 
 35 H       -6.6310     0.4950     0.8230 H     1 <1>   0.0800 
 36 H       -0.3300     4.8350     2.0380 H     1 <1>   0.1500 
 37 H        0.5530     4.9350    -2.1140 H     1 <1>   0.1500 
 38 H       -5.3590    -3.2350     1.3700 H     1 <1>   0.1500 
 39 H       -2.5300    -3.9760    -1.7390 H     1 <1>   0.1500 
 40 H       -7.1140     0.0790    -2.1430 H     1 <1>   0.0800 
 41 H       -8.3590     0.3380    -0.9430 H     1 <1>   0.0800 
 42 H       -7.3880    -1.1030    -0.8890 H     1 <1>   0.0800 
 43 H       -6.1000     2.4090    -1.4680 H     1 <1>   0.0800 
 44 H       -5.8480     2.7370     0.2330 H     1 <1>   0.0800 
 45 H       -7.4560     2.5160    -0.3760 H     1 <1>   0.0800 
 46 H        0.2880     7.2810    -1.1610 H     1 <1>   0.2700 
 47 H       -5.6050    -5.6480     1.7140 H     1 <1>   0.1500 
 48 H       -2.7830    -6.3840    -1.3910 H     1 <1>   0.1500 
 49 H       -4.3180    -7.2300     0.3350 H     1 <1>   0.1500 
@<TRIPOS>BOND
  1   1   2  2   
  2   2   3  am  
  3   2   4  1   
  4   3   5  1   
  5   3   6  1   
  6   4   7  1   
  7   4  25  1   
  8   4  26  1   
  9   5   8  1   
 10   5  27  1   
 11   5  28  1   
 12   6   9  1   
 13   6  29  1   
 14   6  30  1   
 15   7  10  1   
 16   7  31  1   
 17   7  32  1   
 18   8  11  1   
 19   8  12  1   
 20   8  33  1   
 21   9  11  1   
 22   9  13  1   
 23   9  34  1   
 24  10  14  1   
 25  10  15  2   
 26  12  16  ar  
 27  12  17  ar  
 28  13  18  1   
 29  13  19  1   
 30  13  35  1   
 31  14  20  2   
 32  14  36  1   
 33  15  21  1   
 34  15  37  1   
 35  16  22  ar  
 36  16  38  1   
 37  17  23  ar  
 38  17  39  1   
 39  18  40  1   
 40  18  41  1   
 41  18  42  1   
 42  19  43  1   
 43  19  44  1   
 44  19  45  1   
 45  20  21  1   
 46  21  46  1   
 47  22  24  ar  
 48  22  47  1   
 49  23  24  ar  
 50  23  48  1   
 51  24  49  1   
@<TRIPOS>SUBSTRUCTURE
  1 ****   3 GROUP 4 **** **** 0

# MOE 2024.06 (io_trps.svl 2023.06)
