@<TRIPOS>MOLECULE
NONAME
46 49 1 0 0 
SMALL
USER_CHARGES


@<TRIPOS>ATOM
  1 O       -0.6160     0.2100    -0.0080 O.2   1 <1>  -0.5700 
  2 C       -1.6040     0.8660     0.2610 C.2   1 <1>   0.7160 
  3 N       -2.7520     0.2080     0.6440 N.am  1 <1>  -0.6600 
  4 C       -1.5710     2.3010     0.1410 C.2   1 <1>  -0.0860 
  5 C       -2.7620    -1.2560     0.9630 C.3   1 <1>   0.1400 
  6 C       -4.1230     0.7520     0.3960 C.3   1 <1>   0.1400 
  7 C       -1.9950     3.2860     0.9620 C.2   1 <1>  -0.0400 
  8 C       -1.0680     3.0360    -0.9200 C.2   1 <1>   0.1080 
  9 C       -3.6060    -2.0400    -0.0600 C.3   1 <1>   0.3440 
 10 C       -4.8970    -0.1420    -0.5940 C.3   1 <1>   0.2950 
 11 O       -1.8030     4.4770     0.4490 O.3   1 <1>  -0.0190 
 12 C       -2.6200     3.2020     2.3420 C.3   1 <1>  -0.0600 
 13 N       -1.2270     4.2890    -0.7160 N.2   1 <1>  -0.4100 
 14 C       -0.4170     2.4650    -2.1630 C.3   1 <1>  -0.0590 
 15 O       -4.8860    -1.4710    -0.1630 O.3   1 <1>  -0.5600 
 16 C       -3.7240    -3.5040     0.3560 C.ar  1 <1>  -0.1440 
 17 C       -6.3600     0.2920    -0.7140 C.3   1 <1>  -0.1950 
 18 C       -4.7580    -3.9480     1.1680 C.ar  1 <1>  -0.1500 
 19 C       -2.7680    -4.4140    -0.0740 C.ar  1 <1>  -0.1500 
 20 C       -7.1710    -0.0470    -1.9230 C.3   1 <1>  -0.2000 
 21 C       -6.7690     1.3770    -1.6610 C.3   1 <1>  -0.2000 
 22 C       -4.8360    -5.2780     1.5450 C.ar  1 <1>  -0.1500 
 23 C       -2.8440    -5.7440     0.3020 C.ar  1 <1>  -0.1500 
 24 C       -3.8780    -6.1770     1.1120 C.ar  1 <1>  -0.1500 
 25 H       -1.7630    -1.6540     0.9740 H     1 <1>   0.0800 
 26 H       -3.1790    -1.4030     1.9430 H     1 <1>   0.0800 
 27 H       -4.6610     0.7960     1.3270 H     1 <1>   0.0800 
 28 H       -4.0770     1.7480    -0.0080 H     1 <1>   0.0800 
 29 H       -3.1400    -1.9860    -1.0290 H     1 <1>   0.0800 
 30 H       -4.4300    -0.1000    -1.5640 H     1 <1>   0.0800 
 31 H       -2.6630     2.1840     2.6820 H     1 <1>   0.0800 
 32 H       -3.6140     3.6080     2.3170 H     1 <1>   0.0800 
 33 H       -2.0300     3.7710     3.0380 H     1 <1>   0.0800 
 34 H       -1.0780     1.7640    -2.6370 H     1 <1>   0.0800 
 35 H        0.4950     1.9640    -1.8960 H     1 <1>   0.0800 
 36 H       -0.1890     3.2550    -2.8570 H     1 <1>   0.0800 
 37 H       -6.8670     0.2570     0.2350 H     1 <1>   0.1000 
 38 H       -5.5120    -3.2580     1.5080 H     1 <1>   0.1500 
 39 H       -1.9570    -4.0940    -0.7050 H     1 <1>   0.1500 
 40 H       -6.7000    -0.5880    -2.7260 H     1 <1>   0.1000 
 41 H       -8.1990    -0.3360    -1.7840 H     1 <1>   0.1000 
 42 H       -7.5290     2.0760    -1.3560 H     1 <1>   0.1000 
 43 H       -6.0370     1.8240    -2.3120 H     1 <1>   0.1000 
 44 H       -5.6430    -5.6110     2.1730 H     1 <1>   0.1500 
 45 H       -2.0990    -6.4430    -0.0370 H     1 <1>   0.1500 
 46 H       -3.9390    -7.2110     1.4050 H     1 <1>   0.1500 
@<TRIPOS>BOND
  1   1   2  2   
  2   2   3  am  
  3   2   4  1   
  4   3   5  1   
  5   3   6  1   
  6   4   7  2   
  7   4   8  1   
  8   5   9  1   
  9   5  25  1   
 10   5  26  1   
 11   6  10  1   
 12   6  27  1   
 13   6  28  1   
 14   7  11  1   
 15   7  12  1   
 16   8  13  2   
 17   8  14  1   
 18   9  15  1   
 19   9  16  1   
 20   9  29  1   
 21  10  15  1   
 22  10  17  1   
 23  10  30  1   
 24  11  13  1   
 25  12  31  1   
 26  12  32  1   
 27  12  33  1   
 28  14  34  1   
 29  14  35  1   
 30  14  36  1   
 31  16  18  ar  
 32  16  19  ar  
 33  17  20  1   
 34  17  21  1   
 35  17  37  1   
 36  18  22  ar  
 37  18  38  1   
 38  19  23  ar  
 39  19  39  1   
 40  20  21  1   
 41  20  40  1   
 42  20  41  1   
 43  21  42  1   
 44  21  43  1   
 45  22  24  ar  
 46  22  44  1   
 47  23  24  ar  
 48  23  45  1   
 49  24  46  1   
@<TRIPOS>SUBSTRUCTURE
  1 ****   3 GROUP 4 **** **** 0

# MOE 2024.06 (io_trps.svl 2023.06)
