@<TRIPOS>MOLECULE
NONAME
39 40 1 0 0 
SMALL
USER_CHARGES


@<TRIPOS>ATOM
  1 O        1.8600     0.1360     1.4820 O.2   1 <1>  -0.5700 
  2 C        2.0250    -0.8000     0.7080 C.2   1 <1>   0.6160 
  3 N        2.6150    -0.6030    -0.5300 N.am  1 <1>  -0.4690 
  4 C        1.6130    -2.1090     1.0570 C.2   1 <1>  -0.1360 
  5 C        2.7960    -1.6740    -1.3840 C.2   1 <1>  -0.0410 
  6 C        3.0690     0.7490    -0.9420 C.3   1 <1>   0.1400 
  7 C        1.7680    -3.1780     0.2180 C.2   1 <1>   0.0140 
  8 C        2.3940    -2.9230    -1.0370 C.2   1 <1>  -0.1500 
  9 C        4.5350     0.9390    -0.5560 C.3   1 <1>  -0.2400 
 10 C        1.3480    -4.5250     0.5560 C.2   1 <1>   0.6160 
 11 O        2.0830    -5.4650     0.3090 O.2   1 <1>  -0.5700 
 12 N        0.1230    -4.7850     1.1250 N.am  1 <1>  -0.6600 
 13 C       -0.1460    -6.1100     1.7580 C.3   1 <1>   0.3200 
 14 C       -1.0970    -3.9710     0.8320 C.3   1 <1>   0.1400 
 15 C       -0.6510    -7.0990     0.7220 C.2   1 <1>   0.0060 
 16 C       -1.5480    -4.1580    -0.6220 C.3   1 <1>   0.1200 
 17 N       -1.8480    -7.5950     0.6820 N.2   1 <1>  -0.5650 
 18 N        0.1490    -7.5310    -0.2740 N.pl3 1 <1>   0.0330 
 19 O       -2.7100    -3.4310    -0.8340 O.3   1 <1>  -0.6800 
 20 C       -1.8230    -8.4000    -0.3990 C.2   1 <1>   0.0770 
 21 C       -0.6120    -8.3720    -0.9970 C.2   1 <1>  -0.3020 
 22 H        1.1720    -2.2160     2.0290 H     1 <1>   0.1500 
 23 H        3.2710    -1.4780    -2.3320 H     1 <1>   0.1500 
 24 H        2.4630     1.5010    -0.4650 H     1 <1>   0.0800 
 25 H        2.9520     0.8570    -2.0060 H     1 <1>   0.0800 
 26 H        2.5420    -3.7570    -1.7010 H     1 <1>   0.1500 
 27 H        4.6470     0.8570     0.5110 H     1 <1>   0.0800 
 28 H        4.8660     1.9160    -0.8580 H     1 <1>   0.0800 
 29 H        5.1510     0.2020    -1.0390 H     1 <1>   0.0800 
 30 H       -0.8790    -6.0010     2.5380 H     1 <1>   0.0800 
 31 H        0.7550    -6.4920     2.2060 H     1 <1>   0.0800 
 32 H       -0.8970    -2.9300     1.0070 H     1 <1>   0.0800 
 33 H       -1.8940    -4.2740     1.4890 H     1 <1>   0.0800 
 34 H       -1.7560    -5.1900    -0.8430 H     1 <1>   0.0800 
 35 H       -0.8010    -3.7830    -1.3000 H     1 <1>   0.0800 
 36 H        1.1210    -7.2250    -0.4230 H     1 <1>   0.2700 
 37 H       -3.4800    -3.9000    -0.4530 H     1 <1>   0.4000 
 38 H       -2.6910    -8.9660    -0.6940 H     1 <1>   0.1500 
 39 H       -0.2600    -8.8880    -1.8720 H     1 <1>   0.1500 
@<TRIPOS>BOND
  1   1   2  2   
  2   2   3  am  
  3   2   4  1   
  4   3   5  1   
  5   3   6  1   
  6   4   7  2   
  7   4  22  1   
  8   5   8  2   
  9   5  23  1   
 10   6   9  1   
 11   6  24  1   
 12   6  25  1   
 13   7   8  1   
 14   7  10  1   
 15   8  26  1   
 16   9  27  1   
 17   9  28  1   
 18   9  29  1   
 19  10  11  2   
 20  10  12  am  
 21  12  13  1   
 22  12  14  1   
 23  13  15  1   
 24  13  30  1   
 25  13  31  1   
 26  14  16  1   
 27  14  32  1   
 28  14  33  1   
 29  15  17  2   
 30  15  18  1   
 31  16  19  1   
 32  16  34  1   
 33  16  35  1   
 34  17  20  1   
 35  18  21  1   
 36  18  36  1   
 37  19  37  1   
 38  20  21  2   
 39  20  38  1   
 40  21  39  1   
@<TRIPOS>SUBSTRUCTURE
  1 ****  10 GROUP 4 **** **** 0

# MOE 2024.06 (io_trps.svl 2023.06)
