@<TRIPOS>MOLECULE
NONAME
40 42 1 0 0 
SMALL
USER_CHARGES


@<TRIPOS>ATOM
  1 O       -0.4530     0.8500    -1.2180 O.co2 1 <1>  -0.9000 
  2 C       -0.2580     1.2490    -0.0570 C.2   1 <1>   0.9060 
  3 O        0.7910     1.0060     0.5460 O.co2 1 <1>  -0.9000 
  4 C       -1.4250     1.9310     0.7150 C.3   1 <1>   0.4600 
  5 N       -2.7980     1.3250     0.5110 N.4   1 <1>  -0.8970 
  6 C       -1.5660     3.4340     0.4650 C.ar  1 <1>  -0.1430 
  7 C       -2.8220    -0.1710     0.3670 C.3   1 <1>   0.4720 
  8 C       -3.3170     1.4220    -0.8970 C.3   1 <1>   0.4720 
  9 C       -1.2620     4.0030    -0.7650 C.ar  1 <1>  -0.1500 
 10 C       -2.0290     4.2510     1.4880 C.ar  1 <1>  -0.1500 
 11 C       -3.9030     0.0080    -0.7180 C.3   1 <1>   0.1080 
 12 C       -1.4280     5.3610    -0.9680 C.ar  1 <1>  -0.1500 
 13 C       -2.1970     5.6100     1.2870 C.ar  1 <1>  -0.1500 
 14 C       -5.3310     0.0010    -0.1800 C.ar  1 <1>   0.2020 
 15 C       -1.8990     6.1730     0.0500 C.ar  1 <1>   0.0830 
 16 N       -5.5930     0.7290     0.9020 N.ar  1 <1>  -0.6200 
 17 C       -6.2840    -0.7590    -0.8430 C.ar  1 <1>  -0.1500 
 18 O       -2.0390     7.4920    -0.2340 O.3   1 <1>  -0.3630 
 19 C       -6.8470     0.6960     1.3300 C.ar  1 <1>   0.1600 
 20 C       -7.5840    -0.7840    -0.3850 C.ar  1 <1>  -0.1500 
 21 C       -2.4580     8.4140     0.7470 C.3   1 <1>   0.0400 
 22 C       -7.8620    -0.0310     0.7350 C.ar  1 <1>  -0.1500 
 23 H       -1.1620     1.8060     1.7500 H     1 <1>   0.0800 
 24 H       -3.5330     1.6440     1.1520 H     1 <1>   0.4500 
 25 H       -3.1680    -0.6600     1.2590 H     1 <1>   0.0000 
 26 H       -1.9000    -0.5610    -0.0220 H     1 <1>   0.0000 
 27 H       -2.5310     1.4660    -1.6250 H     1 <1>   0.0000 
 28 H       -4.0560     2.1950    -1.0020 H     1 <1>   0.0000 
 29 H       -0.8890     3.3980    -1.5770 H     1 <1>   0.1500 
 30 H       -2.2630     3.8340     2.4530 H     1 <1>   0.1500 
 31 H       -3.7500    -0.6240    -1.5750 H     1 <1>   0.0000 
 32 H       -1.1900     5.8000    -1.9200 H     1 <1>   0.1500 
 33 H       -2.5570     6.2130     2.0980 H     1 <1>   0.1500 
 34 H       -6.0210    -1.3320    -1.7150 H     1 <1>   0.1500 
 35 H       -7.0820     1.2800     2.2050 H     1 <1>   0.1500 
 36 H       -8.3470    -1.3630    -0.8770 H     1 <1>   0.1500 
 37 H       -2.4740     9.3920     0.2990 H     1 <1>   0.0800 
 38 H       -1.7580     8.3980     1.5630 H     1 <1>   0.0800 
 39 H       -3.4450     8.1470     1.0780 H     1 <1>   0.0800 
 40 H       -8.8570    -0.0070     1.1430 H     1 <1>   0.1500 
@<TRIPOS>BOND
  1   1   2  ar  
  2   2   3  ar  
  3   2   4  1   
  4   4   5  1   
  5   4   6  1   
  6   4  23  1   
  7   5   7  1   
  8   5   8  1   
  9   5  24  1   
 10   6   9  ar  
 11   6  10  ar  
 12   7  11  1   
 13   7  25  1   
 14   7  26  1   
 15   8  11  1   
 16   8  27  1   
 17   8  28  1   
 18   9  12  ar  
 19   9  29  1   
 20  10  13  ar  
 21  10  30  1   
 22  11  14  1   
 23  11  31  1   
 24  12  15  ar  
 25  12  32  1   
 26  13  15  ar  
 27  13  33  1   
 28  14  16  ar  
 29  14  17  ar  
 30  15  18  1   
 31  16  19  ar  
 32  17  20  ar  
 33  17  34  1   
 34  18  21  1   
 35  19  22  ar  
 36  19  35  1   
 37  20  22  ar  
 38  20  36  1   
 39  21  37  1   
 40  21  38  1   
 41  21  39  1   
 42  22  40  1   
@<TRIPOS>SUBSTRUCTURE
  1 ****   5 GROUP 4 **** **** 0

# MOE 2024.06 (io_trps.svl 2023.06)
