@<TRIPOS>MOLECULE
NONAME
54 56 1 0 0 
SMALL
USER_CHARGES


@<TRIPOS>ATOM
  1 O       -2.3190     0.9180    -2.4580 O.2   1 <1>  -0.5700 
  2 C       -2.3230     1.2700    -1.3060 C.2   1 <1>   0.5690 
  3 N       -2.4020     0.3870    -0.2830 N.am  1 <1>  -0.7300 
  4 C       -2.2210     2.7470    -0.9850 C.3   1 <1>  -0.0990 
  5 C       -2.4490    -1.0830    -0.4340 C.3   1 <1>   0.2200 
  6 C       -0.7570     3.1700    -0.7590 C.3   1 <1>  -0.1600 
  7 C       -3.8210    -1.5830    -0.0120 C.3   1 <1>  -0.0800 
  8 C       -1.5530    -1.7210     0.6190 C.3   1 <1>   0.1200 
  9 C       -0.5700     4.6900    -0.5890 C.3   1 <1>  -0.0800 
 10 C       -3.6700    -1.7340     1.5090 C.3   1 <1>   0.1200 
 11 C       -4.1700    -2.9160    -0.7010 C.3   1 <1>  -0.0160 
 12 O       -2.3010    -1.7070     1.7960 O.3   1 <1>  -0.5600 
 13 C        0.9290     5.0280    -0.5550 C.3   1 <1>  -0.1600 
 14 C       -1.2530     5.2260     0.6820 C.3   1 <1>  -0.1600 
 15 C       -5.5490    -3.4110    -0.2930 C.ar  1 <1>  -0.1440 
 16 C        1.1770     6.5170    -0.3110 C.3   1 <1>   0.3430 
 17 C       -0.9560     6.7100     0.9080 C.3   1 <1>   0.3430 
 18 C       -6.7010    -2.8240    -0.7770 C.ar  1 <1>  -0.1500 
 19 C       -5.7240    -4.4680     0.5760 C.ar  1 <1>  -0.1500 
 20 N        0.5170     6.9300     0.9610 N.4   1 <1>  -0.9590 
 21 C       -7.9360    -3.3050    -0.3750 C.ar  1 <1>   0.1600 
 22 C       -7.0050    -4.8720     0.9150 C.ar  1 <1>   0.1600 
 23 C        0.8370     8.3520     1.2910 C.3   1 <1>   0.2630 
 24 N       -8.1160    -4.3140     0.4610 N.ar  1 <1>  -0.6200 
 25 H       -2.4000     0.6990     0.6900 H     1 <1>   0.3700 
 26 H       -2.6350     3.2950    -1.8120 H     1 <1>   0.0800 
 27 H       -2.8180     2.9520    -0.1160 H     1 <1>   0.0800 
 28 H       -2.1760    -1.3710    -1.4370 H     1 <1>   0.0800 
 29 H       -0.1890     2.8450    -1.6160 H     1 <1>   0.0800 
 30 H       -0.3660     2.6500     0.0990 H     1 <1>   0.0800 
 31 H       -4.5840    -0.8640    -0.2520 H     1 <1>   0.0800 
 32 H       -0.6330    -1.1840     0.7650 H     1 <1>   0.0800 
 33 H       -1.3420    -2.7470     0.3730 H     1 <1>   0.0800 
 34 H       -1.0050     5.1800    -1.4460 H     1 <1>   0.0800 
 35 H       -4.0810    -2.6560     1.8810 H     1 <1>   0.0800 
 36 H       -4.1280    -0.9090     2.0250 H     1 <1>   0.0800 
 37 H       -3.4330    -3.6640    -0.4630 H     1 <1>   0.0800 
 38 H       -4.1570    -2.7780    -1.7690 H     1 <1>   0.0800 
 39 H        1.3770     4.7570    -1.4960 H     1 <1>   0.0800 
 40 H        1.4240     4.4570     0.2110 H     1 <1>   0.0800 
 41 H       -0.9320     4.6660     1.5430 H     1 <1>   0.0800 
 42 H       -2.3190     5.1100     0.6000 H     1 <1>   0.0800 
 43 H        0.7770     7.0880    -1.1340 H     1 <1>   0.0800 
 44 H        2.2380     6.7000    -0.2550 H     1 <1>   0.0800 
 45 H       -1.4110     7.0300     1.8330 H     1 <1>   0.0800 
 46 H       -1.3830     7.2880     0.1040 H     1 <1>   0.0800 
 47 H       -6.6500    -1.9980    -1.4630 H     1 <1>   0.1500 
 48 H       -4.8790    -4.9830     0.9960 H     1 <1>   0.1500 
 49 H        0.8900     6.3250     1.7060 H     1 <1>   0.4500 
 50 H       -8.8230    -2.8340    -0.7630 H     1 <1>   0.1500 
 51 H       -7.1220    -5.6980     1.5960 H     1 <1>   0.1500 
 52 H        0.4580     9.0100     0.5250 H     1 <1>   0.0800 
 53 H        1.9030     8.4890     1.3660 H     1 <1>   0.0800 
 54 H        0.3900     8.6270     2.2330 H     1 <1>   0.0800 
@<TRIPOS>BOND
  1   1   2  2   
  2   2   3  am  
  3   2   4  1   
  4   3   5  1   
  5   3  25  1   
  6   4   6  1   
  7   4  26  1   
  8   4  27  1   
  9   5   7  1   
 10   5   8  1   
 11   5  28  1   
 12   6   9  1   
 13   6  29  1   
 14   6  30  1   
 15   7  10  1   
 16   7  11  1   
 17   7  31  1   
 18   8  12  1   
 19   8  32  1   
 20   8  33  1   
 21   9  13  1   
 22   9  14  1   
 23   9  34  1   
 24  10  12  1   
 25  10  35  1   
 26  10  36  1   
 27  11  15  1   
 28  11  37  1   
 29  11  38  1   
 30  13  16  1   
 31  13  39  1   
 32  13  40  1   
 33  14  17  1   
 34  14  41  1   
 35  14  42  1   
 36  15  18  ar  
 37  15  19  ar  
 38  16  20  1   
 39  16  43  1   
 40  16  44  1   
 41  17  20  1   
 42  17  45  1   
 43  17  46  1   
 44  18  21  ar  
 45  18  47  1   
 46  19  22  ar  
 47  19  48  1   
 48  20  23  1   
 49  20  49  1   
 50  21  24  ar  
 51  21  50  1   
 52  22  24  ar  
 53  22  51  1   
 54  23  52  1   
 55  23  53  1   
 56  23  54  1   
@<TRIPOS>SUBSTRUCTURE
  1 ****   3 GROUP 4 **** **** 0

# MOE 2024.06 (io_trps.svl 2023.06)
