@<TRIPOS>MOLECULE
NONAME
47 50 1 0 0 
SMALL
USER_CHARGES


@<TRIPOS>ATOM
  1 CL      -1.0240    -0.8250    -0.1060 Cl    1 <1>  -0.1770 
  2 C        0.5110    -1.6630    -0.1220 C.ar  1 <1>   0.1770 
  3 C        0.7440    -2.7350     0.7370 C.ar  1 <1>  -0.1430 
  4 C        1.4700    -1.2290    -1.0170 C.ar  1 <1>  -0.1500 
  5 C        1.9750    -3.3810     0.6880 C.ar  1 <1>  -0.1500 
  6 C       -0.3140    -3.2250     1.7230 C.3   1 <1>   0.0450 
  7 C        2.6790    -1.8940    -1.0370 C.ar  1 <1>   0.1900 
  8 C        2.9510    -2.9620    -0.2030 C.ar  1 <1>  -0.1500 
  9 C       -1.1930    -4.3110     1.1240 C.2   1 <1>   0.5690 
 10 F        3.5980    -1.5020    -1.8770 F     1 <1>  -0.1900 
 11 O       -1.4540    -5.3030     1.7670 O.2   1 <1>  -0.5700 
 12 N       -1.7370    -4.1640    -0.1180 N.am  1 <1>  -0.6600 
 13 C       -3.0920    -3.5380    -0.2020 C.3   1 <1>   0.1400 
 14 C       -1.5790    -5.2980    -1.0850 C.3   1 <1>   0.1400 
 15 C       -4.2100    -4.5720     0.1120 C.3   1 <1>   0.4230 
 16 C       -2.7940    -6.2580    -1.0630 C.3   1 <1>   0.3430 
 17 N       -3.6800    -5.9900     0.1230 N.4   1 <1>  -0.9590 
 18 C       -5.3990    -4.4320    -0.8650 C.3   1 <1>   0.1200 
 19 C       -4.7830    -6.9740     0.3480 C.3   1 <1>   0.5180 
 20 O       -6.3790    -5.3920    -0.5880 O.3   1 <1>  -0.5600 
 21 C       -4.2100    -8.4050     0.3230 C.3   1 <1>  -0.1950 
 22 C       -5.9450    -6.7260    -0.6460 C.3   1 <1>   0.1200 
 23 C       -4.0530    -9.2470    -0.9110 C.3   1 <1>  -0.2000 
 24 C       -5.0660    -9.6210     0.1340 C.3   1 <1>  -0.2000 
 25 H        1.2850    -0.4010    -1.6750 H     1 <1>   0.1500 
 26 H        2.1830    -4.2120     1.3410 H     1 <1>   0.1500 
 27 H       -0.9350    -2.4140     2.0540 H     1 <1>   0.0800 
 28 H        0.1710    -3.6220     2.5970 H     1 <1>   0.0800 
 29 H        3.9080    -3.4510    -0.2510 H     1 <1>   0.1500 
 30 H       -3.1620    -2.7190     0.4930 H     1 <1>   0.0800 
 31 H       -3.2230    -3.1260    -1.1890 H     1 <1>   0.0800 
 32 H       -1.4380    -4.9090    -2.0790 H     1 <1>   0.0800 
 33 H       -0.6920    -5.8560    -0.8340 H     1 <1>   0.0800 
 34 H       -4.5860    -4.3440     1.0960 H     1 <1>   0.0800 
 35 H       -2.4260    -7.2700    -1.0340 H     1 <1>   0.0800 
 36 H       -3.3580    -6.1410    -1.9730 H     1 <1>   0.0800 
 37 H       -3.0320    -6.0280     0.9370 H     1 <1>   0.4500 
 38 H       -5.0850    -4.5470    -1.8870 H     1 <1>   0.0800 
 39 H       -5.8570    -3.4640    -0.7550 H     1 <1>   0.0800 
 40 H       -5.1840    -6.8120     1.3350 H     1 <1>   0.0800 
 41 H       -3.4560    -8.5130     1.0840 H     1 <1>   0.1000 
 42 H       -6.7860    -7.3460    -0.3910 H     1 <1>   0.0800 
 43 H       -5.6520    -6.9480    -1.6570 H     1 <1>   0.0800 
 44 H       -4.4320    -8.9310    -1.8680 H     1 <1>   0.1000 
 45 H       -3.1840    -9.8760    -1.0110 H     1 <1>   0.1000 
 46 H       -4.8730   -10.4900     0.7410 H     1 <1>   0.1000 
 47 H       -6.1080    -9.5420    -0.1270 H     1 <1>   0.1000 
@<TRIPOS>BOND
  1   1   2  1   
  2   2   3  ar  
  3   2   4  ar  
  4   3   5  ar  
  5   3   6  1   
  6   4   7  ar  
  7   4  25  1   
  8   5   8  ar  
  9   5  26  1   
 10   6   9  1   
 11   6  27  1   
 12   6  28  1   
 13   7   8  ar  
 14   7  10  1   
 15   8  29  1   
 16   9  11  2   
 17   9  12  am  
 18  12  13  1   
 19  12  14  1   
 20  13  15  1   
 21  13  30  1   
 22  13  31  1   
 23  14  16  1   
 24  14  32  1   
 25  14  33  1   
 26  15  17  1   
 27  15  18  1   
 28  15  34  1   
 29  16  17  1   
 30  16  35  1   
 31  16  36  1   
 32  17  19  1   
 33  17  37  1   
 34  18  20  1   
 35  18  38  1   
 36  18  39  1   
 37  19  21  1   
 38  19  22  1   
 39  19  40  1   
 40  20  22  1   
 41  21  23  1   
 42  21  24  1   
 43  21  41  1   
 44  22  42  1   
 45  22  43  1   
 46  23  24  1   
 47  23  44  1   
 48  23  45  1   
 49  24  46  1   
 50  24  47  1   
@<TRIPOS>SUBSTRUCTURE
  1 ****  12 GROUP 4 **** **** 0

# MOE 2024.06 (io_trps.svl 2023.06)
