@<TRIPOS>MOLECULE
NONAME
39 40 1 0 0 
SMALL
USER_CHARGES


@<TRIPOS>ATOM
  1 O        0.5380    -0.0760    -1.4750 O.3   1 <1>  -0.0190 
  2 N        0.8560     1.1070    -1.0480 N.2   1 <1>  -0.4100 
  3 C        1.1370    -0.8890    -0.6410 C.2   1 <1>   0.2980 
  4 C        1.6040     0.9500    -0.0270 C.2   1 <1>   0.3350 
  5 N        1.8220    -0.3220     0.2730 N.2   1 <1>  -0.5650 
  6 C        0.9960    -2.3960    -0.8600 C.3   1 <1>   0.2900 
  7 C        2.2220     2.0540     0.8110 C.3   1 <1>   0.0210 
  8 N       -0.2380    -3.0190    -0.2900 N.3   1 <1>  -0.8100 
  9 C        1.8700     3.4460     0.2860 C.3   1 <1>   0.1200 
 10 C       -0.3240    -4.4860    -0.5530 C.3   1 <1>   0.3340 
 11 C       -1.4510    -2.3310    -0.7850 C.3   1 <1>   0.0300 
 12 O        2.4820     4.3930     1.1030 O.3   1 <1>  -0.5600 
 13 C       -1.5460    -5.1270     0.1250 C.ar  1 <1>   0.1670 
 14 C        0.9300    -5.2200    -0.0590 C.3   1 <1>  -0.2400 
 15 C        2.2320     5.7070     0.7250 C.3   1 <1>   0.0400 
 16 N       -2.2730    -5.9780    -0.5770 N.ar  1 <1>  -0.6200 
 17 C       -1.8680    -4.8250     1.4290 C.ar  1 <1>  -0.1500 
 18 C       -3.3100    -6.5030     0.0570 C.ar  1 <1>   0.4700 
 19 C       -2.9700    -5.4340     1.9790 C.ar  1 <1>   0.1600 
 20 N       -3.7080    -6.2830     1.2990 N.ar  1 <1>  -0.6200 
 21 H        1.8580    -2.8400    -0.3980 H     1 <1>   0.0800 
 22 H        1.0460    -2.5940    -1.9160 H     1 <1>   0.0800 
 23 H        3.2890     1.9320     0.8030 H     1 <1>   0.0800 
 24 H        1.8680     1.9550     1.8200 H     1 <1>   0.0800 
 25 H        0.8040     3.5990     0.3130 H     1 <1>   0.0800 
 26 H        2.2320     3.5700    -0.7210 H     1 <1>   0.0800 
 27 H       -0.4170    -4.6440    -1.6140 H     1 <1>   0.0800 
 28 H       -1.4570    -1.3050    -0.4600 H     1 <1>   0.0800 
 29 H       -2.3440    -2.7870    -0.3950 H     1 <1>   0.0800 
 30 H       -1.4920    -2.3610    -1.8610 H     1 <1>   0.0800 
 31 H        1.1440    -4.9510     0.9600 H     1 <1>   0.0800 
 32 H        1.7780    -5.0100    -0.6820 H     1 <1>   0.0800 
 33 H        0.7600    -6.2810    -0.1000 H     1 <1>   0.0800 
 34 H        2.7440     6.3560     1.4130 H     1 <1>   0.0800 
 35 H        1.1730     5.8950     0.7680 H     1 <1>   0.0800 
 36 H        2.6070     5.8680    -0.2710 H     1 <1>   0.0800 
 37 H       -1.2750    -4.1300     1.9950 H     1 <1>   0.1500 
 38 H       -3.9060    -7.1980    -0.5110 H     1 <1>   0.1500 
 39 H       -3.2510    -5.2190     2.9960 H     1 <1>   0.1500 
@<TRIPOS>BOND
  1   1   2  1   
  2   1   3  1   
  3   2   4  2   
  4   3   5  2   
  5   3   6  1   
  6   4   5  1   
  7   4   7  1   
  8   6   8  1   
  9   6  21  1   
 10   6  22  1   
 11   7   9  1   
 12   7  23  1   
 13   7  24  1   
 14   8  10  1   
 15   8  11  1   
 16   9  12  1   
 17   9  25  1   
 18   9  26  1   
 19  10  13  1   
 20  10  14  1   
 21  10  27  1   
 22  11  28  1   
 23  11  29  1   
 24  11  30  1   
 25  12  15  1   
 26  13  16  ar  
 27  13  17  ar  
 28  14  31  1   
 29  14  32  1   
 30  14  33  1   
 31  15  34  1   
 32  15  35  1   
 33  15  36  1   
 34  16  18  ar  
 35  17  19  ar  
 36  17  37  1   
 37  18  20  ar  
 38  18  38  1   
 39  19  20  ar  
 40  19  39  1   
@<TRIPOS>SUBSTRUCTURE
  1 ****   8 GROUP 4 **** **** 0

# MOE 2024.06 (io_trps.svl 2023.06)
