@<TRIPOS>MOLECULE
NONAME
51 53 1 0 0 
SMALL
USER_CHARGES


@<TRIPOS>ATOM
  1 O       -0.5400     1.1410    -1.1990 O.2   1 <1>  -0.5700 
  2 C       -0.6510     2.3400    -1.0860 C.2   1 <1>   0.5690 
  3 N       -1.4820     2.9420    -0.1790 N.am  1 <1>  -0.5090 
  4 C        0.1570     3.2270    -2.0270 C.3   1 <1>   0.1810 
  5 C       -1.7480     4.4150    -0.2360 C.3   1 <1>   0.3640 
  6 C       -2.2930     2.1850     0.8030 C.3   1 <1>   0.0490 
  7 O        0.4270     4.4780    -1.4500 O.3   1 <1>  -0.5600 
  8 C       -3.1720     4.6610    -0.7460 C.ar  1 <1>  -0.1440 
  9 C       -0.7340     5.2220    -1.0950 C.3   1 <1>   0.2610 
 10 C       -2.1000     2.4760     2.2590 C.3   1 <1>  -0.2000 
 11 C       -1.6350     1.1750     1.6880 C.3   1 <1>  -0.2000 
 12 C       -3.9510     5.6440    -0.1500 C.ar  1 <1>  -0.1500 
 13 C       -3.7100     3.9310    -1.8000 C.ar  1 <1>  -0.1500 
 14 C       -0.3380     6.4970    -0.3410 C.2   1 <1>   0.5690 
 15 C       -5.2370     5.8970    -0.5920 C.ar  1 <1>  -0.1500 
 16 C       -4.9960     4.1810    -2.2440 C.ar  1 <1>  -0.1500 
 17 O       -1.2060     7.2610     0.0100 O.2   1 <1>  -0.5700 
 18 N        0.9810     6.7130    -0.0810 N.am  1 <1>  -0.7300 
 19 C       -5.7690     5.1630    -1.6470 C.ar  1 <1>   0.0830 
 20 C        1.6340     7.8150     0.6250 C.3   1 <1>   0.3000 
 21 O       -7.0170     5.3460    -2.1440 O.3   1 <1>  -0.3620 
 22 C        1.1340     7.8670     2.0690 C.3   1 <1>  -0.2400 
 23 C        1.3610     9.1290    -0.1070 C.3   1 <1>  -0.2400 
 24 C        3.1320     7.5160     0.6090 C.3   1 <1>  -0.2400 
 25 C       -7.8740     6.3380    -1.6220 C.3   1 <1>   0.0400 
 26 H       -0.3790     3.3750    -2.9460 H     1 <1>   0.0800 
 27 H        1.0980     2.7540    -2.2410 H     1 <1>   0.0800 
 28 H       -1.6890     4.7840     0.7730 H     1 <1>   0.0800 
 29 H       -3.2890     1.9780     0.4450 H     1 <1>   0.1000 
 30 H       -1.2080     5.5250    -2.0110 H     1 <1>   0.0800 
 31 H       -1.3510     3.1810     2.5710 H     1 <1>   0.1000 
 32 H       -2.9590     2.4660     2.9070 H     1 <1>   0.1000 
 33 H       -2.1790     0.2790     1.9320 H     1 <1>   0.1000 
 34 H       -0.5810     0.9970     1.5650 H     1 <1>   0.1000 
 35 H       -3.5560     6.2300     0.6650 H     1 <1>   0.1500 
 36 H       -3.1390     3.1580    -2.2830 H     1 <1>   0.1500 
 37 H       -5.8040     6.6680    -0.1070 H     1 <1>   0.1500 
 38 H       -5.4120     3.6140    -3.0570 H     1 <1>   0.1500 
 39 H        1.6250     6.0030    -0.4390 H     1 <1>   0.3700 
 40 H        1.6620     8.6260     2.6160 H     1 <1>   0.0800 
 41 H        1.2920     6.9220     2.5560 H     1 <1>   0.0800 
 42 H        0.0870     8.1060     2.0990 H     1 <1>   0.0800 
 43 H        1.8950     9.9340     0.3640 H     1 <1>   0.0800 
 44 H        0.3130     9.3660    -0.0820 H     1 <1>   0.0800 
 45 H        1.6800     9.0620    -1.1320 H     1 <1>   0.0800 
 46 H        3.6690     8.2970     1.1180 H     1 <1>   0.0800 
 47 H        3.4960     7.4640    -0.4010 H     1 <1>   0.0800 
 48 H        3.3380     6.5870     1.1100 H     1 <1>   0.0800 
 49 H       -8.7970     6.3050    -2.1720 H     1 <1>   0.0800 
 50 H       -7.4080     7.3000    -1.7440 H     1 <1>   0.0800 
 51 H       -8.0590     6.1270    -0.5840 H     1 <1>   0.0800 
@<TRIPOS>BOND
  1   1   2  2   
  2   2   3  am  
  3   2   4  1   
  4   3   5  1   
  5   3   6  1   
  6   4   7  1   
  7   4  26  1   
  8   4  27  1   
  9   5   8  1   
 10   5   9  1   
 11   5  28  1   
 12   6  10  1   
 13   6  11  1   
 14   6  29  1   
 15   7   9  1   
 16   8  12  ar  
 17   8  13  ar  
 18   9  14  1   
 19   9  30  1   
 20  10  11  1   
 21  10  31  1   
 22  10  32  1   
 23  11  33  1   
 24  11  34  1   
 25  12  15  ar  
 26  12  35  1   
 27  13  16  ar  
 28  13  36  1   
 29  14  17  2   
 30  14  18  am  
 31  15  19  ar  
 32  15  37  1   
 33  16  19  ar  
 34  16  38  1   
 35  18  20  1   
 36  18  39  1   
 37  19  21  1   
 38  20  22  1   
 39  20  23  1   
 40  20  24  1   
 41  21  25  1   
 42  22  40  1   
 43  22  41  1   
 44  22  42  1   
 45  23  43  1   
 46  23  44  1   
 47  23  45  1   
 48  24  46  1   
 49  24  47  1   
 50  24  48  1   
 51  25  49  1   
 52  25  50  1   
 53  25  51  1   
@<TRIPOS>SUBSTRUCTURE
  1 ****   5 GROUP 4 **** **** 0

# MOE 2024.06 (io_trps.svl 2023.06)
