@<TRIPOS>MOLECULE
NONAME
53 55 1 0 0 
SMALL
USER_CHARGES


@<TRIPOS>ATOM
  1 O       -0.7950     1.1310     1.8480 O.3   1 <1>  -0.5600 
  2 C        0.0240     1.1130     0.7300 C.3   1 <1>   0.1200 
  3 C       -2.1270     1.1380     1.4220 C.3   1 <1>   0.1200 
  4 C       -0.6410     2.1520    -0.1660 C.3   1 <1>   0.4230 
  5 C       -2.1090     1.7640     0.0140 C.3   1 <1>  -0.0800 
  6 N       -0.4440     3.4960     0.4570 N.4   1 <1>  -0.9060 
  7 C       -2.5790     0.7700    -1.0680 C.3   1 <1>  -0.0170 
  8 C        0.9100     4.0880     0.3510 C.3   1 <1>   0.4230 
  9 C       -4.0400     0.4030    -0.8680 C.ar  1 <1>  -0.1440 
 10 C        1.0210     5.2370     1.3530 C.3   1 <1>  -0.1600 
 11 C        1.1650     4.5940    -1.0710 C.3   1 <1>  -0.1600 
 12 C       -5.0630     1.2560    -1.2320 C.ar  1 <1>  -0.1500 
 13 C       -4.4230    -0.8040    -0.3150 C.ar  1 <1>  -0.1500 
 14 C        2.3760     5.9370     1.2400 C.3   1 <1>   0.3430 
 15 C        2.5180     5.3060    -1.1650 C.3   1 <1>   0.3430 
 16 C       -6.3790     0.8780    -1.0200 C.ar  1 <1>   0.1600 
 17 C       -5.7690    -1.0840    -0.1460 C.ar  1 <1>   0.1600 
 18 N        2.5940     6.4070    -0.1610 N.4   1 <1>  -0.9590 
 19 N       -6.7540    -0.2690    -0.4810 N.ar  1 <1>  -0.6200 
 20 C        3.9040     7.1160    -0.2970 C.3   1 <1>   0.3430 
 21 C        3.8540     8.4790     0.3980 C.3   1 <1>  -0.1600 
 22 C        5.1520     9.2580     0.1580 C.3   1 <1>  -0.2400 
 23 H        1.0340     1.3500     1.0140 H     1 <1>   0.0800 
 24 H       -0.0080     0.1260     0.2980 H     1 <1>   0.0800 
 25 H       -2.4830     0.1210     1.4200 H     1 <1>   0.0800 
 26 H       -2.7100     1.7140     2.1220 H     1 <1>   0.0800 
 27 H       -0.3130     2.1190    -1.1920 H     1 <1>   0.0800 
 28 H       -2.7570     2.6230    -0.0220 H     1 <1>   0.0800 
 29 H       -1.1680     4.1440     0.1270 H     1 <1>   0.4500 
 30 H       -0.6490     3.3110     1.4550 H     1 <1>   0.4500 
 31 H       -1.9830    -0.1260    -1.0500 H     1 <1>   0.0800 
 32 H       -2.4710     1.2100    -2.0450 H     1 <1>   0.0800 
 33 H        1.6500     3.3420     0.6010 H     1 <1>   0.0800 
 34 H        0.2420     5.9620     1.1940 H     1 <1>   0.0800 
 35 H        0.9250     4.8540     2.3540 H     1 <1>   0.0800 
 36 H        1.1770     3.7690    -1.7600 H     1 <1>   0.0800 
 37 H        0.3930     5.2780    -1.3770 H     1 <1>   0.0800 
 38 H       -4.8610     2.2100    -1.6820 H     1 <1>   0.1500 
 39 H       -3.6960    -1.5360    -0.0140 H     1 <1>   0.1500 
 40 H        3.1650     5.2570     1.5230 H     1 <1>   0.0800 
 41 H        2.4020     6.7740     1.9210 H     1 <1>   0.0800 
 42 H        2.6450     5.7080    -2.1590 H     1 <1>   0.0800 
 43 H        3.3150     4.6000    -0.9890 H     1 <1>   0.0800 
 44 H       -7.1660     1.5540    -1.3100 H     1 <1>   0.1500 
 45 H       -6.0510    -2.0290     0.2880 H     1 <1>   0.1500 
 46 H        1.8760     7.1130    -0.3900 H     1 <1>   0.4500 
 47 H        4.7010     6.5210     0.1210 H     1 <1>   0.0800 
 48 H        4.1230     7.2770    -1.3420 H     1 <1>   0.0800 
 49 H        3.0340     9.0600     0.0110 H     1 <1>   0.0800 
 50 H        3.7270     8.3610     1.4590 H     1 <1>   0.0800 
 51 H        5.3090     9.4310    -0.8930 H     1 <1>   0.0800 
 52 H        6.0000     8.7250     0.5520 H     1 <1>   0.0800 
 53 H        5.1020    10.2150     0.6500 H     1 <1>   0.0800 
@<TRIPOS>BOND
  1   1   2  1   
  2   1   3  1   
  3   2   4  1   
  4   2  23  1   
  5   2  24  1   
  6   3   5  1   
  7   3  25  1   
  8   3  26  1   
  9   4   5  1   
 10   4   6  1   
 11   4  27  1   
 12   5   7  1   
 13   5  28  1   
 14   6   8  1   
 15   6  29  1   
 16   6  30  1   
 17   7   9  1   
 18   7  31  1   
 19   7  32  1   
 20   8  10  1   
 21   8  11  1   
 22   8  33  1   
 23   9  12  ar  
 24   9  13  ar  
 25  10  14  1   
 26  10  34  1   
 27  10  35  1   
 28  11  15  1   
 29  11  36  1   
 30  11  37  1   
 31  12  16  ar  
 32  12  38  1   
 33  13  17  ar  
 34  13  39  1   
 35  14  18  1   
 36  14  40  1   
 37  14  41  1   
 38  15  18  1   
 39  15  42  1   
 40  15  43  1   
 41  16  19  ar  
 42  16  44  1   
 43  17  19  ar  
 44  17  45  1   
 45  18  20  1   
 46  18  46  1   
 47  20  21  1   
 48  20  47  1   
 49  20  48  1   
 50  21  22  1   
 51  21  49  1   
 52  21  50  1   
 53  22  51  1   
 54  22  52  1   
 55  22  53  1   
@<TRIPOS>SUBSTRUCTURE
  1 ****   6 GROUP 4 **** **** 0

# MOE 2024.06 (io_trps.svl 2023.06)
