@<TRIPOS>MOLECULE
NONAME
51 54 1 0 0 
SMALL
USER_CHARGES


@<TRIPOS>ATOM
  1 O        0.4260     0.8560    -0.4370 O.2   1 <1>  -0.5700 
  2 C        0.1920     2.0330    -0.2950 C.2   1 <1>   0.5690 
  3 N       -1.0560     2.5010     0.0190 N.am  1 <1>  -0.6600 
  4 C        1.3390     3.0190    -0.5110 C.3   1 <1>   0.1810 
  5 C       -1.3270     3.9710     0.1820 C.3   1 <1>   0.3640 
  6 C       -2.1960     1.5830     0.3130 C.3   1 <1>   0.0600 
  7 O        1.1190     4.2640     0.1020 O.3   1 <1>  -0.5600 
  8 C       -2.5700     4.3340    -0.6500 C.ar  1 <1>  -0.1430 
  9 C       -0.1200     4.8650    -0.2300 C.3   1 <1>   0.2610 
 10 C       -3.7430     4.8360    -0.0830 C.ar  1 <1>  -0.1430 
 11 C       -2.5220     4.1370    -2.0270 C.ar  1 <1>  -0.1500 
 12 C       -0.1910     6.2830     0.3690 C.2   1 <1>   0.5690 
 13 C       -4.8150     5.1580    -0.9030 C.ar  1 <1>  -0.1500 
 14 C       -3.9170     5.0440     1.4160 C.3   1 <1>  -0.0960 
 15 C       -3.5970     4.4570    -2.8340 C.ar  1 <1>  -0.1500 
 16 O       -0.9520     6.4910     1.2880 O.2   1 <1>  -0.5700 
 17 N        0.5970     7.2990    -0.1240 N.am  1 <1>  -0.6600 
 18 C       -4.7460     4.9740    -2.2710 C.ar  1 <1>  -0.1500 
 19 C        0.5630     8.6560     0.5120 C.3   1 <1>   0.3210 
 20 C        1.6390     7.1370    -1.1900 C.3   1 <1>   0.1400 
 21 C        1.9690     9.2080     0.6900 C.2   1 <1>  -0.1810 
 22 C        3.0390     7.2990    -0.5920 C.3   1 <1>   0.0210 
 23 C        3.1050     8.5930     0.1820 C.2   1 <1>   0.1080 
 24 C        2.4290    10.3160     1.3140 C.2   1 <1>  -0.3320 
 25 N        4.1910     9.2460     0.4460 N.2   1 <1>  -0.7070 
 26 N        3.7720    10.3130     1.1530 N.pl3 1 <1>   0.3000 
 27 C        1.6720    11.3950     2.0670 C.3   1 <1>  -0.0600 
 28 H        1.4850     3.1750    -1.5630 H     1 <1>   0.0800 
 29 H        2.2400     2.6070    -0.0930 H     1 <1>   0.0800 
 30 H       -1.5140     4.1380     1.2260 H     1 <1>   0.0800 
 31 H       -2.6380     1.8390     1.2590 H     1 <1>   0.0800 
 32 H       -1.8610     0.5610     0.3560 H     1 <1>   0.0800 
 33 H       -2.9420     1.6670    -0.4590 H     1 <1>   0.0800 
 34 H       -0.1390     4.9750    -1.2960 H     1 <1>   0.0800 
 35 H       -1.6430     3.7200    -2.4850 H     1 <1>   0.1500 
 36 H       -5.7210     5.5560    -0.4790 H     1 <1>   0.1500 
 37 H       -4.9490     5.2200     1.6610 H     1 <1>   0.0800 
 38 H       -3.3510     5.8950     1.7440 H     1 <1>   0.0800 
 39 H       -3.5990     4.1750     1.9620 H     1 <1>   0.0800 
 40 H       -3.5420     4.3010    -3.8970 H     1 <1>   0.1500 
 41 H       -5.5860     5.2290    -2.8930 H     1 <1>   0.1500 
 42 H       -0.0020     9.3210    -0.1170 H     1 <1>   0.0800 
 43 H        0.0850     8.6160     1.4750 H     1 <1>   0.0800 
 44 H        1.5720     6.1810    -1.6730 H     1 <1>   0.0800 
 45 H        1.4870     7.8970    -1.9380 H     1 <1>   0.0800 
 46 H        3.7760     7.3100    -1.3740 H     1 <1>   0.0800 
 47 H        3.2530     6.4790     0.0690 H     1 <1>   0.0800 
 48 H        4.4250    11.0190     1.5120 H     1 <1>   0.2700 
 49 H        0.6180    11.1830     2.0680 H     1 <1>   0.0800 
 50 H        1.8280    12.3520     1.6020 H     1 <1>   0.0800 
 51 H        2.0110    11.4410     3.0870 H     1 <1>   0.0800 
@<TRIPOS>BOND
  1   1   2  2   
  2   2   3  am  
  3   2   4  1   
  4   3   5  1   
  5   3   6  1   
  6   4   7  1   
  7   4  28  1   
  8   4  29  1   
  9   5   8  1   
 10   5   9  1   
 11   5  30  1   
 12   6  31  1   
 13   6  32  1   
 14   6  33  1   
 15   7   9  1   
 16   8  10  ar  
 17   8  11  ar  
 18   9  12  1   
 19   9  34  1   
 20  10  13  ar  
 21  10  14  1   
 22  11  15  ar  
 23  11  35  1   
 24  12  16  2   
 25  12  17  am  
 26  13  18  ar  
 27  13  36  1   
 28  14  37  1   
 29  14  38  1   
 30  14  39  1   
 31  15  18  ar  
 32  15  40  1   
 33  17  19  1   
 34  17  20  1   
 35  18  41  1   
 36  19  21  1   
 37  19  42  1   
 38  19  43  1   
 39  20  22  1   
 40  20  44  1   
 41  20  45  1   
 42  21  23  1   
 43  21  24  2   
 44  22  23  1   
 45  22  46  1   
 46  22  47  1   
 47  23  25  2   
 48  24  26  1   
 49  24  27  1   
 50  25  26  1   
 51  26  48  1   
 52  27  49  1   
 53  27  50  1   
 54  27  51  1   
@<TRIPOS>SUBSTRUCTURE
  1 ****  12 GROUP 4 **** **** 0

# MOE 2024.06 (io_trps.svl 2023.06)
