@<TRIPOS>MOLECULE
NONAME
41 42 1 0 0 
SMALL
USER_CHARGES


@<TRIPOS>ATOM
  1 F        0.5000     1.6350     1.2300 F     1 <1>  -0.1900 
  2 C        1.6030     2.1950     0.8130 C.ar  1 <1>   0.1900 
  3 C        2.8000     1.5320     1.0020 C.ar  1 <1>  -0.1500 
  4 C        1.5330     3.4310     0.1990 C.ar  1 <1>  -0.1500 
  5 C        3.9660     2.1330     0.5580 C.ar  1 <1>  -0.1500 
  6 C        2.7070     4.0200    -0.2410 C.ar  1 <1>  -0.1500 
  7 C        3.9260     3.3750    -0.0640 C.ar  1 <1>  -0.1430 
  8 C        5.2150     4.0250    -0.5530 C.3   1 <1>   0.2540 
  9 N        6.2170     4.1140     0.5280 N.3   1 <1>  -0.8100 
 10 C        7.5410     4.5370    -0.0100 C.3   1 <1>   0.1710 
 11 C        5.7620     4.9750     1.6310 C.3   1 <1>   0.0300 
 12 C        7.5850     5.9200    -0.6780 C.2   1 <1>   0.5690 
 13 O        7.3880     6.0100    -1.8670 O.2   1 <1>  -0.5700 
 14 N        7.8450     7.0160     0.0790 N.am  1 <1>  -0.7300 
 15 C        8.0180     8.3940    -0.4520 C.3   1 <1>   0.2810 
 16 C        8.4220     9.4050     0.6140 C.2   1 <1>   0.5690 
 17 C        6.6880     8.9630    -0.9730 C.3   1 <1>  -0.1600 
 18 O        9.2880     9.2010     1.4350 O.2   1 <1>  -0.5700 
 19 N        7.6610    10.5240     0.5300 N.am  1 <1>  -0.6600 
 20 C        6.6430    10.4330    -0.5300 C.3   1 <1>   0.1400 
 21 C        7.7770    11.7300     1.3850 C.3   1 <1>   0.0600 
 22 H        2.8180     0.5720     1.4860 H     1 <1>   0.1500 
 23 H        0.5820     3.9140     0.0710 H     1 <1>   0.1500 
 24 H        4.9140     1.6410     0.6980 H     1 <1>   0.1500 
 25 H        2.6680     4.9820    -0.7210 H     1 <1>   0.1500 
 26 H        5.0090     5.0070    -0.9430 H     1 <1>   0.0800 
 27 H        5.6110     3.4280    -1.3570 H     1 <1>   0.0800 
 28 H        7.8620     3.8120    -0.7370 H     1 <1>   0.0800 
 29 H        8.2600     4.5190     0.7880 H     1 <1>   0.0800 
 30 H        4.8790     4.5570     2.0830 H     1 <1>   0.0800 
 31 H        5.5340     5.9640     1.2740 H     1 <1>   0.0800 
 32 H        6.5250     5.0370     2.3880 H     1 <1>   0.0800 
 33 H        8.0980     6.9220     1.0660 H     1 <1>   0.3700 
 34 H        8.7610     8.3980    -1.2300 H     1 <1>   0.0800 
 35 H        5.8610     8.4420    -0.5240 H     1 <1>   0.0800 
 36 H        6.6180     8.8730    -2.0420 H     1 <1>   0.0800 
 37 H        5.6710    10.6980    -0.1500 H     1 <1>   0.0800 
 38 H        6.9120    11.0890    -1.3410 H     1 <1>   0.0800 
 39 H        8.5800    11.6040     2.0910 H     1 <1>   0.0800 
 40 H        6.8590    11.8830     1.9250 H     1 <1>   0.0800 
 41 H        7.9820    12.5910     0.7740 H     1 <1>   0.0800 
@<TRIPOS>BOND
  1   1   2  1   
  2   2   3  ar  
  3   2   4  ar  
  4   3   5  ar  
  5   3  22  1   
  6   4   6  ar  
  7   4  23  1   
  8   5   7  ar  
  9   5  24  1   
 10   6   7  ar  
 11   6  25  1   
 12   7   8  1   
 13   8   9  1   
 14   8  26  1   
 15   8  27  1   
 16   9  10  1   
 17   9  11  1   
 18  10  12  1   
 19  10  28  1   
 20  10  29  1   
 21  11  30  1   
 22  11  31  1   
 23  11  32  1   
 24  12  13  2   
 25  12  14  am  
 26  14  15  1   
 27  14  33  1   
 28  15  16  1   
 29  15  17  1   
 30  15  34  1   
 31  16  18  2   
 32  16  19  am  
 33  17  20  1   
 34  17  35  1   
 35  17  36  1   
 36  19  20  1   
 37  19  21  1   
 38  20  37  1   
 39  20  38  1   
 40  21  39  1   
 41  21  40  1   
 42  21  41  1   
@<TRIPOS>SUBSTRUCTURE
  1 ****  11 GROUP 4 **** **** 0

# MOE 2024.06 (io_trps.svl 2023.06)
