@<TRIPOS>MOLECULE
NONAME
41 42 1 0 0 
SMALL
USER_CHARGES


@<TRIPOS>ATOM
  1 F       -0.0380    -4.0590    -3.7270 F     1 <1>  -0.3400 
  2 C       -0.3640    -4.9630    -2.8130 C.3   1 <1>   1.1640 
  3 F        0.7720    -5.4800    -2.3660 F     1 <1>  -0.3400 
  4 F       -0.9890    -5.9410    -3.4600 F     1 <1>  -0.3400 
  5 C       -1.2270    -4.4010    -1.6710 C.ar  1 <1>  -0.1440 
  6 C       -1.9010    -5.2700    -0.8200 C.ar  1 <1>  -0.1500 
  7 C       -1.3530    -3.0320    -1.4570 C.ar  1 <1>  -0.1500 
  8 C       -2.7020    -4.7950     0.2090 C.ar  1 <1>  -0.1440 
  9 C       -2.1330    -2.5510    -0.4220 C.ar  1 <1>  -0.1500 
 10 C       -2.8040    -3.4270     0.4110 C.ar  1 <1>  -0.1500 
 11 C       -3.4480    -5.7780     1.1010 C.3   1 <1>   0.4870 
 12 N       -4.8490    -5.9770     0.6240 N.4   1 <1>  -0.9590 
 13 C       -4.8850    -6.4840    -0.7790 C.3   1 <1>   0.5240 
 14 C       -5.7100    -4.7780     0.8430 C.3   1 <1>   0.3430 
 15 C       -4.3740    -7.9170    -0.7490 C.2   1 <1>   0.0460 
 16 C       -7.2090    -5.0920     0.7330 C.3   1 <1>   0.1200 
 17 N       -4.6780    -8.7130     0.2990 N.2   1 <1>  -0.5650 
 18 C       -3.6030    -8.5720    -1.6440 C.2   1 <1>  -0.3020 
 19 O       -7.8950    -3.9070     0.9240 O.3   1 <1>  -0.6800 
 20 C       -4.1000    -9.8350     0.0150 C.2   1 <1>   0.0060 
 21 N       -3.4270    -9.8140    -1.1570 N.pl3 1 <1>   0.0330 
 22 C       -4.1630   -11.0660     0.8950 C.3   1 <1>  -0.0600 
 23 H       -1.7930    -6.3340    -0.9660 H     1 <1>   0.1500 
 24 H       -0.8410    -2.3260    -2.0930 H     1 <1>   0.1500 
 25 H       -2.2140    -1.4870    -0.2640 H     1 <1>   0.1500 
 26 H       -3.3970    -3.0240     1.2140 H     1 <1>   0.1500 
 27 H       -3.4520    -5.4130     2.1150 H     1 <1>   0.0800 
 28 H       -2.9290    -6.7240     1.0940 H     1 <1>   0.0800 
 29 H       -5.2030    -6.7910     1.1570 H     1 <1>   0.4500 
 30 H       -4.2880    -5.8740    -1.4360 H     1 <1>   0.0800 
 31 H       -5.8970    -6.4970    -1.1420 H     1 <1>   0.0800 
 32 H       -5.4580    -4.0160     0.1230 H     1 <1>   0.0800 
 33 H       -5.5280    -4.3830     1.8290 H     1 <1>   0.0800 
 34 H       -7.5160    -5.7840     1.4990 H     1 <1>   0.0800 
 35 H       -7.4690    -5.4680    -0.2400 H     1 <1>   0.0800 
 36 H       -3.1790    -8.2470    -2.5800 H     1 <1>   0.1500 
 37 H       -8.8670    -4.0420     0.8920 H     1 <1>   0.4000 
 38 H       -2.9050   -10.5890    -1.5800 H     1 <1>   0.2700 
 39 H       -4.7520   -10.8620     1.7720 H     1 <1>   0.0800 
 40 H       -3.1750   -11.3530     1.2050 H     1 <1>   0.0800 
 41 H       -4.6180   -11.8800     0.3610 H     1 <1>   0.0800 
@<TRIPOS>BOND
  1   1   2  1   
  2   2   3  1   
  3   2   4  1   
  4   2   5  1   
  5   5   6  ar  
  6   5   7  ar  
  7   6   8  ar  
  8   6  23  1   
  9   7   9  ar  
 10   7  24  1   
 11   8  10  ar  
 12   8  11  1   
 13   9  10  ar  
 14   9  25  1   
 15  10  26  1   
 16  11  12  1   
 17  11  27  1   
 18  11  28  1   
 19  12  13  1   
 20  12  14  1   
 21  12  29  1   
 22  13  15  1   
 23  13  30  1   
 24  13  31  1   
 25  14  16  1   
 26  14  32  1   
 27  14  33  1   
 28  15  17  1   
 29  15  18  2   
 30  16  19  1   
 31  16  34  1   
 32  16  35  1   
 33  17  20  2   
 34  18  21  1   
 35  18  36  1   
 36  19  37  1   
 37  20  21  1   
 38  20  22  1   
 39  21  38  1   
 40  22  39  1   
 41  22  40  1   
 42  22  41  1   
@<TRIPOS>SUBSTRUCTURE
  1 ****   6 GROUP 4 **** **** 0

# MOE 2024.06 (io_trps.svl 2023.06)
