@<TRIPOS>MOLECULE
NONAME
56 60 1 0 0 
SMALL
USER_CHARGES


@<TRIPOS>ATOM
  1 O       -1.7620     1.9890    -1.0100 O.2   1 <1>  -0.5700 
  2 C       -2.9010     1.9000    -0.6350 C.2   1 <1>   0.4230 
  3 C       -3.4930     0.6380    -0.2890 C.ar  1 <1>   0.0860 
  4 C       -3.7100     3.1820    -0.6150 C.3   1 <1>  -0.1790 
  5 C       -4.3500     0.3840     0.7820 C.ar  1 <1>   0.1660 
  6 C       -3.2050    -0.4680    -1.0750 C.ar  1 <1>   0.1600 
  7 N       -4.8850    -0.7940     0.9870 N.ar  1 <1>  -0.6200 
  8 C       -4.7130     1.4390     1.8160 C.3   1 <1>  -0.0960 
  9 N       -3.7200    -1.6570    -0.8810 N.ar  1 <1>  -0.6200 
 10 C       -4.5480    -1.7550     0.1470 C.ar  1 <1>   0.7200 
 11 N       -5.1370    -2.9370     0.3990 N.pl3 1 <1>  -0.8690 
 12 C       -5.2780    -4.0560    -0.5770 C.3   1 <1>   0.2890 
 13 C       -6.3740    -5.0480    -0.1240 C.3   1 <1>   0.1430 
 14 C       -3.9530    -4.8160    -0.7150 C.3   1 <1>  -0.0800 
 15 C       -7.7720    -4.4100     0.0380 C.ar  1 <1>  -0.1440 
 16 C       -5.9340    -5.6420     1.2390 C.3   1 <1>   0.3430 
 17 C       -6.4900    -6.1440    -1.1980 C.3   1 <1>   0.1100 
 18 C       -3.5090    -5.3020     0.6630 C.3   1 <1>   0.3430 
 19 C       -4.0850    -5.9460    -1.7460 C.3   1 <1>   0.1100 
 20 C       -8.7770    -5.1190     0.6930 C.ar  1 <1>  -0.1500 
 21 C       -8.0880    -3.1500    -0.4640 C.ar  1 <1>  -0.1500 
 22 N       -4.5240    -6.1840     1.3290 N.4   1 <1>  -0.9590 
 23 N       -5.2130    -6.8360    -1.4430 N.3   1 <1>  -0.8100 
 24 C      -10.0390    -4.5790     0.8640 C.ar  1 <1>  -0.1500 
 25 C       -9.3490    -2.6090    -0.2920 C.ar  1 <1>  -0.1500 
 26 C       -4.3920    -7.6110     0.8750 C.3   1 <1>   0.3430 
 27 C       -4.9270    -7.9590    -0.5330 C.3   1 <1>   0.1100 
 28 C      -10.3260    -3.3200     0.3750 C.ar  1 <1>  -0.1500 
 29 H       -4.7620     2.9750    -0.6650 H     1 <1>   0.0800 
 30 H       -3.4420     3.7830    -1.4650 H     1 <1>   0.0800 
 31 H       -3.4890     3.7400     0.2760 H     1 <1>   0.0800 
 32 H       -2.5220    -0.3440    -1.9000 H     1 <1>   0.1500 
 33 H       -3.8770     2.0820     2.0180 H     1 <1>   0.0800 
 34 H       -4.9920     0.9660     2.7410 H     1 <1>   0.0800 
 35 H       -5.5470     2.0220     1.4730 H     1 <1>   0.0800 
 36 H       -5.9530    -2.7890     0.9970 H     1 <1>   0.4000 
 37 H       -5.5380    -3.6500    -1.5410 H     1 <1>   0.0800 
 38 H       -3.1970    -4.1500    -1.0850 H     1 <1>   0.0800 
 39 H       -6.6250    -6.4170     1.5200 H     1 <1>   0.0800 
 40 H       -6.0330    -4.8510     1.9640 H     1 <1>   0.0800 
 41 H       -6.8110    -5.6890    -2.1210 H     1 <1>   0.0800 
 42 H       -7.2450    -6.8610    -0.9260 H     1 <1>   0.0800 
 43 H       -3.3460    -4.4300     1.2780 H     1 <1>   0.0800 
 44 H       -2.5680    -5.8200     0.5770 H     1 <1>   0.0800 
 45 H       -3.1710    -6.5140    -1.8100 H     1 <1>   0.0800 
 46 H       -4.2550    -5.5080    -2.7170 H     1 <1>   0.0800 
 47 H       -8.6110    -6.1090     1.0770 H     1 <1>   0.1500 
 48 H       -7.3740    -2.5510    -1.0020 H     1 <1>   0.1500 
 49 H       -4.2790    -6.1800     2.3280 H     1 <1>   0.4500 
 50 H      -10.8030    -5.1380     1.3760 H     1 <1>   0.1500 
 51 H       -9.5730    -1.6300    -0.6820 H     1 <1>   0.1500 
 52 H       -4.8950    -8.2530     1.5790 H     1 <1>   0.0800 
 53 H       -3.3510    -7.8870     0.9040 H     1 <1>   0.0800 
 54 H       -4.2090    -8.6040    -1.0100 H     1 <1>   0.0800 
 55 H       -5.8210    -8.5480    -0.4230 H     1 <1>   0.0800 
 56 H      -11.3080    -2.8980     0.5090 H     1 <1>   0.1500 
@<TRIPOS>BOND
  1   1   2  2   
  2   2   3  1   
  3   2   4  1   
  4   3   5  ar  
  5   3   6  ar  
  6   4  29  1   
  7   4  30  1   
  8   4  31  1   
  9   5   7  ar  
 10   5   8  1   
 11   6   9  ar  
 12   6  32  1   
 13   7  10  ar  
 14   8  33  1   
 15   8  34  1   
 16   8  35  1   
 17   9  10  ar  
 18  10  11  1   
 19  11  12  1   
 20  11  36  1   
 21  12  13  1   
 22  12  14  1   
 23  12  37  1   
 24  13  15  1   
 25  13  16  1   
 26  13  17  1   
 27  14  18  1   
 28  14  19  1   
 29  14  38  1   
 30  15  20  ar  
 31  15  21  ar  
 32  16  22  1   
 33  16  39  1   
 34  16  40  1   
 35  17  23  1   
 36  17  41  1   
 37  17  42  1   
 38  18  22  1   
 39  18  43  1   
 40  18  44  1   
 41  19  23  1   
 42  19  45  1   
 43  19  46  1   
 44  20  24  ar  
 45  20  47  1   
 46  21  25  ar  
 47  21  48  1   
 48  22  26  1   
 49  22  49  1   
 50  23  27  1   
 51  24  28  ar  
 52  24  50  1   
 53  25  28  ar  
 54  25  51  1   
 55  26  27  1   
 56  26  52  1   
 57  26  53  1   
 58  27  54  1   
 59  27  55  1   
 60  28  56  1   
@<TRIPOS>SUBSTRUCTURE
  1 ****  11 GROUP 4 **** **** 0

# MOE 2024.06 (io_trps.svl 2023.06)
