@<TRIPOS>MOLECULE
NONAME
50 52 1 0 0 
SMALL
USER_CHARGES


@<TRIPOS>ATOM
  1 O       -1.0350     0.4940    -1.7090 O.co2 1 <1>  -0.9000 
  2 C       -1.3960     0.8370    -0.5770 C.2   1 <1>   0.9060 
  3 O       -2.1080     0.0950     0.1190 O.co2 1 <1>  -0.9000 
  4 C       -0.9590     2.1860     0.0030 C.3   1 <1>  -0.1060 
  5 C       -2.2140     2.8680     0.5830 C.3   1 <1>   0.2000 
  6 C       -0.4750     3.0910    -1.1560 C.3   1 <1>   0.1100 
  7 C        0.1200     1.9050     1.0990 C.3   1 <1>  -0.0170 
  8 O       -2.6710     2.1530     1.6760 O.3   1 <1>  -0.6800 
  9 C       -2.0140     4.3350     0.9950 C.3   1 <1>  -0.1600 
 10 N       -0.3850     4.5500    -0.8630 N.3   1 <1>  -0.8100 
 11 C        1.5700     1.8730     0.6170 C.ar  1 <1>  -0.1440 
 12 C       -0.6860     4.9370     0.5220 C.3   1 <1>   0.1100 
 13 C        0.9270     5.0740    -1.3120 C.3   1 <1>   0.2900 
 14 C        1.9920     0.9050    -0.2820 C.ar  1 <1>  -0.1500 
 15 C        2.4840     2.8090     1.0780 C.ar  1 <1>  -0.1500 
 16 C        1.0640     6.5900    -1.2030 C.2   1 <1>   0.2980 
 17 C        3.3040     0.8810    -0.7230 C.ar  1 <1>  -0.1500 
 18 C        3.7960     2.7870     0.6380 C.ar  1 <1>  -0.1500 
 19 O        0.2740     7.3450    -1.9250 O.3   1 <1>  -0.0190 
 20 N        1.8950     7.2170    -0.4650 N.2   1 <1>  -0.5650 
 21 C        4.2080     1.8220    -0.2640 C.ar  1 <1>  -0.1500 
 22 N        0.6310     8.5560    -1.6200 N.2   1 <1>  -0.4100 
 23 C        1.5750     8.4680    -0.7680 C.2   1 <1>   0.3350 
 24 C        2.3070     9.6410    -0.1110 C.3   1 <1>   0.1010 
 25 C        1.7130     9.9410     1.2720 C.3   1 <1>  -0.2400 
 26 C        2.2860    10.9100    -0.9790 C.3   1 <1>  -0.2400 
 27 H       -2.9920     2.8270    -0.1620 H     1 <1>   0.0800 
 28 H       -1.1780     2.9860    -1.9660 H     1 <1>   0.0800 
 29 H        0.4590     2.7120    -1.5360 H     1 <1>   0.0800 
 30 H        0.0340     2.6230     1.8900 H     1 <1>   0.0800 
 31 H       -0.0950     0.9570     1.5630 H     1 <1>   0.0800 
 32 H       -2.6650     1.1970     1.3750 H     1 <1>   0.4000 
 33 H       -2.8130     4.9140     0.5690 H     1 <1>   0.0800 
 34 H       -2.0730     4.4360     2.0640 H     1 <1>   0.0800 
 35 H        0.1150     4.6250     1.1660 H     1 <1>   0.0800 
 36 H       -0.7560     6.0090     0.5920 H     1 <1>   0.0800 
 37 H        1.7100     4.6150    -0.7370 H     1 <1>   0.0800 
 38 H        1.0750     4.8030    -2.3420 H     1 <1>   0.0800 
 39 H        1.2940     0.1680    -0.6480 H     1 <1>   0.1500 
 40 H        2.1750     3.5620     1.7810 H     1 <1>   0.1500 
 41 H        3.6120     0.1260    -1.4240 H     1 <1>   0.1500 
 42 H        4.4950     3.5200     1.0000 H     1 <1>   0.1500 
 43 H        5.2260     1.8030    -0.6080 H     1 <1>   0.1500 
 44 H        3.3330     9.3460     0.0170 H     1 <1>   0.0800 
 45 H        0.6790    10.2260     1.1780 H     1 <1>   0.0800 
 46 H        2.2530    10.7380     1.7500 H     1 <1>   0.0800 
 47 H        1.7710     9.0650     1.8920 H     1 <1>   0.0800 
 48 H        1.2760    11.2550    -1.1160 H     1 <1>   0.0800 
 49 H        2.7080    10.6990    -1.9460 H     1 <1>   0.0800 
 50 H        2.8600    11.6920    -0.5160 H     1 <1>   0.0800 
@<TRIPOS>BOND
  1   1   2  ar  
  2   2   3  ar  
  3   2   4  1   
  4   4   5  1   
  5   4   6  1   
  6   4   7  1   
  7   5   8  1   
  8   5   9  1   
  9   5  27  1   
 10   6  10  1   
 11   6  28  1   
 12   6  29  1   
 13   7  11  1   
 14   7  30  1   
 15   7  31  1   
 16   8  32  1   
 17   9  12  1   
 18   9  33  1   
 19   9  34  1   
 20  10  12  1   
 21  10  13  1   
 22  11  14  ar  
 23  11  15  ar  
 24  12  35  1   
 25  12  36  1   
 26  13  16  1   
 27  13  37  1   
 28  13  38  1   
 29  14  17  ar  
 30  14  39  1   
 31  15  18  ar  
 32  15  40  1   
 33  16  19  1   
 34  16  20  2   
 35  17  21  ar  
 36  17  41  1   
 37  18  21  ar  
 38  18  42  1   
 39  19  22  1   
 40  20  23  1   
 41  21  43  1   
 42  22  23  2   
 43  23  24  1   
 44  24  25  1   
 45  24  26  1   
 46  24  44  1   
 47  25  45  1   
 48  25  46  1   
 49  25  47  1   
 50  26  48  1   
 51  26  49  1   
 52  26  50  1   
@<TRIPOS>SUBSTRUCTURE
  1 ****  10 GROUP 4 **** **** 0

# MOE 2024.06 (io_trps.svl 2023.06)
