@<TRIPOS>MOLECULE
NONAME
52 54 1 0 0 
SMALL
USER_CHARGES


@<TRIPOS>ATOM
  1 O       -0.3320     0.7370     0.9520 O.2   1 <1>  -0.5700 
  2 C       -1.1680     1.1910     0.1950 C.2   1 <1>   0.5440 
  3 N       -2.1040     0.3400    -0.3550 N.am  1 <1>  -0.6600 
  4 C       -1.1650     2.6130    -0.0920 C.ar  1 <1>   0.0860 
  5 C       -1.9910    -1.1470    -0.2390 C.3   1 <1>   0.1400 
  6 C       -3.4240     0.7850    -0.8960 C.3   1 <1>   0.1400 
  7 C       -1.2300     3.1010    -1.3970 C.ar  1 <1>  -0.1500 
  8 C       -1.0970     3.5530     0.9330 C.ar  1 <1>  -0.1500 
  9 C       -3.2260    -1.7310     0.4650 C.3   1 <1>   0.1200 
 10 C       -4.5770     0.0840    -0.1560 C.3   1 <1>   0.1200 
 11 C       -1.2480     4.4580    -1.6570 C.ar  1 <1>  -0.1500 
 12 C       -1.1150     4.9110     0.6730 C.ar  1 <1>  -0.1500 
 13 O       -4.4020    -1.3040    -0.1670 O.3   1 <1>  -0.5600 
 14 C       -1.1930     5.4030    -0.6320 C.ar  1 <1>   0.0860 
 15 C       -1.2200     6.8260    -0.9250 C.2   1 <1>   0.5440 
 16 O       -1.6660     7.2370    -1.9780 O.2   1 <1>  -0.5700 
 17 N       -0.7410     7.7330    -0.0300 N.am  1 <1>  -0.7300 
 18 C       -0.5850     9.1780    -0.2650 C.3   1 <1>   0.3640 
 19 C        0.7820     9.6160     0.2800 C.ar  1 <1>   0.1670 
 20 C       -1.7490     9.9050     0.4270 C.3   1 <1>  -0.1600 
 21 N        1.1510     9.1500     1.4740 N.ar  1 <1>  -0.6200 
 22 C        1.5690    10.4620    -0.4890 C.ar  1 <1>  -0.1500 
 23 C       -1.7430    11.4230     0.1860 C.3   1 <1>  -0.2400 
 24 C        2.3350     9.5540     1.9040 C.ar  1 <1>   0.1600 
 25 C        2.8020    10.8730    -0.0290 C.ar  1 <1>  -0.1430 
 26 C        3.1820    10.3980     1.2080 C.ar  1 <1>  -0.1500 
 27 C        3.6880    11.8000    -0.8410 C.3   1 <1>  -0.0970 
 28 H       -1.1070    -1.4230     0.3090 H     1 <1>   0.0800 
 29 H       -1.9130    -1.5720    -1.2230 H     1 <1>   0.0800 
 30 H       -3.4780     0.5430    -1.9430 H     1 <1>   0.0800 
 31 H       -3.5440     1.8470    -0.7890 H     1 <1>   0.0800 
 32 H       -1.2630     2.4010    -2.2130 H     1 <1>   0.1500 
 33 H       -1.0280     3.2010     1.9490 H     1 <1>   0.1500 
 34 H       -3.2540    -1.4230     1.4960 H     1 <1>   0.0800 
 35 H       -3.2030    -2.8050     0.4250 H     1 <1>   0.0800 
 36 H       -5.5140     0.3000    -0.6380 H     1 <1>   0.0800 
 37 H       -4.6280     0.4160     0.8660 H     1 <1>   0.0800 
 38 H       -1.3040     4.8040    -2.6760 H     1 <1>   0.1500 
 39 H       -1.0720     5.5980     1.4990 H     1 <1>   0.1500 
 40 H       -0.1760     7.4390     0.7720 H     1 <1>   0.3700 
 41 H       -0.6280     9.3730    -1.3230 H     1 <1>   0.0800 
 42 H       -1.7020     9.7180     1.4850 H     1 <1>   0.0800 
 43 H       -2.6730     9.5020     0.0510 H     1 <1>   0.0800 
 44 H        1.2160    10.8000    -1.4470 H     1 <1>   0.1500 
 45 H       -0.8580    11.8700     0.6050 H     1 <1>   0.0800 
 46 H       -2.6010    11.8690     0.6550 H     1 <1>   0.0800 
 47 H       -1.7790    11.6370    -0.8680 H     1 <1>   0.0800 
 48 H        2.6500     9.1930     2.8680 H     1 <1>   0.1500 
 49 H        4.1280    10.6760     1.6360 H     1 <1>   0.1500 
 50 H        3.5870    11.5900    -1.8900 H     1 <1>   0.0800 
 51 H        4.7200    11.6720    -0.5670 H     1 <1>   0.0800 
 52 H        3.4070    12.8220    -0.6620 H     1 <1>   0.0800 
@<TRIPOS>BOND
  1   1   2  2   
  2   2   3  am  
  3   2   4  1   
  4   3   5  1   
  5   3   6  1   
  6   4   7  ar  
  7   4   8  ar  
  8   5   9  1   
  9   5  28  1   
 10   5  29  1   
 11   6  10  1   
 12   6  30  1   
 13   6  31  1   
 14   7  11  ar  
 15   7  32  1   
 16   8  12  ar  
 17   8  33  1   
 18   9  13  1   
 19   9  34  1   
 20   9  35  1   
 21  10  13  1   
 22  10  36  1   
 23  10  37  1   
 24  11  14  ar  
 25  11  38  1   
 26  12  14  ar  
 27  12  39  1   
 28  14  15  1   
 29  15  16  2   
 30  15  17  am  
 31  17  18  1   
 32  17  40  1   
 33  18  19  1   
 34  18  20  1   
 35  18  41  1   
 36  19  21  ar  
 37  19  22  ar  
 38  20  23  1   
 39  20  42  1   
 40  20  43  1   
 41  21  24  ar  
 42  22  25  ar  
 43  22  44  1   
 44  23  45  1   
 45  23  46  1   
 46  23  47  1   
 47  24  26  ar  
 48  24  48  1   
 49  25  26  ar  
 50  25  27  1   
 51  26  49  1   
 52  27  50  1   
 53  27  51  1   
 54  27  52  1   
@<TRIPOS>SUBSTRUCTURE
  1 ****  14 GROUP 4 **** **** 0

# MOE 2024.06 (io_trps.svl 2023.06)
