@<TRIPOS>MOLECULE
NONAME
45 47 1 0 0 
SMALL
USER_CHARGES


@<TRIPOS>ATOM
  1 CL       0.9990    -4.9790     3.7080 Cl    1 <1>  -0.1770 
  2 C        0.1000    -5.0950     2.2160 C.ar  1 <1>   0.1770 
  3 C       -1.1400    -4.4930     2.1240 C.ar  1 <1>  -0.1500 
  4 C        0.6430    -5.7870     1.1510 C.ar  1 <1>  -0.1500 
  5 C       -1.8630    -4.5860     0.9440 C.ar  1 <1>  -0.1440 
  6 C       -0.0730    -5.8820    -0.0290 C.ar  1 <1>  -0.1500 
  7 C       -1.3320    -5.2910    -0.1360 C.ar  1 <1>   0.0830 
  8 C       -3.2260    -3.9120     0.8460 C.3   1 <1>  -0.0960 
  9 O       -2.0930    -5.3710    -1.2610 O.3   1 <1>  -0.3630 
 10 C       -1.7600    -6.2130    -2.3600 C.3   1 <1>   0.1810 
 11 C       -1.7160    -7.7030    -2.0100 C.2   1 <1>   0.5690 
 12 O       -0.7240    -8.3130    -2.3370 O.2   1 <1>  -0.5700 
 13 N       -2.7550    -8.3350    -1.3750 N.am  1 <1>  -0.6600 
 14 C       -3.9700    -7.6890    -0.8150 C.3   1 <1>   0.1400 
 15 C       -2.6990    -9.7620    -0.9780 C.3   1 <1>   0.1400 
 16 C       -4.6870    -8.7910    -0.0340 C.3   1 <1>   0.2000 
 17 C       -3.6360    -9.8690     0.2250 C.3   1 <1>  -0.0800 
 18 O       -5.1790    -8.3180     1.1730 O.3   1 <1>  -0.6800 
 19 C       -4.2530   -11.2630     0.4240 C.3   1 <1>  -0.0170 
 20 C       -3.1910   -12.3170     0.6920 C.ar  1 <1>   0.1670 
 21 N       -2.6140   -12.8570    -0.3700 N.ar  1 <1>  -0.6200 
 22 C       -2.8670   -12.6630     2.0030 C.ar  1 <1>   0.1600 
 23 C       -1.7010   -13.7540    -0.0370 C.ar  1 <1>   0.1600 
 24 N       -1.9550   -13.5600     2.3380 N.ar  1 <1>  -0.6200 
 25 C       -1.3820   -14.0940     1.2720 C.ar  1 <1>   0.1600 
 26 H       -1.5250    -3.9570     2.9730 H     1 <1>   0.1500 
 27 H        1.6120    -6.2430     1.2470 H     1 <1>   0.1500 
 28 H        0.3710    -6.4200    -0.8470 H     1 <1>   0.1500 
 29 H       -3.4420    -3.3410     1.7300 H     1 <1>   0.0800 
 30 H       -3.9950    -4.6520     0.7190 H     1 <1>   0.0800 
 31 H       -3.2430    -3.2480     0.0000 H     1 <1>   0.0800 
 32 H       -2.5030    -6.0570    -3.1190 H     1 <1>   0.0800 
 33 H       -0.8090    -5.8970    -2.7470 H     1 <1>   0.0800 
 34 H       -3.6840    -6.8930    -0.1530 H     1 <1>   0.0800 
 35 H       -4.5930    -7.3130    -1.6070 H     1 <1>   0.0800 
 36 H       -3.0500   -10.3690    -1.7960 H     1 <1>   0.0800 
 37 H       -1.6950   -10.0590    -0.7240 H     1 <1>   0.0800 
 38 H       -5.5110    -9.1730    -0.6120 H     1 <1>   0.0800 
 39 H       -3.0600    -9.6060     1.0950 H     1 <1>   0.0800 
 40 H       -4.4520    -7.9470     1.7110 H     1 <1>   0.4000 
 41 H       -4.8140   -11.5470    -0.4490 H     1 <1>   0.0800 
 42 H       -4.9410   -11.2300     1.2510 H     1 <1>   0.0800 
 43 H       -3.3850   -12.1760     2.8100 H     1 <1>   0.1500 
 44 H       -1.1790   -14.2450    -0.8390 H     1 <1>   0.1500 
 45 H       -0.6240   -14.8370     1.4420 H     1 <1>   0.1500 
@<TRIPOS>BOND
  1   1   2  1   
  2   2   3  ar  
  3   2   4  ar  
  4   3   5  ar  
  5   3  26  1   
  6   4   6  ar  
  7   4  27  1   
  8   5   7  ar  
  9   5   8  1   
 10   6   7  ar  
 11   6  28  1   
 12   7   9  1   
 13   8  29  1   
 14   8  30  1   
 15   8  31  1   
 16   9  10  1   
 17  10  11  1   
 18  10  32  1   
 19  10  33  1   
 20  11  12  2   
 21  11  13  am  
 22  13  14  1   
 23  13  15  1   
 24  14  16  1   
 25  14  34  1   
 26  14  35  1   
 27  15  17  1   
 28  15  36  1   
 29  15  37  1   
 30  16  17  1   
 31  16  18  1   
 32  16  38  1   
 33  17  19  1   
 34  17  39  1   
 35  18  40  1   
 36  19  20  1   
 37  19  41  1   
 38  19  42  1   
 39  20  21  ar  
 40  20  22  ar  
 41  21  23  ar  
 42  22  24  ar  
 43  22  43  1   
 44  23  25  ar  
 45  23  44  1   
 46  24  25  ar  
 47  25  45  1   
@<TRIPOS>SUBSTRUCTURE
  1 ****  13 GROUP 4 **** **** 0

# MOE 2024.06 (io_trps.svl 2023.06)
