@<TRIPOS>MOLECULE
NONAME
40 43 1 0 0 
SMALL
USER_CHARGES


@<TRIPOS>ATOM
  1 S       -0.6750     0.7490    -1.5630 S.3   1 <1>  -0.0800 
  2 C       -0.3180     2.0310    -0.4250 C.2   1 <1>  -0.1400 
  3 C        0.8700     1.0020    -2.3620 C.2   1 <1>  -0.1100 
  4 C        0.8840     2.5780    -0.6480 C.2   1 <1>  -0.1810 
  5 C       -1.2760     2.4470     0.6580 C.3   1 <1>   0.0200 
  6 C        1.5660     1.9910    -1.7670 C.2   1 <1>  -0.1500 
  7 C        1.4140     3.7090     0.2370 C.3   1 <1>   0.4610 
  8 C       -0.8380     3.8380     1.1430 C.3   1 <1>   0.1200 
  9 O        0.5540     3.8890     1.3500 O.3   1 <1>  -0.5600 
 10 C        2.7810     3.3320     0.8180 C.3   1 <1>  -0.1600 
 11 C        1.5030     5.0250    -0.5490 C.3   1 <1>  -0.1600 
 12 C        3.3740     4.4750     1.6380 C.3   1 <1>   0.2090 
 13 C        2.1160     6.1420     0.2920 C.3   1 <1>   0.2090 
 14 N        3.4460     5.6870     0.7770 N.pl3 1 <1>  -0.8380 
 15 C        4.6360     6.2460     0.3530 C.ar  1 <1>   0.7200 
 16 N        4.5700     7.4280    -0.2600 N.ar  1 <1>  -0.6200 
 17 N        5.7520     5.5550     0.5850 N.ar  1 <1>  -0.6200 
 18 C        5.7000     7.9530    -0.6590 C.ar  1 <1>   0.1660 
 19 C        6.8700     6.1000     0.1750 C.ar  1 <1>   0.1600 
 20 C        6.9010     7.3150    -0.4610 C.ar  1 <1>  -0.1500 
 21 C        5.6260     9.2970    -1.3500 C.3   1 <1>  -0.0970 
 22 H        1.0970     0.3750    -3.2050 H     1 <1>   0.1500 
 23 H       -1.2430     1.7410     1.4680 H     1 <1>   0.0800 
 24 H       -2.2800     2.4930     0.2760 H     1 <1>   0.0800 
 25 H        2.5380     2.3360    -2.0700 H     1 <1>   0.1500 
 26 H       -1.3180     4.0740     2.0760 H     1 <1>   0.0800 
 27 H       -1.1030     4.5880     0.4200 H     1 <1>   0.0800 
 28 H        3.4670     3.1010     0.0240 H     1 <1>   0.0800 
 29 H        2.6790     2.4550     1.4290 H     1 <1>   0.0800 
 30 H        0.5340     5.3160    -0.9040 H     1 <1>   0.0800 
 31 H        2.1260     4.8780    -1.4120 H     1 <1>   0.0800 
 32 H        4.3430     4.1950     2.0130 H     1 <1>   0.0800 
 33 H        2.7450     4.6840     2.4870 H     1 <1>   0.0800 
 34 H        1.4870     6.3580     1.1390 H     1 <1>   0.0800 
 35 H        2.1910     7.0370    -0.3000 H     1 <1>   0.0800 
 36 H        7.7860     5.5620     0.3520 H     1 <1>   0.1500 
 37 H        7.8280     7.7440    -0.7880 H     1 <1>   0.1500 
 38 H        5.0150     9.2150    -2.2300 H     1 <1>   0.0800 
 39 H        6.6030     9.6420    -1.6340 H     1 <1>   0.0800 
 40 H        5.1820    10.0170    -0.6870 H     1 <1>   0.0800 
@<TRIPOS>BOND
  1   1   2  1   
  2   1   3  1   
  3   2   4  2   
  4   2   5  1   
  5   3   6  2   
  6   3  22  1   
  7   4   6  1   
  8   4   7  1   
  9   5   8  1   
 10   5  23  1   
 11   5  24  1   
 12   6  25  1   
 13   7   9  1   
 14   7  10  1   
 15   7  11  1   
 16   8   9  1   
 17   8  26  1   
 18   8  27  1   
 19  10  12  1   
 20  10  28  1   
 21  10  29  1   
 22  11  13  1   
 23  11  30  1   
 24  11  31  1   
 25  12  14  1   
 26  12  32  1   
 27  12  33  1   
 28  13  14  1   
 29  13  34  1   
 30  13  35  1   
 31  14  15  1   
 32  15  16  ar  
 33  15  17  ar  
 34  16  18  ar  
 35  17  19  ar  
 36  18  20  ar  
 37  18  21  1   
 38  19  20  ar  
 39  19  36  1   
 40  20  37  1   
 41  21  38  1   
 42  21  39  1   
 43  21  40  1   
@<TRIPOS>SUBSTRUCTURE
  1 ****  11 GROUP 4 **** **** 0

# MOE 2024.06 (io_trps.svl 2023.06)
