@<TRIPOS>MOLECULE
NONAME
42 43 1 0 0 
SMALL
USER_CHARGES


@<TRIPOS>ATOM
  1 S       -0.1500    -0.6000    -0.5740 S.3   1 <1>  -0.0800 
  2 C       -1.7030    -0.9030     0.1380 C.2   1 <1>   0.4420 
  3 C       -0.4450     1.0840    -0.3180 C.2   1 <1>   0.1980 
  4 N       -2.2900     0.1840     0.4900 N.2   1 <1>  -0.3380 
  5 N       -2.0950    -2.2160     0.2330 N.am  1 <1>  -0.4940 
  6 N       -1.5680     1.3120     0.2270 N.2   1 <1>  -0.3380 
  7 C        0.6080     2.0810    -0.7450 C.3   1 <1>   0.0200 
  8 C       -3.2360    -2.7800     0.7340 C.2   1 <1>   0.7160 
  9 C        0.1260     3.4910    -0.3830 C.3   1 <1>   0.3430 
 10 O       -4.1240    -2.0930     1.2010 O.2   1 <1>  -0.5700 
 11 C       -3.3230    -4.2260     0.6760 C.2   1 <1>   0.2030 
 12 N        1.1290     4.5590    -0.7070 N.4   1 <1>  -0.9590 
 13 N       -2.3830    -5.0130     0.1780 N.2   1 <1>  -0.7070 
 14 C       -4.4020    -4.9890     1.1330 C.2   1 <1>  -0.1500 
 15 C        0.7040     5.8500    -0.0790 C.3   1 <1>   0.2630 
 16 C        1.3120     4.7480    -2.1830 C.3   1 <1>   0.2630 
 17 N       -2.8520    -6.2660     0.3130 N.pl3 1 <1>   0.3140 
 18 C       -4.0720    -6.2710     0.8890 C.2   1 <1>  -0.3020 
 19 C       -2.0720    -7.4540    -0.1360 C.3   1 <1>   0.1760 
 20 C       -2.8260    -8.2170    -1.2350 C.3   1 <1>  -0.2400 
 21 C       -1.7480    -8.3740     1.0490 C.3   1 <1>  -0.2400 
 22 H       -1.4550    -2.9290    -0.1180 H     1 <1>   0.3700 
 23 H        0.7540     1.9880    -1.8050 H     1 <1>   0.0800 
 24 H        1.5240     1.8570    -0.2310 H     1 <1>   0.0800 
 25 H       -0.0860     3.5090     0.6750 H     1 <1>   0.0800 
 26 H       -0.8010     3.6900    -0.8980 H     1 <1>   0.0800 
 27 H        2.0370     4.2960    -0.2910 H     1 <1>   0.4500 
 28 H       -5.2950    -4.5880     1.5820 H     1 <1>   0.1500 
 29 H       -0.2460     6.1670    -0.4790 H     1 <1>   0.0800 
 30 H        1.4330     6.6200    -0.2730 H     1 <1>   0.0800 
 31 H        0.6050     5.7330     0.9890 H     1 <1>   0.0800 
 32 H        0.3750     5.0110    -2.6470 H     1 <1>   0.0800 
 33 H        1.6810     3.8430    -2.6380 H     1 <1>   0.0800 
 34 H        2.0230     5.5360    -2.3740 H     1 <1>   0.0800 
 35 H       -4.6240    -7.1710     1.0880 H     1 <1>   0.1500 
 36 H       -1.1480    -7.0890    -0.5480 H     1 <1>   0.0800 
 37 H       -3.7510    -8.6160    -0.8580 H     1 <1>   0.0800 
 38 H       -2.2250    -9.0320    -1.5950 H     1 <1>   0.0800 
 39 H       -3.0350    -7.5600    -2.0610 H     1 <1>   0.0800 
 40 H       -2.6480    -8.7770     1.4790 H     1 <1>   0.0800 
 41 H       -1.2110    -7.8260     1.8030 H     1 <1>   0.0800 
 42 H       -1.1310    -9.1910     0.7220 H     1 <1>   0.0800 
@<TRIPOS>BOND
  1   1   2  1   
  2   1   3  1   
  3   2   4  2   
  4   2   5  1   
  5   3   6  2   
  6   3   7  1   
  7   4   6  1   
  8   5   8  am  
  9   5  22  1   
 10   7   9  1   
 11   7  23  1   
 12   7  24  1   
 13   8  10  2   
 14   8  11  1   
 15   9  12  1   
 16   9  25  1   
 17   9  26  1   
 18  11  13  2   
 19  11  14  1   
 20  12  15  1   
 21  12  16  1   
 22  12  27  1   
 23  13  17  1   
 24  14  18  2   
 25  14  28  1   
 26  15  29  1   
 27  15  30  1   
 28  15  31  1   
 29  16  32  1   
 30  16  33  1   
 31  16  34  1   
 32  17  18  1   
 33  17  19  1   
 34  18  35  1   
 35  19  20  1   
 36  19  21  1   
 37  19  36  1   
 38  20  37  1   
 39  20  38  1   
 40  20  39  1   
 41  21  40  1   
 42  21  41  1   
 43  21  42  1   
@<TRIPOS>SUBSTRUCTURE
  1 ****   5 GROUP 4 **** **** 0

# MOE 2024.06 (io_trps.svl 2023.06)
