@<TRIPOS>MOLECULE
NONAME
42 44 1 0 0 
SMALL
USER_CHARGES


@<TRIPOS>ATOM
  1 CL      -2.0520     0.7540    -0.2560 Cl    1 <1>  -0.1770 
  2 C       -1.0690     2.1840    -0.0040 C.ar  1 <1>   0.1770 
  3 C        0.1360     2.3300    -0.6700 C.ar  1 <1>   0.1900 
  4 C       -1.5110     3.1780     0.8580 C.ar  1 <1>  -0.1440 
  5 F        0.5420     1.3960    -1.4880 F     1 <1>  -0.1900 
  6 C        0.9250     3.4510    -0.4970 C.ar  1 <1>  -0.1500 
  7 C       -0.7200     4.3080     1.0390 C.ar  1 <1>  -0.1500 
  8 C       -2.8310     3.0280     1.5910 C.3   1 <1>   0.4870 
  9 C        0.4870     4.4430     0.3660 C.ar  1 <1>  -0.1500 
 10 N       -3.9440     3.0680     0.6070 N.4   1 <1>  -0.9590 
 11 C       -5.2410     2.6540     1.2250 C.3   1 <1>   0.3430 
 12 C       -4.0620     4.3900    -0.0730 C.3   1 <1>   0.3430 
 13 C       -6.3240     2.4770     0.1500 C.3   1 <1>   0.0000 
 14 C       -5.1020     4.2980    -1.1900 C.3   1 <1>  -0.1600 
 15 C       -7.6340     2.0420     0.8230 C.3   1 <1>   0.2000 
 16 C       -6.4590     3.7920    -0.6700 C.3   1 <1>  -0.1600 
 17 C       -6.0700     1.2810    -0.7870 C.3   1 <1>  -0.1600 
 18 O       -8.2740     3.1010     1.4330 O.3   1 <1>  -0.6800 
 19 C       -8.4790     1.4340    -0.2890 C.3   1 <1>  -0.1600 
 20 C       -7.4600     0.8430    -1.2760 C.3   1 <1>  -0.1600 
 21 H        1.8590     3.5420    -1.0250 H     1 <1>   0.1500 
 22 H       -1.0270     5.0970     1.7070 H     1 <1>   0.1500 
 23 H       -2.9470     3.8170     2.3160 H     1 <1>   0.0800 
 24 H       -2.8370     2.0840     2.1120 H     1 <1>   0.0800 
 25 H        1.0940     5.3230     0.5150 H     1 <1>   0.1500 
 26 H       -3.7230     2.3710    -0.1180 H     1 <1>   0.4500 
 27 H       -5.1180     1.7240     1.7550 H     1 <1>   0.0800 
 28 H       -5.5700     3.4030     1.9270 H     1 <1>   0.0800 
 29 H       -4.3640     5.1420     0.6380 H     1 <1>   0.0800 
 30 H       -3.1120     4.6800    -0.4940 H     1 <1>   0.0800 
 31 H       -5.2350     5.2750    -1.6210 H     1 <1>   0.0800 
 32 H       -4.7330     3.6590    -1.9720 H     1 <1>   0.0800 
 33 H       -7.4420     1.2900     1.5720 H     1 <1>   0.0800 
 34 H       -7.1340     3.6590    -1.4980 H     1 <1>   0.0800 
 35 H       -6.8780     4.5640    -0.0470 H     1 <1>   0.0800 
 36 H       -5.4220     1.5080    -1.6150 H     1 <1>   0.0800 
 37 H       -5.6350     0.4670    -0.2310 H     1 <1>   0.0800 
 38 H       -9.1890     2.8500     1.6750 H     1 <1>   0.4000 
 39 H       -9.1370     0.6730     0.0930 H     1 <1>   0.0800 
 40 H       -9.0560     2.1970    -0.7840 H     1 <1>   0.0800 
 41 H       -7.5290    -0.2320    -1.3090 H     1 <1>   0.0800 
 42 H       -7.6490     1.2260    -2.2640 H     1 <1>   0.0800 
@<TRIPOS>BOND
  1   1   2  1   
  2   2   3  ar  
  3   2   4  ar  
  4   3   5  1   
  5   3   6  ar  
  6   4   7  ar  
  7   4   8  1   
  8   6   9  ar  
  9   6  21  1   
 10   7   9  ar  
 11   7  22  1   
 12   8  10  1   
 13   8  23  1   
 14   8  24  1   
 15   9  25  1   
 16  10  11  1   
 17  10  12  1   
 18  10  26  1   
 19  11  13  1   
 20  11  27  1   
 21  11  28  1   
 22  12  14  1   
 23  12  29  1   
 24  12  30  1   
 25  13  15  1   
 26  13  16  1   
 27  13  17  1   
 28  14  16  1   
 29  14  31  1   
 30  14  32  1   
 31  15  18  1   
 32  15  19  1   
 33  15  33  1   
 34  16  34  1   
 35  16  35  1   
 36  17  20  1   
 37  17  36  1   
 38  17  37  1   
 39  18  38  1   
 40  19  20  1   
 41  19  39  1   
 42  19  40  1   
 43  20  41  1   
 44  20  42  1   
@<TRIPOS>SUBSTRUCTURE
  1 ****  10 GROUP 4 **** **** 0

# MOE 2024.06 (io_trps.svl 2023.06)
