@<TRIPOS>MOLECULE
NONAME
51 54 1 0 0 
SMALL
USER_CHARGES


@<TRIPOS>ATOM
  1 O        0.2950    -0.1020     1.2750 O.3   1 <1>  -0.5600 
  2 C        0.2610    -1.4890     1.0630 C.3   1 <1>   0.1200 
  3 C        0.9090     0.6050     0.2400 C.3   1 <1>   0.1200 
  4 C        1.6830    -2.0610     0.8780 C.3   1 <1>   0.3340 
  5 C        2.3680     0.1360     0.0770 C.3   1 <1>   0.1900 
  6 N        2.4200    -1.3240    -0.1820 N.3   1 <1>  -0.8100 
  7 C        1.6070    -3.5470     0.5370 C.ar  1 <1>  -0.1430 
  8 C        3.0570     0.9110    -1.0660 C.3   1 <1>   0.3430 
  9 C        3.8160    -1.7930    -0.3190 C.3   1 <1>   0.1100 
 10 C        2.0140    -4.4960     1.4650 C.ar  1 <1>  -0.1500 
 11 C        1.1380    -3.9710    -0.6990 C.ar  1 <1>  -0.1500 
 12 N        4.4600     0.4270    -1.3030 N.4   1 <1>  -0.9590 
 13 C        4.5430    -1.0600    -1.4630 C.3   1 <1>   0.3430 
 14 C        1.9570    -5.8450     1.1600 C.ar  1 <1>  -0.1500 
 15 C        1.0790    -5.3190    -1.0050 C.ar  1 <1>  -0.1500 
 16 C        5.1400     1.1980    -2.3760 C.3   1 <1>   0.5240 
 17 C        1.4900    -6.2570    -0.0750 C.ar  1 <1>  -0.1500 
 18 C        5.6110     2.5090    -1.7540 C.2   1 <1>   0.1080 
 19 N        5.7590     2.6600    -0.4670 N.2   1 <1>  -0.7070 
 20 C        5.9290     3.6650    -2.4560 C.2   1 <1>  -0.1500 
 21 N        6.1920     3.9300    -0.3140 N.pl3 1 <1>   0.3140 
 22 C        6.2950     4.5490    -1.5060 C.2   1 <1>  -0.3020 
 23 C        6.5080     4.5130     1.0080 C.3   1 <1>   0.0960 
 24 C        8.0010     4.3710     1.3310 C.3   1 <1>  -0.2400 
 25 H       -0.2090    -1.9420     1.9180 H     1 <1>   0.0800 
 26 H       -0.3440    -1.6900     0.1960 H     1 <1>   0.0800 
 27 H        0.3460     0.4470    -0.6640 H     1 <1>   0.0800 
 28 H        0.8720     1.6490     0.4980 H     1 <1>   0.0800 
 29 H        2.2030    -1.9440     1.8140 H     1 <1>   0.0800 
 30 H        2.8850     0.3590     0.9950 H     1 <1>   0.0800 
 31 H        3.0740     1.9610    -0.8200 H     1 <1>   0.0800 
 32 H        2.4730     0.7840    -1.9620 H     1 <1>   0.0800 
 33 H        4.3490    -1.6440     0.6050 H     1 <1>   0.0800 
 34 H        3.8270    -2.8480    -0.5370 H     1 <1>   0.0800 
 35 H        2.3780    -4.1940     2.4320 H     1 <1>   0.1500 
 36 H        0.8200    -3.2470    -1.4290 H     1 <1>   0.1500 
 37 H        4.9970     0.7250    -0.4660 H     1 <1>   0.4500 
 38 H        4.0830    -1.3520    -2.3930 H     1 <1>   0.0800 
 39 H        5.5740    -1.3730    -1.4860 H     1 <1>   0.0800 
 40 H        2.2740    -6.5750     1.8840 H     1 <1>   0.1500 
 41 H        0.7130    -5.6400    -1.9650 H     1 <1>   0.1500 
 42 H        6.0010     0.6590    -2.7310 H     1 <1>   0.0800 
 43 H        4.4720     1.3840    -3.2000 H     1 <1>   0.0800 
 44 H        1.4450    -7.3060    -0.3110 H     1 <1>   0.1500 
 45 H        5.8940     3.8150    -3.5220 H     1 <1>   0.1500 
 46 H        6.6230     5.5690    -1.6090 H     1 <1>   0.1500 
 47 H        6.2270     5.5500     1.0010 H     1 <1>   0.0800 
 48 H        5.9220     4.0050     1.7520 H     1 <1>   0.0800 
 49 H        8.5950     4.8890     0.6000 H     1 <1>   0.0800 
 50 H        8.2810     3.3320     1.3470 H     1 <1>   0.0800 
 51 H        8.2060     4.7930     2.2990 H     1 <1>   0.0800 
@<TRIPOS>BOND
  1   1   2  1   
  2   1   3  1   
  3   2   4  1   
  4   2  25  1   
  5   2  26  1   
  6   3   5  1   
  7   3  27  1   
  8   3  28  1   
  9   4   6  1   
 10   4   7  1   
 11   4  29  1   
 12   5   6  1   
 13   5   8  1   
 14   5  30  1   
 15   6   9  1   
 16   7  10  ar  
 17   7  11  ar  
 18   8  12  1   
 19   8  31  1   
 20   8  32  1   
 21   9  13  1   
 22   9  33  1   
 23   9  34  1   
 24  10  14  ar  
 25  10  35  1   
 26  11  15  ar  
 27  11  36  1   
 28  12  13  1   
 29  12  16  1   
 30  12  37  1   
 31  13  38  1   
 32  13  39  1   
 33  14  17  ar  
 34  14  40  1   
 35  15  17  ar  
 36  15  41  1   
 37  16  18  1   
 38  16  42  1   
 39  16  43  1   
 40  17  44  1   
 41  18  19  2   
 42  18  20  1   
 43  19  21  1   
 44  20  22  2   
 45  20  45  1   
 46  21  22  1   
 47  21  23  1   
 48  22  46  1   
 49  23  24  1   
 50  23  47  1   
 51  23  48  1   
 52  24  49  1   
 53  24  50  1   
 54  24  51  1   
@<TRIPOS>SUBSTRUCTURE
  1 ****   5 GROUP 4 **** **** 0

# MOE 2024.06 (io_trps.svl 2023.06)
