@<TRIPOS>MOLECULE
NONAME
37 39 1 0 0 
SMALL
USER_CHARGES


@<TRIPOS>ATOM
  1 CL       0.0540     2.3700    -0.7130 Cl    1 <1>  -0.1770 
  2 C        1.7680     2.3520    -0.3790 C.ar  1 <1>   0.1770 
  3 C        2.4570     3.5450    -0.2250 C.ar  1 <1>   0.1600 
  4 C        2.4250     1.1450    -0.2710 C.ar  1 <1>  -0.1500 
  5 N        3.7610     3.6430     0.0280 N.ar  1 <1>  -0.6200 
  6 C        3.7680     1.2420    -0.0060 C.ar  1 <1>   0.1900 
  7 C        4.4150     2.4850     0.1400 C.ar  1 <1>   0.4100 
  8 F        4.4450     0.1250     0.1180 F     1 <1>  -0.1900 
  9 N        5.7730     2.6160     0.4020 N.pl3 1 <1>  -0.8380 
 10 C        6.2420     3.4090     1.5840 C.3   1 <1>   0.2090 
 11 C        6.7990     1.9240    -0.4280 C.3   1 <1>   0.2090 
 12 C        7.2620     4.5490     1.2810 C.3   1 <1>   0.4230 
 13 C        7.7160     2.9460    -1.1290 C.3   1 <1>  -0.0800 
 14 N        7.1400     5.2300    -0.0730 N.4   1 <1>  -0.9590 
 15 C        8.7180     4.1050     1.5440 C.3   1 <1>   0.1200 
 16 C        9.1300     3.0060    -0.5280 C.3   1 <1>   0.1200 
 17 C        7.0340     4.3170    -1.2650 C.3   1 <1>   0.3430 
 18 C        5.9540     6.1380    -0.0750 C.3   1 <1>   0.2630 
 19 O        9.0830     2.9470     0.8600 O.3   1 <1>  -0.5600 
 20 H        1.8980     4.4600    -0.3170 H     1 <1>   0.1500 
 21 H        1.9200     0.2030    -0.3830 H     1 <1>   0.1500 
 22 H        5.3860     3.8510     2.0640 H     1 <1>   0.0800 
 23 H        6.6730     2.7310     2.3010 H     1 <1>   0.0800 
 24 H        7.3660     1.2430     0.1840 H     1 <1>   0.0800 
 25 H        6.3000     1.3380    -1.1810 H     1 <1>   0.0800 
 26 H        7.0760     5.3040     2.0260 H     1 <1>   0.0800 
 27 H        7.8440     2.5840    -2.1330 H     1 <1>   0.0800 
 28 H        7.9850     5.7970    -0.1990 H     1 <1>   0.4500 
 29 H        8.8290     3.8820     2.5910 H     1 <1>   0.0800 
 30 H        9.4160     4.8870     1.3010 H     1 <1>   0.0800 
 31 H        9.6720     3.8840    -0.8360 H     1 <1>   0.0800 
 32 H        9.6860     2.1410    -0.8480 H     1 <1>   0.0800 
 33 H        5.9910     4.1380    -1.4750 H     1 <1>   0.0800 
 34 H        7.4450     4.8240    -2.1230 H     1 <1>   0.0800 
 35 H        5.0510     5.5710     0.0770 H     1 <1>   0.0800 
 36 H        5.8770     6.6550    -1.0180 H     1 <1>   0.0800 
 37 H        6.0360     6.8690     0.7120 H     1 <1>   0.0800 
@<TRIPOS>BOND
  1   1   2  1   
  2   2   3  ar  
  3   2   4  ar  
  4   3   5  ar  
  5   3  20  1   
  6   4   6  ar  
  7   4  21  1   
  8   5   7  ar  
  9   6   7  ar  
 10   6   8  1   
 11   7   9  1   
 12   9  10  1   
 13   9  11  1   
 14  10  12  1   
 15  10  22  1   
 16  10  23  1   
 17  11  13  1   
 18  11  24  1   
 19  11  25  1   
 20  12  14  1   
 21  12  15  1   
 22  12  26  1   
 23  13  16  1   
 24  13  17  1   
 25  13  27  1   
 26  14  17  1   
 27  14  18  1   
 28  14  28  1   
 29  15  19  1   
 30  15  29  1   
 31  15  30  1   
 32  16  19  1   
 33  16  31  1   
 34  16  32  1   
 35  17  33  1   
 36  17  34  1   
 37  18  35  1   
 38  18  36  1   
 39  18  37  1   
@<TRIPOS>SUBSTRUCTURE
  1 ****   9 GROUP 4 **** **** 0

# MOE 2024.06 (io_trps.svl 2023.06)
