@<TRIPOS>MOLECULE
NONAME
53 55 1 0 0 
SMALL
USER_CHARGES


@<TRIPOS>ATOM
  1 O       -1.1870     0.1190    -1.4810 O.2   1 <1>  -0.5700 
  2 C       -1.4980     0.5600    -0.3920 C.2   1 <1>   0.5440 
  3 N       -1.8540    -0.3320     0.5780 N.am  1 <1>  -0.7300 
  4 C       -1.4990     1.9900    -0.1320 C.ar  1 <1>   0.0860 
  5 C       -1.8460    -1.8080     0.4320 C.3   1 <1>   0.2200 
  6 C       -0.7210     2.8570    -0.8960 C.ar  1 <1>  -0.1500 
  7 C       -2.2720     2.5620     0.8790 C.ar  1 <1>  -0.1500 
  8 C       -3.2570    -2.3540     0.2540 C.3   1 <1>  -0.0800 
  9 C       -1.4770    -2.4290     1.7720 C.3   1 <1>   0.1200 
 10 C       -0.6930     4.2220    -0.6760 C.ar  1 <1>   0.0830 
 11 C       -2.2550     3.9230     1.1250 C.ar  1 <1>  -0.1500 
 12 C       -3.7660    -2.4740     1.6950 C.3   1 <1>   0.1200 
 13 C       -4.1770    -1.5470    -0.6810 C.3   1 <1>  -0.0160 
 14 O       -2.6470    -2.3710     2.5300 O.3   1 <1>  -0.5600 
 15 O        0.1190     4.9210    -1.5190 O.3   1 <1>  -0.3630 
 16 C       -1.4620     4.7760     0.3610 C.ar  1 <1>   0.0830 
 17 C       -5.5190    -2.2410    -0.8520 C.ar  1 <1>  -0.1430 
 18 C       -0.1810     6.2430    -1.9030 C.3   1 <1>   0.1200 
 19 O       -1.4100     6.1120     0.6120 O.3   1 <1>  -0.3630 
 20 C       -5.6850    -3.2880    -1.7360 C.ar  1 <1>  -0.1500 
 21 C       -6.6380    -1.8660    -0.1360 C.ar  1 <1>  -0.1500 
 22 C        0.5710     6.5420    -3.1960 C.3   1 <1>  -0.2400 
 23 C       -2.0670     6.7140     1.7030 C.3   1 <1>   0.1200 
 24 C       -6.9240    -3.8950    -1.8530 C.ar  1 <1>   0.1600 
 25 C       -7.8320    -2.5400    -0.3280 C.ar  1 <1>   0.1600 
 26 C       -1.7290     8.2020     1.6900 C.3   1 <1>  -0.2400 
 27 N       -8.0020    -3.5480    -1.1680 N.ar  1 <1>  -0.6200 
 28 H       -2.0850    -0.0160     1.5210 H     1 <1>   0.3700 
 29 H       -1.1780    -2.1110    -0.3570 H     1 <1>   0.0800 
 30 H       -0.1180     2.4540    -1.6910 H     1 <1>   0.1500 
 31 H       -2.9040     1.9370     1.4840 H     1 <1>   0.1500 
 32 H       -3.1730    -3.3510    -0.1400 H     1 <1>   0.0800 
 33 H       -0.6880    -1.8990     2.2760 H     1 <1>   0.0800 
 34 H       -1.2100    -3.4640     1.6540 H     1 <1>   0.0800 
 35 H       -2.8690     4.3000     1.9200 H     1 <1>   0.1500 
 36 H       -4.2470    -3.4210     1.8690 H     1 <1>   0.0800 
 37 H       -4.4360    -1.6720     1.9500 H     1 <1>   0.0800 
 38 H       -3.7040    -1.4420    -1.6430 H     1 <1>   0.0800 
 39 H       -4.3350    -0.5570    -0.2930 H     1 <1>   0.0800 
 40 H       -1.2440     6.3280    -2.0490 H     1 <1>   0.0800 
 41 H        0.1400     6.9050    -1.1170 H     1 <1>   0.0800 
 42 H       -4.8630    -3.6360    -2.3350 H     1 <1>   0.1500 
 43 H       -6.5940    -1.0560     0.5690 H     1 <1>   0.1500 
 44 H        0.2540     5.8660    -3.9700 H     1 <1>   0.0800 
 45 H        1.6290     6.4380    -3.0380 H     1 <1>   0.0800 
 46 H        0.3660     7.5480    -3.5110 H     1 <1>   0.0800 
 47 H       -3.1270     6.5640     1.5900 H     1 <1>   0.0800 
 48 H       -1.7160     6.2520     2.6100 H     1 <1>   0.0800 
 49 H       -7.0350    -4.7100    -2.5480 H     1 <1>   0.1500 
 50 H       -8.6940    -2.2340     0.2400 H     1 <1>   0.1500 
 51 H       -2.0700     8.6500     0.7740 H     1 <1>   0.0800 
 52 H       -0.6670     8.3400     1.7850 H     1 <1>   0.0800 
 53 H       -2.2140     8.6930     2.5140 H     1 <1>   0.0800 
@<TRIPOS>BOND
  1   1   2  2   
  2   2   3  am  
  3   2   4  1   
  4   3   5  1   
  5   3  28  1   
  6   4   6  ar  
  7   4   7  ar  
  8   5   8  1   
  9   5   9  1   
 10   5  29  1   
 11   6  10  ar  
 12   6  30  1   
 13   7  11  ar  
 14   7  31  1   
 15   8  12  1   
 16   8  13  1   
 17   8  32  1   
 18   9  14  1   
 19   9  33  1   
 20   9  34  1   
 21  10  15  1   
 22  10  16  ar  
 23  11  16  ar  
 24  11  35  1   
 25  12  14  1   
 26  12  36  1   
 27  12  37  1   
 28  13  17  1   
 29  13  38  1   
 30  13  39  1   
 31  15  18  1   
 32  16  19  1   
 33  17  20  ar  
 34  17  21  ar  
 35  18  22  1   
 36  18  40  1   
 37  18  41  1   
 38  19  23  1   
 39  20  24  ar  
 40  20  42  1   
 41  21  25  ar  
 42  21  43  1   
 43  22  44  1   
 44  22  45  1   
 45  22  46  1   
 46  23  26  1   
 47  23  47  1   
 48  23  48  1   
 49  24  27  ar  
 50  24  49  1   
 51  25  27  ar  
 52  25  50  1   
 53  26  51  1   
 54  26  52  1   
 55  26  53  1   
@<TRIPOS>SUBSTRUCTURE
  1 ****   2 GROUP 4 **** **** 0

# MOE 2024.06 (io_trps.svl 2023.06)
