@<TRIPOS>MOLECULE
NONAME
50 52 1 0 0 
SMALL
USER_CHARGES


@<TRIPOS>ATOM
  1 O        0.0030     1.4540     1.8840 O.2   1 <1>  -0.5700 
  2 C       -0.0750     1.8230     0.7290 C.2   1 <1>   0.5440 
  3 N       -1.2810     1.6990     0.1000 N.am  1 <1>  -0.7300 
  4 C        1.0850     2.3420     0.0240 C.ar  1 <1>   0.0860 
  5 C       -2.5450     1.2400     0.7340 C.3   1 <1>   0.2200 
  6 C        0.9640     3.2460    -1.0340 C.ar  1 <1>  -0.1500 
  7 C        2.3750     1.9510     0.3850 C.ar  1 <1>  -0.1500 
  8 C       -2.5960    -0.2960     0.8570 C.3   1 <1>   0.2000 
  9 C       -3.7200     1.7630    -0.0930 C.3   1 <1>  -0.1600 
 10 C        2.0740     3.7240    -1.7070 C.ar  1 <1>  -0.1500 
 11 C        3.4900     2.4250    -0.2820 C.ar  1 <1>  -0.1500 
 12 O       -1.6600    -0.7230     1.7900 O.3   1 <1>  -0.6800 
 13 C       -3.9810    -0.7810     1.3050 C.3   1 <1>   0.1100 
 14 C       -5.0480     1.2490     0.4660 C.3   1 <1>   0.1100 
 15 C        3.3400     3.3120    -1.3330 C.ar  1 <1>  -0.1500 
 16 N       -5.0550    -0.2180     0.4500 N.3   1 <1>  -0.8100 
 17 C       -6.3990    -0.7420     0.8170 C.3   1 <1>   0.2900 
 18 C       -6.5830    -2.2420     0.5930 C.2   1 <1>   0.2980 
 19 O       -6.1610    -3.0700     1.5170 O.3   1 <1>  -0.0190 
 20 N       -7.1480    -2.7890    -0.4110 N.2   1 <1>  -0.5650 
 21 N       -6.4680    -4.2420     1.0540 N.2   1 <1>  -0.4100 
 22 C       -7.0380    -4.0650    -0.0720 C.2   1 <1>   0.3350 
 23 C       -7.5650    -5.1520    -0.9900 C.3   1 <1>   0.0210 
 24 C       -7.2320    -6.5520    -0.4750 C.3   1 <1>   0.1200 
 25 O       -7.7470    -7.4850    -1.3710 O.3   1 <1>  -0.5600 
 26 C       -7.5050    -8.8050    -1.0090 C.3   1 <1>   0.0400 
 27 H       -1.3160     1.7920    -0.9150 H     1 <1>   0.3700 
 28 H       -2.6150     1.6590     1.7240 H     1 <1>   0.0800 
 29 H       -0.0110     3.5890    -1.3310 H     1 <1>   0.1500 
 30 H        2.5000     1.2620     1.2040 H     1 <1>   0.1500 
 31 H       -2.3530    -0.7490    -0.0880 H     1 <1>   0.0800 
 32 H       -3.7240     2.8380    -0.0710 H     1 <1>   0.0800 
 33 H       -3.6320     1.4380    -1.1150 H     1 <1>   0.0800 
 34 H        1.9570     4.4190    -2.5200 H     1 <1>   0.1500 
 35 H        4.4730     2.1040     0.0160 H     1 <1>   0.1500 
 36 H       -0.9470    -0.0350     1.8640 H     1 <1>   0.4000 
 37 H       -4.1450    -0.4930     2.3300 H     1 <1>   0.0800 
 38 H       -3.9840    -1.8540     1.2400 H     1 <1>   0.0800 
 39 H       -5.8510     1.6210    -0.1500 H     1 <1>   0.0800 
 40 H       -5.1920     1.6100     1.4720 H     1 <1>   0.0800 
 41 H        4.2070     3.6820    -1.8540 H     1 <1>   0.1500 
 42 H       -6.6090    -0.5140     1.8470 H     1 <1>   0.0800 
 43 H       -7.1360    -0.2430     0.2120 H     1 <1>   0.0800 
 44 H       -7.1280    -5.0190    -1.9620 H     1 <1>   0.0800 
 45 H       -8.6300    -5.0450    -1.0690 H     1 <1>   0.0800 
 46 H       -7.6790    -6.7130     0.4910 H     1 <1>   0.0800 
 47 H       -6.1650    -6.6830    -0.4120 H     1 <1>   0.0800 
 48 H       -7.9390    -9.4430    -1.7580 H     1 <1>   0.0800 
 49 H       -7.9630    -9.0030    -0.0550 H     1 <1>   0.0800 
 50 H       -6.4420    -8.9720    -0.9610 H     1 <1>   0.0800 
@<TRIPOS>BOND
  1   1   2  2   
  2   2   3  am  
  3   2   4  1   
  4   3   5  1   
  5   3  27  1   
  6   4   6  ar  
  7   4   7  ar  
  8   5   8  1   
  9   5   9  1   
 10   5  28  1   
 11   6  10  ar  
 12   6  29  1   
 13   7  11  ar  
 14   7  30  1   
 15   8  12  1   
 16   8  13  1   
 17   8  31  1   
 18   9  14  1   
 19   9  32  1   
 20   9  33  1   
 21  10  15  ar  
 22  10  34  1   
 23  11  15  ar  
 24  11  35  1   
 25  12  36  1   
 26  13  16  1   
 27  13  37  1   
 28  13  38  1   
 29  14  16  1   
 30  14  39  1   
 31  14  40  1   
 32  15  41  1   
 33  16  17  1   
 34  17  18  1   
 35  17  42  1   
 36  17  43  1   
 37  18  19  1   
 38  18  20  2   
 39  19  21  1   
 40  20  22  1   
 41  21  22  2   
 42  22  23  1   
 43  23  24  1   
 44  23  44  1   
 45  23  45  1   
 46  24  25  1   
 47  24  46  1   
 48  24  47  1   
 49  25  26  1   
 50  26  48  1   
 51  26  49  1   
 52  26  50  1   
@<TRIPOS>SUBSTRUCTURE
  1 ****   8 GROUP 4 **** **** 0

# MOE 2024.06 (io_trps.svl 2023.06)
