@<TRIPOS>MOLECULE
NONAME
41 43 1 0 0 
SMALL
USER_CHARGES


@<TRIPOS>ATOM
  1 S       -0.3890     0.6110     0.1930 S.3   1 <1>  -0.0800 
  2 C        0.8270    -0.6210     0.2530 C.2   1 <1>   0.1980 
  3 C        0.8520     1.6950    -0.3260 C.2   1 <1>   0.1980 
  4 N        1.9790    -0.1860    -0.0750 N.2   1 <1>  -0.3380 
  5 C        0.4430    -2.0250     0.7090 C.3   1 <1>   0.2900 
  6 N        1.9920     1.1420    -0.4110 N.2   1 <1>  -0.3380 
  7 C        0.4720     3.1290    -0.6140 C.3   1 <1>  -0.0600 
  8 N       -0.3270    -2.7930    -0.2950 N.3   1 <1>  -0.8100 
  9 C       -1.7290    -2.3590    -0.4560 C.3   1 <1>   0.1100 
 10 C       -0.3550    -4.2260     0.0060 C.3   1 <1>   0.1100 
 11 C       -2.6040    -3.6210    -0.5010 C.3   1 <1>   0.2000 
 12 C       -1.5980    -4.7510    -0.7010 C.3   1 <1>  -0.0800 
 13 O       -3.2460    -3.7870     0.7340 O.3   1 <1>  -0.5600 
 14 C       -2.0560    -6.1340    -0.2020 C.3   1 <1>   0.0200 
 15 C       -4.4570    -3.1110     0.8620 C.3   1 <1>   0.0400 
 16 C       -0.9920    -7.1890    -0.4380 C.2   1 <1>  -0.0400 
 17 O       -0.6080    -7.4770    -1.6530 O.3   1 <1>  -0.0190 
 18 C       -0.2960    -7.9610     0.4090 C.2   1 <1>  -0.1500 
 19 N        0.3100    -8.4000    -1.6640 N.2   1 <1>  -0.4100 
 20 C        0.5180    -8.7110    -0.4350 C.2   1 <1>   0.1080 
 21 C        1.5130    -9.7540     0.0210 C.3   1 <1>  -0.0590 
 22 H       -0.1100    -1.9670     1.6300 H     1 <1>   0.0800 
 23 H        1.3600    -2.5520     0.9090 H     1 <1>   0.0800 
 24 H        1.3420     3.6800    -0.9230 H     1 <1>   0.0800 
 25 H        0.0650     3.5840     0.2700 H     1 <1>   0.0800 
 26 H       -0.2600     3.1620    -1.4000 H     1 <1>   0.0800 
 27 H       -2.0410    -1.7210     0.3520 H     1 <1>   0.0800 
 28 H       -1.8120    -1.8220    -1.3850 H     1 <1>   0.0800 
 29 H        0.5390    -4.7110    -0.3480 H     1 <1>   0.0800 
 30 H       -0.4560    -4.3790     1.0680 H     1 <1>   0.0800 
 31 H       -3.3380    -3.5940    -1.2890 H     1 <1>   0.0800 
 32 H       -1.3680    -4.8170    -1.7500 H     1 <1>   0.0800 
 33 H       -2.9550    -6.4210    -0.7170 H     1 <1>   0.0800 
 34 H       -2.2750    -6.0950     0.8500 H     1 <1>   0.0800 
 35 H       -4.8400    -3.2960     1.8500 H     1 <1>   0.0800 
 36 H       -5.1520    -3.4870     0.1300 H     1 <1>   0.0800 
 37 H       -4.2990    -2.0560     0.7270 H     1 <1>   0.0800 
 38 H       -0.3320    -8.0150     1.4810 H     1 <1>   0.1500 
 39 H        2.2440    -9.3040     0.6670 H     1 <1>   0.0800 
 40 H        2.0150   -10.1790    -0.8300 H     1 <1>   0.0800 
 41 H        1.0030   -10.5370     0.5510 H     1 <1>   0.0800 
@<TRIPOS>BOND
  1   1   2  1   
  2   1   3  1   
  3   2   4  2   
  4   2   5  1   
  5   3   6  2   
  6   3   7  1   
  7   4   6  1   
  8   5   8  1   
  9   5  22  1   
 10   5  23  1   
 11   7  24  1   
 12   7  25  1   
 13   7  26  1   
 14   8   9  1   
 15   8  10  1   
 16   9  11  1   
 17   9  27  1   
 18   9  28  1   
 19  10  12  1   
 20  10  29  1   
 21  10  30  1   
 22  11  12  1   
 23  11  13  1   
 24  11  31  1   
 25  12  14  1   
 26  12  32  1   
 27  13  15  1   
 28  14  16  1   
 29  14  33  1   
 30  14  34  1   
 31  15  35  1   
 32  15  36  1   
 33  15  37  1   
 34  16  17  1   
 35  16  18  2   
 36  17  19  1   
 37  18  20  1   
 38  18  38  1   
 39  19  20  2   
 40  20  21  1   
 41  21  39  1   
 42  21  40  1   
 43  21  41  1   
@<TRIPOS>SUBSTRUCTURE
  1 ****  10 GROUP 4 **** **** 0

# MOE 2024.06 (io_trps.svl 2023.06)
