@<TRIPOS>MOLECULE
NONAME
47 48 1 0 0 
SMALL
USER_CHARGES


@<TRIPOS>ATOM
  1 CL      -2.3150    -0.9700     1.6400 Cl    1 <1>  -0.1770 
  2 C       -1.7700    -2.4020     0.8080 C.ar  1 <1>   0.1770 
  3 C       -2.5480    -2.9220    -0.2090 C.ar  1 <1>  -0.1500 
  4 C       -0.5810    -2.9970     1.1830 C.ar  1 <1>  -0.1500 
  5 C       -2.1390    -4.0760    -0.8620 C.ar  1 <1>  -0.1440 
  6 C       -0.1630    -4.1390     0.5210 C.ar  1 <1>  -0.1500 
  7 C       -0.9390    -4.6730    -0.4970 C.ar  1 <1>  -0.1500 
  8 C       -2.9930    -4.6840    -1.9690 C.3   1 <1>   0.0450 
  9 C       -3.3530    -6.1610    -1.8020 C.2   1 <1>   0.5690 
 10 O       -3.4540    -6.7950    -2.8220 O.2   1 <1>  -0.5700 
 11 N       -3.6140    -6.7590    -0.5890 N.am  1 <1>  -0.6600 
 12 C       -3.5510    -8.2480    -0.4890 C.3   1 <1>   0.3200 
 13 C       -3.9950    -6.0340     0.6710 C.3   1 <1>   0.1400 
 14 C       -4.9600    -8.7540    -0.2760 C.2   1 <1>  -0.3320 
 15 C       -5.2870    -5.2010     0.5140 C.3   1 <1>   0.3430 
 16 N       -5.4490    -9.2370     0.8830 N.pl3 1 <1>   0.0330 
 17 C       -5.9690    -8.8060    -1.1720 C.2   1 <1>   0.0770 
 18 N       -6.3850    -5.9960    -0.1240 N.4   1 <1>  -0.9590 
 19 C       -6.7500    -9.4940     0.6310 C.2   1 <1>   0.0060 
 20 N       -7.1040    -9.2180    -0.5810 N.2   1 <1>  -0.5650 
 21 C       -6.7520    -5.5110    -1.4870 C.3   1 <1>   0.2630 
 22 C       -7.6000    -6.1350     0.7300 C.3   1 <1>   0.2630 
 23 C       -7.6910   -10.0690     1.6700 C.3   1 <1>  -0.0600 
 24 H       -3.4550    -2.4120    -0.4770 H     1 <1>   0.1500 
 25 H        0.0080    -2.5700     1.9750 H     1 <1>   0.1500 
 26 H        0.7670    -4.6090     0.7940 H     1 <1>   0.1500 
 27 H       -0.5970    -5.5600    -1.0050 H     1 <1>   0.1500 
 28 H       -2.4500    -4.5820    -2.8920 H     1 <1>   0.0800 
 29 H       -3.9030    -4.1270    -2.0860 H     1 <1>   0.0800 
 30 H       -2.9090    -8.5350     0.3260 H     1 <1>   0.0800 
 31 H       -3.1460    -8.6780    -1.3910 H     1 <1>   0.0800 
 32 H       -3.1890    -5.4020     0.9950 H     1 <1>   0.0800 
 33 H       -4.1510    -6.7460     1.4620 H     1 <1>   0.0800 
 34 H       -5.0720    -4.3310    -0.0830 H     1 <1>   0.0800 
 35 H       -5.5990    -4.8550     1.4860 H     1 <1>   0.0800 
 36 H       -4.9520    -9.4210     1.7610 H     1 <1>   0.2700 
 37 H       -5.9380    -8.5440    -2.2190 H     1 <1>   0.1500 
 38 H       -6.0130    -6.9610    -0.2630 H     1 <1>   0.4500 
 39 H       -7.1330    -4.5040    -1.4410 H     1 <1>   0.0800 
 40 H       -7.5090    -6.1500    -1.9130 H     1 <1>   0.0800 
 41 H       -5.8910    -5.5330    -2.1360 H     1 <1>   0.0800 
 42 H       -8.0760    -5.1790     0.8700 H     1 <1>   0.0800 
 43 H       -7.3360    -6.5410     1.6920 H     1 <1>   0.0800 
 44 H       -8.3010    -6.8100     0.2620 H     1 <1>   0.0800 
 45 H       -7.7420    -9.4300     2.5310 H     1 <1>   0.0800 
 46 H       -7.3520   -11.0440     1.9710 H     1 <1>   0.0800 
 47 H       -8.6780   -10.1690     1.2530 H     1 <1>   0.0800 
@<TRIPOS>BOND
  1   1   2  1   
  2   2   3  ar  
  3   2   4  ar  
  4   3   5  ar  
  5   3  24  1   
  6   4   6  ar  
  7   4  25  1   
  8   5   7  ar  
  9   5   8  1   
 10   6   7  ar  
 11   6  26  1   
 12   7  27  1   
 13   8   9  1   
 14   8  28  1   
 15   8  29  1   
 16   9  10  2   
 17   9  11  am  
 18  11  12  1   
 19  11  13  1   
 20  12  14  1   
 21  12  30  1   
 22  12  31  1   
 23  13  15  1   
 24  13  32  1   
 25  13  33  1   
 26  14  16  1   
 27  14  17  2   
 28  15  18  1   
 29  15  34  1   
 30  15  35  1   
 31  16  19  1   
 32  16  36  1   
 33  17  20  1   
 34  17  37  1   
 35  18  21  1   
 36  18  22  1   
 37  18  38  1   
 38  19  20  2   
 39  19  23  1   
 40  21  39  1   
 41  21  40  1   
 42  21  41  1   
 43  22  42  1   
 44  22  43  1   
 45  22  44  1   
 46  23  45  1   
 47  23  46  1   
 48  23  47  1   
@<TRIPOS>SUBSTRUCTURE
  1 ****  13 GROUP 4 **** **** 0

# MOE 2024.06 (io_trps.svl 2023.06)
