@<TRIPOS>MOLECULE
NONAME
51 54 1 0 0 
SMALL
USER_CHARGES


@<TRIPOS>ATOM
  1 O       -1.5310     0.2390     1.4090 O.2   1 <1>  -0.5700 
  2 C       -1.8580     1.4190     1.3890 C.2   1 <1>   0.7160 
  3 N       -3.1090     1.7360     1.9040 N.am  1 <1>  -0.6600 
  4 C       -0.9360     2.3950     0.8080 C.2   1 <1>   0.2030 
  5 C       -4.0200     0.6650     2.4020 C.3   1 <1>   0.1400 
  6 C       -3.7590     3.0640     1.7540 C.3   1 <1>   0.1400 
  7 N       -0.6880     3.6420     1.2020 N.2   1 <1>  -0.7070 
  8 C       -0.1320     2.1080    -0.3030 C.2   1 <1>  -0.1810 
  9 C       -4.6750    -0.1220     1.2530 C.3   1 <1>   0.1400 
 10 C       -4.6230     3.1160     0.4900 C.3   1 <1>  -0.1600 
 11 N        0.2480     4.1180     0.3590 N.pl3 1 <1>   0.3000 
 12 C        0.5860     3.1930    -0.5530 C.2   1 <1>  -0.3320 
 13 C        0.1600     0.9940    -1.2680 C.3   1 <1>   0.0210 
 14 N       -5.1590     0.7150     0.1000 N.am  1 <1>  -0.6600 
 15 C       -5.7270     2.0520     0.4390 C.3   1 <1>   0.1400 
 16 C        1.5140     3.0620    -1.7260 C.3   1 <1>   0.0200 
 17 C        1.3240     1.5740    -2.1130 C.3   1 <1>  -0.1600 
 18 C       -5.0750     0.3210    -1.2260 C.2   1 <1>   0.5690 
 19 O       -5.3620     1.1140    -2.1010 O.2   1 <1>  -0.5700 
 20 C       -4.6190    -1.1120    -1.6780 C.3   1 <1>   0.3410 
 21 O       -5.0790    -2.1120    -0.8060 O.3   1 <1>  -0.5600 
 22 C       -5.2560    -1.5550    -3.0040 C.3   1 <1>  -0.1600 
 23 C       -3.0910    -1.2190    -1.7560 C.3   1 <1>  -0.2400 
 24 C       -6.3970    -2.4510    -1.1030 C.3   1 <1>   0.1200 
 25 C       -6.6060    -2.1020    -2.5740 C.3   1 <1>  -0.1600 
 26 H       -4.7840     1.0950     3.0240 H     1 <1>   0.0800 
 27 H       -3.4610    -0.0200     3.0170 H     1 <1>   0.0800 
 28 H       -3.0280     3.8480     1.7170 H     1 <1>   0.0800 
 29 H       -4.3710     3.2550     2.6180 H     1 <1>   0.0800 
 30 H       -5.5020    -0.6890     1.6410 H     1 <1>   0.0800 
 31 H       -3.9450    -0.8290     0.9090 H     1 <1>   0.0800 
 32 H       -4.0000     3.0360    -0.3830 H     1 <1>   0.0800 
 33 H       -5.0900     4.0820     0.4560 H     1 <1>   0.0800 
 34 H        0.6360     5.0660     0.4330 H     1 <1>   0.2700 
 35 H       -0.7060     0.8020    -1.8760 H     1 <1>   0.0800 
 36 H        0.4510     0.1000    -0.7450 H     1 <1>   0.0800 
 37 H       -6.4430     2.3320    -0.3150 H     1 <1>   0.0800 
 38 H       -6.2540     2.0040     1.3760 H     1 <1>   0.0800 
 39 H        2.5330     3.2680    -1.4460 H     1 <1>   0.0800 
 40 H        1.2060     3.7150    -2.5240 H     1 <1>   0.0800 
 41 H        1.1170     1.4760    -3.1640 H     1 <1>   0.0800 
 42 H        2.2250     1.0320    -1.8860 H     1 <1>   0.0800 
 43 H       -4.6730    -2.3470    -3.4390 H     1 <1>   0.0800 
 44 H       -5.3390    -0.7590    -3.7230 H     1 <1>   0.0800 
 45 H       -2.6400    -0.9190    -0.8290 H     1 <1>   0.0800 
 46 H       -2.7270    -0.5680    -2.5290 H     1 <1>   0.0800 
 47 H       -2.7940    -2.2270    -1.9810 H     1 <1>   0.0800 
 48 H       -7.0470    -1.8740    -0.4670 H     1 <1>   0.0800 
 49 H       -6.5290    -3.5020    -0.9120 H     1 <1>   0.0800 
 50 H       -6.8950    -2.9640    -3.1500 H     1 <1>   0.0800 
 51 H       -7.3690    -1.3470    -2.6590 H     1 <1>   0.0800 
@<TRIPOS>BOND
  1   1   2  2   
  2   2   3  am  
  3   2   4  1   
  4   3   5  1   
  5   3   6  1   
  6   4   7  2   
  7   4   8  1   
  8   5   9  1   
  9   5  26  1   
 10   5  27  1   
 11   6  10  1   
 12   6  28  1   
 13   6  29  1   
 14   7  11  1   
 15   8  12  2   
 16   8  13  1   
 17   9  14  1   
 18   9  30  1   
 19   9  31  1   
 20  10  15  1   
 21  10  32  1   
 22  10  33  1   
 23  11  12  1   
 24  11  34  1   
 25  12  16  1   
 26  13  17  1   
 27  13  35  1   
 28  13  36  1   
 29  14  15  1   
 30  14  18  am  
 31  15  37  1   
 32  15  38  1   
 33  16  17  1   
 34  16  39  1   
 35  16  40  1   
 36  17  41  1   
 37  17  42  1   
 38  18  19  2   
 39  18  20  1   
 40  20  21  1   
 41  20  22  1   
 42  20  23  1   
 43  21  24  1   
 44  22  25  1   
 45  22  43  1   
 46  22  44  1   
 47  23  45  1   
 48  23  46  1   
 49  23  47  1   
 50  24  25  1   
 51  24  48  1   
 52  24  49  1   
 53  25  50  1   
 54  25  51  1   
@<TRIPOS>SUBSTRUCTURE
  1 ****   2 GROUP 4 **** **** 0

# MOE 2024.06 (io_trps.svl 2023.06)
