@<TRIPOS>MOLECULE
NONAME
50 53 1 0 0 
SMALL
USER_CHARGES


@<TRIPOS>ATOM
  1 O       -1.2590     0.0910    -1.3800 O.2   1 <1>  -0.5700 
  2 C       -1.9740     0.3100    -0.4220 C.2   1 <1>   0.9370 
  3 N       -2.4310     1.6280    -0.2330 N.pl3 1 <1>  -0.5760 
  4 C       -2.2980    -0.6950     0.5200 C.2   1 <1>   0.0290 
  5 C       -3.0700     1.9450     0.9210 C.cat 1 <1>   0.7390 
  6 C       -2.3150     2.5740    -1.2220 C.2   1 <1>   0.1910 
  7 C       -2.1270    -2.0770     0.2200 C.2   1 <1>   0.6160 
  8 C       -2.8300    -0.2960     1.6990 C.2   1 <1>   0.1910 
  9 N       -3.1590     1.0160     1.9010 N.pl3 1 <1>  -0.6450 
 10 C       -3.5970     3.2320     1.0940 C.2   1 <1>  -0.1800 
 11 C       -2.8190     3.8360    -1.0660 C.2   1 <1>  -0.1500 
 12 O       -1.3930    -2.7250     0.9400 O.2   1 <1>  -0.5700 
 13 N       -2.8810    -2.7620    -0.7200 N.am  1 <1>  -0.6600 
 14 C       -3.4780     4.1840     0.1150 C.2   1 <1>  -0.1500 
 15 C       -3.5400    -4.0400    -0.3020 C.3   1 <1>   0.1400 
 16 C       -3.3940    -2.1910    -2.0140 C.3   1 <1>   0.1400 
 17 C       -5.1000    -3.9590    -0.2850 C.3   1 <1>   0.4230 
 18 C       -4.9140    -2.3820    -2.1840 C.3   1 <1>  -0.1600 
 19 N       -5.7710    -4.2700     1.0250 N.4   1 <1>  -0.9590 
 20 C       -5.6360    -2.6150    -0.8330 C.3   1 <1>  -0.1060 
 21 C       -7.2420    -4.4360     0.8570 C.3   1 <1>   0.3430 
 22 C       -5.1880    -5.3820     1.8300 C.3   1 <1>   0.2630 
 23 C       -5.3340    -1.4630     0.1510 C.2   1 <1>   0.9060 
 24 C       -7.1590    -2.7450    -1.0620 C.3   1 <1>  -0.1600 
 25 C       -7.8710    -3.1880     0.2270 C.3   1 <1>  -0.1600 
 26 O       -5.2900    -1.6910     1.3710 O.co2 1 <1>  -0.9000 
 27 O       -5.0370    -0.3380    -0.2690 O.co2 1 <1>  -0.9000 
 28 H       -1.8150     2.3040    -2.1410 H     1 <1>   0.1500 
 29 H       -3.0760    -1.0080     2.4740 H     1 <1>   0.1500 
 30 H       -3.7390     1.2420     2.7130 H     1 <1>   0.4500 
 31 H       -4.1040     3.4640     2.0120 H     1 <1>   0.1500 
 32 H       -2.7200     4.5690    -1.8500 H     1 <1>   0.1500 
 33 H       -3.8800     5.1780     0.2350 H     1 <1>   0.1500 
 34 H       -3.2470    -4.7990    -1.0050 H     1 <1>   0.0800 
 35 H       -3.1630    -4.3340     0.6580 H     1 <1>   0.0800 
 36 H       -3.1980    -1.1400    -2.0710 H     1 <1>   0.0800 
 37 H       -2.8730    -2.6550    -2.8360 H     1 <1>   0.0800 
 38 H       -5.4230    -4.7180    -0.9770 H     1 <1>   0.0800 
 39 H       -5.3140    -1.5050    -2.6650 H     1 <1>   0.0800 
 40 H       -5.0890    -3.2100    -2.8490 H     1 <1>   0.0800 
 41 H       -5.6420    -3.3640     1.5480 H     1 <1>   0.4500 
 42 H       -7.4380    -5.2890     0.2280 H     1 <1>   0.0800 
 43 H       -7.7010    -4.6110     1.8170 H     1 <1>   0.0800 
 44 H       -5.2020    -6.3010     1.2670 H     1 <1>   0.0800 
 45 H       -5.7570    -5.5190     2.7340 H     1 <1>   0.0800 
 46 H       -4.1720    -5.1540     2.1080 H     1 <1>   0.0800 
 47 H       -7.5570    -1.7960    -1.3840 H     1 <1>   0.0800 
 48 H       -7.3540    -3.4630    -1.8400 H     1 <1>   0.0800 
 49 H       -8.9060    -3.3870     0.0110 H     1 <1>   0.0800 
 50 H       -7.8500    -2.3880     0.9470 H     1 <1>   0.0800 
@<TRIPOS>BOND
  1   1   2  2   
  2   2   3  1   
  3   2   4  1   
  4   3   5  ar  
  5   3   6  1   
  6   4   7  1   
  7   4   8  2   
  8   5   9  ar  
  9   5  10  1   
 10   6  11  2   
 11   6  28  1   
 12   7  12  2   
 13   7  13  am  
 14   8   9  1   
 15   8  29  1   
 16   9  30  1   
 17  10  14  2   
 18  10  31  1   
 19  11  14  1   
 20  11  32  1   
 21  13  15  1   
 22  13  16  1   
 23  14  33  1   
 24  15  17  1   
 25  15  34  1   
 26  15  35  1   
 27  16  18  1   
 28  16  36  1   
 29  16  37  1   
 30  17  19  1   
 31  17  20  1   
 32  17  38  1   
 33  18  20  1   
 34  18  39  1   
 35  18  40  1   
 36  19  21  1   
 37  19  22  1   
 38  19  41  1   
 39  20  23  1   
 40  20  24  1   
 41  21  25  1   
 42  21  42  1   
 43  21  43  1   
 44  22  44  1   
 45  22  45  1   
 46  22  46  1   
 47  23  26  ar  
 48  23  27  ar  
 49  24  25  1   
 50  24  47  1   
 51  24  48  1   
 52  25  49  1   
 53  25  50  1   
@<TRIPOS>SUBSTRUCTURE
  1 ****  27 GROUP 4 **** **** 0

# MOE 2024.06 (io_trps.svl 2023.06)
