@<TRIPOS>MOLECULE
NONAME
52 55 1 0 0 
SMALL
USER_CHARGES


@<TRIPOS>ATOM
  1 O       -2.3110     0.9160    -3.0350 O.2   1 <1>  -0.5700 
  2 C       -2.6850     1.5640    -2.0810 C.2   1 <1>   0.5440 
  3 N       -3.9710     1.3600    -1.6160 N.am  1 <1>  -0.6600 
  4 C       -1.7340     2.4440    -1.4320 C.ar  1 <1>   0.0860 
  5 C       -4.5130     1.8790    -0.3190 C.3   1 <1>   0.1400 
  6 C       -4.8730     0.3650    -2.2740 C.3   1 <1>   0.1400 
  7 C       -0.9950     2.0350    -0.3100 C.ar  1 <1>  -0.0230 
  8 C       -1.5140     3.7230    -1.9380 C.ar  1 <1>  -0.1500 
  9 C       -5.2520     0.7910     0.5150 C.3   1 <1>   0.4230 
 10 C       -5.0580    -0.8830    -1.3860 C.3   1 <1>   0.3430 
 11 N       -1.2220     0.7640     0.2710 N.pl3 1 <1>   0.3260 
 12 C       -0.0670     2.8980     0.2620 C.ar  1 <1>  -0.1500 
 13 C       -0.5950     4.5760    -1.3590 C.ar  1 <1>  -0.1500 
 14 N       -4.9010    -0.6190     0.0960 N.4   1 <1>  -0.9590 
 15 C       -6.7850     0.9820     0.4960 C.3   1 <1>   0.1200 
 16 C       -1.3600    -0.4390    -0.3090 C.2   1 <1>   0.0360 
 17 C       -1.7940     0.5430     1.4640 C.2   1 <1>   0.0370 
 18 C        0.1320     4.1630    -0.2570 C.ar  1 <1>  -0.1500 
 19 C       -5.6140    -1.5950     0.9790 C.3   1 <1>   0.4230 
 20 O       -7.4040     0.0250     1.3100 O.3   1 <1>  -0.5600 
 21 N       -1.9920    -1.2790     0.4360 N.2   1 <1>  -0.3380 
 22 N       -2.2740    -0.6460     1.5750 N.2   1 <1>  -0.3380 
 23 C       -7.1380    -1.3150     0.9860 C.3   1 <1>   0.1200 
 24 C       -5.2670    -3.0400     0.5860 C.3   1 <1>  -0.1600 
 25 C       -5.6900    -4.0570     1.6580 C.3   1 <1>  -0.1600 
 26 C       -5.2510    -5.4720     1.2680 C.3   1 <1>  -0.2400 
 27 H       -3.7160     2.2810     0.2790 H     1 <1>   0.0800 
 28 H       -5.1830     2.6970    -0.5240 H     1 <1>   0.0800 
 29 H       -5.8290     0.8260    -2.4500 H     1 <1>   0.0800 
 30 H       -4.4960     0.0630    -3.2360 H     1 <1>   0.0800 
 31 H       -2.0650     4.0460    -2.8060 H     1 <1>   0.1500 
 32 H       -4.9500     0.9260     1.5410 H     1 <1>   0.0800 
 33 H       -4.3320    -1.6210    -1.6840 H     1 <1>   0.0800 
 34 H       -6.0320    -1.2960    -1.5860 H     1 <1>   0.0800 
 35 H        0.5100     2.5900     1.1190 H     1 <1>   0.1500 
 36 H       -0.4370     5.5610    -1.7680 H     1 <1>   0.1500 
 37 H       -3.8890    -0.7460     0.3060 H     1 <1>   0.4500 
 38 H       -7.1840     0.8990    -0.4990 H     1 <1>   0.0800 
 39 H       -7.0440     1.9500     0.8880 H     1 <1>   0.0800 
 40 H       -0.9950    -0.6400    -1.3030 H     1 <1>   0.1500 
 41 H       -1.8450     1.3040     2.2230 H     1 <1>   0.1500 
 42 H        0.8530     4.8280     0.1890 H     1 <1>   0.1500 
 43 H       -5.2610    -1.4500     1.9880 H     1 <1>   0.0800 
 44 H       -7.6240    -1.9220     1.7290 H     1 <1>   0.0800 
 45 H       -7.5790    -1.5320     0.0300 H     1 <1>   0.0800 
 46 H       -5.7420    -3.3030    -0.3430 H     1 <1>   0.0800 
 47 H       -4.2010    -3.1180     0.4610 H     1 <1>   0.0800 
 48 H       -5.2370    -3.8030     2.6020 H     1 <1>   0.0800 
 49 H       -6.7590    -4.0540     1.7860 H     1 <1>   0.0800 
 50 H       -4.1810    -5.5230     1.1660 H     1 <1>   0.0800 
 51 H       -5.7030    -5.7700     0.3380 H     1 <1>   0.0800 
 52 H       -5.5500    -6.1720     2.0290 H     1 <1>   0.0800 
@<TRIPOS>BOND
  1   1   2  2   
  2   2   3  am  
  3   2   4  1   
  4   3   5  1   
  5   3   6  1   
  6   4   7  ar  
  7   4   8  ar  
  8   5   9  1   
  9   5  27  1   
 10   5  28  1   
 11   6  10  1   
 12   6  29  1   
 13   6  30  1   
 14   7  11  1   
 15   7  12  ar  
 16   8  13  ar  
 17   8  31  1   
 18   9  14  1   
 19   9  15  1   
 20   9  32  1   
 21  10  14  1   
 22  10  33  1   
 23  10  34  1   
 24  11  16  1   
 25  11  17  1   
 26  12  18  ar  
 27  12  35  1   
 28  13  18  ar  
 29  13  36  1   
 30  14  19  1   
 31  14  37  1   
 32  15  20  1   
 33  15  38  1   
 34  15  39  1   
 35  16  21  2   
 36  16  40  1   
 37  17  22  2   
 38  17  41  1   
 39  18  42  1   
 40  19  23  1   
 41  19  24  1   
 42  19  43  1   
 43  20  23  1   
 44  21  22  1   
 45  23  44  1   
 46  23  45  1   
 47  24  25  1   
 48  24  46  1   
 49  24  47  1   
 50  25  26  1   
 51  25  48  1   
 52  25  49  1   
 53  26  50  1   
 54  26  51  1   
 55  26  52  1   
@<TRIPOS>SUBSTRUCTURE
  1 ****  14 GROUP 4 **** **** 0

# MOE 2024.06 (io_trps.svl 2023.06)
