@<TRIPOS>MOLECULE
NONAME
53 55 1 0 0 
SMALL
USER_CHARGES


@<TRIPOS>ATOM
  1 O       -0.8550     0.4380     1.2620 O.2   1 <1>  -0.5700 
  2 C       -0.4120     1.5430     1.0370 C.2   1 <1>   0.5690 
  3 N       -1.2380     2.6470     1.0900 N.am  1 <1>  -0.6600 
  4 C        1.1090     1.6230     0.6870 C.3   1 <1>   0.3410 
  5 C       -2.6860     2.4970     1.4460 C.3   1 <1>   0.1400 
  6 C       -0.9230     4.0410     0.6610 C.3   1 <1>   0.1400 
  7 O        1.7410     2.6640     1.3810 O.3   1 <1>  -0.6800 
  8 C        1.8720     0.3420     1.0890 C.3   1 <1>  -0.1600 
  9 C        1.3220     1.8710    -0.8220 C.3   1 <1>  -0.1600 
 10 C       -3.5740     2.7630     0.2170 C.3   1 <1>   0.0000 
 11 C       -1.7450     4.3910    -0.5850 C.3   1 <1>  -0.1600 
 12 C        3.3730     0.3930     0.7780 C.3   1 <1>   0.3430 
 13 C        2.6890     1.4270    -1.3530 C.3   1 <1>   0.3430 
 14 C       -5.0590     2.5930     0.5850 C.3   1 <1>   0.2000 
 15 C       -3.2520     4.1730    -0.3540 C.3   1 <1>  -0.1600 
 16 C       -3.4100     1.6830    -0.8680 C.3   1 <1>  -0.1600 
 17 N        3.6790     1.4340    -0.2470 N.4   1 <1>  -0.9590 
 18 O       -5.5680     3.7250     1.2260 O.3   1 <1>  -0.5600 
 19 C       -5.7780     2.3160    -0.7370 C.3   1 <1>  -0.1600 
 20 C       -4.7260     1.6800    -1.6560 C.3   1 <1>  -0.1600 
 21 C        5.0900     1.3630    -0.7250 C.3   1 <1>   0.2630 
 22 C       -6.8070     3.5490     1.8360 C.3   1 <1>   0.0400 
 23 H       -2.8860     1.5150     1.8370 H     1 <1>   0.0800 
 24 H       -2.9320     3.2050     2.2190 H     1 <1>   0.0800 
 25 H       -1.1820     4.7170     1.4590 H     1 <1>   0.0800 
 26 H        0.1180     4.1760     0.4460 H     1 <1>   0.0800 
 27 H        1.2490     2.8250     2.2160 H     1 <1>   0.4000 
 28 H        1.7260     0.1370     2.1350 H     1 <1>   0.0800 
 29 H        1.4500    -0.4930     0.5570 H     1 <1>   0.0800 
 30 H        0.5750     1.3250    -1.3710 H     1 <1>   0.0800 
 31 H        1.1690     2.9090    -1.0520 H     1 <1>   0.0800 
 32 H       -1.5750     5.4220    -0.8400 H     1 <1>   0.0800 
 33 H       -1.4060     3.7970    -1.4130 H     1 <1>   0.0800 
 34 H        3.6980    -0.5770     0.4370 H     1 <1>   0.0800 
 35 H        3.9100     0.6260     1.6840 H     1 <1>   0.0800 
 36 H        3.0010     2.0920    -2.1430 H     1 <1>   0.0800 
 37 H        2.6160     0.4300    -1.7590 H     1 <1>   0.0800 
 38 H       -5.1660     1.7430     1.2400 H     1 <1>   0.0800 
 39 H       -3.7870     4.3430    -1.2710 H     1 <1>   0.0800 
 40 H       -3.5830     4.9190     0.3480 H     1 <1>   0.0800 
 41 H       -2.5620     1.8470    -1.5070 H     1 <1>   0.0800 
 42 H       -3.2900     0.7220    -0.3960 H     1 <1>   0.0800 
 43 H        3.5200     2.3330     0.2490 H     1 <1>   0.4500 
 44 H       -6.6110     1.6540    -0.5890 H     1 <1>   0.0800 
 45 H       -6.1190     3.2410    -1.1690 H     1 <1>   0.0800 
 46 H       -5.0000     0.6760    -1.9330 H     1 <1>   0.0800 
 47 H       -4.6220     2.2700    -2.5510 H     1 <1>   0.0800 
 48 H        5.2660     0.4310    -1.2360 H     1 <1>   0.0800 
 49 H        5.7700     1.4350     0.1080 H     1 <1>   0.0800 
 50 H        5.2950     2.1750    -1.4050 H     1 <1>   0.0800 
 51 H       -7.0760     4.4730     2.3150 H     1 <1>   0.0800 
 52 H       -6.7330     2.7680     2.5730 H     1 <1>   0.0800 
 53 H       -7.5430     3.3010     1.0920 H     1 <1>   0.0800 
@<TRIPOS>BOND
  1   1   2  2   
  2   2   3  am  
  3   2   4  1   
  4   3   5  1   
  5   3   6  1   
  6   4   7  1   
  7   4   8  1   
  8   4   9  1   
  9   5  10  1   
 10   5  23  1   
 11   5  24  1   
 12   6  11  1   
 13   6  25  1   
 14   6  26  1   
 15   7  27  1   
 16   8  12  1   
 17   8  28  1   
 18   8  29  1   
 19   9  13  1   
 20   9  30  1   
 21   9  31  1   
 22  10  14  1   
 23  10  15  1   
 24  10  16  1   
 25  11  15  1   
 26  11  32  1   
 27  11  33  1   
 28  12  17  1   
 29  12  34  1   
 30  12  35  1   
 31  13  17  1   
 32  13  36  1   
 33  13  37  1   
 34  14  18  1   
 35  14  19  1   
 36  14  38  1   
 37  15  39  1   
 38  15  40  1   
 39  16  20  1   
 40  16  41  1   
 41  16  42  1   
 42  17  21  1   
 43  17  43  1   
 44  18  22  1   
 45  19  20  1   
 46  19  44  1   
 47  19  45  1   
 48  20  46  1   
 49  20  47  1   
 50  21  48  1   
 51  21  49  1   
 52  21  50  1   
 53  22  51  1   
 54  22  52  1   
 55  22  53  1   
@<TRIPOS>SUBSTRUCTURE
  1 ****   3 GROUP 4 **** **** 0

# MOE 2024.06 (io_trps.svl 2023.06)
