@<TRIPOS>MOLECULE
NONAME
48 51 1 0 0 
SMALL
USER_CHARGES


@<TRIPOS>ATOM
  1 O        0.3020     1.0070    -0.8490 O.2   1 <1>  -0.5700 
  2 C        0.0510     2.1800    -0.7010 C.2   1 <1>   0.5690 
  3 N       -1.0600     2.6390    -0.0380 N.am  1 <1>  -0.5090 
  4 C        1.0380     3.1870    -1.2840 C.3   1 <1>   0.1810 
  5 C       -1.3010     4.1130     0.1410 C.3   1 <1>   0.3640 
  6 C       -1.8260     1.7510     0.8780 C.3   1 <1>   0.0490 
  7 O        1.0400     4.3960    -0.5710 O.3   1 <1>  -0.5600 
  8 C       -2.6630     4.4900    -0.4400 C.ar  1 <1>  -0.1440 
  9 C       -0.2240     5.0260    -0.5140 C.3   1 <1>   0.2610 
 10 C       -2.4180     0.4840     0.3440 C.3   1 <1>  -0.2000 
 11 C       -3.3130     1.6050     0.7590 C.3   1 <1>  -0.2000 
 12 C       -3.5450     5.2630     0.3040 C.ar  1 <1>   0.1600 
 13 C       -3.0460     4.0840    -1.7060 C.ar  1 <1>  -0.1500 
 14 C       -0.1260     6.4000     0.1810 C.2   1 <1>   0.5690 
 15 N       -4.7450     5.6460    -0.1030 N.ar  1 <1>  -0.6200 
 16 C       -4.2930     4.4760    -2.1430 C.ar  1 <1>  -0.1500 
 17 O       -0.7980     6.5970     1.1700 O.2   1 <1>  -0.5700 
 18 N        0.6830     7.3950    -0.3190 N.am  1 <1>  -0.6600 
 19 C       -5.0910     5.2440    -1.3140 C.ar  1 <1>   0.1600 
 20 C        0.8580     8.6880     0.4330 C.3   1 <1>   0.3210 
 21 C        1.5490     7.2490    -1.5250 C.3   1 <1>   0.0600 
 22 C        2.2980     8.9360     0.8880 C.2   1 <1>   0.3350 
 23 N        2.7400     8.7190     2.0640 N.2   1 <1>  -0.4100 
 24 N        3.2200     9.4300     0.0650 N.2   1 <1>  -0.5650 
 25 O        3.9930     9.0550     2.0730 O.3   1 <1>  -0.0190 
 26 C        4.2170     9.4710     0.8520 C.2   1 <1>   0.2980 
 27 C        5.6030     9.9520     0.4910 C.3   1 <1>  -0.0600 
 28 H        0.7960     3.3870    -2.3120 H     1 <1>   0.0800 
 29 H        2.0310     2.7780    -1.2320 H     1 <1>   0.0800 
 30 H       -1.3080     4.2910     1.2020 H     1 <1>   0.0800 
 31 H       -1.3890     1.7160     1.8630 H     1 <1>   0.1000 
 32 H       -0.5210     5.2150    -1.5290 H     1 <1>   0.0800 
 33 H       -2.3060     0.2670    -0.7040 H     1 <1>   0.1000 
 34 H       -2.3750    -0.3990     0.9550 H     1 <1>   0.1000 
 35 H       -3.8930     1.4810     1.6570 H     1 <1>   0.1000 
 36 H       -3.8660     2.0980    -0.0180 H     1 <1>   0.1000 
 37 H       -3.2490     5.5900     1.2880 H     1 <1>   0.1500 
 38 H       -2.4100     3.4770    -2.3270 H     1 <1>   0.1500 
 39 H       -4.6490     4.1880    -3.1160 H     1 <1>   0.1500 
 40 H       -6.0650     5.5420    -1.6640 H     1 <1>   0.1500 
 41 H        0.5550     9.5010    -0.1990 H     1 <1>   0.0800 
 42 H        0.2290     8.7080     1.3050 H     1 <1>   0.0800 
 43 H        1.6620     8.2010    -2.0160 H     1 <1>   0.0800 
 44 H        1.1250     6.5550    -2.2280 H     1 <1>   0.0800 
 45 H        2.5210     6.8950    -1.2270 H     1 <1>   0.0800 
 46 H        5.6280    10.2600    -0.5380 H     1 <1>   0.0800 
 47 H        6.3120     9.1580     0.6380 H     1 <1>   0.0800 
 48 H        5.8700    10.7860     1.1140 H     1 <1>   0.0800 
@<TRIPOS>BOND
  1   1   2  2   
  2   2   3  am  
  3   2   4  1   
  4   3   5  1   
  5   3   6  1   
  6   4   7  1   
  7   4  28  1   
  8   4  29  1   
  9   5   8  1   
 10   5   9  1   
 11   5  30  1   
 12   6  10  1   
 13   6  11  1   
 14   6  31  1   
 15   7   9  1   
 16   8  12  ar  
 17   8  13  ar  
 18   9  14  1   
 19   9  32  1   
 20  10  11  1   
 21  10  33  1   
 22  10  34  1   
 23  11  35  1   
 24  11  36  1   
 25  12  15  ar  
 26  12  37  1   
 27  13  16  ar  
 28  13  38  1   
 29  14  17  2   
 30  14  18  am  
 31  15  19  ar  
 32  16  19  ar  
 33  16  39  1   
 34  18  20  1   
 35  18  21  1   
 36  19  40  1   
 37  20  22  1   
 38  20  41  1   
 39  20  42  1   
 40  21  43  1   
 41  21  44  1   
 42  21  45  1   
 43  22  23  2   
 44  22  24  1   
 45  23  25  1   
 46  24  26  2   
 47  25  26  1   
 48  26  27  1   
 49  27  46  1   
 50  27  47  1   
 51  27  48  1   
@<TRIPOS>SUBSTRUCTURE
  1 ****   9 GROUP 4 **** **** 0

# MOE 2024.06 (io_trps.svl 2023.06)
