@<TRIPOS>MOLECULE
NONAME
56 60 1 0 0 
SMALL
USER_CHARGES


@<TRIPOS>ATOM
  1 CL       0.4110    -2.9260     0.6450 Cl    1 <1>  -0.1770 
  2 C       -1.1750    -2.2240     0.8990 C.ar  1 <1>   0.1770 
  3 C       -2.1840    -2.3900    -0.0540 C.ar  1 <1>  -0.1440 
  4 C       -1.3860    -1.5360     2.0850 C.ar  1 <1>  -0.1500 
  5 C       -3.4460    -1.8570     0.1960 C.ar  1 <1>  -0.1500 
  6 C       -1.9490    -3.1360    -1.3630 C.3   1 <1>   0.2840 
  7 C       -2.6480    -1.0230     2.2990 C.ar  1 <1>   0.0820 
  8 C       -3.6480    -1.1800     1.3830 C.ar  1 <1>   0.0820 
  9 N       -2.5100    -4.5280    -1.3270 N.am  1 <1>  -0.6600 
 10 O       -3.0940    -0.3380     3.3550 O.3   1 <1>  -0.3630 
 11 O       -4.7680    -0.6000     1.8240 O.3   1 <1>  -0.3630 
 12 C       -3.1150    -5.0250    -2.4560 C.2   1 <1>   0.5690 
 13 C       -2.3430    -5.2790    -0.0410 C.3   1 <1>   0.1400 
 14 C       -4.4610    -0.0260     3.0930 C.3   1 <1>   0.4000 
 15 O       -3.1130    -4.3900    -3.4820 O.2   1 <1>  -0.5700 
 16 C       -3.7930    -6.3810    -2.5340 C.3   1 <1>  -0.0990 
 17 C       -1.9010    -6.7640    -0.1830 C.3   1 <1>   0.2800 
 18 C       -4.0870    -7.0940    -1.2150 C.3   1 <1>   0.1200 
 19 O       -2.9180    -7.6050    -0.6400 O.3   1 <1>  -0.5600 
 20 C       -0.7060    -6.9590    -1.1310 C.3   1 <1>  -0.1600 
 21 C       -1.5080    -7.3280     1.1900 C.3   1 <1>  -0.1600 
 22 C        0.5370    -6.2530    -0.6070 C.3   1 <1>   0.3430 
 23 C       -0.2420    -6.6760     1.7490 C.3   1 <1>   0.3430 
 24 N        0.8630    -6.7520     0.7580 N.4   1 <1>  -0.9590 
 25 C        2.1260    -6.1460     1.2600 C.3   1 <1>   0.5240 
 26 C        3.2710    -6.8470     0.5420 C.2   1 <1>   0.0460 
 27 N        3.1990    -8.1750     0.3070 N.2   1 <1>  -0.5650 
 28 C        4.4220    -6.3340     0.0530 C.2   1 <1>  -0.3020 
 29 C        4.3070    -8.4410    -0.3070 C.2   1 <1>   0.0360 
 30 N        5.0980    -7.3630    -0.4940 N.pl3 1 <1>   0.0330 
 31 H       -0.6070    -1.4030     2.8130 H     1 <1>   0.1500 
 32 H       -4.2560    -1.9610    -0.5060 H     1 <1>   0.1500 
 33 H       -0.9020    -3.1860    -1.5970 H     1 <1>   0.0800 
 34 H       -2.4160    -2.5700    -2.1520 H     1 <1>   0.0800 
 35 H       -3.2470    -5.2080     0.5370 H     1 <1>   0.0800 
 36 H       -1.5880    -4.7840     0.5320 H     1 <1>   0.0800 
 37 H       -4.5860     1.0420     3.0470 H     1 <1>   0.0800 
 38 H       -5.0850    -0.4670     3.8500 H     1 <1>   0.0800 
 39 H       -3.2110    -7.0270    -3.1640 H     1 <1>   0.0800 
 40 H       -4.7320    -6.2270    -3.0320 H     1 <1>   0.0800 
 41 H       -4.7220    -7.9400    -1.4130 H     1 <1>   0.0800 
 42 H       -4.6010    -6.4600    -0.5150 H     1 <1>   0.0800 
 43 H       -0.9270    -6.5750    -2.1090 H     1 <1>   0.0800 
 44 H       -0.4930    -8.0080    -1.2400 H     1 <1>   0.0800 
 45 H       -1.3420    -8.3880     1.1100 H     1 <1>   0.0800 
 46 H       -2.3150    -7.1780     1.8850 H     1 <1>   0.0800 
 47 H        0.3630    -5.1900    -0.5830 H     1 <1>   0.0800 
 48 H        1.3640    -6.4460    -1.2730 H     1 <1>   0.0800 
 49 H        0.0460    -7.1810     2.6580 H     1 <1>   0.0800 
 50 H       -0.4420    -5.6450     1.9890 H     1 <1>   0.0800 
 51 H        1.1470    -7.7440     0.6350 H     1 <1>   0.4500 
 52 H        2.2260    -6.3300     2.3170 H     1 <1>   0.0800 
 53 H        2.1500    -5.0850     1.0810 H     1 <1>   0.0800 
 54 H        4.8000    -5.3260     0.0600 H     1 <1>   0.1500 
 55 H        4.5950    -9.4230    -0.6460 H     1 <1>   0.1500 
 56 H        6.0170    -7.3440    -0.9500 H     1 <1>   0.2700 
@<TRIPOS>BOND
  1   1   2  1   
  2   2   3  ar  
  3   2   4  ar  
  4   3   5  ar  
  5   3   6  1   
  6   4   7  ar  
  7   4  31  1   
  8   5   8  ar  
  9   5  32  1   
 10   6   9  1   
 11   6  33  1   
 12   6  34  1   
 13   7   8  ar  
 14   7  10  1   
 15   8  11  1   
 16   9  12  am  
 17   9  13  1   
 18  10  14  1   
 19  11  14  1   
 20  12  15  2   
 21  12  16  1   
 22  13  17  1   
 23  13  35  1   
 24  13  36  1   
 25  14  37  1   
 26  14  38  1   
 27  16  18  1   
 28  16  39  1   
 29  16  40  1   
 30  17  19  1   
 31  17  20  1   
 32  17  21  1   
 33  18  19  1   
 34  18  41  1   
 35  18  42  1   
 36  20  22  1   
 37  20  43  1   
 38  20  44  1   
 39  21  23  1   
 40  21  45  1   
 41  21  46  1   
 42  22  24  1   
 43  22  47  1   
 44  22  48  1   
 45  23  24  1   
 46  23  49  1   
 47  23  50  1   
 48  24  25  1   
 49  24  51  1   
 50  25  26  1   
 51  25  52  1   
 52  25  53  1   
 53  26  27  1   
 54  26  28  2   
 55  27  29  2   
 56  28  30  1   
 57  28  54  1   
 58  29  30  1   
 59  29  55  1   
 60  30  56  1   
@<TRIPOS>SUBSTRUCTURE
  1 ****  13 GROUP 4 **** **** 0

# MOE 2024.06 (io_trps.svl 2023.06)
