@<TRIPOS>MOLECULE
NONAME
45 47 1 0 0 
SMALL
USER_CHARGES


@<TRIPOS>ATOM
  1 O       -0.9240     0.3090    -0.7650 O.2   1 <1>  -0.5700 
  2 C       -1.9510     0.9420    -0.5860 C.2   1 <1>   0.5440 
  3 N       -3.1400     0.3240    -0.9580 N.am  1 <1>  -0.6600 
  4 C       -1.8650     2.2810     0.0060 C.ar  1 <1>   0.3960 
  5 C       -3.1970    -1.1360    -1.2390 C.3   1 <1>   0.1400 
  6 C       -4.4830     0.9640    -0.8770 C.3   1 <1>   0.1400 
  7 N       -2.6780     2.6220     1.0240 N.ar  1 <1>  -0.6200 
  8 C       -0.9150     3.1720    -0.4940 C.ar  1 <1>  -0.1500 
  9 C       -3.9610    -1.8330    -0.0920 C.3   1 <1>   0.4230 
 10 C       -5.2610     0.3000     0.2670 C.3   1 <1>  -0.1600 
 11 C       -2.5370     3.8390     1.5190 C.ar  1 <1>   0.1600 
 12 C       -0.7810     4.4390     0.0300 C.ar  1 <1>  -0.1500 
 13 N       -3.9190    -3.3540    -0.1580 N.4   1 <1>  -0.9590 
 14 C       -5.3910    -1.2440     0.1130 C.3   1 <1>   0.0000 
 15 C       -1.6220     4.7720     1.0670 C.ar  1 <1>  -0.1500 
 16 C       -4.9630    -4.0320     0.6780 C.3   1 <1>   0.3430 
 17 C       -3.9060    -3.9390    -1.5390 C.3   1 <1>   0.2630 
 18 C       -5.9990    -1.8270     1.4230 C.3   1 <1>  -0.1600 
 19 C       -6.2920    -1.5920    -1.1070 C.3   1 <1>   0.1200 
 20 C       -5.3660    -3.1600     1.8660 C.3   1 <1>  -0.1600 
 21 O       -7.5040    -0.9260    -1.0590 O.3   1 <1>  -0.6800 
 22 H       -3.6830    -1.2820    -2.1850 H     1 <1>   0.0800 
 23 H       -2.2050    -1.5460    -1.3050 H     1 <1>   0.0800 
 24 H       -4.4020     2.0230    -0.7060 H     1 <1>   0.0800 
 25 H       -5.0030     0.8320    -1.8110 H     1 <1>   0.0800 
 26 H       -0.2780     2.8540    -1.3000 H     1 <1>   0.1500 
 27 H       -3.4200    -1.5580     0.8000 H     1 <1>   0.0800 
 28 H       -4.7430     0.5390     1.1810 H     1 <1>   0.0800 
 29 H       -6.2310     0.7610     0.3370 H     1 <1>   0.0800 
 30 H       -3.1860     4.1120     2.3350 H     1 <1>   0.1500 
 31 H       -0.0500     5.1330    -0.3510 H     1 <1>   0.1500 
 32 H       -3.0130    -3.5970     0.2720 H     1 <1>   0.4500 
 33 H       -1.5690     5.7440     1.5240 H     1 <1>   0.1500 
 34 H       -5.8410    -4.2220     0.0820 H     1 <1>   0.0800 
 35 H       -4.5910    -4.9810     1.0300 H     1 <1>   0.0800 
 36 H       -4.8100    -3.6840    -2.0670 H     1 <1>   0.0800 
 37 H       -3.8310    -5.0140    -1.4890 H     1 <1>   0.0800 
 38 H       -3.0620    -3.5700    -2.0990 H     1 <1>   0.0800 
 39 H       -5.8800    -1.1310     2.2370 H     1 <1>   0.0800 
 40 H       -7.0600    -1.9660     1.3080 H     1 <1>   0.0800 
 41 H       -6.5080    -2.6440    -1.1500 H     1 <1>   0.0800 
 42 H       -5.8270    -1.3050    -2.0330 H     1 <1>   0.0800 
 43 H       -6.0700    -3.6980     2.4780 H     1 <1>   0.0800 
 44 H       -4.4980    -2.9740     2.4760 H     1 <1>   0.0800 
 45 H       -8.0120    -1.1370    -0.2500 H     1 <1>   0.4000 
@<TRIPOS>BOND
  1   1   2  2   
  2   2   3  am  
  3   2   4  1   
  4   3   5  1   
  5   3   6  1   
  6   4   7  ar  
  7   4   8  ar  
  8   5   9  1   
  9   5  22  1   
 10   5  23  1   
 11   6  10  1   
 12   6  24  1   
 13   6  25  1   
 14   7  11  ar  
 15   8  12  ar  
 16   8  26  1   
 17   9  13  1   
 18   9  14  1   
 19   9  27  1   
 20  10  14  1   
 21  10  28  1   
 22  10  29  1   
 23  11  15  ar  
 24  11  30  1   
 25  12  15  ar  
 26  12  31  1   
 27  13  16  1   
 28  13  17  1   
 29  13  32  1   
 30  14  18  1   
 31  14  19  1   
 32  15  33  1   
 33  16  20  1   
 34  16  34  1   
 35  16  35  1   
 36  17  36  1   
 37  17  37  1   
 38  17  38  1   
 39  18  20  1   
 40  18  39  1   
 41  18  40  1   
 42  19  21  1   
 43  19  41  1   
 44  19  42  1   
 45  20  43  1   
 46  20  44  1   
 47  21  45  1   
@<TRIPOS>SUBSTRUCTURE
  1 ****   3 GROUP 4 **** **** 0

# MOE 2024.06 (io_trps.svl 2023.06)
