@<TRIPOS>MOLECULE
NONAME
52 54 1 0 0 
SMALL
USER_CHARGES


@<TRIPOS>ATOM
  1 S        0.1310     0.5580    -0.8210 S.o2  1 <1>   1.0900 
  2 O        0.1510     0.0350    -2.1660 O.2   1 <1>  -0.6500 
  3 O       -0.5170    -0.1190     0.2760 O.2   1 <1>  -0.6500 
  4 C        1.8090     0.9390    -0.3430 C.3   1 <1>  -0.0550 
  5 C       -0.4030     2.2640    -0.8400 C.3   1 <1>  -0.0550 
  6 C        1.8320     2.3760     0.2030 C.3   1 <1>  -0.0800 
  7 C        0.8320     3.1640    -0.6630 C.3   1 <1>  -0.1600 
  8 C        3.2540     2.9680     0.2010 C.3   1 <1>  -0.1600 
  9 C        3.2930     4.3730     0.8140 C.3   1 <1>   0.3430 
 10 N        4.6700     4.9440     0.7360 N.4   1 <1>  -0.9590 
 11 C        5.6010     4.3110     1.7230 C.3   1 <1>   0.4860 
 12 C        4.6680     6.4350     0.9090 C.3   1 <1>   0.3430 
 13 C        7.0200     4.7330     1.4070 C.ar  1 <1>  -0.1440 
 14 C        4.0880     7.1600    -0.3060 C.3   1 <1>  -0.0170 
 15 C        7.6970     4.1530     0.3440 C.ar  1 <1>   0.1600 
 16 C        7.6650     5.6960     2.1610 C.ar  1 <1>  -0.1500 
 17 C        4.2910     8.6480    -0.1080 C.ar  1 <1>  -0.1440 
 18 N        8.9190     4.4700    -0.0340 N.ar  1 <1>  -0.6200 
 19 C        8.9490     6.0280     1.7840 C.ar  1 <1>  -0.1500 
 20 C        5.4910     9.2390    -0.4790 C.ar  1 <1>  -0.1500 
 21 C        3.2930     9.4280     0.4550 C.ar  1 <1>  -0.1500 
 22 C        9.5220     5.3970     0.6930 C.ar  1 <1>   0.1600 
 23 C        5.6910    10.5940    -0.2830 C.ar  1 <1>  -0.1500 
 24 C        3.4940    10.7840     0.6500 C.ar  1 <1>  -0.1500 
 25 C        4.6930    11.3670     0.2830 C.ar  1 <1>  -0.1500 
 26 H        2.4350     0.8760    -1.2140 H     1 <1>   0.0800 
 27 H        2.1680     0.2360     0.3850 H     1 <1>   0.0800 
 28 H       -1.0770     2.4240    -0.0190 H     1 <1>   0.0800 
 29 H       -0.9230     2.4950    -1.7510 H     1 <1>   0.0800 
 30 H        1.4560     2.3460     1.2140 H     1 <1>   0.0800 
 31 H        0.5520     4.1020    -0.2180 H     1 <1>   0.0800 
 32 H        1.2590     3.3520    -1.6350 H     1 <1>   0.0800 
 33 H        3.6160     3.0070    -0.8120 H     1 <1>   0.0800 
 34 H        3.8890     2.3060     0.7640 H     1 <1>   0.0800 
 35 H        2.9610     4.3390     1.8400 H     1 <1>   0.0800 
 36 H        2.6100     5.0010     0.2660 H     1 <1>   0.0800 
 37 H        5.0580     4.7560    -0.1980 H     1 <1>   0.4500 
 38 H        5.5380     3.2370     1.6650 H     1 <1>   0.0800 
 39 H        5.3430     4.6110     2.7260 H     1 <1>   0.0800 
 40 H        5.6790     6.7870     1.0370 H     1 <1>   0.0800 
 41 H        4.1130     6.7110     1.7910 H     1 <1>   0.0800 
 42 H        3.0380     6.9560    -0.4150 H     1 <1>   0.0800 
 43 H        4.5970     6.8530    -1.2030 H     1 <1>   0.0800 
 44 H        7.2160     3.3850    -0.2390 H     1 <1>   0.1500 
 45 H        7.2080     6.1770     3.0100 H     1 <1>   0.1500 
 46 H        9.5090     6.7700     2.3270 H     1 <1>   0.1500 
 47 H        6.2790     8.6570    -0.9250 H     1 <1>   0.1500 
 48 H        2.3500     9.0000     0.7450 H     1 <1>   0.1500 
 49 H       10.5260     5.6660     0.4060 H     1 <1>   0.1500 
 50 H        6.6220    11.0500    -0.5730 H     1 <1>   0.1500 
 51 H        2.7170    11.3890     1.0860 H     1 <1>   0.1500 
 52 H        4.8480    12.4210     0.4340 H     1 <1>   0.1500 
@<TRIPOS>BOND
  1   1   2  2   
  2   1   3  2   
  3   1   4  1   
  4   1   5  1   
  5   4   6  1   
  6   4  26  1   
  7   4  27  1   
  8   5   7  1   
  9   5  28  1   
 10   5  29  1   
 11   6   7  1   
 12   6   8  1   
 13   6  30  1   
 14   7  31  1   
 15   7  32  1   
 16   8   9  1   
 17   8  33  1   
 18   8  34  1   
 19   9  10  1   
 20   9  35  1   
 21   9  36  1   
 22  10  11  1   
 23  10  12  1   
 24  10  37  1   
 25  11  13  1   
 26  11  38  1   
 27  11  39  1   
 28  12  14  1   
 29  12  40  1   
 30  12  41  1   
 31  13  15  ar  
 32  13  16  ar  
 33  14  17  1   
 34  14  42  1   
 35  14  43  1   
 36  15  18  ar  
 37  15  44  1   
 38  16  19  ar  
 39  16  45  1   
 40  17  20  ar  
 41  17  21  ar  
 42  18  22  ar  
 43  19  22  ar  
 44  19  46  1   
 45  20  23  ar  
 46  20  47  1   
 47  21  24  ar  
 48  21  48  1   
 49  22  49  1   
 50  23  25  ar  
 51  23  50  1   
 52  24  25  ar  
 53  24  51  1   
 54  25  52  1   
@<TRIPOS>SUBSTRUCTURE
  1 ****  10 GROUP 4 **** **** 0

# MOE 2024.06 (io_trps.svl 2023.06)
