@<TRIPOS>MOLECULE
NONAME
46 48 1 0 0 
SMALL
USER_CHARGES


@<TRIPOS>ATOM
  1 O        0.2350     0.4550     0.8800 O.3   1 <1>  -0.6800 
  2 C        0.9070    -0.1150    -0.1940 C.3   1 <1>   0.2000 
  3 C        1.4290    -1.4800     0.2520 C.3   1 <1>  -0.0800 
  4 C        2.1890     0.6990    -0.4470 C.3   1 <1>   0.3430 
  5 C        2.6290    -1.0610     1.1050 C.3   1 <1>   0.3430 
  6 C        1.8010    -2.3530    -0.9770 C.3   1 <1>  -0.0170 
  7 N        3.2830    -0.0030     0.3040 N.4   1 <1>  -0.9590 
  8 C        3.0370    -3.2190    -0.7790 C.ar  1 <1>   0.1670 
  9 C        4.1520     0.9070     1.0930 C.3   1 <1>   0.4860 
 10 N        4.2080    -2.6070    -0.9140 N.ar  1 <1>  -0.6200 
 11 C        2.9020    -4.5740    -0.4800 C.ar  1 <1>   0.1600 
 12 C        4.6650     2.0190     0.1900 C.ar  1 <1>  -0.1440 
 13 C        5.2230    -3.4470    -0.7550 C.ar  1 <1>   0.1600 
 14 N        3.9160    -5.3990    -0.2970 N.ar  1 <1>  -0.6200 
 15 C        5.5890     1.7460    -0.8200 C.ar  1 <1>  -0.1440 
 16 C        4.1970     3.3210     0.3690 C.ar  1 <1>  -0.1440 
 17 C        5.0810    -4.7970    -0.4540 C.ar  1 <1>   0.1600 
 18 C        6.0100     2.7680    -1.6530 C.ar  1 <1>  -0.1500 
 19 C        6.1790     0.3610    -1.0660 C.3   1 <1>  -0.0970 
 20 C        4.6360     4.3270    -0.4760 C.ar  1 <1>  -0.1500 
 21 C        3.2190     3.7000     1.4790 C.3   1 <1>  -0.0970 
 22 C        5.5350     4.0530    -1.4860 C.ar  1 <1>  -0.1500 
 23 H       -0.6860     0.1230     0.9460 H     1 <1>   0.4000 
 24 H        0.2480    -0.1340    -1.0470 H     1 <1>   0.0800 
 25 H        0.7120    -2.0090     0.8570 H     1 <1>   0.0800 
 26 H        2.0550     1.7120    -0.1100 H     1 <1>   0.0800 
 27 H        2.4270     0.7080    -1.4970 H     1 <1>   0.0800 
 28 H        3.2970    -1.8810     1.3110 H     1 <1>   0.0800 
 29 H        2.2720    -0.6460     2.0350 H     1 <1>   0.0800 
 30 H        1.9880    -1.7360    -1.8400 H     1 <1>   0.0800 
 31 H        0.9610    -2.9760    -1.2300 H     1 <1>   0.0800 
 32 H        3.8800    -0.4900    -0.3860 H     1 <1>   0.4500 
 33 H        3.5920     1.3240     1.9120 H     1 <1>   0.0800 
 34 H        4.9860     0.3610     1.5020 H     1 <1>   0.0800 
 35 H        1.9170    -4.9980    -0.3880 H     1 <1>   0.1500 
 36 H        6.2190    -3.0550    -0.8670 H     1 <1>   0.1500 
 37 H        5.9650    -5.4000    -0.3390 H     1 <1>   0.1500 
 38 H        6.7170     2.5750    -2.4420 H     1 <1>   0.1500 
 39 H        7.1450     0.4470    -1.5320 H     1 <1>   0.0800 
 40 H        5.5410    -0.2000    -1.7260 H     1 <1>   0.0800 
 41 H        6.3140    -0.1820    -0.1490 H     1 <1>   0.0800 
 42 H        4.2850     5.3380    -0.3550 H     1 <1>   0.1500 
 43 H        2.9470     4.7380     1.4120 H     1 <1>   0.0800 
 44 H        3.6740     3.5430     2.4410 H     1 <1>   0.0800 
 45 H        2.3160     3.1220     1.4170 H     1 <1>   0.0800 
 46 H        5.8700     4.8410    -2.1380 H     1 <1>   0.1500 
@<TRIPOS>BOND
  1   1   2  1   
  2   1  23  1   
  3   2   3  1   
  4   2   4  1   
  5   2  24  1   
  6   3   5  1   
  7   3   6  1   
  8   3  25  1   
  9   4   7  1   
 10   4  26  1   
 11   4  27  1   
 12   5   7  1   
 13   5  28  1   
 14   5  29  1   
 15   6   8  1   
 16   6  30  1   
 17   6  31  1   
 18   7   9  1   
 19   7  32  1   
 20   8  10  ar  
 21   8  11  ar  
 22   9  12  1   
 23   9  33  1   
 24   9  34  1   
 25  10  13  ar  
 26  11  14  ar  
 27  11  35  1   
 28  12  15  ar  
 29  12  16  ar  
 30  13  17  ar  
 31  13  36  1   
 32  14  17  ar  
 33  15  18  ar  
 34  15  19  1   
 35  16  20  ar  
 36  16  21  1   
 37  17  37  1   
 38  18  22  ar  
 39  18  38  1   
 40  19  39  1   
 41  19  40  1   
 42  19  41  1   
 43  20  22  ar  
 44  20  42  1   
 45  21  43  1   
 46  21  44  1   
 47  21  45  1   
 48  22  46  1   
@<TRIPOS>SUBSTRUCTURE
  1 ****   7 GROUP 4 **** **** 0

# MOE 2024.06 (io_trps.svl 2023.06)
