@<TRIPOS>MOLECULE
NONAME
47 49 1 0 0 
SMALL
USER_CHARGES


@<TRIPOS>ATOM
  1 O        0.2600    -2.0680     0.7350 O.3   1 <1>  -0.5600 
  2 C       -0.3390    -2.6510    -0.3970 C.3   1 <1>   0.2800 
  3 C        0.0290    -0.7050     0.9680 C.3   1 <1>   0.1200 
  4 C       -1.8610    -2.3900    -0.3850 C.3   1 <1>  -0.1600 
  5 C       -0.0800    -4.1640    -0.2690 C.3   1 <1>  -0.1600 
  6 C        0.3900    -2.1730    -1.6690 C.3   1 <1>  -0.1600 
  7 C       -1.4680    -0.4540     1.1530 C.3   1 <1>  -0.1600 
  8 C       -2.2580    -0.9480    -0.0570 C.3   1 <1>   0.2800 
  9 C        1.3550    -4.5910    -0.6020 C.3   1 <1>   0.3430 
 10 C        1.9000    -2.4360    -1.6290 C.3   1 <1>   0.3430 
 11 O       -1.9430    -0.1540    -1.1330 O.3   1 <1>  -0.6800 
 12 C       -3.7640    -0.8100     0.1520 C.3   1 <1>  -0.2400 
 13 N        2.2610    -3.4110    -0.5520 N.4   1 <1>  -0.9590 
 14 C        3.7190    -3.7230    -0.4530 C.3   1 <1>   0.4230 
 15 C        3.9900    -4.6080     0.7730 C.3   1 <1>  -0.1600 
 16 C        4.5350    -2.4260    -0.3590 C.3   1 <1>  -0.1600 
 17 C        5.4920    -4.7520     1.0240 C.3   1 <1>   0.1200 
 18 C        5.9990    -2.7220    -0.0340 C.3   1 <1>   0.1200 
 19 O        6.0460    -3.4840     1.1250 O.3   1 <1>  -0.5600 
 20 H        0.4190    -0.1300     0.1470 H     1 <1>   0.0800 
 21 H        0.5610    -0.4310     1.8630 H     1 <1>   0.0800 
 22 H       -2.2960    -3.0230     0.3680 H     1 <1>   0.0800 
 23 H       -2.2980    -2.6800    -1.3230 H     1 <1>   0.0800 
 24 H       -0.7370    -4.6990    -0.9320 H     1 <1>   0.0800 
 25 H       -0.3250    -4.4810     0.7300 H     1 <1>   0.0800 
 26 H        0.2270    -1.1290    -1.8530 H     1 <1>   0.0800 
 27 H       -0.0240    -2.6880    -2.5180 H     1 <1>   0.0800 
 28 H       -1.6480     0.5940     1.3140 H     1 <1>   0.0800 
 29 H       -1.7920    -0.9770     2.0350 H     1 <1>   0.0800 
 30 H        1.3860    -5.0240    -1.5890 H     1 <1>   0.0800 
 31 H        1.6610    -5.3420     0.1070 H     1 <1>   0.0800 
 32 H        2.3960    -1.4990    -1.4350 H     1 <1>   0.0800 
 33 H        2.2300    -2.7980    -2.5880 H     1 <1>   0.0800 
 34 H       -2.3810     0.7120    -1.0330 H     1 <1>   0.4000 
 35 H       -4.0800    -1.4230     0.9770 H     1 <1>   0.0800 
 36 H       -4.2960    -1.1330    -0.7260 H     1 <1>   0.0800 
 37 H       -4.0300     0.2080     0.3740 H     1 <1>   0.0800 
 38 H        1.9800    -2.9230     0.3220 H     1 <1>   0.4500 
 39 H        4.0320    -4.2580    -1.3350 H     1 <1>   0.0800 
 40 H        3.5900    -5.5940     0.6290 H     1 <1>   0.0800 
 41 H        3.5440    -4.1760     1.6520 H     1 <1>   0.0800 
 42 H        4.1430    -1.7930     0.4180 H     1 <1>   0.0800 
 43 H        4.5100    -1.8910    -1.2900 H     1 <1>   0.0800 
 44 H        5.9860    -5.2860     0.2290 H     1 <1>   0.0800 
 45 H        5.6740    -5.2640     1.9530 H     1 <1>   0.0800 
 46 H        6.5400    -1.8090     0.1530 H     1 <1>   0.0800 
 47 H        6.4900    -3.2630    -0.8260 H     1 <1>   0.0800 
@<TRIPOS>BOND
  1   1   2  1   
  2   1   3  1   
  3   2   4  1   
  4   2   5  1   
  5   2   6  1   
  6   3   7  1   
  7   3  20  1   
  8   3  21  1   
  9   4   8  1   
 10   4  22  1   
 11   4  23  1   
 12   5   9  1   
 13   5  24  1   
 14   5  25  1   
 15   6  10  1   
 16   6  26  1   
 17   6  27  1   
 18   7   8  1   
 19   7  28  1   
 20   7  29  1   
 21   8  11  1   
 22   8  12  1   
 23   9  13  1   
 24   9  30  1   
 25   9  31  1   
 26  10  13  1   
 27  10  32  1   
 28  10  33  1   
 29  11  34  1   
 30  12  35  1   
 31  12  36  1   
 32  12  37  1   
 33  13  14  1   
 34  13  38  1   
 35  14  15  1   
 36  14  16  1   
 37  14  39  1   
 38  15  17  1   
 39  15  40  1   
 40  15  41  1   
 41  16  18  1   
 42  16  42  1   
 43  16  43  1   
 44  17  19  1   
 45  17  44  1   
 46  17  45  1   
 47  18  19  1   
 48  18  46  1   
 49  18  47  1   
@<TRIPOS>SUBSTRUCTURE
  1 ****  13 GROUP 4 **** **** 0

# MOE 2024.06 (io_trps.svl 2023.06)
