@<TRIPOS>MOLECULE
NONAME
49 52 1 0 0 
SMALL
USER_CHARGES


@<TRIPOS>ATOM
  1 O        0.4840    -0.1590     2.4650 O.3   1 <1>  -0.0190 
  2 N        0.9700     1.0130     2.2000 N.2   1 <1>  -0.4100 
  3 C        1.0160    -0.9370     1.5590 C.2   1 <1>   0.2980 
  4 C        1.7450     0.9000     1.1790 C.2   1 <1>   0.4620 
  5 N        1.8000    -0.3630     0.7390 N.2   1 <1>  -0.5650 
  6 C        0.6620    -2.4200     1.5670 C.3   1 <1>   0.2900 
  7 C        2.4860     1.9830     0.5530 C.ar  1 <1>   0.0540 
  8 N       -0.7570    -2.6800     1.2310 N.3   1 <1>  -0.8100 
  9 C        3.3370     1.7630    -0.5310 C.ar  1 <1>  -0.1500 
 10 C        2.3750     3.2970     1.0130 C.ar  1 <1>  -0.1500 
 11 C       -1.1510    -2.1250    -0.0750 C.3   1 <1>   0.1100 
 12 C       -1.0890    -4.1180     1.2110 C.3   1 <1>   0.1100 
 13 C        4.0390     2.7960    -1.1250 C.ar  1 <1>  -0.1500 
 14 C        3.0750     4.3340     0.4230 C.ar  1 <1>  -0.1500 
 15 C       -2.3430    -2.9710    -0.5080 C.3   1 <1>   0.2000 
 16 C       -1.9510    -4.3690    -0.0390 C.3   1 <1>  -0.0800 
 17 C        3.9110     4.0910    -0.6530 C.ar  1 <1>  -0.1440 
 18 O       -3.4360    -2.5590     0.2290 O.3   1 <1>  -0.6800 
 19 C       -1.1740    -5.1220    -1.1370 C.3   1 <1>   0.0210 
 20 C        4.6810     5.2260    -1.3010 C.3   1 <1>  -0.0970 
 21 C       -0.6550    -6.4670    -0.6600 C.2   1 <1>   0.1080 
 22 N       -1.4080    -7.3580    -0.0940 N.2   1 <1>  -0.7070 
 23 C        0.6650    -6.8900    -0.7700 C.2   1 <1>  -0.1500 
 24 N       -0.5810    -8.3860     0.1720 N.pl3 1 <1>   0.3000 
 25 C        0.6820    -8.1250    -0.2260 C.2   1 <1>  -0.3320 
 26 C        1.8430    -9.0890    -0.0630 C.3   1 <1>  -0.0600 
 27 H        0.8680    -2.8140     2.5460 H     1 <1>   0.0800 
 28 H        1.2970    -2.9270     0.8610 H     1 <1>   0.0800 
 29 H        3.4540     0.7650    -0.9170 H     1 <1>   0.1500 
 30 H        1.7300     3.5100     1.8470 H     1 <1>   0.1500 
 31 H       -1.4080    -1.0820     0.0000 H     1 <1>   0.0800 
 32 H       -0.3510    -2.2410    -0.7860 H     1 <1>   0.0800 
 33 H       -0.2030    -4.7290     1.2070 H     1 <1>   0.0800 
 34 H       -1.6560    -4.3550     2.0960 H     1 <1>   0.0800 
 35 H        4.6870     2.5870    -1.9580 H     1 <1>   0.1500 
 36 H        2.9650     5.3330     0.8060 H     1 <1>   0.1500 
 37 H       -2.5810    -2.8990    -1.5550 H     1 <1>   0.0800 
 38 H       -2.8210    -4.9510     0.2130 H     1 <1>   0.0800 
 39 H       -3.1250    -2.4490     1.1530 H     1 <1>   0.4000 
 40 H       -0.3440    -4.5320    -1.4780 H     1 <1>   0.0800 
 41 H       -1.8260    -5.2950    -1.9750 H     1 <1>   0.0800 
 42 H        4.8410     5.0250    -2.3450 H     1 <1>   0.0800 
 43 H        5.6360     5.3400    -0.8200 H     1 <1>   0.0800 
 44 H        4.1360     6.1490    -1.2140 H     1 <1>   0.0800 
 45 H        1.4780    -6.3350    -1.2010 H     1 <1>   0.1500 
 46 H       -0.9100    -9.2500     0.6200 H     1 <1>   0.2700 
 47 H        2.7440    -8.6540    -0.4560 H     1 <1>   0.0800 
 48 H        1.6450   -10.0030    -0.5940 H     1 <1>   0.0800 
 49 H        1.9970    -9.3150     0.9780 H     1 <1>   0.0800 
@<TRIPOS>BOND
  1   1   2  1   
  2   1   3  1   
  3   2   4  2   
  4   3   5  2   
  5   3   6  1   
  6   4   5  1   
  7   4   7  1   
  8   6   8  1   
  9   6  27  1   
 10   6  28  1   
 11   7   9  ar  
 12   7  10  ar  
 13   8  11  1   
 14   8  12  1   
 15   9  13  ar  
 16   9  29  1   
 17  10  14  ar  
 18  10  30  1   
 19  11  15  1   
 20  11  31  1   
 21  11  32  1   
 22  12  16  1   
 23  12  33  1   
 24  12  34  1   
 25  13  17  ar  
 26  13  35  1   
 27  14  17  ar  
 28  14  36  1   
 29  15  16  1   
 30  15  18  1   
 31  15  37  1   
 32  16  19  1   
 33  16  38  1   
 34  17  20  1   
 35  18  39  1   
 36  19  21  1   
 37  19  40  1   
 38  19  41  1   
 39  20  42  1   
 40  20  43  1   
 41  20  44  1   
 42  21  22  2   
 43  21  23  1   
 44  22  24  1   
 45  23  25  2   
 46  23  45  1   
 47  24  25  1   
 48  24  46  1   
 49  25  26  1   
 50  26  47  1   
 51  26  48  1   
 52  26  49  1   
@<TRIPOS>SUBSTRUCTURE
  1 ****   6 GROUP 4 **** **** 0

# MOE 2024.06 (io_trps.svl 2023.06)
