@<TRIPOS>MOLECULE
NONAME
52 54 1 0 0 
SMALL
USER_CHARGES


@<TRIPOS>ATOM
  1 O        0.3390    -1.5260    -1.6250 O.3   1 <1>  -0.6800 
  2 C        0.1060    -2.0620    -0.3700 C.3   1 <1>   0.1200 
  3 C        1.3700    -2.0300     0.5400 C.3   1 <1>   0.0000 
  4 C        2.6790    -2.5430    -0.1340 C.3   1 <1>   0.4230 
  5 C        1.5960    -0.5790     1.0530 C.3   1 <1>  -0.1600 
  6 C        1.0840    -2.9420     1.7690 C.3   1 <1>  -0.1600 
  7 N        2.5780    -3.9700    -0.6590 N.4   1 <1>  -0.9590 
  8 C        3.3190    -1.5310    -1.1160 C.3   1 <1>   0.2090 
  9 C        2.2180     0.3770     0.0270 C.3   1 <1>   0.2090 
 10 C        1.6410    -4.3760     1.6250 C.3   1 <1>  -0.1600 
 11 C        1.7000    -4.8550     0.1730 C.3   1 <1>   0.3430 
 12 C        2.1660    -4.0580    -2.0990 C.3   1 <1>   0.2630 
 13 N        3.5050    -0.2040    -0.4510 N.pl3 1 <1>  -0.8380 
 14 C        4.7230     0.2670    -0.1030 C.ar  1 <1>   0.4100 
 15 N        5.5880    -0.6690     0.3150 N.ar  1 <1>  -0.6200 
 16 C        5.0960     1.6320    -0.1380 C.ar  1 <1>  -0.1430 
 17 C        6.7410    -0.2830     0.7680 C.ar  1 <1>   0.5270 
 18 C        6.3180     1.9880     0.3750 C.ar  1 <1>   0.2180 
 19 C        4.1870     2.6820    -0.7920 C.3   1 <1>  -0.0970 
 20 N        7.1200     1.0050     0.8270 N.ar  1 <1>  -0.1790 
 21 C        7.7110    -1.3380     1.2590 C.3   1 <1>  -0.0970 
 22 C        6.8580     3.4110     0.4630 C.3   1 <1>  -0.0970 
 23 H       -0.5080    -1.2990    -2.0690 H     1 <1>   0.4000 
 24 H       -0.6900    -1.4970     0.0860 H     1 <1>   0.0800 
 25 H       -0.2470    -3.0670    -0.5140 H     1 <1>   0.0800 
 26 H        3.3900    -2.5820     0.6740 H     1 <1>   0.0800 
 27 H        2.2640    -0.5890     1.8970 H     1 <1>   0.0800 
 28 H        0.6670    -0.1610     1.3990 H     1 <1>   0.0800 
 29 H        1.5170    -2.5270     2.6640 H     1 <1>   0.0800 
 30 H        0.0230    -2.9880     1.9510 H     1 <1>   0.0800 
 31 H        3.5310    -4.3520    -0.5910 H     1 <1>   0.4500 
 32 H        2.7090    -1.3880    -1.9880 H     1 <1>   0.0800 
 33 H        4.2720    -1.9070    -1.4440 H     1 <1>   0.0800 
 34 H        2.3840     1.3230     0.5090 H     1 <1>   0.0800 
 35 H        1.5560     0.5390    -0.8080 H     1 <1>   0.0800 
 36 H        1.0260    -5.0510     2.1960 H     1 <1>   0.0800 
 37 H        2.6310    -4.4270     2.0450 H     1 <1>   0.0800 
 38 H        0.6990    -4.8510    -0.2270 H     1 <1>   0.0800 
 39 H        2.0640    -5.8690     0.1370 H     1 <1>   0.0800 
 40 H        1.1790    -3.6490    -2.2340 H     1 <1>   0.0800 
 41 H        2.1580    -5.0860    -2.4240 H     1 <1>   0.0800 
 42 H        2.8510    -3.5100    -2.7250 H     1 <1>   0.0800 
 43 H        4.7630     3.4210    -1.3200 H     1 <1>   0.0800 
 44 H        3.5870     3.1790    -0.0510 H     1 <1>   0.0800 
 45 H        3.5380     2.2290    -1.5200 H     1 <1>   0.0800 
 46 H        8.0400     1.2300     1.2060 H     1 <1>   0.4570 
 47 H        7.2790    -2.3170     1.1550 H     1 <1>   0.0800 
 48 H        7.9410    -1.1810     2.2980 H     1 <1>   0.0800 
 49 H        8.6190    -1.3090     0.6830 H     1 <1>   0.0800 
 50 H        6.0670     4.1380     0.4230 H     1 <1>   0.0800 
 51 H        7.5350     3.6010    -0.3510 H     1 <1>   0.0800 
 52 H        7.3800     3.5640     1.3910 H     1 <1>   0.0800 
@<TRIPOS>BOND
  1   1   2  1   
  2   1  23  1   
  3   2   3  1   
  4   2  24  1   
  5   2  25  1   
  6   3   4  1   
  7   3   5  1   
  8   3   6  1   
  9   4   7  1   
 10   4   8  1   
 11   4  26  1   
 12   5   9  1   
 13   5  27  1   
 14   5  28  1   
 15   6  10  1   
 16   6  29  1   
 17   6  30  1   
 18   7  11  1   
 19   7  12  1   
 20   7  31  1   
 21   8  13  1   
 22   8  32  1   
 23   8  33  1   
 24   9  13  1   
 25   9  34  1   
 26   9  35  1   
 27  10  11  1   
 28  10  36  1   
 29  10  37  1   
 30  11  38  1   
 31  11  39  1   
 32  12  40  1   
 33  12  41  1   
 34  12  42  1   
 35  13  14  1   
 36  14  15  ar  
 37  14  16  ar  
 38  15  17  ar  
 39  16  18  ar  
 40  16  19  1   
 41  17  20  ar  
 42  17  21  1   
 43  18  20  ar  
 44  18  22  1   
 45  19  43  1   
 46  19  44  1   
 47  19  45  1   
 48  20  46  1   
 49  21  47  1   
 50  21  48  1   
 51  21  49  1   
 52  22  50  1   
 53  22  51  1   
 54  22  52  1   
@<TRIPOS>SUBSTRUCTURE
  1 ****  13 GROUP 4 **** **** 0

# MOE 2024.06 (io_trps.svl 2023.06)
