@<TRIPOS>MOLECULE
NONAME
61 63 1 0 0 
SMALL
USER_CHARGES


@<TRIPOS>ATOM
  1 O        2.5310    -3.1450     1.6530 O.2   1 <1>  -0.5700 
  2 C        2.5860    -2.4710     0.6440 C.2   1 <1>   0.5440 
  3 N        3.1670    -1.2200     0.7180 N.am  1 <1>  -0.6600 
  4 C        1.9990    -3.0010    -0.5720 C.ar  1 <1>   0.0860 
  5 C        2.8760    -0.1450    -0.2940 C.3   1 <1>   0.1400 
  6 C        3.8130    -0.7810     2.0030 C.3   1 <1>   0.1400 
  7 C        0.7090    -3.5230    -0.5410 C.ar  1 <1>  -0.1500 
  8 C        2.6860    -3.0520    -1.7840 C.ar  1 <1>  -0.1500 
  9 C        3.5760     1.2070     0.0020 C.3   1 <1>   0.4230 
 10 C        5.0020     0.1850     1.8050 C.3   1 <1>   0.3430 
 11 C        0.1190    -4.0860    -1.6610 C.ar  1 <1>  -0.1440 
 12 C        2.0990    -3.5840    -2.9170 C.ar  1 <1>  -0.1500 
 13 N        4.9700     0.9420     0.5020 N.4   1 <1>  -0.9590 
 14 C        2.7640     2.1000     0.9680 C.3   1 <1>  -0.1600 
 15 C        0.8170    -4.1000    -2.8590 C.ar  1 <1>  -0.1500 
 16 C       -1.2630    -4.7090    -1.5650 C.3   1 <1>   0.4860 
 17 C        5.7990     2.1860     0.5510 C.3   1 <1>   0.2630 
 18 C        2.3960     3.4400     0.3280 C.3   1 <1>   0.1200 
 19 N       -1.2000    -5.8360    -0.5950 N.4   1 <1>  -0.9590 
 20 O        3.5480     4.0220    -0.1680 O.3   1 <1>  -0.6800 
 21 C       -0.2870    -6.9180    -1.0490 C.3   1 <1>   0.3430 
 22 C       -2.5430    -6.3780    -0.2700 C.3   1 <1>   0.3430 
 23 C        0.6160    -7.3500     0.1060 C.3   1 <1>  -0.1600 
 24 C       -2.5560    -6.9940     1.1330 C.3   1 <1>  -0.1600 
 25 C       -0.0640    -7.5140     1.4780 C.3   1 <1>  -0.1600 
 26 C       -1.4940    -8.0740     1.4150 C.3   1 <1>  -0.1600 
 27 H        1.8120     0.0020    -0.3670 H     1 <1>   0.0800 
 28 H        3.2130    -0.4770    -1.2590 H     1 <1>   0.0800 
 29 H        4.1620    -1.6350     2.5580 H     1 <1>   0.0800 
 30 H        3.0680    -0.3000     2.6110 H     1 <1>   0.0800 
 31 H        0.1820    -3.4880     0.3990 H     1 <1>   0.1500 
 32 H        3.6960    -2.6840    -1.8360 H     1 <1>   0.1500 
 33 H        3.6440     1.7370    -0.9350 H     1 <1>   0.0800 
 34 H        5.9170    -0.3820     1.8610 H     1 <1>   0.0800 
 35 H        5.0090     0.8780     2.6300 H     1 <1>   0.0800 
 36 H        2.6450    -3.6050    -3.8470 H     1 <1>   0.1500 
 37 H        5.3890     0.3100    -0.1930 H     1 <1>   0.4500 
 38 H        3.2990     2.2970     1.8780 H     1 <1>   0.0800 
 39 H        1.8470     1.6110     1.2460 H     1 <1>   0.0800 
 40 H        0.3830    -4.5170    -3.7530 H     1 <1>   0.1500 
 41 H       -1.5800    -5.0650    -2.5320 H     1 <1>   0.0800 
 42 H       -1.9650    -3.9660    -1.2250 H     1 <1>   0.0800 
 43 H        5.3950     2.8780     1.2720 H     1 <1>   0.0800 
 44 H        5.8000     2.6710    -0.4120 H     1 <1>   0.0800 
 45 H        6.8160     1.9530     0.8230 H     1 <1>   0.0800 
 46 H        1.9610     4.1060     1.0570 H     1 <1>   0.0800 
 47 H        1.7050     3.3090    -0.4890 H     1 <1>   0.0800 
 48 H       -0.7870    -5.4720     0.2720 H     1 <1>   0.4500 
 49 H        3.3570     4.9260    -0.5020 H     1 <1>   0.4000 
 50 H        0.3310    -6.5810    -1.8660 H     1 <1>   0.0800 
 51 H       -0.8630    -7.7620    -1.3920 H     1 <1>   0.0800 
 52 H       -2.8250    -7.1220    -0.9980 H     1 <1>   0.0800 
 53 H       -3.2750    -5.5870    -0.3000 H     1 <1>   0.0800 
 54 H        1.4280    -6.6480     0.1990 H     1 <1>   0.0800 
 55 H        1.0590    -8.2910    -0.1720 H     1 <1>   0.0800 
 56 H       -3.5260    -7.4380     1.2780 H     1 <1>   0.0800 
 57 H       -2.4710    -6.2080     1.8630 H     1 <1>   0.0800 
 58 H       -0.0670    -6.5730     2.0030 H     1 <1>   0.0800 
 59 H        0.5420    -8.1840     2.0660 H     1 <1>   0.0800 
 60 H       -1.5580    -8.8760     0.6980 H     1 <1>   0.0800 
 61 H       -1.7180    -8.5020     2.3790 H     1 <1>   0.0800 
@<TRIPOS>BOND
  1   1   2  2   
  2   2   3  am  
  3   2   4  1   
  4   3   5  1   
  5   3   6  1   
  6   4   7  ar  
  7   4   8  ar  
  8   5   9  1   
  9   5  27  1   
 10   5  28  1   
 11   6  10  1   
 12   6  29  1   
 13   6  30  1   
 14   7  11  ar  
 15   7  31  1   
 16   8  12  ar  
 17   8  32  1   
 18   9  13  1   
 19   9  14  1   
 20   9  33  1   
 21  10  13  1   
 22  10  34  1   
 23  10  35  1   
 24  11  15  ar  
 25  11  16  1   
 26  12  15  ar  
 27  12  36  1   
 28  13  17  1   
 29  13  37  1   
 30  14  18  1   
 31  14  38  1   
 32  14  39  1   
 33  15  40  1   
 34  16  19  1   
 35  16  41  1   
 36  16  42  1   
 37  17  43  1   
 38  17  44  1   
 39  17  45  1   
 40  18  20  1   
 41  18  46  1   
 42  18  47  1   
 43  19  21  1   
 44  19  22  1   
 45  19  48  1   
 46  20  49  1   
 47  21  23  1   
 48  21  50  1   
 49  21  51  1   
 50  22  24  1   
 51  22  52  1   
 52  22  53  1   
 53  23  25  1   
 54  23  54  1   
 55  23  55  1   
 56  24  26  1   
 57  24  56  1   
 58  24  57  1   
 59  25  26  1   
 60  25  58  1   
 61  25  59  1   
 62  26  60  1   
 63  26  61  1   
@<TRIPOS>SUBSTRUCTURE
  1 ****   4 GROUP 4 **** **** 0

# MOE 2024.06 (io_trps.svl 2023.06)
