@<TRIPOS>MOLECULE
NONAME
43 46 1 0 0 
SMALL
USER_CHARGES


@<TRIPOS>ATOM
  1 O       -0.8360     0.1480    -1.0180 O.2   1 <1>  -0.5700 
  2 C       -1.5860     0.7980    -0.3150 C.2   1 <1>   0.5440 
  3 N       -2.5930     0.1410     0.3560 N.am  1 <1>  -0.6600 
  4 C       -1.4170     2.2330    -0.2300 C.ar  1 <1>   0.0860 
  5 C       -2.6010    -1.3510     0.4960 C.3   1 <1>   0.1400 
  6 C       -3.9440     0.7410     0.5850 C.3   1 <1>   0.1400 
  7 C       -1.0860     2.9700    -1.3650 C.ar  1 <1>   0.1600 
  8 C       -1.5700     2.9380     0.9580 C.ar  1 <1>  -0.1500 
  9 C       -3.7400    -1.9760    -0.3300 C.3   1 <1>   0.3440 
 10 C       -5.0180     0.0000    -0.2380 C.3   1 <1>   0.2950 
 11 N       -0.9310     4.2840    -1.4190 N.ar  1 <1>  -0.6200 
 12 C       -1.4050     4.3060     0.9260 C.ar  1 <1>  -0.1500 
 13 O       -4.9640    -1.3750     0.0090 O.3   1 <1>  -0.5600 
 14 C       -3.8170    -3.4800    -0.0840 C.ar  1 <1>  -0.1430 
 15 C       -6.4270     0.4780     0.1230 C.3   1 <1>  -0.1950 
 16 C       -1.0930     4.9240    -0.2720 C.ar  1 <1>   0.1600 
 17 C       -3.0590    -4.3380    -0.8690 C.ar  1 <1>  -0.1500 
 18 C       -4.6160    -4.0160     0.9180 C.ar  1 <1>  -0.1500 
 19 C       -7.5690     0.3080    -0.8290 C.3   1 <1>  -0.2000 
 20 C       -7.0290     1.6800    -0.5370 C.3   1 <1>  -0.2000 
 21 C       -3.0970    -5.7050    -0.6580 C.ar  1 <1>  -0.1500 
 22 C       -4.6570    -5.3830     1.1300 C.ar  1 <1>  -0.1500 
 23 C       -3.8960    -6.2290     0.3430 C.ar  1 <1>  -0.1500 
 24 H       -1.6620    -1.7690     0.1770 H     1 <1>   0.0800 
 25 H       -2.7360    -1.6110     1.5300 H     1 <1>   0.0800 
 26 H       -4.1890     0.6740     1.6310 H     1 <1>   0.0800 
 27 H       -3.9550     1.7790     0.3050 H     1 <1>   0.0800 
 28 H       -0.9430     2.4280    -2.2860 H     1 <1>   0.1500 
 29 H       -1.8050     2.4240     1.8740 H     1 <1>   0.1500 
 30 H       -3.5630    -1.8000    -1.3770 H     1 <1>   0.0800 
 31 H       -4.8440     0.1570    -1.2890 H     1 <1>   0.0800 
 32 H       -1.5130     4.8940     1.8210 H     1 <1>   0.1500 
 33 H       -6.6440     0.3350     1.1680 H     1 <1>   0.1000 
 34 H       -0.9670     5.9940    -0.2900 H     1 <1>   0.1500 
 35 H       -2.4310    -3.9450    -1.6500 H     1 <1>   0.1500 
 36 H       -5.2150    -3.3670     1.5340 H     1 <1>   0.1500 
 37 H       -7.3770    -0.1410    -1.7890 H     1 <1>   0.1000 
 38 H       -8.5280     0.0250    -0.4300 H     1 <1>   0.1000 
 39 H       -7.6300     2.3510     0.0520 H     1 <1>   0.1000 
 40 H       -6.4910     2.1880    -1.3190 H     1 <1>   0.1000 
 41 H       -2.5060    -6.3620    -1.2720 H     1 <1>   0.1500 
 42 H       -5.2810    -5.7870     1.9080 H     1 <1>   0.1500 
 43 H       -3.9280    -7.2920     0.5080 H     1 <1>   0.1500 
@<TRIPOS>BOND
  1   1   2  2   
  2   2   3  am  
  3   2   4  1   
  4   3   5  1   
  5   3   6  1   
  6   4   7  ar  
  7   4   8  ar  
  8   5   9  1   
  9   5  24  1   
 10   5  25  1   
 11   6  10  1   
 12   6  26  1   
 13   6  27  1   
 14   7  11  ar  
 15   7  28  1   
 16   8  12  ar  
 17   8  29  1   
 18   9  13  1   
 19   9  14  1   
 20   9  30  1   
 21  10  13  1   
 22  10  15  1   
 23  10  31  1   
 24  11  16  ar  
 25  12  16  ar  
 26  12  32  1   
 27  14  17  ar  
 28  14  18  ar  
 29  15  19  1   
 30  15  20  1   
 31  15  33  1   
 32  16  34  1   
 33  17  21  ar  
 34  17  35  1   
 35  18  22  ar  
 36  18  36  1   
 37  19  20  1   
 38  19  37  1   
 39  19  38  1   
 40  20  39  1   
 41  20  40  1   
 42  21  23  ar  
 43  21  41  1   
 44  22  23  ar  
 45  22  42  1   
 46  23  43  1   
@<TRIPOS>SUBSTRUCTURE
  1 ****   3 GROUP 4 **** **** 0

# MOE 2024.06 (io_trps.svl 2023.06)
