@<TRIPOS>MOLECULE
NONAME
55 57 1 0 0 
SMALL
USER_CHARGES


@<TRIPOS>ATOM
  1 O        0.7310    -1.3360    -1.8610 O.2   1 <1>  -0.5700 
  2 C        0.2050    -0.3740    -1.3550 C.2   1 <1>   0.5690 
  3 N       -0.6500    -0.4930    -0.3120 N.am  1 <1>  -0.7300 
  4 C        0.5000     1.0260    -1.9060 C.3   1 <1>   0.1710 
  5 C       -1.0960    -1.7520     0.3020 C.3   1 <1>   0.2840 
  6 N        0.2680     2.1470    -0.9410 N.3   1 <1>  -0.8100 
  7 C       -2.5100    -1.5570     0.8300 C.ar  1 <1>  -0.1430 
  8 C        0.2010     3.4340    -1.6660 C.3   1 <1>   0.1100 
  9 C        1.2880     2.1410     0.1210 C.3   1 <1>   0.1100 
 10 C       -3.6320    -1.7430     0.0260 C.ar  1 <1>  -0.1430 
 11 C       -2.6750    -1.1790     2.1550 C.ar  1 <1>  -0.1500 
 12 C       -0.1750     4.6430    -0.7900 C.3   1 <1>   0.2090 
 13 C        0.7710     2.8860     1.3540 C.3   1 <1>  -0.1600 
 14 C       -4.8960    -1.5550     0.5640 C.ar  1 <1>  -0.1500 
 15 C       -3.5080    -2.1480    -1.4370 C.3   1 <1>  -0.0970 
 16 C       -3.9390    -0.9910     2.6840 C.ar  1 <1>  -0.1500 
 17 N        0.9620     5.0720     0.0830 N.pl3 1 <1>  -0.8380 
 18 C        1.1150     4.3790     1.3930 C.3   1 <1>   0.2090 
 19 C       -5.0520    -1.1810     1.8870 C.ar  1 <1>  -0.1500 
 20 C        1.7970     6.0750    -0.2760 C.ar  1 <1>   0.1000 
 21 C        1.4270     7.4330    -0.2410 C.ar  1 <1>  -0.1430 
 22 C        3.0950     5.7670    -0.6960 C.ar  1 <1>  -0.1500 
 23 C        2.3310     8.3920    -0.6260 C.ar  1 <1>   0.2110 
 24 C        0.0380     7.8420     0.2420 C.3   1 <1>  -0.0970 
 25 C        3.9660     6.7530    -1.0710 C.ar  1 <1>   0.2110 
 26 N        3.5790     8.0520    -1.0360 N.ar  1 <1>  -0.1790 
 27 H       -1.0650     0.3660     0.0610 H     1 <1>   0.3700 
 28 H       -0.1380     1.1570    -2.7610 H     1 <1>   0.0800 
 29 H        1.5190     1.0500    -2.2510 H     1 <1>   0.0800 
 30 H       -0.4310    -2.0050     1.1090 H     1 <1>   0.0800 
 31 H       -1.0580    -2.5490    -0.4200 H     1 <1>   0.0800 
 32 H       -0.5540     3.3490    -2.4280 H     1 <1>   0.0800 
 33 H        1.1390     3.6330    -2.1550 H     1 <1>   0.0800 
 34 H        2.2120     2.5680    -0.2320 H     1 <1>   0.0800 
 35 H        1.4880     1.1250     0.4170 H     1 <1>   0.0800 
 36 H       -1.8160    -1.0270     2.7850 H     1 <1>   0.1500 
 37 H       -1.0430     4.4120    -0.1960 H     1 <1>   0.0800 
 38 H       -0.4330     5.4560    -1.4440 H     1 <1>   0.0800 
 39 H        1.2100     2.4380     2.2270 H     1 <1>   0.0800 
 40 H       -0.2920     2.7490     1.4420 H     1 <1>   0.0800 
 41 H       -5.7710    -1.6990    -0.0440 H     1 <1>   0.1500 
 42 H       -2.8410    -1.4800    -1.9520 H     1 <1>   0.0800 
 43 H       -4.4620    -2.1130    -1.9300 H     1 <1>   0.0800 
 44 H       -3.1250    -3.1490    -1.5100 H     1 <1>   0.0800 
 45 H       -4.0570    -0.6990     3.7120 H     1 <1>   0.1500 
 46 H        2.1340     4.4900     1.7220 H     1 <1>   0.0800 
 47 H        0.4860     4.8640     2.1190 H     1 <1>   0.0800 
 48 H       -6.0380    -1.0390     2.2940 H     1 <1>   0.1500 
 49 H        3.3850     4.7320    -0.7200 H     1 <1>   0.1500 
 50 H        2.0670     9.4380    -0.6080 H     1 <1>   0.1500 
 51 H       -0.1940     7.3390     1.1650 H     1 <1>   0.0800 
 52 H       -0.7040     7.5710    -0.4870 H     1 <1>   0.0800 
 53 H       -0.0250     8.9010     0.4130 H     1 <1>   0.0800 
 54 H        4.9660     6.5150    -1.3980 H     1 <1>   0.1500 
 55 H        4.2380     8.7870    -1.3190 H     1 <1>   0.4570 
@<TRIPOS>BOND
  1   1   2  2   
  2   2   3  am  
  3   2   4  1   
  4   3   5  1   
  5   3  27  1   
  6   4   6  1   
  7   4  28  1   
  8   4  29  1   
  9   5   7  1   
 10   5  30  1   
 11   5  31  1   
 12   6   8  1   
 13   6   9  1   
 14   7  10  ar  
 15   7  11  ar  
 16   8  12  1   
 17   8  32  1   
 18   8  33  1   
 19   9  13  1   
 20   9  34  1   
 21   9  35  1   
 22  10  14  ar  
 23  10  15  1   
 24  11  16  ar  
 25  11  36  1   
 26  12  17  1   
 27  12  37  1   
 28  12  38  1   
 29  13  18  1   
 30  13  39  1   
 31  13  40  1   
 32  14  19  ar  
 33  14  41  1   
 34  15  42  1   
 35  15  43  1   
 36  15  44  1   
 37  16  19  ar  
 38  16  45  1   
 39  17  18  1   
 40  17  20  1   
 41  18  46  1   
 42  18  47  1   
 43  19  48  1   
 44  20  21  ar  
 45  20  22  ar  
 46  21  23  ar  
 47  21  24  1   
 48  22  25  ar  
 49  22  49  1   
 50  23  26  ar  
 51  23  50  1   
 52  24  51  1   
 53  24  52  1   
 54  24  53  1   
 55  25  26  ar  
 56  25  54  1   
 57  26  55  1   
@<TRIPOS>SUBSTRUCTURE
  1 ****   6 GROUP 4 **** **** 0

# MOE 2024.06 (io_trps.svl 2023.06)
