@<TRIPOS>MOLECULE
NONAME
56 60 1 0 0 
SMALL
USER_CHARGES


@<TRIPOS>ATOM
  1 O       -0.8750     0.6190    -1.8570 O.2   1 <1>  -0.5700 
  2 C       -1.2960     0.4920    -0.7200 C.2   1 <1>   0.7160 
  3 N       -1.5170    -0.7760    -0.2240 N.am  1 <1>  -0.6600 
  4 C       -1.5730     1.6490     0.0640 C.2   1 <1>  -0.0860 
  5 C       -1.7290    -1.0480     1.2200 C.3   1 <1>   0.1400 
  6 C       -2.0290    -1.8400    -1.1170 C.3   1 <1>   0.1400 
  7 C       -2.8310     2.2410     0.1520 C.2   1 <1>   0.3720 
  8 C       -0.8080     2.3930     0.9030 C.2   1 <1>   0.0870 
  9 C       -3.2290    -1.1770     1.4910 C.3   1 <1>  -0.1600 
 10 C       -3.5440    -1.9490    -0.9100 C.3   1 <1>  -0.1600 
 11 N       -2.8240     3.2310     0.9730 N.2   1 <1>  -0.4100 
 12 N       -3.9480     1.8040    -0.5640 N.pl3 1 <1>  -0.8210 
 13 O       -1.5940     3.3090     1.4130 O.3   1 <1>  -0.0190 
 14 C        0.5780     2.3070     1.2880 C.ar  1 <1>   0.0530 
 15 C       -3.9120    -2.2030     0.5640 C.3   1 <1>   0.1000 
 16 C       -5.2750     1.9720     0.1080 C.3   1 <1>   0.2090 
 17 C       -3.9970     2.3100    -1.9660 C.3   1 <1>   0.2090 
 18 C        1.5410     1.7440     0.4490 C.ar  1 <1>  -0.1500 
 19 C        1.0080     2.7830     2.5270 C.ar  1 <1>  -0.1500 
 20 C       -5.4300    -2.1880     0.7340 C.2   1 <1>   0.0060 
 21 C       -6.4020     1.3720    -0.7530 C.3   1 <1>   0.1200 
 22 C       -5.1840     1.6970    -2.7300 C.3   1 <1>   0.1200 
 23 C        2.8660     1.6510     0.8330 C.ar  1 <1>  -0.1500 
 24 C        2.3310     2.6940     2.9170 C.ar  1 <1>  -0.1500 
 25 N       -6.1230    -1.2900     1.3460 N.2   1 <1>  -0.3380 
 26 N       -6.2290    -3.1380     0.2310 N.pl3 1 <1>   0.0330 
 27 O       -6.3880     1.9140    -2.0480 O.3   1 <1>  -0.5600 
 28 C        3.2640     2.1250     2.0690 C.ar  1 <1>  -0.1500 
 29 N       -7.4150    -1.6340     1.2400 N.2   1 <1>  -0.3380 
 30 C       -7.4520    -2.7390     0.5770 C.2   1 <1>   0.2700 
 31 N       -8.6110    -3.4140     0.2660 N.pl3 1 <1>  -0.8840 
 32 H       -1.3110    -0.2590     1.8220 H     1 <1>   0.0800 
 33 H       -1.2270    -1.9640     1.4820 H     1 <1>   0.0800 
 34 H       -1.5440    -2.7710    -0.8780 H     1 <1>   0.0800 
 35 H       -1.8160    -1.6050    -2.1470 H     1 <1>   0.0800 
 36 H       -3.6780    -0.2110     1.3530 H     1 <1>   0.0800 
 37 H       -3.3870    -1.4570     2.5170 H     1 <1>   0.0800 
 38 H       -3.9260    -2.7400    -1.5280 H     1 <1>   0.0800 
 39 H       -4.0000    -1.0300    -1.2350 H     1 <1>   0.0800 
 40 H       -3.5520    -3.1790     0.8400 H     1 <1>   0.0800 
 41 H       -5.4720     3.0170     0.2720 H     1 <1>   0.0800 
 42 H       -5.2600     1.4800     1.0650 H     1 <1>   0.0800 
 43 H       -3.0810     2.0600    -2.4730 H     1 <1>   0.0800 
 44 H       -4.0930     3.3820    -1.9580 H     1 <1>   0.0800 
 45 H        1.2580     1.3800    -0.5230 H     1 <1>   0.1500 
 46 H        0.2930     3.2290     3.1970 H     1 <1>   0.1500 
 47 H       -7.3590     1.5870    -0.3110 H     1 <1>   0.0800 
 48 H       -6.2910     0.3050    -0.8240 H     1 <1>   0.0800 
 49 H       -5.0440     0.6380    -2.8500 H     1 <1>   0.0800 
 50 H       -5.2710     2.1490    -3.7010 H     1 <1>   0.0800 
 51 H        3.5890     1.2110     0.1670 H     1 <1>   0.1500 
 52 H        2.6370     3.0680     3.8780 H     1 <1>   0.1500 
 53 H       -5.9990    -3.9600    -0.3250 H     1 <1>   0.2700 
 54 H        4.2960     2.0540     2.3690 H     1 <1>   0.1500 
 55 H       -9.4240    -2.8190     0.4560 H     1 <1>   0.4000 
 56 H       -8.7300    -4.2850     0.7880 H     1 <1>   0.4000 
@<TRIPOS>BOND
  1   1   2  2   
  2   2   3  am  
  3   2   4  1   
  4   3   5  1   
  5   3   6  1   
  6   4   7  1   
  7   4   8  2   
  8   5   9  1   
  9   5  32  1   
 10   5  33  1   
 11   6  10  1   
 12   6  34  1   
 13   6  35  1   
 14   7  11  2   
 15   7  12  1   
 16   8  13  1   
 17   8  14  1   
 18   9  15  1   
 19   9  36  1   
 20   9  37  1   
 21  10  15  1   
 22  10  38  1   
 23  10  39  1   
 24  11  13  1   
 25  12  16  1   
 26  12  17  1   
 27  14  18  ar  
 28  14  19  ar  
 29  15  20  1   
 30  15  40  1   
 31  16  21  1   
 32  16  41  1   
 33  16  42  1   
 34  17  22  1   
 35  17  43  1   
 36  17  44  1   
 37  18  23  ar  
 38  18  45  1   
 39  19  24  ar  
 40  19  46  1   
 41  20  25  2   
 42  20  26  1   
 43  21  27  1   
 44  21  47  1   
 45  21  48  1   
 46  22  27  1   
 47  22  49  1   
 48  22  50  1   
 49  23  28  ar  
 50  23  51  1   
 51  24  28  ar  
 52  24  52  1   
 53  25  29  1   
 54  26  30  1   
 55  26  53  1   
 56  28  54  1   
 57  29  30  2   
 58  30  31  1   
 59  31  55  1   
 60  31  56  1   
@<TRIPOS>SUBSTRUCTURE
  1 ****   4 GROUP 4 **** **** 0

# MOE 2024.06 (io_trps.svl 2023.06)
