@<TRIPOS>MOLECULE
NONAME
33 35 1 0 0 
SMALL
USER_CHARGES


@<TRIPOS>ATOM
  1 S       -0.3190    -0.7590    -1.8810 S.3   1 <1>  -0.0800 
  2 C       -1.6270    -1.2250    -0.8240 C.2   1 <1>  -0.1400 
  3 C       -0.8220     0.9040    -1.7500 C.2   1 <1>   0.2280 
  4 C       -2.3060    -0.1090    -0.4800 C.2   1 <1>   0.0460 
  5 C       -1.6780    -2.7270    -0.5610 C.3   1 <1>   0.0200 
  6 N       -1.8390     1.0840    -1.0100 N.2   1 <1>  -0.5650 
  7 C       -3.5240     0.0680     0.4070 C.3   1 <1>  -0.0590 
  8 C       -2.7820    -3.1810     0.3910 C.3   1 <1>   0.2090 
  9 N       -2.7420    -4.6620     0.5720 N.pl3 1 <1>  -0.8380 
 10 C       -3.8820    -5.4110     0.3690 C.ar  1 <1>   0.4100 
 11 C       -1.7070    -5.1700     1.5140 C.3   1 <1>   0.1290 
 12 N       -5.0320    -4.8930     0.7680 N.ar  1 <1>  -0.6200 
 13 C       -3.8320    -6.6750    -0.2190 C.ar  1 <1>   0.0000 
 14 C       -6.1120    -5.6450     0.5940 C.ar  1 <1>   0.4700 
 15 C       -5.0400    -7.3190    -0.3200 C.ar  1 <1>   0.2970 
 16 C       -2.7390    -7.4420    -0.7580 C.2   1 <1>  -0.1500 
 17 N       -6.2060    -6.8530     0.0710 N.ar  1 <1>  -0.5670 
 18 S       -4.8290    -8.9030    -1.0700 S.3   1 <1>  -0.0800 
 19 C       -3.0920    -8.6450    -1.2450 C.2   1 <1>  -0.1100 
 20 H       -0.2500     1.6360    -2.2910 H     1 <1>   0.1500 
 21 H       -0.7290    -3.0260    -0.1560 H     1 <1>   0.0800 
 22 H       -1.8150    -3.2320    -1.5000 H     1 <1>   0.0800 
 23 H       -3.8830    -0.8520     0.8160 H     1 <1>   0.0800 
 24 H       -4.3150     0.5170    -0.1650 H     1 <1>   0.0800 
 25 H       -3.2770     0.7280     1.2190 H     1 <1>   0.0800 
 26 H       -3.7310    -2.8950    -0.0310 H     1 <1>   0.0800 
 27 H       -2.6710    -2.7000     1.3470 H     1 <1>   0.0800 
 28 H       -0.7410    -5.1550     1.0400 H     1 <1>   0.0800 
 29 H       -1.9330    -6.1800     1.8100 H     1 <1>   0.0800 
 30 H       -1.6790    -4.5560     2.3970 H     1 <1>   0.0800 
 31 H       -7.0380    -5.2090     0.9280 H     1 <1>   0.1500 
 32 H       -1.7440    -7.0340    -0.7500 H     1 <1>   0.1500 
 33 H       -2.5240    -9.4350    -1.7050 H     1 <1>   0.1500 
@<TRIPOS>BOND
  1   1   2  1   
  2   1   3  1   
  3   2   4  2   
  4   2   5  1   
  5   3   6  2   
  6   3  20  1   
  7   4   6  1   
  8   4   7  1   
  9   5   8  1   
 10   5  21  1   
 11   5  22  1   
 12   7  23  1   
 13   7  24  1   
 14   7  25  1   
 15   8   9  1   
 16   8  26  1   
 17   8  27  1   
 18   9  10  1   
 19   9  11  1   
 20  10  12  ar  
 21  10  13  ar  
 22  11  28  1   
 23  11  29  1   
 24  11  30  1   
 25  12  14  ar  
 26  13  15  ar  
 27  13  16  1   
 28  14  17  ar  
 29  14  31  1   
 30  15  17  ar  
 31  15  18  1   
 32  16  19  2   
 33  16  32  1   
 34  18  19  1   
 35  19  33  1   
@<TRIPOS>SUBSTRUCTURE
  1 ****   9 GROUP 4 **** **** 0

# MOE 2024.06 (io_trps.svl 2023.06)
