@<TRIPOS>MOLECULE
NONAME
43 45 1 0 0 
SMALL
USER_CHARGES


@<TRIPOS>ATOM
  1 F       -2.1810    -0.7890     0.1600 F     1 <1>  -0.3400 
  2 C       -2.5620     0.3030    -0.4870 C.3   1 <1>   1.1640 
  3 F       -1.4760     0.7330    -1.1200 F     1 <1>  -0.3400 
  4 F       -3.3940    -0.0900    -1.4430 F     1 <1>  -0.3400 
  5 C       -3.1810     1.3850     0.4130 C.ar  1 <1>  -0.1440 
  6 C       -4.0770     1.0470     1.4410 C.ar  1 <1>   0.0860 
  7 C       -2.8460     2.7230     0.2120 C.ar  1 <1>  -0.1500 
  8 C       -4.5310    -0.3060     1.7130 C.2   1 <1>   0.5440 
  9 C       -4.5590     2.0710     2.2560 C.ar  1 <1>  -0.1500 
 10 C       -3.3600     3.7200     1.0200 C.ar  1 <1>  -0.1500 
 11 O       -4.2290    -0.8060     2.7790 O.2   1 <1>  -0.5700 
 12 N       -5.2710    -1.0600     0.8210 N.am  1 <1>  -0.6600 
 13 C       -4.2150     3.3910     2.0510 C.ar  1 <1>  -0.1500 
 14 C       -6.2280    -0.5600    -0.2210 C.3   1 <1>   0.2200 
 15 C       -5.0900    -2.5430     0.8400 C.3   1 <1>   0.0600 
 16 C       -7.5590    -1.3110    -0.1620 C.3   1 <1>  -0.1600 
 17 C       -6.6660     0.8970    -0.0760 C.3   1 <1>  -0.1600 
 18 C       -8.5600    -0.4260    -0.9140 C.3   1 <1>  -0.0800 
 19 C       -7.9730     1.0030    -0.8670 C.3   1 <1>  -0.0800 
 20 C      -10.0010    -0.5690    -0.3850 C.3   1 <1>   0.1400 
 21 C       -8.9300     2.0750    -0.3080 C.3   1 <1>  -0.0990 
 22 N      -10.8030     0.5890    -0.8310 N.am  1 <1>  -0.7300 
 23 C      -10.3360     1.8550    -0.8220 C.2   1 <1>   0.5690 
 24 O      -11.0080     2.7790    -1.1990 O.2   1 <1>  -0.5700 
 25 H       -2.1720     3.0110    -0.5790 H     1 <1>   0.1500 
 26 H       -5.2210     1.8150     3.0670 H     1 <1>   0.1500 
 27 H       -3.0890     4.7490     0.8500 H     1 <1>   0.1500 
 28 H       -4.6090     4.1610     2.6940 H     1 <1>   0.1500 
 29 H       -5.7980    -0.7030    -1.1980 H     1 <1>   0.0800 
 30 H       -5.0610    -2.9270    -0.1650 H     1 <1>   0.0800 
 31 H       -5.8990    -3.0020     1.3800 H     1 <1>   0.0800 
 32 H       -4.1640    -2.8030     1.3260 H     1 <1>   0.0800 
 33 H       -7.4900    -2.2850    -0.6140 H     1 <1>   0.0800 
 34 H       -7.8560    -1.4090     0.8680 H     1 <1>   0.0800 
 35 H       -6.8600     1.1060     0.9610 H     1 <1>   0.0800 
 36 H       -5.9340     1.5830    -0.4640 H     1 <1>   0.0800 
 37 H       -8.5650    -0.7370    -1.9460 H     1 <1>   0.0800 
 38 H       -7.7320     1.2790    -1.8810 H     1 <1>   0.0800 
 39 H      -10.0040    -0.5900     0.6910 H     1 <1>   0.0800 
 40 H      -10.4400    -1.4820    -0.7490 H     1 <1>   0.0800 
 41 H       -8.5940     3.0560    -0.5870 H     1 <1>   0.0800 
 42 H       -8.9700     2.0250     0.7640 H     1 <1>   0.0800 
 43 H      -11.7630     0.4380    -1.1470 H     1 <1>   0.3700 
@<TRIPOS>BOND
  1   1   2  1   
  2   2   3  1   
  3   2   4  1   
  4   2   5  1   
  5   5   6  ar  
  6   5   7  ar  
  7   6   8  1   
  8   6   9  ar  
  9   7  10  ar  
 10   7  25  1   
 11   8  11  2   
 12   8  12  am  
 13   9  13  ar  
 14   9  26  1   
 15  10  13  ar  
 16  10  27  1   
 17  12  14  1   
 18  12  15  1   
 19  13  28  1   
 20  14  16  1   
 21  14  17  1   
 22  14  29  1   
 23  15  30  1   
 24  15  31  1   
 25  15  32  1   
 26  16  18  1   
 27  16  33  1   
 28  16  34  1   
 29  17  19  1   
 30  17  35  1   
 31  17  36  1   
 32  18  19  1   
 33  18  20  1   
 34  18  37  1   
 35  19  21  1   
 36  19  38  1   
 37  20  22  1   
 38  20  39  1   
 39  20  40  1   
 40  21  23  1   
 41  21  41  1   
 42  21  42  1   
 43  22  23  am  
 44  22  43  1   
 45  23  24  2   
@<TRIPOS>SUBSTRUCTURE
  1 ****  17 GROUP 4 **** **** 0

# MOE 2024.06 (io_trps.svl 2023.06)
