@<TRIPOS>MOLECULE
NONAME
46 48 1 0 0 
SMALL
USER_CHARGES


@<TRIPOS>ATOM
  1 CL      -0.0150    -0.0490     0.4560 Cl    1 <1>  -0.1230 
  2 C        1.0320     1.3260     0.1540 C.2   1 <1>   0.1230 
  3 C        0.8340     2.3020    -0.8090 C.2   1 <1>   0.1390 
  4 C        2.1710     1.6450     0.7950 C.2   1 <1>  -0.3020 
  5 N        1.7900     3.1880    -0.7800 N.2   1 <1>  -0.7070 
  6 N        2.6140     2.7790     0.2120 N.pl3 1 <1>   0.3140 
  7 C        3.8350     3.5270     0.5510 C.3   1 <1>   0.0960 
  8 C        3.6480     4.9930     0.1410 C.3   1 <1>   0.3430 
  9 N        4.8640     5.8370     0.3840 N.4   1 <1>  -0.9590 
 10 C        4.5710     7.2860     0.1330 C.3   1 <1>   0.3430 
 11 C        6.0280     5.4970    -0.4770 C.3   1 <1>   0.3430 
 12 C        5.7710     7.8780    -0.6170 C.3   1 <1>   0.0630 
 13 C        6.8350     6.7810    -0.5200 C.3   1 <1>  -0.1600 
 14 C        6.1430     9.2690    -0.0880 C.ar  1 <1>  -0.1430 
 15 C        5.1600    10.2600    -0.0250 C.ar  1 <1>   0.0830 
 16 C        7.4360     9.5820     0.3170 C.ar  1 <1>  -0.1500 
 17 O        3.9220     9.9370    -0.5040 O.3   1 <1>  -0.3620 
 18 C        5.4540    11.5230     0.5120 C.ar  1 <1>   0.0830 
 19 C        7.7380    10.8350     0.8140 C.ar  1 <1>  -0.1500 
 20 C        3.2650    10.8320    -1.3810 C.3   1 <1>   0.0400 
 21 O        4.4540    12.4420     0.6420 O.3   1 <1>  -0.3630 
 22 C        6.7550    11.8000     0.9190 C.ar  1 <1>  -0.1500 
 23 C        4.6570    13.6890     1.2730 C.3   1 <1>   0.0400 
 24 H        0.0010     2.3240    -1.4920 H     1 <1>   0.1500 
 25 H        2.6640     1.1370     1.6030 H     1 <1>   0.1500 
 26 H        4.6510     3.0810     0.0150 H     1 <1>   0.0800 
 27 H        4.0010     3.4490     1.6090 H     1 <1>   0.0800 
 28 H        2.8150     5.3970     0.6940 H     1 <1>   0.0800 
 29 H        3.3930     5.0310    -0.9070 H     1 <1>   0.0800 
 30 H        5.1560     5.7700     1.3690 H     1 <1>   0.4500 
 31 H        4.4300     7.8080     1.0660 H     1 <1>   0.0800 
 32 H        3.6820     7.4100    -0.4650 H     1 <1>   0.0800 
 33 H        5.6910     5.2500    -1.4720 H     1 <1>   0.0800 
 34 H        6.6020     4.6770    -0.0750 H     1 <1>   0.0800 
 35 H        5.4850     7.9870    -1.6490 H     1 <1>   0.0800 
 36 H        7.5150     6.8020    -1.3530 H     1 <1>   0.0800 
 37 H        7.3910     6.8530     0.3970 H     1 <1>   0.0800 
 38 H        8.2400     8.8720     0.2520 H     1 <1>   0.1500 
 39 H        8.7440    11.0630     1.1230 H     1 <1>   0.1500 
 40 H        2.6040    10.2650    -2.0110 H     1 <1>   0.0800 
 41 H        3.9970    11.3450    -1.9810 H     1 <1>   0.0800 
 42 H        2.6950    11.5340    -0.8010 H     1 <1>   0.0800 
 43 H        7.0280    12.7570     1.3210 H     1 <1>   0.1500 
 44 H        3.7170    14.2100     1.2900 H     1 <1>   0.0800 
 45 H        5.3770    14.2540     0.7070 H     1 <1>   0.0800 
 46 H        4.9990    13.5210     2.2790 H     1 <1>   0.0800 
@<TRIPOS>BOND
  1   1   2  1   
  2   2   3  1   
  3   2   4  2   
  4   3   5  2   
  5   3  24  1   
  6   4   6  1   
  7   4  25  1   
  8   5   6  1   
  9   6   7  1   
 10   7   8  1   
 11   7  26  1   
 12   7  27  1   
 13   8   9  1   
 14   8  28  1   
 15   8  29  1   
 16   9  10  1   
 17   9  11  1   
 18   9  30  1   
 19  10  12  1   
 20  10  31  1   
 21  10  32  1   
 22  11  13  1   
 23  11  33  1   
 24  11  34  1   
 25  12  13  1   
 26  12  14  1   
 27  12  35  1   
 28  13  36  1   
 29  13  37  1   
 30  14  15  ar  
 31  14  16  ar  
 32  15  17  1   
 33  15  18  ar  
 34  16  19  ar  
 35  16  38  1   
 36  17  20  1   
 37  18  21  1   
 38  18  22  ar  
 39  19  22  ar  
 40  19  39  1   
 41  20  40  1   
 42  20  41  1   
 43  20  42  1   
 44  21  23  1   
 45  22  43  1   
 46  23  44  1   
 47  23  45  1   
 48  23  46  1   
@<TRIPOS>SUBSTRUCTURE
  1 ****  10 GROUP 4 **** **** 0

# MOE 2024.06 (io_trps.svl 2023.06)
