@<TRIPOS>MOLECULE
NONAME
42 45 1 0 0 
SMALL
USER_CHARGES


@<TRIPOS>ATOM
  1 CL       0.6820    -0.5960    -0.6510 Cl    1 <1>  -0.1770 
  2 C       -0.3810    -1.9540    -0.3900 C.ar  1 <1>   0.1770 
  3 C        0.1100    -3.0970     0.2110 C.ar  1 <1>  -0.1500 
  4 C       -1.7020    -1.8740    -0.7860 C.ar  1 <1>  -0.1500 
  5 C       -0.7380    -4.1710     0.4150 C.ar  1 <1>  -0.1500 
  6 C       -2.5380    -2.9560    -0.5780 C.ar  1 <1>  -0.1500 
  7 C       -2.0820    -4.1310     0.0270 C.ar  1 <1>   0.0530 
  8 C       -2.9430    -5.2720     0.2460 C.2   1 <1>   0.0870 
  9 O       -2.4170    -6.4600     0.4210 O.3   1 <1>  -0.0190 
 10 C       -4.2900    -5.4290     0.3110 C.2   1 <1>  -0.2330 
 11 N       -3.3140    -7.3910     0.5980 N.2   1 <1>  -0.4100 
 12 C       -4.4610    -6.8010     0.5370 C.2   1 <1>   0.3720 
 13 C       -5.2870    -4.4170     0.1840 C.2   1 <1>   1.0330 
 14 N       -5.6610    -7.5220     0.7170 N.pl3 1 <1>  -0.8210 
 15 O       -5.4110    -3.5330     1.0460 O.co2 1 <1>  -0.9000 
 16 O       -5.9940    -4.3510    -0.8390 O.co2 1 <1>  -0.9000 
 17 C       -5.6350    -8.9420     0.3260 C.3   1 <1>   0.2090 
 18 C       -6.8470    -7.0230     0.0850 C.3   1 <1>   0.2090 
 19 C       -7.0590    -9.6120     0.0920 C.3   1 <1>   0.0000 
 20 C       -7.7730    -8.2050     0.2200 C.3   1 <1>  -0.1600 
 21 C       -8.4880   -10.3050    -0.0020 C.3   1 <1>  -0.1600 
 22 C       -6.3310   -11.0060    -0.1550 C.3   1 <1>  -0.1600 
 23 C       -8.4760   -11.8170     0.1190 C.3   1 <1>  -0.1600 
 24 C       -7.2300   -12.1350    -0.6240 C.3   1 <1>  -0.1600 
 25 H        1.1400    -3.1410     0.5140 H     1 <1>   0.1500 
 26 H       -2.0740    -0.9780    -1.2480 H     1 <1>   0.1500 
 27 H       -0.3560    -5.0590     0.8880 H     1 <1>   0.1500 
 28 H       -3.5660    -2.8800    -0.8910 H     1 <1>   0.1500 
 29 H       -5.0840    -9.4470     1.1020 H     1 <1>   0.0800 
 30 H       -5.0570    -8.9890    -0.5830 H     1 <1>   0.0800 
 31 H       -6.6530    -6.7890    -0.9500 H     1 <1>   0.0800 
 32 H       -7.2330    -6.1580     0.5990 H     1 <1>   0.0800 
 33 H       -8.5500    -8.0250    -0.5050 H     1 <1>   0.0800 
 34 H       -8.2060    -8.1110     1.2030 H     1 <1>   0.0800 
 35 H       -8.9150   -10.0900    -0.9700 H     1 <1>   0.0800 
 36 H       -9.1880    -9.9710     0.7490 H     1 <1>   0.0800 
 37 H       -5.8990   -11.3470     0.7740 H     1 <1>   0.0800 
 38 H       -5.5400   -10.9560    -0.8870 H     1 <1>   0.0800 
 39 H       -9.3460   -12.2760    -0.3190 H     1 <1>   0.0800 
 40 H       -8.3860   -12.1110     1.1520 H     1 <1>   0.0800 
 41 H       -6.8390   -13.1070    -0.3760 H     1 <1>   0.0800 
 42 H       -7.3970   -12.0670    -1.6860 H     1 <1>   0.0800 
@<TRIPOS>BOND
  1   1   2  1   
  2   2   3  ar  
  3   2   4  ar  
  4   3   5  ar  
  5   3  25  1   
  6   4   6  ar  
  7   4  26  1   
  8   5   7  ar  
  9   5  27  1   
 10   6   7  ar  
 11   6  28  1   
 12   7   8  1   
 13   8   9  1   
 14   8  10  2   
 15   9  11  1   
 16  10  12  1   
 17  10  13  1   
 18  11  12  2   
 19  12  14  1   
 20  13  15  ar  
 21  13  16  ar  
 22  14  17  1   
 23  14  18  1   
 24  17  19  1   
 25  17  29  1   
 26  17  30  1   
 27  18  20  1   
 28  18  31  1   
 29  18  32  1   
 30  19  20  1   
 31  19  21  1   
 32  19  22  1   
 33  20  33  1   
 34  20  34  1   
 35  21  23  1   
 36  21  35  1   
 37  21  36  1   
 38  22  24  1   
 39  22  37  1   
 40  22  38  1   
 41  23  24  1   
 42  23  39  1   
 43  23  40  1   
 44  24  41  1   
 45  24  42  1   
@<TRIPOS>SUBSTRUCTURE
  1 ****  12 GROUP 4 **** **** 0

# MOE 2024.06 (io_trps.svl 2023.06)
