@<TRIPOS>MOLECULE
NONAME
46 48 1 0 0 
SMALL
USER_CHARGES


@<TRIPOS>ATOM
  1 O       -0.1380     0.9950     0.1160 O.2   1 <1>  -0.5700 
  2 C       -0.2300     2.2000     0.1490 C.2   1 <1>   0.5690 
  3 N       -1.2830     2.8410     0.7450 N.am  1 <1>  -0.6600 
  4 C        0.8640     3.0260    -0.5260 C.3   1 <1>   0.1810 
  5 C       -1.3990     4.3370     0.7240 C.3   1 <1>   0.3640 
  6 C       -2.3460     2.1070     1.4930 C.3   1 <1>   0.0600 
  7 O        0.9590     4.3260     0.0020 O.3   1 <1>  -0.5600 
  8 C       -2.7810     4.7740     0.2090 C.ar  1 <1>  -0.1440 
  9 C       -0.2560     5.0610    -0.0360 C.3   1 <1>   0.2610 
 10 C       -3.3620     4.3390    -0.9880 C.ar  1 <1>  -0.1440 
 11 C       -3.4870     5.6670     1.0080 C.ar  1 <1>  -0.1500 
 12 C       -0.0390     6.4520     0.5700 C.2   1 <1>   0.5690 
 13 C       -4.6220     4.8010    -1.3410 C.ar  1 <1>  -0.1500 
 14 C       -2.6940     3.3610    -1.9490 C.3   1 <1>  -0.0960 
 15 C       -4.7400     6.1210     0.6440 C.ar  1 <1>  -0.1500 
 16 O       -0.8220     7.3410     0.3380 O.2   1 <1>  -0.5700 
 17 N        1.0450     6.6670     1.3570 N.am  1 <1>  -0.7300 
 18 C       -5.3100     5.6860    -0.5340 C.ar  1 <1>  -0.1500 
 19 C        1.4470     7.9810     1.9100 C.3   1 <1>   0.3210 
 20 C        2.5510     8.5880     1.0630 C.2   1 <1>   0.1080 
 21 N        3.7750     8.7180     1.4390 N.2   1 <1>  -0.4100 
 22 C        2.3770     9.0770    -0.2290 C.2   1 <1>  -0.1500 
 23 O        4.4010     9.2750     0.4420 O.3   1 <1>  -0.0190 
 24 C        3.6030     9.5030    -0.5670 C.2   1 <1>  -0.0400 
 25 C        4.1410    10.1460    -1.8270 C.3   1 <1>  -0.0600 
 26 H        0.6700     3.0960    -1.5810 H     1 <1>   0.0800 
 27 H        1.8120     2.5440    -0.3790 H     1 <1>   0.0800 
 28 H       -1.3210     4.6490     1.7510 H     1 <1>   0.0800 
 29 H       -2.4330     2.5030     2.4890 H     1 <1>   0.0800 
 30 H       -2.1100     1.0590     1.5590 H     1 <1>   0.0800 
 31 H       -3.2900     2.2130     0.9880 H     1 <1>   0.0800 
 32 H       -0.5260     5.1950    -1.0670 H     1 <1>   0.0800 
 33 H       -3.0630     6.0300     1.9280 H     1 <1>   0.1500 
 34 H       -5.0840     4.4720    -2.2550 H     1 <1>   0.1500 
 35 H       -3.2060     3.3400    -2.8930 H     1 <1>   0.0800 
 36 H       -2.7170     2.3680    -1.5380 H     1 <1>   0.0800 
 37 H       -1.6770     3.6390    -2.1400 H     1 <1>   0.0800 
 38 H       -5.2680     6.8150     1.2750 H     1 <1>   0.1500 
 39 H        1.7680     5.9400     1.3710 H     1 <1>   0.3700 
 40 H       -6.2860     6.0350    -0.8240 H     1 <1>   0.1500 
 41 H        0.6040     8.6490     1.9280 H     1 <1>   0.0800 
 42 H        1.7980     7.8510     2.9190 H     1 <1>   0.0800 
 43 H        1.4570     9.0880    -0.7850 H     1 <1>   0.1500 
 44 H        3.3560    10.2580    -2.5520 H     1 <1>   0.0800 
 45 H        4.9190     9.5330    -2.2450 H     1 <1>   0.0800 
 46 H        4.5460    11.1150    -1.5960 H     1 <1>   0.0800 
@<TRIPOS>BOND
  1   1   2  2   
  2   2   3  am  
  3   2   4  1   
  4   3   5  1   
  5   3   6  1   
  6   4   7  1   
  7   4  26  1   
  8   4  27  1   
  9   5   8  1   
 10   5   9  1   
 11   5  28  1   
 12   6  29  1   
 13   6  30  1   
 14   6  31  1   
 15   7   9  1   
 16   8  10  ar  
 17   8  11  ar  
 18   9  12  1   
 19   9  32  1   
 20  10  13  ar  
 21  10  14  1   
 22  11  15  ar  
 23  11  33  1   
 24  12  16  2   
 25  12  17  am  
 26  13  18  ar  
 27  13  34  1   
 28  14  35  1   
 29  14  36  1   
 30  14  37  1   
 31  15  18  ar  
 32  15  38  1   
 33  17  19  1   
 34  17  39  1   
 35  18  40  1   
 36  19  20  1   
 37  19  41  1   
 38  19  42  1   
 39  20  21  2   
 40  20  22  1   
 41  21  23  1   
 42  22  24  2   
 43  22  43  1   
 44  23  24  1   
 45  24  25  1   
 46  25  44  1   
 47  25  45  1   
 48  25  46  1   
@<TRIPOS>SUBSTRUCTURE
  1 ****   9 GROUP 4 **** **** 0

# MOE 2024.06 (io_trps.svl 2023.06)
