@<TRIPOS>MOLECULE
NONAME
56 58 1 0 0 
SMALL
USER_CHARGES


@<TRIPOS>ATOM
  1 O       -2.3860    -0.6220    -1.4820 O.2   1 <1>  -0.5700 
  2 C       -1.7540    -0.0670    -0.6030 C.2   1 <1>   0.7160 
  3 N       -1.0180    -0.8400     0.2470 N.am  1 <1>  -0.7300 
  4 C       -1.7950     1.3430    -0.4020 C.2   1 <1>  -0.0860 
  5 C       -0.7620    -2.2910     0.1140 C.3   1 <1>   0.1400 
  6 C       -2.9390     2.1310    -0.2490 C.2   1 <1>   0.3720 
  7 C       -0.7770     2.2240    -0.2250 C.2   1 <1>   0.0870 
  8 C       -1.8360    -3.1000     0.8520 C.3   1 <1>  -0.1600 
  9 N       -2.6250     3.3530     0.0040 N.2   1 <1>  -0.4100 
 10 N       -4.2570     1.6630    -0.3260 N.pl3 1 <1>  -0.8210 
 11 O       -1.3190     3.3910     0.0110 O.3   1 <1>  -0.0190 
 12 C        0.6520     2.0570    -0.2420 C.ar  1 <1>   0.0530 
 13 C       -3.1500    -3.2000     0.0450 C.3   1 <1>   0.4230 
 14 C       -4.7410     1.5850    -1.7400 C.3   1 <1>   0.2090 
 15 C       -5.2510     2.4580     0.4650 C.3   1 <1>   0.2090 
 16 C        1.2720     1.1680    -1.1200 C.ar  1 <1>  -0.1500 
 17 C        1.4670     2.7760     0.6320 C.ar  1 <1>  -0.1500 
 18 N       -4.3130    -2.6970     0.8450 N.4   1 <1>  -0.9590 
 19 C       -3.3850    -4.6520    -0.3840 C.3   1 <1>  -0.2400 
 20 C       -6.1560     0.9830    -1.7960 C.3   1 <1>   0.1200 
 21 C       -6.6560     1.8380     0.3530 C.3   1 <1>   0.1200 
 22 C        2.6430     0.9890    -1.1130 C.ar  1 <1>  -0.1500 
 23 C        2.8390     2.6030     0.6430 C.ar  1 <1>  -0.1500 
 24 C       -5.6350    -2.9280     0.1800 C.3   1 <1>   0.2630 
 25 C       -4.1900    -1.2270     1.1070 C.3   1 <1>   0.2630 
 26 O       -7.0480     1.7000    -0.9860 O.3   1 <1>  -0.5600 
 27 C        3.4300     1.7060    -0.2290 C.ar  1 <1>  -0.1500 
 28 H       -0.3900    -0.3460     0.8900 H     1 <1>   0.3700 
 29 H        0.2050    -2.5060     0.5370 H     1 <1>   0.0800 
 30 H       -0.7320    -2.5650    -0.9290 H     1 <1>   0.0800 
 31 H       -1.9860    -2.6900     1.8340 H     1 <1>   0.0800 
 32 H       -1.4330    -4.0870     0.9980 H     1 <1>   0.0800 
 33 H       -3.0590    -2.6050    -0.8490 H     1 <1>   0.0800 
 34 H       -4.0750     0.9810    -2.3300 H     1 <1>   0.0800 
 35 H       -4.7580     2.5720    -2.1730 H     1 <1>   0.0800 
 36 H       -5.2860     3.4720     0.1020 H     1 <1>   0.0800 
 37 H       -4.9490     2.4880     1.4980 H     1 <1>   0.0800 
 38 H        0.6800     0.6140    -1.8270 H     1 <1>   0.1500 
 39 H        1.0190     3.4790     1.3130 H     1 <1>   0.1500 
 40 H       -4.3040    -3.1970     1.7440 H     1 <1>   0.4500 
 41 H       -3.5900    -5.2800     0.4640 H     1 <1>   0.0800 
 42 H       -2.5060    -5.0290    -0.8760 H     1 <1>   0.0800 
 43 H       -4.1860    -4.7270    -1.0960 H     1 <1>   0.0800 
 44 H       -6.1400    -0.0390    -1.4680 H     1 <1>   0.0800 
 45 H       -6.5320     1.0190    -2.8040 H     1 <1>   0.0800 
 46 H       -7.3770     2.4710     0.8390 H     1 <1>   0.0800 
 47 H       -6.6780     0.8700     0.8170 H     1 <1>   0.0800 
 48 H        3.1020     0.2980    -1.7990 H     1 <1>   0.1500 
 49 H        3.4490     3.1670     1.3270 H     1 <1>   0.1500 
 50 H       -5.6420    -2.4740    -0.7980 H     1 <1>   0.0800 
 51 H       -6.4300    -2.4970     0.7670 H     1 <1>   0.0800 
 52 H       -5.8270    -3.9830     0.0740 H     1 <1>   0.0800 
 53 H       -4.2090    -0.6840     0.1760 H     1 <1>   0.0800 
 54 H       -3.2650    -1.0030     1.6110 H     1 <1>   0.0800 
 55 H       -5.0060    -0.8820     1.7200 H     1 <1>   0.0800 
 56 H        4.4980     1.5700    -0.2220 H     1 <1>   0.1500 
@<TRIPOS>BOND
  1   1   2  2   
  2   2   3  am  
  3   2   4  1   
  4   3   5  1   
  5   3  28  1   
  6   4   6  1   
  7   4   7  2   
  8   5   8  1   
  9   5  29  1   
 10   5  30  1   
 11   6   9  2   
 12   6  10  1   
 13   7  11  1   
 14   7  12  1   
 15   8  13  1   
 16   8  31  1   
 17   8  32  1   
 18   9  11  1   
 19  10  14  1   
 20  10  15  1   
 21  12  16  ar  
 22  12  17  ar  
 23  13  18  1   
 24  13  19  1   
 25  13  33  1   
 26  14  20  1   
 27  14  34  1   
 28  14  35  1   
 29  15  21  1   
 30  15  36  1   
 31  15  37  1   
 32  16  22  ar  
 33  16  38  1   
 34  17  23  ar  
 35  17  39  1   
 36  18  24  1   
 37  18  25  1   
 38  18  40  1   
 39  19  41  1   
 40  19  42  1   
 41  19  43  1   
 42  20  26  1   
 43  20  44  1   
 44  20  45  1   
 45  21  26  1   
 46  21  46  1   
 47  21  47  1   
 48  22  27  ar  
 49  22  48  1   
 50  23  27  ar  
 51  23  49  1   
 52  24  50  1   
 53  24  51  1   
 54  24  52  1   
 55  25  53  1   
 56  25  54  1   
 57  25  55  1   
 58  27  56  1   
@<TRIPOS>SUBSTRUCTURE
  1 ****   2 GROUP 4 **** **** 0

# MOE 2024.06 (io_trps.svl 2023.06)
