@<TRIPOS>MOLECULE
NONAME
56 58 1 0 0 
SMALL
USER_CHARGES


@<TRIPOS>ATOM
  1 O       -0.4310     1.6390    -2.9350 O.2   1 <1>  -0.5700 
  2 C       -0.2910     2.5330    -2.1160 C.2   1 <1>   0.5440 
  3 N       -1.4230     3.2350    -1.7280 N.am  1 <1>  -0.6600 
  4 C        1.0510     2.7790    -1.5780 C.ar  1 <1>   0.3960 
  5 C       -1.5070     4.1020    -0.5210 C.3   1 <1>   0.1400 
  6 C       -2.6870     3.1930    -2.5170 C.3   1 <1>   0.1400 
  7 N        1.4920     4.0120    -1.3370 N.ar  1 <1>  -0.6200 
  8 C        1.8830     1.6990    -1.3320 C.ar  1 <1>  -0.1500 
  9 C       -2.6490     3.6150     0.3760 C.3   1 <1>  -0.1600 
 10 C       -3.8330     2.7020    -1.6280 C.3   1 <1>  -0.1600 
 11 C        2.7090     4.1030    -0.8520 C.ar  1 <1>   0.7200 
 12 C        3.1410     1.9250    -0.8320 C.ar  1 <1>   0.1660 
 13 C       -3.9990     3.5660    -0.3660 C.3   1 <1>   0.2800 
 14 N        3.5670     3.1380    -0.5880 N.ar  1 <1>  -0.6200 
 15 N        3.1450     5.3390    -0.6110 N.pl3 1 <1>  -0.9000 
 16 C        4.0880     0.7680    -0.5480 C.3   1 <1>  -0.0170 
 17 O       -4.3270     4.8580    -0.8210 O.3   1 <1>  -0.5600 
 18 C       -5.1290     3.0070     0.5360 C.3   1 <1>  -0.1600 
 19 C        4.2260     0.4690     0.9580 C.3   1 <1>  -0.0800 
 20 C       -4.8440     5.7640     0.1110 C.3   1 <1>   0.1200 
 21 C       -6.4420     3.7850     0.4080 C.3   1 <1>   0.2800 
 22 C        5.2700    -0.6310     1.1870 C.3   1 <1>  -0.2400 
 23 C        2.8880     0.0490     1.5840 C.3   1 <1>  -0.2400 
 24 C       -6.1860     5.2700     0.6760 C.3   1 <1>  -0.1600 
 25 O       -6.8730     3.6770    -0.8870 O.3   1 <1>  -0.6800 
 26 C       -7.5510     3.2170     1.2890 C.3   1 <1>  -0.2400 
 27 H       -1.6840     5.1180    -0.8300 H     1 <1>   0.0800 
 28 H       -0.5920     4.0740     0.0420 H     1 <1>   0.0800 
 29 H       -2.5870     2.5430    -3.3690 H     1 <1>   0.0800 
 30 H       -2.9040     4.1830    -2.8810 H     1 <1>   0.0800 
 31 H        1.5360     0.7030    -1.5350 H     1 <1>   0.1500 
 32 H       -2.7150     4.2430     1.2430 H     1 <1>   0.0800 
 33 H       -2.4040     2.6270     0.7220 H     1 <1>   0.0800 
 34 H       -3.6250     1.6850    -1.3490 H     1 <1>   0.0800 
 35 H       -4.7440     2.6980    -2.1960 H     1 <1>   0.0800 
 36 H        4.1530     5.4260    -0.5190 H     1 <1>   0.4000 
 37 H        2.6700     6.0770    -1.1230 H     1 <1>   0.4000 
 38 H        5.0530     1.0220    -0.9490 H     1 <1>   0.0800 
 39 H        3.7480    -0.1140    -1.0600 H     1 <1>   0.0800 
 40 H       -4.8160     3.0590     1.5620 H     1 <1>   0.0800 
 41 H       -5.3000     1.9660     0.3300 H     1 <1>   0.0800 
 42 H        4.5660     1.3660     1.4500 H     1 <1>   0.0800 
 43 H       -4.9770     6.7070    -0.3920 H     1 <1>   0.0800 
 44 H       -4.1220     5.9000     0.8970 H     1 <1>   0.0800 
 45 H        4.9680    -1.5490     0.7150 H     1 <1>   0.0800 
 46 H        5.3950    -0.8120     2.2410 H     1 <1>   0.0800 
 47 H        6.2220    -0.3320     0.7850 H     1 <1>   0.0800 
 48 H        2.4940    -0.8230     1.0940 H     1 <1>   0.0800 
 49 H        2.1690     0.8450     1.5090 H     1 <1>   0.0800 
 50 H        3.0220    -0.1760     2.6280 H     1 <1>   0.0800 
 51 H       -6.9940     5.8590     0.2780 H     1 <1>   0.0800 
 52 H       -6.1730     5.4440     1.7370 H     1 <1>   0.0800 
 53 H       -6.1880     4.1070    -1.4430 H     1 <1>   0.4000 
 54 H       -7.2680     3.2670     2.3250 H     1 <1>   0.0800 
 55 H       -7.7360     2.1880     1.0360 H     1 <1>   0.0800 
 56 H       -8.4570     3.7800     1.1540 H     1 <1>   0.0800 
@<TRIPOS>BOND
  1   1   2  2   
  2   2   3  am  
  3   2   4  1   
  4   3   5  1   
  5   3   6  1   
  6   4   7  ar  
  7   4   8  ar  
  8   5   9  1   
  9   5  27  1   
 10   5  28  1   
 11   6  10  1   
 12   6  29  1   
 13   6  30  1   
 14   7  11  ar  
 15   8  12  ar  
 16   8  31  1   
 17   9  13  1   
 18   9  32  1   
 19   9  33  1   
 20  10  13  1   
 21  10  34  1   
 22  10  35  1   
 23  11  14  ar  
 24  11  15  1   
 25  12  14  ar  
 26  12  16  1   
 27  13  17  1   
 28  13  18  1   
 29  15  36  1   
 30  15  37  1   
 31  16  19  1   
 32  16  38  1   
 33  16  39  1   
 34  17  20  1   
 35  18  21  1   
 36  18  40  1   
 37  18  41  1   
 38  19  22  1   
 39  19  23  1   
 40  19  42  1   
 41  20  24  1   
 42  20  43  1   
 43  20  44  1   
 44  21  24  1   
 45  21  25  1   
 46  21  26  1   
 47  22  45  1   
 48  22  46  1   
 49  22  47  1   
 50  23  48  1   
 51  23  49  1   
 52  23  50  1   
 53  24  51  1   
 54  24  52  1   
 55  25  53  1   
 56  26  54  1   
 57  26  55  1   
 58  26  56  1   
@<TRIPOS>SUBSTRUCTURE
  1 ****   5 GROUP 4 **** **** 0

# MOE 2024.06 (io_trps.svl 2023.06)
