@<TRIPOS>MOLECULE
NONAME
52 55 1 0 0 
SMALL
USER_CHARGES


@<TRIPOS>ATOM
  1 O        0.5020     0.1460     0.1380 O.3   1 <1>  -0.6800 
  2 C        1.6810    -0.1180    -0.5390 C.3   1 <1>   0.2000 
  3 C        2.3790    -1.3350     0.0580 C.3   1 <1>  -0.0800 
  4 C        2.6710     1.0330    -0.3480 C.3   1 <1>   0.2090 
  5 C        3.8600    -1.0800    -0.2220 C.3   1 <1>   0.2090 
  6 C        1.8730    -2.6770    -0.4980 C.3   1 <1>  -0.0170 
  7 N        4.0260     0.4040    -0.2310 N.pl3 1 <1>  -0.8380 
  8 C        2.7460    -3.8250    -0.0160 C.ar  1 <1>  -0.1440 
  9 C        5.2110     1.0360    -0.1010 C.ar  1 <1>   0.4610 
 10 C        2.7450    -4.2350     1.3020 C.ar  1 <1>  -0.1500 
 11 C        3.5880    -4.5120    -0.8670 C.ar  1 <1>  -0.1500 
 12 N        5.2460     2.3650    -0.0080 N.ar  1 <1>  -0.1790 
 13 C        6.4580     0.3630    -0.0540 C.ar  1 <1>  -0.1500 
 14 C        3.5720    -5.2730     1.6970 C.ar  1 <1>   0.1600 
 15 C        4.3750    -5.5380    -0.3710 C.ar  1 <1>   0.1600 
 16 C        6.3920     3.1300     0.1310 C.ar  1 <1>   0.3610 
 17 C        7.6350     1.0330     0.0830 C.ar  1 <1>  -0.1430 
 18 N        4.3920    -5.9290     0.8930 N.ar  1 <1>  -0.6200 
 19 C        7.6290     2.4600     0.1800 C.ar  1 <1>   0.0000 
 20 C        6.3190     4.5330     0.2230 C.ar  1 <1>  -0.1430 
 21 C        8.9500     0.2650     0.1310 C.3   1 <1>  -0.0970 
 22 C        8.7840     3.2390     0.3210 C.ar  1 <1>  -0.1500 
 23 C        7.4840     5.2670     0.3620 C.ar  1 <1>  -0.1430 
 24 C        4.9460     5.2180     0.1670 C.3   1 <1>  -0.0970 
 25 C        8.7100     4.6050     0.4090 C.ar  1 <1>  -0.1500 
 26 C        7.5130     6.7890     0.4700 C.3   1 <1>  -0.0970 
 27 H       -0.1490    -0.5730     0.0090 H     1 <1>   0.4000 
 28 H        1.4630    -0.2500    -1.5860 H     1 <1>   0.0800 
 29 H        2.2550    -1.3210     1.1270 H     1 <1>   0.0800 
 30 H        2.4370     1.5590     0.5630 H     1 <1>   0.0800 
 31 H        2.6260     1.6990    -1.1930 H     1 <1>   0.0800 
 32 H        4.1330    -1.4730    -1.1880 H     1 <1>   0.0800 
 33 H        4.4690    -1.5440     0.5370 H     1 <1>   0.0800 
 34 H        1.8730    -2.6530    -1.5740 H     1 <1>   0.0800 
 35 H        0.8600    -2.8450    -0.1760 H     1 <1>   0.0800 
 36 H        2.1100    -3.7610     2.0280 H     1 <1>   0.1500 
 37 H        3.6430    -4.2680    -1.9120 H     1 <1>   0.1500 
 38 H        4.3600     2.8520    -0.0250 H     1 <1>   0.4570 
 39 H        6.4550    -0.7070    -0.1320 H     1 <1>   0.1500 
 40 H        3.5600    -5.5790     2.7300 H     1 <1>   0.1500 
 41 H        5.0260    -6.0660    -1.0480 H     1 <1>   0.1500 
 42 H        8.7860    -0.7950     0.0490 H     1 <1>   0.0800 
 43 H        9.4570     0.4520     1.0610 H     1 <1>   0.0800 
 44 H        9.5880     0.5660    -0.6820 H     1 <1>   0.0800 
 45 H        9.7520     2.7700     0.3620 H     1 <1>   0.1500 
 46 H        5.0120     6.2870     0.2420 H     1 <1>   0.0800 
 47 H        4.3280     4.8860     0.9830 H     1 <1>   0.0800 
 48 H        4.4560     5.0010    -0.7660 H     1 <1>   0.0800 
 49 H        9.6200     5.1730     0.5170 H     1 <1>   0.1500 
 50 H        8.5190     7.1550     0.5730 H     1 <1>   0.0800 
 51 H        6.9560     7.1120     1.3310 H     1 <1>   0.0800 
 52 H        7.0910     7.2330    -0.4140 H     1 <1>   0.0800 
@<TRIPOS>BOND
  1   1   2  1   
  2   1  27  1   
  3   2   3  1   
  4   2   4  1   
  5   2  28  1   
  6   3   5  1   
  7   3   6  1   
  8   3  29  1   
  9   4   7  1   
 10   4  30  1   
 11   4  31  1   
 12   5   7  1   
 13   5  32  1   
 14   5  33  1   
 15   6   8  1   
 16   6  34  1   
 17   6  35  1   
 18   7   9  1   
 19   8  10  ar  
 20   8  11  ar  
 21   9  12  ar  
 22   9  13  ar  
 23  10  14  ar  
 24  10  36  1   
 25  11  15  ar  
 26  11  37  1   
 27  12  16  ar  
 28  12  38  1   
 29  13  17  ar  
 30  13  39  1   
 31  14  18  ar  
 32  14  40  1   
 33  15  18  ar  
 34  15  41  1   
 35  16  19  ar  
 36  16  20  ar  
 37  17  19  ar  
 38  17  21  1   
 39  19  22  ar  
 40  20  23  ar  
 41  20  24  1   
 42  21  42  1   
 43  21  43  1   
 44  21  44  1   
 45  22  25  ar  
 46  22  45  1   
 47  23  25  ar  
 48  23  26  1   
 49  24  46  1   
 50  24  47  1   
 51  24  48  1   
 52  25  49  1   
 53  26  50  1   
 54  26  51  1   
 55  26  52  1   
@<TRIPOS>SUBSTRUCTURE
  1 ****   9 GROUP 4 **** **** 0

# MOE 2024.06 (io_trps.svl 2023.06)
