@<TRIPOS>MOLECULE
NONAME
46 49 1 0 0 
SMALL
USER_CHARGES


@<TRIPOS>ATOM
  1 S        0.1520    -0.0600     2.0720 S.3   1 <1>  -0.0800 
  2 C        1.5110    -0.2790     0.9950 C.2   1 <1>  -0.1400 
  3 C       -0.1220    -1.7870     2.1140 C.2   1 <1>  -0.1100 
  4 C        1.7150    -1.5770     0.7240 C.2   1 <1>  -0.1810 
  5 C        2.2940     0.9140     0.4950 C.3   1 <1>   0.0200 
  6 C        0.7670    -2.4710     1.3490 C.2   1 <1>  -0.0860 
  7 C        2.8550    -2.0250    -0.1800 C.3   1 <1>   0.0210 
  8 C        3.1880     0.4720    -0.6780 C.3   1 <1>  -0.1600 
  9 C        0.7750    -3.9090     1.1610 C.2   1 <1>   0.7160 
 10 C        3.8700    -0.8840    -0.4020 C.3   1 <1>  -0.1600 
 11 O        1.7830    -4.5570     1.3650 O.2   1 <1>  -0.5700 
 12 N       -0.3600    -4.5650     0.7450 N.am  1 <1>  -0.6600 
 13 C       -1.5520    -3.9020     0.1620 C.3   1 <1>   0.1400 
 14 C       -0.3950    -6.0260     0.4930 C.3   1 <1>   0.1400 
 15 C       -2.2920    -5.0100    -0.5890 C.3   1 <1>   0.2000 
 16 C       -1.8300    -6.3190     0.0480 C.3   1 <1>  -0.0800 
 17 O       -3.6670    -4.8810    -0.4640 O.3   1 <1>  -0.6800 
 18 C       -1.9620    -7.5190    -0.9040 C.3   1 <1>  -0.0170 
 19 C       -1.5430    -8.8180    -0.2350 C.ar  1 <1>   0.1670 
 20 N       -0.2450    -9.0770    -0.2140 N.ar  1 <1>  -0.6200 
 21 C       -2.5090    -9.6510     0.3120 C.ar  1 <1>  -0.1500 
 22 C        0.1060   -10.2080     0.3760 C.ar  1 <1>   0.1600 
 23 C       -2.1300   -10.8270     0.9230 C.ar  1 <1>  -0.1500 
 24 C       -0.7800   -11.1040     0.9500 C.ar  1 <1>  -0.1500 
 25 H       -0.9380    -2.1400     2.7180 H     1 <1>   0.1500 
 26 H        1.6220     1.6900     0.1730 H     1 <1>   0.0800 
 27 H        2.8980     1.2930     1.3000 H     1 <1>   0.0800 
 28 H        3.3690    -2.8630     0.2580 H     1 <1>   0.0800 
 29 H        2.4460    -2.3390    -1.1240 H     1 <1>   0.0800 
 30 H        2.5800     0.3790    -1.5610 H     1 <1>   0.0800 
 31 H        3.9310     1.2270    -0.8660 H     1 <1>   0.0800 
 32 H        4.4790    -0.7900     0.4810 H     1 <1>   0.0800 
 33 H        4.5190    -1.1410    -1.2210 H     1 <1>   0.0800 
 34 H       -2.1600    -3.5050     0.9560 H     1 <1>   0.0800 
 35 H       -1.2570    -3.1140    -0.5100 H     1 <1>   0.0800 
 36 H        0.3080    -6.2670    -0.2870 H     1 <1>   0.0800 
 37 H       -0.1340    -6.5770     1.3820 H     1 <1>   0.0800 
 38 H       -2.0390    -4.9710    -1.6350 H     1 <1>   0.0800 
 39 H       -2.4040    -6.5070     0.9390 H     1 <1>   0.0800 
 40 H       -3.9300    -4.9370     0.4740 H     1 <1>   0.4000 
 41 H       -1.3540    -7.3660    -1.7780 H     1 <1>   0.0800 
 42 H       -2.9830    -7.6000    -1.2320 H     1 <1>   0.0800 
 43 H       -3.5490    -9.3840     0.2620 H     1 <1>   0.1500 
 44 H        1.1580   -10.4350     0.4030 H     1 <1>   0.1500 
 45 H       -2.8520   -11.4960     1.3570 H     1 <1>   0.1500 
 46 H       -0.4150   -12.0040     1.4110 H     1 <1>   0.1500 
@<TRIPOS>BOND
  1   1   2  1   
  2   1   3  1   
  3   2   4  2   
  4   2   5  1   
  5   3   6  2   
  6   3  25  1   
  7   4   6  1   
  8   4   7  1   
  9   5   8  1   
 10   5  26  1   
 11   5  27  1   
 12   6   9  1   
 13   7  10  1   
 14   7  28  1   
 15   7  29  1   
 16   8  10  1   
 17   8  30  1   
 18   8  31  1   
 19   9  11  2   
 20   9  12  am  
 21  10  32  1   
 22  10  33  1   
 23  12  13  1   
 24  12  14  1   
 25  13  15  1   
 26  13  34  1   
 27  13  35  1   
 28  14  16  1   
 29  14  36  1   
 30  14  37  1   
 31  15  16  1   
 32  15  17  1   
 33  15  38  1   
 34  16  18  1   
 35  16  39  1   
 36  17  40  1   
 37  18  19  1   
 38  18  41  1   
 39  18  42  1   
 40  19  20  ar  
 41  19  21  ar  
 42  20  22  ar  
 43  21  23  ar  
 44  21  43  1   
 45  22  24  ar  
 46  22  44  1   
 47  23  24  ar  
 48  23  45  1   
 49  24  46  1   
@<TRIPOS>SUBSTRUCTURE
  1 ****  12 GROUP 4 **** **** 0

# MOE 2024.06 (io_trps.svl 2023.06)
