@<TRIPOS>MOLECULE
NONAME
48 49 1 0 0 
SMALL
USER_CHARGES


@<TRIPOS>ATOM
  1 O       -2.5680     1.3860     2.1700 O.2   1 <1>  -0.5700 
  2 C       -3.0420     1.3910     1.0550 C.2   1 <1>   0.5690 
  3 N       -4.0610     0.5200     0.7450 N.am  1 <1>  -0.6600 
  4 C       -2.4580     2.3560     0.0020 C.3   1 <1>   0.1250 
  5 C       -4.2300    -0.7320     1.5480 C.3   1 <1>   0.3210 
  6 C       -5.0900     0.7470    -0.3250 C.3   1 <1>   0.1400 
  7 C       -1.0090     1.9900    -0.3700 C.ar  1 <1>  -0.1440 
  8 C       -2.6830     3.8610     0.3280 C.3   1 <1>  -0.0800 
  9 C       -3.7910    -1.9440     0.7330 C.2   1 <1>   0.0460 
 10 C       -4.8630    -0.0690    -1.6120 C.3   1 <1>   0.1200 
 11 C       -0.0040     1.8830     0.5840 C.ar  1 <1>  -0.1500 
 12 C       -0.6900     1.7330    -1.6970 C.ar  1 <1>  -0.1500 
 13 C       -2.4190     4.7360    -0.9080 C.3   1 <1>  -0.2400 
 14 C       -1.8570     4.4130     1.5030 C.3   1 <1>  -0.2400 
 15 N       -4.6940    -2.8610     0.3260 N.2   1 <1>  -0.5650 
 16 C       -2.5490    -2.2640     0.2930 C.2   1 <1>  -0.3320 
 17 O       -3.5140    -0.1440    -1.9200 O.3   1 <1>  -0.6800 
 18 C        1.2850     1.5360     0.2220 C.ar  1 <1>  -0.1500 
 19 C        0.5990     1.3850    -2.0630 C.ar  1 <1>  -0.1500 
 20 C       -3.9910    -3.7090    -0.3500 C.2   1 <1>   0.0360 
 21 N       -2.6800    -3.4030    -0.4100 N.pl3 1 <1>   0.0330 
 22 C       -1.2090    -1.5680     0.4820 C.3   1 <1>  -0.0600 
 23 C        1.5890     1.2870    -1.1030 C.ar  1 <1>  -0.1500 
 24 H       -3.0200     2.1910    -0.8920 H     1 <1>   0.0800 
 25 H       -5.2600    -0.8440     1.8350 H     1 <1>   0.0800 
 26 H       -3.6430    -0.6970     2.4480 H     1 <1>   0.0800 
 27 H       -5.1220     1.7910    -0.5800 H     1 <1>   0.0800 
 28 H       -6.0620     0.5020     0.0660 H     1 <1>   0.0800 
 29 H       -3.7220     3.9740     0.5880 H     1 <1>   0.0800 
 30 H       -5.3740     0.3860    -2.4420 H     1 <1>   0.0800 
 31 H       -5.2340    -1.0720    -1.4950 H     1 <1>   0.0800 
 32 H       -0.2210     2.0670     1.6220 H     1 <1>   0.1500 
 33 H       -1.4470     1.7950    -2.4600 H     1 <1>   0.1500 
 34 H       -1.3850     4.6740    -1.2010 H     1 <1>   0.0800 
 35 H       -2.6500     5.7650    -0.6950 H     1 <1>   0.0800 
 36 H       -3.0290     4.4200    -1.7360 H     1 <1>   0.0800 
 37 H       -0.8070     4.4030     1.2720 H     1 <1>   0.0800 
 38 H       -2.0210     3.8380     2.3960 H     1 <1>   0.0800 
 39 H       -2.1430     5.4290     1.7090 H     1 <1>   0.0800 
 40 H       -3.0630    -0.6010    -1.1730 H     1 <1>   0.4000 
 41 H        2.0500     1.4610     0.9750 H     1 <1>   0.1500 
 42 H        0.8280     1.1910    -3.0960 H     1 <1>   0.1500 
 43 H       -4.3950    -4.5850    -0.8280 H     1 <1>   0.1500 
 44 H       -1.9430    -3.9280    -0.8900 H     1 <1>   0.2700 
 45 H       -1.2890    -0.7810     1.2090 H     1 <1>   0.0800 
 46 H       -0.8710    -1.1400    -0.4450 H     1 <1>   0.0800 
 47 H       -0.4710    -2.2660     0.8330 H     1 <1>   0.0800 
 48 H        2.5920     1.0190    -1.3860 H     1 <1>   0.1500 
@<TRIPOS>BOND
  1   1   2  2   
  2   2   3  am  
  3   2   4  1   
  4   3   5  1   
  5   3   6  1   
  6   4   7  1   
  7   4   8  1   
  8   4  24  1   
  9   5   9  1   
 10   5  25  1   
 11   5  26  1   
 12   6  10  1   
 13   6  27  1   
 14   6  28  1   
 15   7  11  ar  
 16   7  12  ar  
 17   8  13  1   
 18   8  14  1   
 19   8  29  1   
 20   9  15  1   
 21   9  16  2   
 22  10  17  1   
 23  10  30  1   
 24  10  31  1   
 25  11  18  ar  
 26  11  32  1   
 27  12  19  ar  
 28  12  33  1   
 29  13  34  1   
 30  13  35  1   
 31  13  36  1   
 32  14  37  1   
 33  14  38  1   
 34  14  39  1   
 35  15  20  2   
 36  16  21  1   
 37  16  22  1   
 38  17  40  1   
 39  18  23  ar  
 40  18  41  1   
 41  19  23  ar  
 42  19  42  1   
 43  20  21  1   
 44  20  43  1   
 45  21  44  1   
 46  22  45  1   
 47  22  46  1   
 48  22  47  1   
 49  23  48  1   
@<TRIPOS>SUBSTRUCTURE
  1 ****   2 GROUP 4 **** **** 0

# MOE 2024.06 (io_trps.svl 2023.06)
