@<TRIPOS>MOLECULE
NONAME
49 52 1 0 0 
SMALL
USER_CHARGES


@<TRIPOS>ATOM
  1 O        3.6960    -0.1590     1.5750 O.2   1 <1>  -0.5700 
  2 C        2.7520    -0.6330     0.9610 C.2   1 <1>   0.5440 
  3 N        2.3330     0.1020    -0.1170 N.am  1 <1>  -0.6600 
  4 C        2.2210    -1.9530     1.2820 C.ar  1 <1>   0.0860 
  5 C        2.7170    -0.3190    -1.5050 C.3   1 <1>   0.1400 
  6 C        1.8320     1.5000     0.0210 C.3   1 <1>   0.1400 
  7 C        0.9450    -2.4130     0.9010 C.ar  1 <1>  -0.0230 
  8 C        3.0250    -2.8370     2.0090 C.ar  1 <1>  -0.1500 
  9 C        4.1920     0.0340    -1.8060 C.3   1 <1>   0.3430 
 10 C        2.9660     2.5400     0.0660 C.3   1 <1>  -0.1600 
 11 N        0.0190    -1.5980     0.2070 N.pl3 1 <1>   0.5930 
 12 C        0.5470    -3.7090     1.2160 C.ar  1 <1>  -0.1500 
 13 C        2.6160    -4.1170     2.3260 C.ar  1 <1>  -0.1500 
 14 N        4.6850     1.0550    -0.8340 N.4   1 <1>  -0.9590 
 15 C        4.0570     2.3890    -1.0000 C.3   1 <1>   0.3430 
 16 N       -0.1640    -1.6520    -1.1380 N.2   1 <1>  -0.7070 
 17 C       -0.8620    -0.7280     0.7570 C.2   1 <1>  -0.3020 
 18 C        1.3720    -4.5590     1.9230 C.ar  1 <1>  -0.1500 
 19 C        6.1560     1.1040    -0.6290 C.3   1 <1>   0.5230 
 20 C       -1.1430    -0.8400    -1.3880 C.2   1 <1>   0.1390 
 21 C       -1.6210    -0.2240    -0.2380 C.2   1 <1>  -0.1500 
 22 C        6.4520     1.9260     0.6120 C.2   1 <1>   0.0060 
 23 N        7.0570     3.0680     0.5730 N.2   1 <1>  -0.5650 
 24 N        6.0780     1.5530     1.8610 N.pl3 1 <1>   0.0330 
 25 C        7.0970     3.4580     1.8620 C.2   1 <1>   0.0770 
 26 C        6.5000     2.5470     2.6600 C.2   1 <1>  -0.3020 
 27 H        2.0720     0.1630    -2.2190 H     1 <1>   0.0800 
 28 H        2.5720    -1.3810    -1.6190 H     1 <1>   0.0800 
 29 H        1.2500     1.5760     0.9260 H     1 <1>   0.0800 
 30 H        1.1680     1.7160    -0.8010 H     1 <1>   0.0800 
 31 H        4.0000    -2.5200     2.3370 H     1 <1>   0.1500 
 32 H        4.2940     0.3840    -2.8200 H     1 <1>   0.0800 
 33 H        4.7770    -0.8660    -1.7060 H     1 <1>   0.0800 
 34 H        3.4210     2.5250     1.0400 H     1 <1>   0.0800 
 35 H        2.5260     3.5160    -0.0410 H     1 <1>   0.0800 
 36 H       -0.4240    -4.0580     0.9040 H     1 <1>   0.1500 
 37 H        3.2630    -4.7730     2.8860 H     1 <1>   0.1500 
 38 H        4.2910     0.7260     0.0720 H     1 <1>   0.4500 
 39 H        4.7930     3.1680    -0.8640 H     1 <1>   0.0800 
 40 H        3.6340     2.4880    -1.9870 H     1 <1>   0.0800 
 41 H       -0.8950    -0.5360     1.8130 H     1 <1>   0.1500 
 42 H        1.0490    -5.5590     2.1620 H     1 <1>   0.1500 
 43 H        6.6360     1.5610    -1.4790 H     1 <1>   0.0800 
 44 H        6.5510     0.1110    -0.5000 H     1 <1>   0.0800 
 45 H       -1.5400    -0.6700    -2.3760 H     1 <1>   0.1500 
 46 H       -2.4290     0.4860    -0.1870 H     1 <1>   0.1500 
 47 H        5.5390     0.7200     2.1420 H     1 <1>   0.2700 
 48 H        7.5590     4.3890     2.1540 H     1 <1>   0.1500 
 49 H        6.3580     2.5550     3.7270 H     1 <1>   0.1500 
@<TRIPOS>BOND
  1   1   2  2   
  2   2   3  am  
  3   2   4  1   
  4   3   5  1   
  5   3   6  1   
  6   4   7  ar  
  7   4   8  ar  
  8   5   9  1   
  9   5  27  1   
 10   5  28  1   
 11   6  10  1   
 12   6  29  1   
 13   6  30  1   
 14   7  11  1   
 15   7  12  ar  
 16   8  13  ar  
 17   8  31  1   
 18   9  14  1   
 19   9  32  1   
 20   9  33  1   
 21  10  15  1   
 22  10  34  1   
 23  10  35  1   
 24  11  16  1   
 25  11  17  1   
 26  12  18  ar  
 27  12  36  1   
 28  13  18  ar  
 29  13  37  1   
 30  14  15  1   
 31  14  19  1   
 32  14  38  1   
 33  15  39  1   
 34  15  40  1   
 35  16  20  2   
 36  17  21  2   
 37  17  41  1   
 38  18  42  1   
 39  19  22  1   
 40  19  43  1   
 41  19  44  1   
 42  20  21  1   
 43  20  45  1   
 44  21  46  1   
 45  22  23  2   
 46  22  24  1   
 47  23  25  1   
 48  24  26  1   
 49  24  47  1   
 50  25  26  2   
 51  25  48  1   
 52  26  49  1   
@<TRIPOS>SUBSTRUCTURE
  1 ****   2 GROUP 4 **** **** 0

# MOE 2024.06 (io_trps.svl 2023.06)
