@<TRIPOS>MOLECULE
NONAME
41 42 1 0 0 
SMALL
USER_CHARGES


@<TRIPOS>ATOM
  1 O       -0.0890     0.7840     0.4760 O.2   1 <1>  -0.5700 
  2 C       -0.0670     1.9550     0.1960 C.2   1 <1>   0.5690 
  3 N       -0.9150     2.8210     0.7910 N.am  1 <1>  -0.7300 
  4 C        0.9070     2.4750    -0.8640 C.3   1 <1>   0.1810 
  5 C       -0.9740     4.2680     0.4720 C.3   1 <1>   0.3640 
  6 O        1.1220     3.8650    -0.7650 O.3   1 <1>  -0.5600 
  7 C       -2.4260     4.6610     0.2190 C.ar  1 <1>  -0.1440 
  8 C       -0.0680     4.6420    -0.7290 C.3   1 <1>   0.2610 
  9 C       -2.9260     5.8350     0.7680 C.ar  1 <1>  -0.1500 
 10 C       -3.2650     3.8710    -0.5570 C.ar  1 <1>  -0.1500 
 11 C        0.2210     6.1510    -0.7030 C.2   1 <1>   0.5690 
 12 C       -4.2400     6.2090     0.5490 C.ar  1 <1>  -0.1500 
 13 C       -4.5800     4.2440    -0.7760 C.ar  1 <1>  -0.1500 
 14 O       -0.4070     6.8300    -1.4840 O.2   1 <1>  -0.5700 
 15 N        1.1200     6.7420     0.1650 N.am  1 <1>  -0.6600 
 16 C       -5.0690     5.4130    -0.2220 C.ar  1 <1>  -0.1500 
 17 C        1.2940     8.2280     0.1460 C.3   1 <1>   0.1400 
 18 C        1.9700     6.0180     1.1540 C.3   1 <1>   0.1400 
 19 C        2.0960     8.6760    -1.0820 C.3   1 <1>   0.1200 
 20 C        3.4000     5.8980     0.6340 C.3   1 <1>  -0.2400 
 21 O        2.2160    10.0580    -1.0690 O.3   1 <1>  -0.6800 
 22 H       -1.6010     2.4620     1.4570 H     1 <1>   0.3700 
 23 H        0.5230     2.2580    -1.8440 H     1 <1>   0.0800 
 24 H        1.8570     1.9870    -0.7460 H     1 <1>   0.0800 
 25 H       -0.6290     4.8030     1.3390 H     1 <1>   0.0800 
 26 H       -0.6030     4.4360    -1.6390 H     1 <1>   0.0800 
 27 H       -2.2960     6.4720     1.3650 H     1 <1>   0.1500 
 28 H       -2.9040     2.9570    -0.9980 H     1 <1>   0.1500 
 29 H       -4.6190     7.1210     0.9770 H     1 <1>   0.1500 
 30 H       -5.2230     3.6260    -1.3770 H     1 <1>   0.1500 
 31 H       -6.0910     5.7050    -0.3920 H     1 <1>   0.1500 
 32 H        0.3210     8.6900     0.1200 H     1 <1>   0.0800 
 33 H        1.8010     8.5510     1.0380 H     1 <1>   0.0800 
 34 H        1.9660     6.5490     2.0910 H     1 <1>   0.0800 
 35 H        1.5840     5.0340     1.3440 H     1 <1>   0.0800 
 36 H        1.6020     8.3900    -1.9950 H     1 <1>   0.0800 
 37 H        3.0870     8.2610    -1.0630 H     1 <1>   0.0800 
 38 H        3.8670     6.8630     0.5730 H     1 <1>   0.0800 
 39 H        3.4050     5.4300    -0.3350 H     1 <1>   0.0800 
 40 H        3.9760     5.2890     1.3070 H     1 <1>   0.0800 
 41 H        1.3640    10.4740    -1.3070 H     1 <1>   0.4000 
@<TRIPOS>BOND
  1   1   2  2   
  2   2   3  am  
  3   2   4  1   
  4   3   5  1   
  5   3  22  1   
  6   4   6  1   
  7   4  23  1   
  8   4  24  1   
  9   5   7  1   
 10   5   8  1   
 11   5  25  1   
 12   6   8  1   
 13   7   9  ar  
 14   7  10  ar  
 15   8  11  1   
 16   8  26  1   
 17   9  12  ar  
 18   9  27  1   
 19  10  13  ar  
 20  10  28  1   
 21  11  14  2   
 22  11  15  am  
 23  12  16  ar  
 24  12  29  1   
 25  13  16  ar  
 26  13  30  1   
 27  15  17  1   
 28  15  18  1   
 29  16  31  1   
 30  17  19  1   
 31  17  32  1   
 32  17  33  1   
 33  18  20  1   
 34  18  34  1   
 35  18  35  1   
 36  19  21  1   
 37  19  36  1   
 38  19  37  1   
 39  20  38  1   
 40  20  39  1   
 41  20  40  1   
 42  21  41  1   
@<TRIPOS>SUBSTRUCTURE
  1 ****   8 GROUP 4 **** **** 0

# MOE 2024.06 (io_trps.svl 2023.06)
