@<TRIPOS>MOLECULE
NONAME
47 49 1 0 0 
SMALL
USER_CHARGES


@<TRIPOS>ATOM
  1 O       -0.6870    -0.1720    -2.4470 O.2   1 <1>  -0.5700 
  2 C       -1.3280     0.5750    -1.7450 C.2   1 <1>   0.5690 
  3 N       -2.1730     0.0890    -0.7830 N.am  1 <1>  -0.6600 
  4 C       -1.1670     2.0720    -1.9650 C.3   1 <1>   0.0440 
  5 C       -2.8910     0.8660     0.2620 C.3   1 <1>   0.1400 
  6 C       -2.3080    -1.3660    -0.5100 C.3   1 <1>   0.1400 
  7 C       -0.3710     2.7540    -0.8560 C.ar  1 <1>  -0.1440 
  8 C       -2.9760    -0.0940     1.4460 C.3   1 <1>   0.2000 
  9 C       -3.1330    -1.4630     0.7790 C.3   1 <1>  -0.0800 
 10 C       -0.8380     3.9190    -0.2670 C.ar  1 <1>  -0.1500 
 11 C        0.8300     2.2130    -0.4230 C.ar  1 <1>  -0.1500 
 12 O       -1.7680    -0.0400     2.1260 O.3   1 <1>  -0.6800 
 13 C       -2.7710    -2.6750     1.6560 C.3   1 <1>   0.0210 
 14 C       -0.1210     4.5250     0.7490 C.ar  1 <1>  -0.1500 
 15 C        1.5470     2.8190     0.5930 C.ar  1 <1>  -0.1500 
 16 C       -2.9740    -3.9700     0.8940 C.2   1 <1>   0.1080 
 17 C        1.0740     3.9780     1.1890 C.ar  1 <1>  -0.1430 
 18 N       -4.1370    -4.3670     0.4780 N.2   1 <1>  -0.7070 
 19 C       -1.9610    -4.8570     0.5470 C.2   1 <1>  -0.1500 
 20 C        1.8550     4.6470     2.3050 C.3   1 <1>   0.2630 
 21 N       -3.8940    -5.5330    -0.1490 N.pl3 1 <1>   0.3000 
 22 C       -2.5820    -5.8500    -0.1220 C.2   1 <1>  -0.3320 
 23 O        2.3980     5.8090     1.7950 O.3   1 <1>  -0.6800 
 24 C       -1.9940    -7.1010    -0.7480 C.3   1 <1>  -0.0600 
 25 H       -0.6580     2.2270    -2.8990 H     1 <1>   0.0800 
 26 H       -2.1430     2.5100    -2.0530 H     1 <1>   0.0800 
 27 H       -2.3810     1.7720     0.5350 H     1 <1>   0.0800 
 28 H       -3.8800     1.0980    -0.0920 H     1 <1>   0.0800 
 29 H       -2.8020    -1.8640    -1.3270 H     1 <1>   0.0800 
 30 H       -1.3290    -1.7930    -0.3760 H     1 <1>   0.0800 
 31 H       -3.7710     0.1410     2.1340 H     1 <1>   0.0800 
 32 H       -4.1630    -1.5660     0.4860 H     1 <1>   0.0800 
 33 H       -1.7620     4.3640    -0.5940 H     1 <1>   0.1500 
 34 H        1.2140     1.3140    -0.8780 H     1 <1>   0.1500 
 35 H       -1.0440    -0.0310     1.4670 H     1 <1>   0.4000 
 36 H       -3.3980    -2.6870     2.5290 H     1 <1>   0.0800 
 37 H       -1.7480    -2.6160     1.9820 H     1 <1>   0.0800 
 38 H       -0.4910     5.4300     1.1990 H     1 <1>   0.1500 
 39 H        2.4760     2.3820     0.9150 H     1 <1>   0.1500 
 40 H       -0.9160    -4.7470     0.7760 H     1 <1>   0.1500 
 41 H        2.6600     4.0210     2.6500 H     1 <1>   0.0800 
 42 H        1.2190     4.9040     3.1340 H     1 <1>   0.0800 
 43 H       -4.6420    -6.0860    -0.5840 H     1 <1>   0.2700 
 44 H        2.5960     5.6650     0.8490 H     1 <1>   0.4000 
 45 H       -0.9300    -7.1270    -0.5930 H     1 <1>   0.0800 
 46 H       -2.1860    -7.1130    -1.8070 H     1 <1>   0.0800 
 47 H       -2.4260    -7.9790    -0.3020 H     1 <1>   0.0800 
@<TRIPOS>BOND
  1   1   2  2   
  2   2   3  am  
  3   2   4  1   
  4   3   5  1   
  5   3   6  1   
  6   4   7  1   
  7   4  25  1   
  8   4  26  1   
  9   5   8  1   
 10   5  27  1   
 11   5  28  1   
 12   6   9  1   
 13   6  29  1   
 14   6  30  1   
 15   7  10  ar  
 16   7  11  ar  
 17   8   9  1   
 18   8  12  1   
 19   8  31  1   
 20   9  13  1   
 21   9  32  1   
 22  10  14  ar  
 23  10  33  1   
 24  11  15  ar  
 25  11  34  1   
 26  12  35  1   
 27  13  16  1   
 28  13  36  1   
 29  13  37  1   
 30  14  17  ar  
 31  14  38  1   
 32  15  17  ar  
 33  15  39  1   
 34  16  18  2   
 35  16  19  1   
 36  17  20  1   
 37  18  21  1   
 38  19  22  2   
 39  19  40  1   
 40  20  23  1   
 41  20  41  1   
 42  20  42  1   
 43  21  22  1   
 44  21  43  1   
 45  22  24  1   
 46  23  44  1   
 47  24  45  1   
 48  24  46  1   
 49  24  47  1   
@<TRIPOS>SUBSTRUCTURE
  1 ****   3 GROUP 4 **** **** 0

# MOE 2024.06 (io_trps.svl 2023.06)
