@<TRIPOS>MOLECULE
NONAME
60 63 1 0 0 
SMALL
USER_CHARGES


@<TRIPOS>ATOM
  1 O       -0.0340    -2.0610    -3.1490 O.2   1 <1>  -0.5700 
  2 C        0.6310    -2.3670    -2.1860 C.2   1 <1>   0.5690 
  3 N        1.3740    -1.4320    -1.5040 N.am  1 <1>  -0.6600 
  4 C        0.6300    -3.8410    -1.7920 C.3   1 <1>   0.1810 
  5 C        1.3210     0.0180    -1.8610 C.3   1 <1>   0.1400 
  6 C        2.2400    -1.7100    -0.3180 C.3   1 <1>   0.1400 
  7 O        0.2260    -4.0230    -0.4420 O.3   1 <1>  -0.3620 
  8 C        2.7350     0.6190    -1.9140 C.3   1 <1>   0.1200 
  9 C        3.6000    -1.0030    -0.4550 C.3   1 <1>   0.1200 
 10 C        0.0750    -5.2590     0.0890 C.ar  1 <1>   0.0820 
 11 O        3.4290     0.3590    -0.7260 O.3   1 <1>  -0.5600 
 12 C       -0.3660    -5.3200     1.4000 C.ar  1 <1>  -0.1500 
 13 C        0.3300    -6.4390    -0.6040 C.ar  1 <1>  -0.1500 
 14 C       -0.5620    -6.5410     2.0190 C.ar  1 <1>  -0.1500 
 15 C        0.1320    -7.6600     0.0160 C.ar  1 <1>  -0.1500 
 16 C       -0.3210    -7.7190     1.3270 C.ar  1 <1>  -0.1440 
 17 C       -0.5710    -9.0580     1.9890 C.3   1 <1>   0.4860 
 18 N       -1.7500    -9.6730     1.3350 N.4   1 <1>  -0.9590 
 19 C       -3.0140    -8.8680     1.3960 C.3   1 <1>   0.3430 
 20 C       -2.0880   -11.0490     1.7600 C.3   1 <1>   0.3430 
 21 C       -4.1510    -9.8880     1.5810 C.3   1 <1>   0.2000 
 22 C       -3.5150   -11.2380     1.2400 C.3   1 <1>  -0.0800 
 23 O       -4.5580    -9.9060     2.9110 O.3   1 <1>  -0.6800 
 24 C       -3.5940   -11.4940    -0.2910 C.3   1 <1>  -0.0170 
 25 C       -2.3080   -12.0170    -0.9180 C.ar  1 <1>   0.1670 
 26 N       -1.3630   -11.1140    -1.1620 N.ar  1 <1>  -0.6200 
 27 C       -2.1870   -13.3690    -1.2010 C.ar  1 <1>  -0.1500 
 28 C       -0.2650   -11.5860    -1.7390 C.ar  1 <1>   0.1600 
 29 C       -1.0310   -13.8420    -1.7820 C.ar  1 <1>  -0.1500 
 30 C       -0.0510   -12.9150    -2.0590 C.ar  1 <1>  -0.1500 
 31 H        1.6170    -4.2470    -1.9130 H     1 <1>   0.0800 
 32 H       -0.0620    -4.3690    -2.4230 H     1 <1>   0.0800 
 33 H        0.8430     0.1570    -2.8150 H     1 <1>   0.0800 
 34 H        0.7420     0.5410    -1.1210 H     1 <1>   0.0800 
 35 H        1.7460    -1.3530     0.5690 H     1 <1>   0.0800 
 36 H        2.4100    -2.7640    -0.2010 H     1 <1>   0.0800 
 37 H        2.6790     1.6860    -2.0360 H     1 <1>   0.0800 
 38 H        3.2900     0.2050    -2.7380 H     1 <1>   0.0800 
 39 H        4.1760    -1.4420    -1.2510 H     1 <1>   0.0800 
 40 H        4.1550    -1.0870     0.4610 H     1 <1>   0.0800 
 41 H       -0.5550    -4.4020     1.9290 H     1 <1>   0.1500 
 42 H        0.6790    -6.4270    -1.6190 H     1 <1>   0.1500 
 43 H       -0.9060    -6.5550     3.0400 H     1 <1>   0.1500 
 44 H        0.3330    -8.5620    -0.5390 H     1 <1>   0.1500 
 45 H       -0.7550    -8.9220     3.0420 H     1 <1>   0.0800 
 46 H        0.2940    -9.6890     1.8660 H     1 <1>   0.0800 
 47 H       -1.5110    -9.7770     0.3270 H     1 <1>   0.4500 
 48 H       -3.0040    -8.1690     2.2150 H     1 <1>   0.0800 
 49 H       -3.1400    -8.3280     0.4710 H     1 <1>   0.0800 
 50 H       -1.4050   -11.7740     1.3470 H     1 <1>   0.0800 
 51 H       -2.0780   -11.1190     2.8350 H     1 <1>   0.0800 
 52 H       -5.0150    -9.6520     0.9810 H     1 <1>   0.0800 
 53 H       -4.0000   -12.0500     1.7540 H     1 <1>   0.0800 
 54 H       -3.8480   -10.1440     3.5350 H     1 <1>   0.4000 
 55 H       -3.8510   -10.5910    -0.8170 H     1 <1>   0.0800 
 56 H       -4.3940   -12.1870    -0.4860 H     1 <1>   0.0800 
 57 H       -2.9870   -14.0530    -0.9790 H     1 <1>   0.1500 
 58 H        0.5130   -10.8800    -1.9770 H     1 <1>   0.1500 
 59 H       -0.9020   -14.8860    -2.0180 H     1 <1>   0.1500 
 60 H        0.8710   -13.2200    -2.5230 H     1 <1>   0.1500 
@<TRIPOS>BOND
  1   1   2  2   
  2   2   3  am  
  3   2   4  1   
  4   3   5  1   
  5   3   6  1   
  6   4   7  1   
  7   4  31  1   
  8   4  32  1   
  9   5   8  1   
 10   5  33  1   
 11   5  34  1   
 12   6   9  1   
 13   6  35  1   
 14   6  36  1   
 15   7  10  1   
 16   8  11  1   
 17   8  37  1   
 18   8  38  1   
 19   9  11  1   
 20   9  39  1   
 21   9  40  1   
 22  10  12  ar  
 23  10  13  ar  
 24  12  14  ar  
 25  12  41  1   
 26  13  15  ar  
 27  13  42  1   
 28  14  16  ar  
 29  14  43  1   
 30  15  16  ar  
 31  15  44  1   
 32  16  17  1   
 33  17  18  1   
 34  17  45  1   
 35  17  46  1   
 36  18  19  1   
 37  18  20  1   
 38  18  47  1   
 39  19  21  1   
 40  19  48  1   
 41  19  49  1   
 42  20  22  1   
 43  20  50  1   
 44  20  51  1   
 45  21  22  1   
 46  21  23  1   
 47  21  52  1   
 48  22  24  1   
 49  22  53  1   
 50  23  54  1   
 51  24  25  1   
 52  24  55  1   
 53  24  56  1   
 54  25  26  ar  
 55  25  27  ar  
 56  26  28  ar  
 57  27  29  ar  
 58  27  57  1   
 59  28  30  ar  
 60  28  58  1   
 61  29  30  ar  
 62  29  59  1   
 63  30  60  1   
@<TRIPOS>SUBSTRUCTURE
  1 ****  15 GROUP 4 **** **** 0

# MOE 2024.06 (io_trps.svl 2023.06)
