@<TRIPOS>MOLECULE
NONAME
40 43 1 0 0 
SMALL
USER_CHARGES


@<TRIPOS>ATOM
  1 O        0.1950    -0.1780     1.1250 O.2   1 <1>  -0.5700 
  2 C        1.1880    -0.7140     0.6670 C.2   1 <1>   0.5440 
  3 N        2.2580     0.0520     0.2900 N.am  1 <1>  -0.4930 
  4 C        1.2330    -2.1560     0.5070 C.ar  1 <1>   0.0860 
  5 C        2.4200     1.4640     0.3250 C.2   1 <1>   0.0630 
  6 C        0.0630    -2.8840     0.2790 C.ar  1 <1>  -0.1500 
  7 C        2.4310    -2.8730     0.5700 C.ar  1 <1>  -0.1500 
  8 C        3.5830     2.1230     0.0960 C.2   1 <1>  -0.0680 
  9 C        1.4750     2.4680     0.5530 C.2   1 <1>   0.1390 
 10 C        0.0740    -4.2570     0.1070 C.ar  1 <1>  -0.1430 
 11 C        2.4570    -4.2450     0.4000 C.ar  1 <1>  -0.1500 
 12 N        3.2810     3.4460     0.1670 N.pl3 1 <1>   0.3140 
 13 N        4.8850     1.6270    -0.1650 N.pl3 1 <1>  -0.8530 
 14 N        1.9790     3.6650     0.4630 N.2   1 <1>  -0.7070 
 15 C        1.2840    -4.9410     0.1700 C.ar  1 <1>   0.0830 
 16 C       -1.2230    -5.0070    -0.1470 C.3   1 <1>  -0.0170 
 17 C        4.2750     4.5150    -0.0140 C.3   1 <1>   0.0960 
 18 C        5.9870     2.6280    -0.1350 C.3   1 <1>   0.2090 
 19 O        1.3600    -6.2800     0.0060 O.3   1 <1>  -0.3620 
 20 C       -0.9310    -6.3810    -0.7540 C.3   1 <1>  -0.1600 
 21 C        5.5190     3.9640    -0.7340 C.3   1 <1>  -0.1600 
 22 C        0.1870    -7.0690     0.0340 C.3   1 <1>   0.1200 
 23 H        3.0200    -0.4200    -0.1930 H     1 <1>   0.3700 
 24 H       -0.8710    -2.3490     0.2360 H     1 <1>   0.1500 
 25 H        3.3560    -2.3600     0.7640 H     1 <1>   0.1500 
 26 H        0.4400     2.2750     0.7760 H     1 <1>   0.1500 
 27 H        3.3830    -4.7890     0.4480 H     1 <1>   0.1500 
 28 H        5.1150     0.8110     0.4140 H     1 <1>   0.4000 
 29 H       -1.8560    -4.4440    -0.8110 H     1 <1>   0.0800 
 30 H       -1.7390    -5.1280     0.7900 H     1 <1>   0.0800 
 31 H        4.5370     4.8850     0.9600 H     1 <1>   0.0800 
 32 H        3.8260     5.3100    -0.5800 H     1 <1>   0.0800 
 33 H        6.8220     2.2500    -0.7010 H     1 <1>   0.0800 
 34 H        6.3040     2.7750     0.8850 H     1 <1>   0.0800 
 35 H       -0.6210    -6.2720    -1.7790 H     1 <1>   0.0800 
 36 H       -1.8200    -6.9860    -0.7350 H     1 <1>   0.0800 
 37 H        6.3150     4.6840    -0.6780 H     1 <1>   0.0800 
 38 H        5.2890     3.8140    -1.7750 H     1 <1>   0.0800 
 39 H       -0.0950    -7.2010     1.0640 H     1 <1>   0.0800 
 40 H        0.4260    -8.0270    -0.3940 H     1 <1>   0.0800 
@<TRIPOS>BOND
  1   1   2  2   
  2   2   3  am  
  3   2   4  1   
  4   3   5  1   
  5   3  23  1   
  6   4   6  ar  
  7   4   7  ar  
  8   5   8  2   
  9   5   9  1   
 10   6  10  ar  
 11   6  24  1   
 12   7  11  ar  
 13   7  25  1   
 14   8  12  1   
 15   8  13  1   
 16   9  14  2   
 17   9  26  1   
 18  10  15  ar  
 19  10  16  1   
 20  11  15  ar  
 21  11  27  1   
 22  12  14  1   
 23  12  17  1   
 24  13  18  1   
 25  13  28  1   
 26  15  19  1   
 27  16  20  1   
 28  16  29  1   
 29  16  30  1   
 30  17  21  1   
 31  17  31  1   
 32  17  32  1   
 33  18  21  1   
 34  18  33  1   
 35  18  34  1   
 36  19  22  1   
 37  20  22  1   
 38  20  35  1   
 39  20  36  1   
 40  21  37  1   
 41  21  38  1   
 42  22  39  1   
 43  22  40  1   
@<TRIPOS>SUBSTRUCTURE
  1 ****   2 GROUP 4 **** **** 0

# MOE 2024.06 (io_trps.svl 2023.06)
