@<TRIPOS>MOLECULE
NONAME
55 57 1 0 0 
SMALL
USER_CHARGES


@<TRIPOS>ATOM
  1 S       -0.5030    -0.1350    -2.2150 S.o2  1 <1>   1.4470 
  2 O       -0.0040     0.7420    -3.2520 O.2   1 <1>  -0.6500 
  3 O       -1.3610    -1.2430    -2.5800 O.2   1 <1>  -0.6500 
  4 N       -1.3670     0.8250    -1.1160 N.am  1 <1>  -0.8490 
  5 C        0.8950    -0.7340    -1.2250 C.ar  1 <1>  -0.0090 
  6 C       -2.0210     0.0240    -0.0800 C.3   1 <1>   0.1960 
  7 C       -2.3490     1.6680    -1.7980 C.3   1 <1>   0.1960 
  8 C        1.6540     0.1420    -0.4590 C.ar  1 <1>  -0.1500 
  9 C        1.2440    -2.0780    -1.2050 C.ar  1 <1>  -0.1500 
 10 C       -2.6140     0.9440     0.9900 C.3   1 <1>  -0.1600 
 11 C       -2.9750     2.6500    -0.8030 C.3   1 <1>  -0.1600 
 12 C        2.7180    -0.3070     0.3040 C.ar  1 <1>  -0.1500 
 13 C        2.3070    -2.5330    -0.4440 C.ar  1 <1>  -0.1500 
 14 C       -3.6150     1.9650     0.4200 C.3   1 <1>   0.2800 
 15 C        3.0560    -1.6510     0.3200 C.ar  1 <1>  -0.1430 
 16 O       -3.6960     2.9760     1.4030 O.3   1 <1>  -0.5600 
 17 C       -5.0210     1.3150     0.1610 C.3   1 <1>   0.2000 
 18 C        4.2310    -2.1320     1.1680 C.3   1 <1>   0.0630 
 19 C       -4.9300     3.3440     1.9460 C.3   1 <1>   0.1200 
 20 O       -5.0310     0.3920    -0.8890 O.3   1 <1>  -0.6800 
 21 C       -6.1900     2.3390     0.0140 C.3   1 <1>   0.2800 
 22 C        5.3150    -2.7670     0.2900 C.3   1 <1>  -0.2400 
 23 C        3.7600    -3.1140     2.2450 C.3   1 <1>  -0.2400 
 24 C       -5.9090     3.6230     0.8070 C.3   1 <1>  -0.1600 
 25 O       -7.3050     1.7470     0.5780 O.3   1 <1>  -0.6800 
 26 C       -6.6120     2.6790    -1.4240 C.3   1 <1>  -0.2400 
 27 H       -2.7840    -0.6000    -0.5150 H     1 <1>   0.0800 
 28 H       -1.2970    -0.6220     0.3890 H     1 <1>   0.0800 
 29 H       -1.8600     2.2370    -2.5710 H     1 <1>   0.0800 
 30 H       -3.1000     1.0560    -2.2690 H     1 <1>   0.0800 
 31 H        1.4040     1.1900    -0.4620 H     1 <1>   0.1500 
 32 H        0.6750    -2.7800    -1.7920 H     1 <1>   0.1500 
 33 H       -1.7970     1.4700     1.4520 H     1 <1>   0.0800 
 34 H       -3.0890     0.3460     1.7450 H     1 <1>   0.0800 
 35 H       -3.6930     3.2580    -1.3140 H     1 <1>   0.0800 
 36 H       -2.1880     3.3000    -0.4640 H     1 <1>   0.0800 
 37 H        3.2820     0.4020     0.8850 H     1 <1>   0.1500 
 38 H        2.5470    -3.5810    -0.4510 H     1 <1>   0.1500 
 39 H       -5.2310     0.7350     1.0430 H     1 <1>   0.0800 
 40 H        4.6690    -1.2840     1.6660 H     1 <1>   0.0800 
 41 H       -5.2800     2.5530     2.5880 H     1 <1>   0.0800 
 42 H       -4.7720     4.2290     2.5370 H     1 <1>   0.0800 
 43 H       -5.9260     0.0000    -0.9450 H     1 <1>   0.4000 
 44 H        4.9480    -3.6530    -0.1950 H     1 <1>   0.0800 
 45 H        6.1700    -3.0300     0.8860 H     1 <1>   0.0800 
 46 H        5.6270    -2.0680    -0.4660 H     1 <1>   0.0800 
 47 H        3.3570    -4.0060     1.8020 H     1 <1>   0.0800 
 48 H        2.9960    -2.6550     2.8480 H     1 <1>   0.0800 
 49 H        4.5810    -3.3880     2.8840 H     1 <1>   0.0800 
 50 H       -5.4580     4.3630     0.1700 H     1 <1>   0.0800 
 51 H       -6.8190     4.0430     1.1950 H     1 <1>   0.0800 
 52 H       -8.0820     2.3230     0.4510 H     1 <1>   0.4000 
 53 H       -5.7860     3.0790    -1.9780 H     1 <1>   0.0800 
 54 H       -7.3960     3.4140    -1.4260 H     1 <1>   0.0800 
 55 H       -6.9590     1.8020    -1.9410 H     1 <1>   0.0800 
@<TRIPOS>BOND
  1   1   2  2   
  2   1   3  2   
  3   1   4  am  
  4   1   5  1   
  5   4   6  1   
  6   4   7  1   
  7   5   8  ar  
  8   5   9  ar  
  9   6  10  1   
 10   6  27  1   
 11   6  28  1   
 12   7  11  1   
 13   7  29  1   
 14   7  30  1   
 15   8  12  ar  
 16   8  31  1   
 17   9  13  ar  
 18   9  32  1   
 19  10  14  1   
 20  10  33  1   
 21  10  34  1   
 22  11  14  1   
 23  11  35  1   
 24  11  36  1   
 25  12  15  ar  
 26  12  37  1   
 27  13  15  ar  
 28  13  38  1   
 29  14  16  1   
 30  14  17  1   
 31  15  18  1   
 32  16  19  1   
 33  17  20  1   
 34  17  21  1   
 35  17  39  1   
 36  18  22  1   
 37  18  23  1   
 38  18  40  1   
 39  19  24  1   
 40  19  41  1   
 41  19  42  1   
 42  20  43  1   
 43  21  24  1   
 44  21  25  1   
 45  21  26  1   
 46  22  44  1   
 47  22  45  1   
 48  22  46  1   
 49  23  47  1   
 50  23  48  1   
 51  23  49  1   
 52  24  50  1   
 53  24  51  1   
 54  25  52  1   
 55  26  53  1   
 56  26  54  1   
 57  26  55  1   
@<TRIPOS>SUBSTRUCTURE
  1 ****   6 GROUP 4 **** **** 0

# MOE 2024.06 (io_trps.svl 2023.06)
