@<TRIPOS>MOLECULE
NONAME
56 59 1 0 0 
SMALL
USER_CHARGES


@<TRIPOS>ATOM
  1 O        0.5080     0.5880    -2.0660 O.2   1 <1>  -0.5700 
  2 C        0.1140     1.0060    -0.9990 C.2   1 <1>   0.5690 
  3 N       -0.4170     0.1560    -0.0590 N.am  1 <1>  -0.6600 
  4 C        0.2150     2.5080    -0.7520 C.3   1 <1>   0.1810 
  5 C       -0.5320    -1.3100    -0.3190 C.3   1 <1>   0.1400 
  6 C       -1.1650     0.5760     1.1600 C.3   1 <1>   0.1400 
  7 O       -1.0760     3.0980    -0.6980 O.3   1 <1>  -0.3620 
  8 C       -2.0000    -1.6680    -0.6390 C.3   1 <1>   0.0000 
  9 C       -2.6530     0.2500     0.9710 C.3   1 <1>  -0.1600 
 10 C       -1.2370     4.4270    -0.4950 C.ar  1 <1>   0.0820 
 11 C       -2.8720    -1.2230     0.5770 C.3   1 <1>   0.2000 
 12 C       -2.4700    -0.8830    -1.8950 C.3   1 <1>   0.1200 
 13 C       -2.1530    -3.1810    -0.9840 C.3   1 <1>  -0.0170 
 14 C       -2.5380     4.8970    -0.4670 C.ar  1 <1>  -0.1500 
 15 C       -0.1840     5.3210    -0.3210 C.ar  1 <1>  -0.1500 
 16 O       -2.5550    -1.9530     1.7110 O.3   1 <1>  -0.6800 
 17 O       -1.6200    -1.0990    -2.9710 O.3   1 <1>  -0.6800 
 18 C       -1.8100    -4.1860     0.1120 C.ar  1 <1>  -0.1440 
 19 C       -2.7960     6.2400    -0.2650 C.ar  1 <1>  -0.1500 
 20 C       -0.4440     6.6660    -0.1200 C.ar  1 <1>  -0.1500 
 21 C       -0.4910    -4.5300     0.3690 C.ar  1 <1>  -0.1500 
 22 C       -2.8210    -4.7790     0.8540 C.ar  1 <1>  -0.1500 
 23 C       -1.7530     7.1440    -0.0860 C.ar  1 <1>  -0.0230 
 24 C       -0.1850    -5.4340     1.3700 C.ar  1 <1>  -0.1500 
 25 C       -2.5160    -5.6830     1.8570 C.ar  1 <1>  -0.1500 
 26 N       -2.0250     8.5280     0.1260 N.pl3 1 <1>   0.5930 
 27 C       -1.1970    -6.0090     2.1170 C.ar  1 <1>  -0.1500 
 28 N       -3.0180     9.2020    -0.4330 N.2   1 <1>  -0.4180 
 29 C       -1.3820     9.3950     0.8950 C.2   1 <1>   0.0360 
 30 N       -2.9440    10.4100    -0.0050 N.2   1 <1>   0.0000 
 31 N       -1.9220    10.5500     0.8310 N.2   1 <1>  -0.3380 
 32 H        0.7600     2.9640    -1.5590 H     1 <1>   0.0800 
 33 H        0.7170     2.6880     0.1800 H     1 <1>   0.0800 
 34 H        0.1120    -1.6040    -1.1290 H     1 <1>   0.0800 
 35 H       -0.2040    -1.8380     0.5590 H     1 <1>   0.0800 
 36 H       -0.7830     0.0330     2.0090 H     1 <1>   0.0800 
 37 H       -1.0430     1.6250     1.3590 H     1 <1>   0.0800 
 38 H       -3.0610     0.9050     0.2240 H     1 <1>   0.0800 
 39 H       -3.1830     0.4550     1.8840 H     1 <1>   0.0800 
 40 H       -3.9130    -1.3980     0.3670 H     1 <1>   0.0800 
 41 H       -2.4940     0.1790    -1.7280 H     1 <1>   0.0800 
 42 H       -3.4560    -1.1970    -2.1920 H     1 <1>   0.0800 
 43 H       -3.1650    -3.3620    -1.3010 H     1 <1>   0.0800 
 44 H       -1.5330    -3.4100    -1.8340 H     1 <1>   0.0800 
 45 H       -3.3490     4.2040    -0.6070 H     1 <1>   0.1500 
 46 H        0.8380     4.9930    -0.3430 H     1 <1>   0.1500 
 47 H       -2.3950    -2.8970     1.4750 H     1 <1>   0.4000 
 48 H       -0.7880    -0.5770    -2.8400 H     1 <1>   0.4000 
 49 H       -3.8170     6.5850    -0.2510 H     1 <1>   0.1500 
 50 H        0.3850     7.3420     0.0030 H     1 <1>   0.1500 
 51 H        0.3060    -4.0990    -0.2110 H     1 <1>   0.1500 
 52 H       -3.8530    -4.5420     0.6610 H     1 <1>   0.1500 
 53 H        0.8410    -5.6920     1.5670 H     1 <1>   0.1500 
 54 H       -3.3040    -6.1350     2.4330 H     1 <1>   0.1500 
 55 H       -0.9590    -6.7110     2.8980 H     1 <1>   0.1500 
 56 H       -0.5270     9.1360     1.4880 H     1 <1>   0.1500 
@<TRIPOS>BOND
  1   1   2  2   
  2   2   3  am  
  3   2   4  1   
  4   3   5  1   
  5   3   6  1   
  6   4   7  1   
  7   4  32  1   
  8   4  33  1   
  9   5   8  1   
 10   5  34  1   
 11   5  35  1   
 12   6   9  1   
 13   6  36  1   
 14   6  37  1   
 15   7  10  1   
 16   8  11  1   
 17   8  12  1   
 18   8  13  1   
 19   9  11  1   
 20   9  38  1   
 21   9  39  1   
 22  10  14  ar  
 23  10  15  ar  
 24  11  16  1   
 25  11  40  1   
 26  12  17  1   
 27  12  41  1   
 28  12  42  1   
 29  13  18  1   
 30  13  43  1   
 31  13  44  1   
 32  14  19  ar  
 33  14  45  1   
 34  15  20  ar  
 35  15  46  1   
 36  16  47  1   
 37  17  48  1   
 38  18  21  ar  
 39  18  22  ar  
 40  19  23  ar  
 41  19  49  1   
 42  20  23  ar  
 43  20  50  1   
 44  21  24  ar  
 45  21  51  1   
 46  22  25  ar  
 47  22  52  1   
 48  23  26  1   
 49  24  27  ar  
 50  24  53  1   
 51  25  27  ar  
 52  25  54  1   
 53  26  28  1   
 54  26  29  1   
 55  27  55  1   
 56  28  30  2   
 57  29  31  2   
 58  29  56  1   
 59  30  31  1   
@<TRIPOS>SUBSTRUCTURE
  1 ****   6 GROUP 4 **** **** 0

# MOE 2024.06 (io_trps.svl 2023.06)
