@<TRIPOS>MOLECULE
NONAME
41 42 1 0 0 
SMALL
USER_CHARGES


@<TRIPOS>ATOM
  1 O        0.7930    -0.1970     0.6990 O.3   1 <1>  -0.6800 
  2 C        1.5990    -0.6170    -0.3530 C.3   1 <1>   0.2000 
  3 C        2.4220    -1.8130     0.1270 C.3   1 <1>  -0.0800 
  4 C        2.6520     0.4640    -0.5920 C.3   1 <1>   0.3430 
  5 C        3.6940    -1.1970     0.7360 C.3   1 <1>   0.3430 
  6 C        2.7620    -2.7680    -1.0320 C.3   1 <1>   0.0210 
  7 N        3.6020     0.2780     0.5370 N.4   1 <1>  -0.9590 
  8 C        3.6030    -3.9370    -0.5580 C.2   1 <1>   0.1080 
  9 C        4.9270     0.9310     0.3820 C.3   1 <1>   0.3430 
 10 N        4.8390    -3.8060    -0.1860 N.2   1 <1>  -0.7070 
 11 C        3.1620    -5.2520    -0.4710 C.2   1 <1>  -0.1500 
 12 C        4.7720     2.4520     0.4010 C.3   1 <1>  -0.1600 
 13 N        5.2290    -5.0580     0.1410 N.pl3 1 <1>   0.3000 
 14 C        4.2270    -5.9460    -0.0190 C.2   1 <1>  -0.3320 
 15 C        6.1410     3.1400     0.3310 C.3   1 <1>  -0.1600 
 16 C        4.3520    -7.4320     0.2680 C.3   1 <1>  -0.0600 
 17 C        5.9900     4.6640     0.3510 C.3   1 <1>  -0.2400 
 18 H        0.0310    -0.8000     0.8280 H     1 <1>   0.4000 
 19 H        0.9820    -0.8070    -1.2160 H     1 <1>   0.0800 
 20 H        1.8920    -2.3760     0.8770 H     1 <1>   0.0800 
 21 H        2.2100     1.4470    -0.5950 H     1 <1>   0.0800 
 22 H        3.1540     0.2850    -1.5290 H     1 <1>   0.0800 
 23 H        4.5660    -1.5760     0.2280 H     1 <1>   0.0800 
 24 H        3.7740    -1.4390     1.7830 H     1 <1>   0.0800 
 25 H        3.3060    -2.2530    -1.8040 H     1 <1>   0.0800 
 26 H        1.8550    -3.1520    -1.4660 H     1 <1>   0.0800 
 27 H        3.1160     0.6550     1.3650 H     1 <1>   0.4500 
 28 H        5.5710     0.6340     1.1940 H     1 <1>   0.0800 
 29 H        5.3870     0.6200    -0.5430 H     1 <1>   0.0800 
 30 H        2.1810    -5.6180    -0.7200 H     1 <1>   0.1500 
 31 H        4.1820     2.7740    -0.4380 H     1 <1>   0.0800 
 32 H        4.2780     2.7520     1.3100 H     1 <1>   0.0800 
 33 H        6.1800    -5.2770     0.4630 H     1 <1>   0.2700 
 34 H        6.7480     2.8390     1.1680 H     1 <1>   0.0800 
 35 H        6.6530     2.8530    -0.5730 H     1 <1>   0.0800 
 36 H        3.4210    -7.9290     0.0610 H     1 <1>   0.0800 
 37 H        4.6020    -7.5930     1.3020 H     1 <1>   0.0800 
 38 H        5.1170    -7.8680    -0.3500 H     1 <1>   0.0800 
 39 H        5.5050     4.9870     1.2560 H     1 <1>   0.0800 
 40 H        5.4110     5.0010    -0.4910 H     1 <1>   0.0800 
 41 H        6.9590     5.1300     0.3030 H     1 <1>   0.0800 
@<TRIPOS>BOND
  1   1   2  1   
  2   1  18  1   
  3   2   3  1   
  4   2   4  1   
  5   2  19  1   
  6   3   5  1   
  7   3   6  1   
  8   3  20  1   
  9   4   7  1   
 10   4  21  1   
 11   4  22  1   
 12   5   7  1   
 13   5  23  1   
 14   5  24  1   
 15   6   8  1   
 16   6  25  1   
 17   6  26  1   
 18   7   9  1   
 19   7  27  1   
 20   8  10  2   
 21   8  11  1   
 22   9  12  1   
 23   9  28  1   
 24   9  29  1   
 25  10  13  1   
 26  11  14  2   
 27  11  30  1   
 28  12  15  1   
 29  12  31  1   
 30  12  32  1   
 31  13  14  1   
 32  13  33  1   
 33  14  16  1   
 34  15  17  1   
 35  15  34  1   
 36  15  35  1   
 37  16  36  1   
 38  16  37  1   
 39  16  38  1   
 40  17  39  1   
 41  17  40  1   
 42  17  41  1   
@<TRIPOS>SUBSTRUCTURE
  1 ****   5 GROUP 4 **** **** 0

# MOE 2024.06 (io_trps.svl 2023.06)
