@<TRIPOS>MOLECULE
NONAME
49 50 1 0 0 
SMALL
USER_CHARGES


@<TRIPOS>ATOM
  1 F       -1.0850     1.9170     2.3310 F     1 <1>  -0.1900 
  2 C       -1.7320     1.6640     1.2240 C.ar  1 <1>   0.1900 
  3 C       -1.2610     2.1490     0.0080 C.ar  1 <1>  -0.1440 
  4 C       -2.8810     0.9030     1.3270 C.ar  1 <1>  -0.1500 
  5 C       -1.9960     1.8390    -1.1320 C.ar  1 <1>  -0.1500 
  6 C        0.0150     2.9910    -0.1130 C.3   1 <1>   0.3940 
  7 C       -3.5950     0.6060     0.1800 C.ar  1 <1>  -0.1500 
  8 C       -3.1510     1.0760    -1.0460 C.ar  1 <1>  -0.1500 
  9 N        1.1950     2.2430     0.4460 N.3   1 <1>  -0.8100 
 10 C       -0.1900     4.4480     0.3900 C.2   1 <1>   0.5690 
 11 C        1.4570     0.9810    -0.2620 C.3   1 <1>   0.0300 
 12 C        2.4290     3.0230     0.6020 C.3   1 <1>   0.0300 
 13 O       -1.0140     4.7130     1.2350 O.2   1 <1>  -0.5700 
 14 N        0.5830     5.4230    -0.1980 N.am  1 <1>  -0.4940 
 15 C        0.6780     6.8240     0.0030 C.2   1 <1>  -0.0880 
 16 N       -0.2940     7.6930     0.4050 N.pl3 1 <1>   0.3140 
 17 C        1.7920     7.5700    -0.1990 C.2   1 <1>  -0.1810 
 18 N        0.1740     8.9590     0.4600 N.2   1 <1>  -0.7070 
 19 C       -1.7150     7.4420     0.6790 C.3   1 <1>   0.0160 
 20 C        1.4160     8.8760     0.1060 C.2   1 <1>   0.1080 
 21 C        3.1660     7.1020    -0.6520 C.3   1 <1>   0.0210 
 22 C        2.3070    10.1040     0.0460 C.3   1 <1>   0.0210 
 23 C        4.0320     6.7440     0.5570 C.3   1 <1>  -0.2400 
 24 C        2.2640    10.7550    -1.3400 C.3   1 <1>  -0.2400 
 25 H       -3.2040     0.5520     2.2900 H     1 <1>   0.1500 
 26 H       -1.6780     2.1890    -2.0980 H     1 <1>   0.1500 
 27 H        0.2050     3.0950    -1.1650 H     1 <1>   0.0800 
 28 H       -4.4920     0.0150     0.2400 H     1 <1>   0.1500 
 29 H       -3.7080     0.8450    -1.9370 H     1 <1>   0.1500 
 30 H        0.5870     0.3480    -0.2360 H     1 <1>   0.0800 
 31 H        2.2600     0.4510     0.2210 H     1 <1>   0.0800 
 32 H        1.7270     1.1690    -1.2870 H     1 <1>   0.0800 
 33 H        2.2620     3.8500     1.2720 H     1 <1>   0.0800 
 34 H        2.7750     3.3870    -0.3500 H     1 <1>   0.0800 
 35 H        3.1960     2.4050     1.0380 H     1 <1>   0.0800 
 36 H        1.3190     5.0580    -0.7980 H     1 <1>   0.3700 
 37 H       -2.0880     6.7110    -0.0110 H     1 <1>   0.0800 
 38 H       -2.2630     8.3580     0.5670 H     1 <1>   0.0800 
 39 H       -1.8170     7.0830     1.6850 H     1 <1>   0.0800 
 40 H        3.6430     7.8760    -1.2270 H     1 <1>   0.0800 
 41 H        3.0640     6.2430    -1.2890 H     1 <1>   0.0800 
 42 H        3.3160     9.8330     0.2950 H     1 <1>   0.0800 
 43 H        1.9660    10.8100     0.7830 H     1 <1>   0.0800 
 44 H        4.1660     7.6070     1.1850 H     1 <1>   0.0800 
 45 H        4.9970     6.3960     0.2360 H     1 <1>   0.0800 
 46 H        3.5570     5.9740     1.1390 H     1 <1>   0.0800 
 47 H        2.6050    10.0620    -2.0890 H     1 <1>   0.0800 
 48 H        2.8880    11.6300    -1.3600 H     1 <1>   0.0800 
 49 H        1.2540    11.0420    -1.5720 H     1 <1>   0.0800 
@<TRIPOS>BOND
  1   1   2  1   
  2   2   3  ar  
  3   2   4  ar  
  4   3   5  ar  
  5   3   6  1   
  6   4   7  ar  
  7   4  25  1   
  8   5   8  ar  
  9   5  26  1   
 10   6   9  1   
 11   6  10  1   
 12   6  27  1   
 13   7   8  ar  
 14   7  28  1   
 15   8  29  1   
 16   9  11  1   
 17   9  12  1   
 18  10  13  2   
 19  10  14  am  
 20  11  30  1   
 21  11  31  1   
 22  11  32  1   
 23  12  33  1   
 24  12  34  1   
 25  12  35  1   
 26  14  15  1   
 27  14  36  1   
 28  15  16  1   
 29  15  17  2   
 30  16  18  1   
 31  16  19  1   
 32  17  20  1   
 33  17  21  1   
 34  18  20  2   
 35  19  37  1   
 36  19  38  1   
 37  19  39  1   
 38  20  22  1   
 39  21  23  1   
 40  21  40  1   
 41  21  41  1   
 42  22  24  1   
 43  22  42  1   
 44  22  43  1   
 45  23  44  1   
 46  23  45  1   
 47  23  46  1   
 48  24  47  1   
 49  24  48  1   
 50  24  49  1   
@<TRIPOS>SUBSTRUCTURE
  1 ****  10 GROUP 4 **** **** 0

# MOE 2024.06 (io_trps.svl 2023.06)
