@<TRIPOS>MOLECULE
NONAME
46 48 1 0 0 
SMALL
USER_CHARGES


@<TRIPOS>ATOM
  1 S       -0.2890    -0.5700    -0.7240 S.3   1 <1>  -0.0800 
  2 C       -1.9080    -0.8370    -0.0960 C.2   1 <1>  -0.1400 
  3 C        0.3760    -1.8080     0.3260 C.2   1 <1>  -0.1100 
  4 C       -1.8920    -1.8090     0.8390 C.2   1 <1>  -0.1500 
  5 C       -3.0000     0.0320    -0.6890 C.3   1 <1>   0.3200 
  6 C       -0.5920    -2.3590     1.0790 C.2   1 <1>  -0.1500 
  7 N       -4.2170    -0.0640     0.1500 N.am  1 <1>  -0.7300 
  8 C       -5.4790    -0.1420    -0.3470 C.2   1 <1>   0.5690 
  9 O       -5.6980    -0.0810    -1.5340 O.2   1 <1>  -0.5700 
 10 C       -6.6930    -0.2950     0.5890 C.3   1 <1>   0.4040 
 11 N       -7.9910     0.1420    -0.0500 N.4   1 <1>  -0.9590 
 12 C       -9.1950    -0.3750     0.6700 C.3   1 <1>   0.3430 
 13 C       -8.0390     1.6200    -0.2420 C.3   1 <1>   0.3430 
 14 C      -10.4820    -0.0750    -0.1150 C.3   1 <1>   0.0000 
 15 C       -9.2850     1.9960    -1.0470 C.3   1 <1>  -0.1600 
 16 C      -11.6830    -0.6200     0.6710 C.3   1 <1>   0.2000 
 17 C      -10.5730     1.4500    -0.4060 C.3   1 <1>  -0.1600 
 18 C      -10.6000    -0.8840    -1.4200 C.3   1 <1>  -0.1600 
 19 O      -12.0410     0.2040     1.7170 O.3   1 <1>  -0.6800 
 20 C      -12.8120    -0.7740    -0.3410 C.3   1 <1>  -0.1600 
 21 C      -12.1080    -1.0220    -1.6840 C.3   1 <1>  -0.1600 
 22 H        1.4340    -1.9930     0.2660 H     1 <1>   0.1500 
 23 H       -2.7410    -2.1840     1.3810 H     1 <1>   0.1500 
 24 H       -3.2050    -0.2850    -1.6990 H     1 <1>   0.0800 
 25 H       -2.6690     1.0560    -0.7130 H     1 <1>   0.0800 
 26 H       -0.4470    -3.1420     1.8040 H     1 <1>   0.1500 
 27 H       -4.0010    -0.1090     1.1490 H     1 <1>   0.3700 
 28 H       -6.5190     0.2730     1.4860 H     1 <1>   0.0800 
 29 H       -6.7630    -1.3350     0.8570 H     1 <1>   0.0800 
 30 H       -7.9760    -0.2590    -1.0030 H     1 <1>   0.4500 
 31 H       -9.1110    -1.4400     0.8130 H     1 <1>   0.0800 
 32 H       -9.2680     0.0900     1.6410 H     1 <1>   0.0800 
 33 H       -8.0700     2.1140     0.7160 H     1 <1>   0.0800 
 34 H       -7.1610     1.9540    -0.7720 H     1 <1>   0.0800 
 35 H       -9.3480     3.0680    -1.1050 H     1 <1>   0.0800 
 36 H       -9.1790     1.6360    -2.0550 H     1 <1>   0.0800 
 37 H      -11.4460    -1.5880     1.0840 H     1 <1>   0.0800 
 38 H      -11.4110     1.6670    -1.0460 H     1 <1>   0.0800 
 39 H      -10.7280     1.9860     0.5140 H     1 <1>   0.0800 
 40 H      -10.0990    -0.4340    -2.2590 H     1 <1>   0.0800 
 41 H      -10.1930    -1.8710    -1.2750 H     1 <1>   0.0800 
 42 H      -12.7010     0.8600     1.4180 H     1 <1>   0.4000 
 43 H      -13.4500    -1.6000    -0.0790 H     1 <1>   0.0800 
 44 H      -13.3990     0.1260    -0.4070 H     1 <1>   0.0800 
 45 H      -12.3380    -2.0010    -2.0700 H     1 <1>   0.0800 
 46 H      -12.4300    -0.2880    -2.4030 H     1 <1>   0.0800 
@<TRIPOS>BOND
  1   1   2  1   
  2   1   3  1   
  3   2   4  2   
  4   2   5  1   
  5   3   6  2   
  6   3  22  1   
  7   4   6  1   
  8   4  23  1   
  9   5   7  1   
 10   5  24  1   
 11   5  25  1   
 12   6  26  1   
 13   7   8  am  
 14   7  27  1   
 15   8   9  2   
 16   8  10  1   
 17  10  11  1   
 18  10  28  1   
 19  10  29  1   
 20  11  12  1   
 21  11  13  1   
 22  11  30  1   
 23  12  14  1   
 24  12  31  1   
 25  12  32  1   
 26  13  15  1   
 27  13  33  1   
 28  13  34  1   
 29  14  16  1   
 30  14  17  1   
 31  14  18  1   
 32  15  17  1   
 33  15  35  1   
 34  15  36  1   
 35  16  19  1   
 36  16  20  1   
 37  16  37  1   
 38  17  38  1   
 39  17  39  1   
 40  18  21  1   
 41  18  40  1   
 42  18  41  1   
 43  19  42  1   
 44  20  21  1   
 45  20  43  1   
 46  20  44  1   
 47  21  45  1   
 48  21  46  1   
@<TRIPOS>SUBSTRUCTURE
  1 ****  10 GROUP 4 **** **** 0

# MOE 2024.06 (io_trps.svl 2023.06)
