@<TRIPOS>MOLECULE
NONAME
51 53 1 0 0 
SMALL
USER_CHARGES


@<TRIPOS>ATOM
  1 CL      -0.8730    -0.5000    -2.7170 Cl    1 <1>  -0.1770 
  2 C       -2.1540    -0.8810    -1.5820 C.ar  1 <1>   0.1770 
  3 C       -3.0700     0.0780    -1.1580 C.ar  1 <1>   0.0830 
  4 C       -2.2350    -2.1940    -1.1570 C.ar  1 <1>  -0.1500 
  5 O       -2.9370     1.3840    -1.5150 O.3   1 <1>  -0.3630 
  6 C       -4.1330    -0.3350    -0.3450 C.ar  1 <1>   0.0830 
  7 C       -3.2680    -2.5870    -0.3200 C.ar  1 <1>  -0.1440 
  8 C       -1.8090     2.0910    -0.9740 C.3   1 <1>   0.0140 
  9 O       -5.1330     0.4840     0.0660 O.3   1 <1>  -0.3630 
 10 C       -4.2150    -1.6530     0.0710 C.ar  1 <1>  -0.1500 
 11 C       -3.3710    -4.0160     0.1660 C.3   1 <1>   0.4860 
 12 C       -1.5790     1.8880     0.5230 C.2   1 <1>   0.9060 
 13 C       -4.7800     1.5720     0.8960 C.3   1 <1>   0.0400 
 14 N       -3.8680    -4.8600    -0.9560 N.4   1 <1>  -0.9590 
 15 O       -1.9260     2.7840     1.3020 O.co2 1 <1>  -0.9000 
 16 O       -1.0480     0.8430     0.9250 O.co2 1 <1>  -0.9000 
 17 C       -5.2820    -4.4950    -1.3040 C.3   1 <1>   0.3430 
 18 C       -3.8770    -6.3060    -0.5720 C.3   1 <1>   0.3430 
 19 C       -6.1610    -5.5210    -0.5840 C.3   1 <1>   0.2000 
 20 C       -5.3250    -6.7930    -0.7040 C.3   1 <1>  -0.0800 
 21 O       -6.2610    -5.1500     0.7560 O.3   1 <1>  -0.6800 
 22 C       -5.6690    -7.9430     0.2630 C.3   1 <1>   0.0200 
 23 C       -4.6220    -9.0360     0.1680 C.2   1 <1>  -0.0400 
 24 O       -4.2380    -9.4670    -1.0040 O.3   1 <1>  -0.0190 
 25 C       -3.9270    -9.7040     1.1010 C.2   1 <1>  -0.1500 
 26 N       -3.3110   -10.3720    -0.9060 N.2   1 <1>  -0.4100 
 27 C       -3.1100   -10.5450     0.3510 C.2   1 <1>   0.1080 
 28 C       -2.1180   -11.5330     0.9250 C.3   1 <1>  -0.0590 
 29 H       -1.4790    -2.8820    -1.4880 H     1 <1>   0.1500 
 30 H       -0.9260     1.7900    -1.4990 H     1 <1>   0.0800 
 31 H       -1.9730     3.1350    -1.1500 H     1 <1>   0.0800 
 32 H       -5.0320    -1.9240     0.7170 H     1 <1>   0.1500 
 33 H       -4.0470    -4.0710     1.0050 H     1 <1>   0.0800 
 34 H       -2.3980    -4.3520     0.4870 H     1 <1>   0.0800 
 35 H       -5.6630     1.9180     1.3980 H     1 <1>   0.0800 
 36 H       -4.3760     2.3630     0.2910 H     1 <1>   0.0800 
 37 H       -4.0490     1.2480     1.6180 H     1 <1>   0.0800 
 38 H       -3.2590    -4.6840    -1.7640 H     1 <1>   0.4500 
 39 H       -5.5370    -3.4900    -1.0140 H     1 <1>   0.0800 
 40 H       -5.4250    -4.5980    -2.3670 H     1 <1>   0.0800 
 41 H       -3.2230    -6.8870    -1.2030 H     1 <1>   0.0800 
 42 H       -3.5580    -6.4170     0.4530 H     1 <1>   0.0800 
 43 H       -7.1490    -5.5940    -1.0090 H     1 <1>   0.0800 
 44 H       -5.4380    -7.1660    -1.7080 H     1 <1>   0.0800 
 45 H       -7.0740    -5.5140     1.1660 H     1 <1>   0.4000 
 46 H       -6.6300    -8.3550     0.0100 H     1 <1>   0.0800 
 47 H       -5.7080    -7.6000     1.2820 H     1 <1>   0.0800 
 48 H       -3.9590    -9.6390     2.1740 H     1 <1>   0.1500 
 49 H       -1.4230   -11.0260     1.5700 H     1 <1>   0.0800 
 50 H       -1.5710   -12.0090     0.1310 H     1 <1>   0.0800 
 51 H       -2.6380   -12.2870     1.4870 H     1 <1>   0.0800 
@<TRIPOS>BOND
  1   1   2  1   
  2   2   3  ar  
  3   2   4  ar  
  4   3   5  1   
  5   3   6  ar  
  6   4   7  ar  
  7   4  29  1   
  8   5   8  1   
  9   6   9  1   
 10   6  10  ar  
 11   7  10  ar  
 12   7  11  1   
 13   8  12  1   
 14   8  30  1   
 15   8  31  1   
 16   9  13  1   
 17  10  32  1   
 18  11  14  1   
 19  11  33  1   
 20  11  34  1   
 21  12  15  ar  
 22  12  16  ar  
 23  13  35  1   
 24  13  36  1   
 25  13  37  1   
 26  14  17  1   
 27  14  18  1   
 28  14  38  1   
 29  17  19  1   
 30  17  39  1   
 31  17  40  1   
 32  18  20  1   
 33  18  41  1   
 34  18  42  1   
 35  19  20  1   
 36  19  21  1   
 37  19  43  1   
 38  20  22  1   
 39  20  44  1   
 40  21  45  1   
 41  22  23  1   
 42  22  46  1   
 43  22  47  1   
 44  23  24  1   
 45  23  25  2   
 46  24  26  1   
 47  25  27  1   
 48  25  48  1   
 49  26  27  2   
 50  27  28  1   
 51  28  49  1   
 52  28  50  1   
 53  28  51  1   
@<TRIPOS>SUBSTRUCTURE
  1 ****  11 GROUP 4 **** **** 0

# MOE 2024.06 (io_trps.svl 2023.06)
