@<TRIPOS>MOLECULE
NONAME
59 62 1 0 0 
SMALL
USER_CHARGES


@<TRIPOS>ATOM
  1 O        0.5890     0.9030     0.4560 O.3   1 <1>  -0.3630 
  2 C        0.0130    -0.3230     0.4460 C.ar  1 <1>   0.0830 
  3 C        1.9150     1.1000     0.0120 C.3   1 <1>   0.1200 
  4 C        0.6290    -1.4670    -0.0530 C.ar  1 <1>  -0.1500 
  5 C       -1.2640    -0.4150     0.9730 C.ar  1 <1>  -0.1500 
  6 C        2.2760     2.5720     0.1950 C.3   1 <1>  -0.0160 
  7 C       -0.0360    -2.6810    -0.0250 C.ar  1 <1>  -0.1500 
  8 C       -1.9280    -1.6270     1.0020 C.ar  1 <1>  -0.1500 
  9 C        3.7000     2.8190    -0.2760 C.ar  1 <1>  -0.1440 
 10 C       -1.3200    -2.7670     0.4960 C.ar  1 <1>  -0.1430 
 11 C        3.9500     3.1800    -1.5910 C.ar  1 <1>  -0.1500 
 12 C        4.7620     2.6780     0.6050 C.ar  1 <1>  -0.1500 
 13 C       -2.0550    -4.0930     0.5110 C.3   1 <1>   0.4860 
 14 C        5.2480     3.3980    -2.0210 C.ar  1 <1>  -0.1500 
 15 C        6.0600     2.8950     0.1760 C.ar  1 <1>  -0.1500 
 16 N       -3.1280    -4.0550    -0.5260 N.4   1 <1>  -0.9590 
 17 C        6.3030     3.2560    -1.1380 C.ar  1 <1>  -0.1500 
 18 C       -4.0810    -5.1910    -0.4000 C.3   1 <1>   0.4230 
 19 C       -2.5310    -3.9560    -1.8980 C.3   1 <1>   0.2630 
 20 C       -5.2310    -5.0790    -1.3980 C.3   1 <1>  -0.1600 
 21 C       -4.7770    -5.2020     0.9600 C.3   1 <1>  -0.1600 
 22 C       -6.3850    -5.8720    -0.7750 C.3   1 <1>  -0.0800 
 23 C       -6.0940    -5.9520     0.7320 C.3   1 <1>  -0.0800 
 24 C       -6.4830    -7.3220    -1.2750 C.3   1 <1>  -0.1600 
 25 C       -6.0260    -7.4460     1.0820 C.3   1 <1>  -0.1600 
 26 C       -6.8050    -8.1310    -0.0290 C.3   1 <1>   0.2000 
 27 O       -6.3830    -9.4330    -0.1800 O.3   1 <1>  -0.6800 
 28 H        2.5690     0.4780     0.5990 H     1 <1>   0.0800 
 29 H        1.9730     0.8250    -1.0260 H     1 <1>   0.0800 
 30 H        1.6220    -1.4290    -0.4620 H     1 <1>   0.1500 
 31 H       -1.7270     0.4750     1.3620 H     1 <1>   0.1500 
 32 H        1.5950     3.1820    -0.3730 H     1 <1>   0.0800 
 33 H        2.1860     2.8380     1.2330 H     1 <1>   0.0800 
 34 H        0.4650    -3.5520    -0.4120 H     1 <1>   0.1500 
 35 H       -2.9170    -1.6620     1.4290 H     1 <1>   0.1500 
 36 H        3.1370     3.2950    -2.2860 H     1 <1>   0.1500 
 37 H        4.5830     2.3980     1.6280 H     1 <1>   0.1500 
 38 H       -2.4820    -4.2410     1.4900 H     1 <1>   0.0800 
 39 H       -1.3700    -4.9010     0.3130 H     1 <1>   0.0800 
 40 H        5.4360     3.6800    -3.0420 H     1 <1>   0.1500 
 41 H        6.8790     2.7850     0.8640 H     1 <1>   0.1500 
 42 H       -3.6530    -3.1880    -0.3570 H     1 <1>   0.4500 
 43 H        7.3120     3.4260    -1.4720 H     1 <1>   0.1500 
 44 H       -3.5760    -6.1330    -0.5480 H     1 <1>   0.0800 
 45 H       -1.9550    -4.8390    -2.1240 H     1 <1>   0.0800 
 46 H       -1.8830    -3.0960    -1.9640 H     1 <1>   0.0800 
 47 H       -3.3050    -3.8500    -2.6410 H     1 <1>   0.0800 
 48 H       -5.5410    -4.0520    -1.4880 H     1 <1>   0.0800 
 49 H       -4.9690    -5.4580    -2.3700 H     1 <1>   0.0800 
 50 H       -4.1820    -5.6750     1.7230 H     1 <1>   0.0800 
 51 H       -5.0130    -4.1970     1.2620 H     1 <1>   0.0800 
 52 H       -7.3270    -5.3740    -0.9430 H     1 <1>   0.0800 
 53 H       -6.8970    -5.4930     1.2880 H     1 <1>   0.0800 
 54 H       -5.5430    -7.6460    -1.6860 H     1 <1>   0.0800 
 55 H       -7.2560    -7.4310    -2.0150 H     1 <1>   0.0800 
 56 H       -6.4700    -7.6460     2.0420 H     1 <1>   0.0800 
 57 H       -5.0080    -7.7930     1.0780 H     1 <1>   0.0800 
 58 H       -7.8630    -8.1270     0.1760 H     1 <1>   0.0800 
 59 H       -5.4310    -9.4730    -0.3800 H     1 <1>   0.4000 
@<TRIPOS>BOND
  1   1   2  1   
  2   1   3  1   
  3   2   4  ar  
  4   2   5  ar  
  5   3   6  1   
  6   3  28  1   
  7   3  29  1   
  8   4   7  ar  
  9   4  30  1   
 10   5   8  ar  
 11   5  31  1   
 12   6   9  1   
 13   6  32  1   
 14   6  33  1   
 15   7  10  ar  
 16   7  34  1   
 17   8  10  ar  
 18   8  35  1   
 19   9  11  ar  
 20   9  12  ar  
 21  10  13  1   
 22  11  14  ar  
 23  11  36  1   
 24  12  15  ar  
 25  12  37  1   
 26  13  16  1   
 27  13  38  1   
 28  13  39  1   
 29  14  17  ar  
 30  14  40  1   
 31  15  17  ar  
 32  15  41  1   
 33  16  18  1   
 34  16  19  1   
 35  16  42  1   
 36  17  43  1   
 37  18  20  1   
 38  18  21  1   
 39  18  44  1   
 40  19  45  1   
 41  19  46  1   
 42  19  47  1   
 43  20  22  1   
 44  20  48  1   
 45  20  49  1   
 46  21  23  1   
 47  21  50  1   
 48  21  51  1   
 49  22  23  1   
 50  22  24  1   
 51  22  52  1   
 52  23  25  1   
 53  23  53  1   
 54  24  26  1   
 55  24  54  1   
 56  24  55  1   
 57  25  26  1   
 58  25  56  1   
 59  25  57  1   
 60  26  27  1   
 61  26  58  1   
 62  27  59  1   
@<TRIPOS>SUBSTRUCTURE
  1 ****  10 GROUP 4 **** **** 0

# MOE 2024.06 (io_trps.svl 2023.06)
