@<TRIPOS>MOLECULE
NONAME
53 56 1 0 0 
SMALL
USER_CHARGES


@<TRIPOS>ATOM
  1 O        0.0060     1.2520    -1.3950 O.2   1 <1>  -0.5700 
  2 C       -0.1200     2.4020    -1.0410 C.2   1 <1>   0.5690 
  3 N       -1.2570     2.8800    -0.4430 N.am  1 <1>  -0.5090 
  4 C        1.0420     3.3560    -1.3170 C.3   1 <1>   0.1810 
  5 C       -1.4530     4.3440    -0.1900 C.3   1 <1>   0.3640 
  6 C       -2.3640     1.9920    -0.0080 C.3   1 <1>   0.0490 
  7 O        0.9500     4.5600    -0.5970 O.3   1 <1>  -0.5600 
  8 C       -2.7710     4.8040    -0.8140 C.ar  1 <1>  -0.1440 
  9 C       -0.2930     5.2200    -0.7310 C.3   1 <1>   0.2610 
 10 C       -2.7710     2.0030     1.4330 C.3   1 <1>  -0.2000 
 11 C       -2.0640     0.8140     0.8650 C.3   1 <1>  -0.2000 
 12 C       -3.6480     5.5890    -0.0770 C.ar  1 <1>   0.1600 
 13 C       -3.1200     4.4630    -2.1090 C.ar  1 <1>  -0.1500 
 14 C       -0.2510     6.6040    -0.0530 C.2   1 <1>   0.5690 
 15 N       -4.8120     6.0420    -0.5160 N.ar  1 <1>  -0.6200 
 16 C       -4.3290     4.9280    -2.5800 C.ar  1 <1>  -0.1500 
 17 O       -0.9350     6.7870     0.9310 O.2   1 <1>  -0.5700 
 18 N        0.5400     7.6120    -0.5540 N.am  1 <1>  -0.6600 
 19 C       -5.1250     5.7020    -1.7540 C.ar  1 <1>   0.1600 
 20 C        0.6360     8.9210     0.1530 C.3   1 <1>   0.3210 
 21 C        1.5400     7.4300    -1.6450 C.3   1 <1>   0.0600 
 22 C        2.0140     9.0660     0.7720 C.2   1 <1>  -0.1810 
 23 C        3.0060     9.9580     0.5460 C.2   1 <1>  -0.3320 
 24 C        2.5150     8.2210     1.7540 C.2   1 <1>   0.1390 
 25 N        4.0210     9.6220     1.3760 N.pl3 1 <1>   0.3140 
 26 C        3.0550    11.1310    -0.4220 C.3   1 <1>  -0.0600 
 27 N        3.7160     8.5480     2.1200 N.2   1 <1>  -0.7070 
 28 C        5.3220    10.2890     1.5120 C.3   1 <1>   0.0160 
 29 H        1.0780     3.5860    -2.3660 H     1 <1>   0.0800 
 30 H        1.9640     2.8800    -1.0360 H     1 <1>   0.0800 
 31 H       -1.5050     4.4690     0.8770 H     1 <1>   0.0800 
 32 H       -3.1280     1.8820    -0.7600 H     1 <1>   0.1000 
 33 H       -0.4570     5.3840    -1.7790 H     1 <1>   0.0800 
 34 H       -2.2360     2.6080     2.1430 H     1 <1>   0.1000 
 35 H       -3.8150     1.9040     1.6740 H     1 <1>   0.1000 
 36 H       -2.6220    -0.0920     0.7100 H     1 <1>   0.1000 
 37 H       -1.0410     0.6270     1.1400 H     1 <1>   0.1000 
 38 H       -3.3800     5.8650     0.9300 H     1 <1>   0.1500 
 39 H       -2.4870     3.8510    -2.7290 H     1 <1>   0.1500 
 40 H       -4.6560     4.6930    -3.5770 H     1 <1>   0.1500 
 41 H       -6.0680     6.0600    -2.1310 H     1 <1>   0.1500 
 42 H        0.4580     9.7140    -0.5490 H     1 <1>   0.0800 
 43 H       -0.1070     9.0010     0.9280 H     1 <1>   0.0800 
 44 H        1.7010     8.3620    -2.1580 H     1 <1>   0.0800 
 45 H        1.2080     6.7020    -2.3620 H     1 <1>   0.0800 
 46 H        2.4750     7.1030    -1.2210 H     1 <1>   0.0800 
 47 H        1.9730     7.3860     2.1670 H     1 <1>   0.1500 
 48 H        2.1430    11.2010    -0.9850 H     1 <1>   0.0800 
 49 H        3.8710    11.0070    -1.1120 H     1 <1>   0.0800 
 50 H        3.1910    12.0500     0.1190 H     1 <1>   0.0800 
 51 H        5.8370    10.2510     0.5710 H     1 <1>   0.0800 
 52 H        5.9000     9.7790     2.2600 H     1 <1>   0.0800 
 53 H        5.1660    11.3080     1.8090 H     1 <1>   0.0800 
@<TRIPOS>BOND
  1   1   2  2   
  2   2   3  am  
  3   2   4  1   
  4   3   5  1   
  5   3   6  1   
  6   4   7  1   
  7   4  29  1   
  8   4  30  1   
  9   5   8  1   
 10   5   9  1   
 11   5  31  1   
 12   6  10  1   
 13   6  11  1   
 14   6  32  1   
 15   7   9  1   
 16   8  12  ar  
 17   8  13  ar  
 18   9  14  1   
 19   9  33  1   
 20  10  11  1   
 21  10  34  1   
 22  10  35  1   
 23  11  36  1   
 24  11  37  1   
 25  12  15  ar  
 26  12  38  1   
 27  13  16  ar  
 28  13  39  1   
 29  14  17  2   
 30  14  18  am  
 31  15  19  ar  
 32  16  19  ar  
 33  16  40  1   
 34  18  20  1   
 35  18  21  1   
 36  19  41  1   
 37  20  22  1   
 38  20  42  1   
 39  20  43  1   
 40  21  44  1   
 41  21  45  1   
 42  21  46  1   
 43  22  23  2   
 44  22  24  1   
 45  23  25  1   
 46  23  26  1   
 47  24  27  2   
 48  24  47  1   
 49  25  27  1   
 50  25  28  1   
 51  26  48  1   
 52  26  49  1   
 53  26  50  1   
 54  28  51  1   
 55  28  52  1   
 56  28  53  1   
@<TRIPOS>SUBSTRUCTURE
  1 ****  14 GROUP 4 **** **** 0

# MOE 2024.06 (io_trps.svl 2023.06)
