@<TRIPOS>MOLECULE
NONAME
50 52 1 0 0 
SMALL
USER_CHARGES


@<TRIPOS>ATOM
  1 O       -0.7790    -1.0250     1.1780 O.3   1 <1>  -0.5600 
  2 C       -1.7590    -2.0020     1.3870 C.3   1 <1>   0.1200 
  3 C        0.5210    -1.5270     1.1260 C.3   1 <1>   0.1200 
  4 C       -1.7450    -3.0370     0.2490 C.3   1 <1>   0.2090 
  5 C        0.6660    -2.5240    -0.0400 C.3   1 <1>   0.2090 
  6 N       -0.3640    -3.6190     0.0480 N.pl3 1 <1>  -0.8380 
  7 C       -0.1600    -4.9630    -0.0290 C.ar  1 <1>   0.7710 
  8 N       -1.1740    -5.7910     0.1800 N.ar  1 <1>  -0.6200 
  9 N        1.0700    -5.4250    -0.3240 N.ar  1 <1>  -0.1790 
 10 C       -0.9510    -7.0820     0.1020 C.ar  1 <1>   0.4100 
 11 C        1.3450    -6.7490    -0.4130 C.ar  1 <1>   0.2180 
 12 N       -2.0180    -7.8600     0.3320 N.pl3 1 <1>  -0.8690 
 13 C        0.3190    -7.6060    -0.1960 C.ar  1 <1>  -0.1500 
 14 C        2.7640    -7.1930    -0.7450 C.3   1 <1>  -0.0170 
 15 C       -2.1810    -9.3430     0.3120 C.3   1 <1>   0.2090 
 16 C        3.2130    -6.7170    -2.1330 C.3   1 <1>  -0.2400 
 17 C       -3.6250    -9.7560    -0.0420 C.3   1 <1>   0.3430 
 18 O       -4.5320    -9.0510     0.7380 O.3   1 <1>  -0.6800 
 19 C       -3.8610   -11.2440     0.1800 C.ar  1 <1>  -0.1430 
 20 C       -4.0050   -12.0900    -0.9100 C.ar  1 <1>  -0.1500 
 21 C       -3.9320   -11.7770     1.4610 C.ar  1 <1>  -0.1500 
 22 C       -4.2140   -13.4440    -0.7170 C.ar  1 <1>   0.0820 
 23 C       -4.1410   -13.1340     1.6510 C.ar  1 <1>  -0.1500 
 24 O       -4.3490   -14.2400    -1.7870 O.3   1 <1>  -0.5330 
 25 C       -4.2830   -13.9730     0.5610 C.ar  1 <1>  -0.1500 
 26 H       -2.7130    -1.5060     1.4250 H     1 <1>   0.0800 
 27 H       -1.5800    -2.4770     2.3360 H     1 <1>   0.0800 
 28 H        0.7460    -1.9980     2.0680 H     1 <1>   0.0800 
 29 H        1.1850    -0.6920     0.9890 H     1 <1>   0.0800 
 30 H       -2.0600    -2.5530    -0.6600 H     1 <1>   0.0800 
 31 H       -2.4750    -3.7940     0.4750 H     1 <1>   0.0800 
 32 H        1.6650    -2.9150    -0.0240 H     1 <1>   0.0800 
 33 H        0.5330    -1.9860    -0.9640 H     1 <1>   0.0800 
 34 H        1.7760    -4.7250    -0.5010 H     1 <1>   0.4570 
 35 H       -2.8920    -7.3910     0.6120 H     1 <1>   0.4000 
 36 H        0.4460    -8.6700    -0.2420 H     1 <1>   0.1500 
 37 H        2.8160    -8.2690    -0.7170 H     1 <1>   0.0800 
 38 H        3.4440    -6.8230     0.0040 H     1 <1>   0.0800 
 39 H       -1.9370    -9.7340     1.2850 H     1 <1>   0.0800 
 40 H       -1.5110    -9.7840    -0.4040 H     1 <1>   0.0800 
 41 H        2.5410    -7.0810    -2.8920 H     1 <1>   0.0800 
 42 H        4.1960    -7.1000    -2.3480 H     1 <1>   0.0800 
 43 H        3.2540    -5.6440    -2.1910 H     1 <1>   0.0800 
 44 H       -3.8220    -9.5030    -1.0700 H     1 <1>   0.0800 
 45 H       -5.4000    -9.4950     0.6790 H     1 <1>   0.4000 
 46 H       -3.9590   -11.7160    -1.9170 H     1 <1>   0.1500 
 47 H       -3.8270   -11.1350     2.3200 H     1 <1>   0.1500 
 48 H       -4.1930   -13.5330     2.6500 H     1 <1>   0.1500 
 49 H       -4.5000   -15.1740    -1.5540 H     1 <1>   0.4500 
 50 H       -4.4450   -15.0250     0.7110 H     1 <1>   0.1500 
@<TRIPOS>BOND
  1   1   2  1   
  2   1   3  1   
  3   2   4  1   
  4   2  26  1   
  5   2  27  1   
  6   3   5  1   
  7   3  28  1   
  8   3  29  1   
  9   4   6  1   
 10   4  30  1   
 11   4  31  1   
 12   5   6  1   
 13   5  32  1   
 14   5  33  1   
 15   6   7  1   
 16   7   8  ar  
 17   7   9  ar  
 18   8  10  ar  
 19   9  11  ar  
 20   9  34  1   
 21  10  12  1   
 22  10  13  ar  
 23  11  13  ar  
 24  11  14  1   
 25  12  15  1   
 26  12  35  1   
 27  13  36  1   
 28  14  16  1   
 29  14  37  1   
 30  14  38  1   
 31  15  17  1   
 32  15  39  1   
 33  15  40  1   
 34  16  41  1   
 35  16  42  1   
 36  16  43  1   
 37  17  18  1   
 38  17  19  1   
 39  17  44  1   
 40  18  45  1   
 41  19  20  ar  
 42  19  21  ar  
 43  20  22  ar  
 44  20  46  1   
 45  21  23  ar  
 46  21  47  1   
 47  22  24  1   
 48  22  25  ar  
 49  23  25  ar  
 50  23  48  1   
 51  24  49  1   
 52  25  50  1   
@<TRIPOS>SUBSTRUCTURE
  1 ****  12 GROUP 4 **** **** 0

# MOE 2024.06 (io_trps.svl 2023.06)
