@<TRIPOS>MOLECULE
NONAME
48 50 1 0 0 
SMALL
USER_CHARGES


@<TRIPOS>ATOM
  1 S        0.0550    -0.4210    -0.1910 S.3   1 <1>  -0.2860 
  2 C       -0.9100    -1.9320    -0.3000 C.2   1 <1>   0.2420 
  3 C        1.7120    -0.9330    -0.8220 C.3   1 <1>  -0.0100 
  4 N       -0.4190    -3.0450    -0.7320 N.2   1 <1>  -0.5650 
  5 N       -2.2090    -1.9700     0.0730 N.pl3 1 <1>   0.0480 
  6 C       -1.4690    -3.8810    -0.6380 C.2   1 <1>   0.0770 
  7 C       -2.5670    -3.2580    -0.1410 C.2   1 <1>  -0.3320 
  8 C       -3.0230    -0.8500     0.5910 C.3   1 <1>   0.0160 
  9 C       -3.9550    -3.8020     0.1400 C.3   1 <1>   0.3200 
 10 N       -3.8960    -5.2690     0.1790 N.am  1 <1>  -0.7300 
 11 C       -4.8950    -6.0840    -0.2410 C.2   1 <1>   0.5690 
 12 O       -5.9340    -5.6360    -0.6580 O.2   1 <1>  -0.5700 
 13 C       -4.6840    -7.5910    -0.1990 C.3   1 <1>  -0.0190 
 14 C       -5.9770    -8.4020    -0.3660 C.3   1 <1>   0.1400 
 15 C       -4.0790    -8.1130     1.1140 C.3   1 <1>  -0.0990 
 16 N       -5.7340    -9.6470     0.3950 N.am  1 <1>  -0.4770 
 17 C       -4.6680    -9.4910     1.2300 C.2   1 <1>   0.5690 
 18 C       -6.4950   -10.8190     0.1610 C.ar  1 <1>   0.1170 
 19 O       -4.1950   -10.3170     1.9720 O.2   1 <1>  -0.5700 
 20 C       -7.8960   -10.8120     0.0490 C.ar  1 <1>   0.0830 
 21 C       -5.8300   -12.0340     0.0280 C.ar  1 <1>  -0.1500 
 22 O       -8.5580    -9.6270     0.2060 O.3   1 <1>  -0.3630 
 23 C       -8.5780   -11.9990    -0.2080 C.ar  1 <1>  -0.1500 
 24 C       -6.5140   -13.2090    -0.2210 C.ar  1 <1>  -0.1500 
 25 C       -9.9630    -9.5660     0.3140 C.3   1 <1>   0.0400 
 26 C       -7.8900   -13.1920    -0.3420 C.ar  1 <1>  -0.1500 
 27 H        2.3580    -0.0750    -0.7930 H     1 <1>   0.0800 
 28 H        1.5820    -1.2900    -1.8280 H     1 <1>   0.0800 
 29 H        2.0770    -1.7180    -0.1840 H     1 <1>   0.0800 
 30 H       -1.3760    -4.9100    -0.9440 H     1 <1>   0.1500 
 31 H       -2.7440     0.0580     0.0870 H     1 <1>   0.0800 
 32 H       -2.8450    -0.7410     1.6450 H     1 <1>   0.0800 
 33 H       -4.0650    -1.0400     0.4140 H     1 <1>   0.0800 
 34 H       -4.6420    -3.4750    -0.6240 H     1 <1>   0.0800 
 35 H       -4.3060    -3.4470     1.0940 H     1 <1>   0.0800 
 36 H       -3.0240    -5.6440     0.5510 H     1 <1>   0.3700 
 37 H       -4.0320    -7.8550    -1.0110 H     1 <1>   0.0800 
 38 H       -6.1860    -8.6130    -1.4000 H     1 <1>   0.0800 
 39 H       -6.8110    -7.8820     0.0730 H     1 <1>   0.0800 
 40 H       -4.4050    -7.5330     1.9580 H     1 <1>   0.0800 
 41 H       -3.0060    -8.1550     1.0790 H     1 <1>   0.0800 
 42 H       -4.7590   -12.0610     0.1230 H     1 <1>   0.1500 
 43 H       -9.6460   -12.0210    -0.3070 H     1 <1>   0.1500 
 44 H       -5.9730   -14.1350    -0.3190 H     1 <1>   0.1500 
 45 H      -10.2370    -8.5470     0.5170 H     1 <1>   0.0800 
 46 H      -10.2790   -10.1980     1.1260 H     1 <1>   0.0800 
 47 H      -10.4000    -9.8820    -0.6160 H     1 <1>   0.0800 
 48 H       -8.4240   -14.1060    -0.5380 H     1 <1>   0.1500 
@<TRIPOS>BOND
  1   1   2  1   
  2   1   3  1   
  3   2   4  2   
  4   2   5  1   
  5   3  27  1   
  6   3  28  1   
  7   3  29  1   
  8   4   6  1   
  9   5   7  1   
 10   5   8  1   
 11   6   7  2   
 12   6  30  1   
 13   7   9  1   
 14   8  31  1   
 15   8  32  1   
 16   8  33  1   
 17   9  10  1   
 18   9  34  1   
 19   9  35  1   
 20  10  11  am  
 21  10  36  1   
 22  11  12  2   
 23  11  13  1   
 24  13  14  1   
 25  13  15  1   
 26  13  37  1   
 27  14  16  1   
 28  14  38  1   
 29  14  39  1   
 30  15  17  1   
 31  15  40  1   
 32  15  41  1   
 33  16  17  am  
 34  16  18  1   
 35  17  19  2   
 36  18  20  ar  
 37  18  21  ar  
 38  20  22  1   
 39  20  23  ar  
 40  21  24  ar  
 41  21  42  1   
 42  22  25  1   
 43  23  26  ar  
 44  23  43  1   
 45  24  26  ar  
 46  24  44  1   
 47  25  45  1   
 48  25  46  1   
 49  25  47  1   
 50  26  48  1   
@<TRIPOS>SUBSTRUCTURE
  1 ****  13 GROUP 4 **** **** 0

# MOE 2024.06 (io_trps.svl 2023.06)
