@<TRIPOS>MOLECULE
NONAME
49 52 1 0 0 
SMALL
USER_CHARGES


@<TRIPOS>ATOM
  1 O       -0.2220    -0.9960    -1.7040 O.2   1 <1>  -0.5700 
  2 C       -1.2400    -1.1770    -1.0730 C.2   1 <1>   0.5440 
  3 N       -2.0050    -0.0830    -0.8520 N.am  1 <1>  -0.8000 
  4 C       -1.6000    -2.4900    -0.5710 C.ar  1 <1>   0.0860 
  5 C       -2.8830    -2.8370    -0.1860 C.ar  1 <1>  -0.1500 
  6 C       -0.6620    -3.5060    -0.4380 C.ar  1 <1>  -0.1500 
  7 C       -3.1740    -4.1050     0.3000 C.ar  1 <1>   0.4100 
  8 C       -1.0350    -4.7360     0.0610 C.ar  1 <1>   0.1600 
  9 N       -2.2590    -5.0550     0.4370 N.ar  1 <1>  -0.6200 
 10 N       -4.4730    -4.4080     0.6650 N.pl3 1 <1>  -0.8380 
 11 C       -4.7390    -5.3470     1.7930 C.3   1 <1>   0.2090 
 12 C       -5.5490    -4.3680    -0.3600 C.3   1 <1>   0.2090 
 13 C       -5.0110    -6.7580     1.2660 C.3   1 <1>  -0.1600 
 14 C       -5.7970    -5.7720    -0.9110 C.3   1 <1>  -0.1600 
 15 C       -6.1240    -6.7780     0.2080 C.3   1 <1>   0.4240 
 16 O       -7.2550    -6.2790     0.8920 O.3   1 <1>  -0.5600 
 17 C       -6.3760    -8.2180    -0.3310 C.ar  1 <1>  -0.1440 
 18 C       -8.5100    -6.5690     0.3720 C.3   1 <1>   0.1200 
 19 C       -5.3840    -8.9520    -0.9960 C.ar  1 <1>   0.0830 
 20 C       -7.6240    -8.8180    -0.1570 C.ar  1 <1>  -0.1440 
 21 C       -8.7460    -8.0630     0.5240 C.3   1 <1>  -0.0170 
 22 O       -4.1710    -8.3820    -1.2050 O.3   1 <1>  -0.3620 
 23 C       -5.6450   -10.2450    -1.4440 C.ar  1 <1>  -0.1500 
 24 C       -7.8710   -10.1050    -0.6030 C.ar  1 <1>  -0.1500 
 25 C       -3.0280    -9.1260    -1.5580 C.3   1 <1>   0.0400 
 26 C       -6.8820   -10.8210    -1.2450 C.ar  1 <1>  -0.1500 
 27 H       -1.6770     0.8180    -1.2000 H     1 <1>   0.3700 
 28 H       -2.8110    -0.0700    -0.2290 H     1 <1>   0.3700 
 29 H       -3.6840    -2.1300    -0.2550 H     1 <1>   0.1500 
 30 H        0.3590    -3.3250    -0.7240 H     1 <1>   0.1500 
 31 H       -0.2860    -5.5040     0.1580 H     1 <1>   0.1500 
 32 H       -5.5910    -4.9930     2.3470 H     1 <1>   0.0800 
 33 H       -3.8950    -5.3650     2.4600 H     1 <1>   0.0800 
 34 H       -5.2690    -3.7140    -1.1670 H     1 <1>   0.0800 
 35 H       -6.4490    -3.9830     0.0900 H     1 <1>   0.0800 
 36 H       -5.2860    -7.4030     2.0790 H     1 <1>   0.0800 
 37 H       -4.0920    -7.1300     0.8610 H     1 <1>   0.0800 
 38 H       -4.9080    -6.0730    -1.4300 H     1 <1>   0.0800 
 39 H       -6.5900    -5.7540    -1.6330 H     1 <1>   0.0800 
 40 H       -8.5490    -6.2690    -0.6600 H     1 <1>   0.0800 
 41 H       -9.2380    -6.0110     0.9340 H     1 <1>   0.0800 
 42 H       -9.6920    -8.3170     0.0820 H     1 <1>   0.0800 
 43 H       -8.7770    -8.3180     1.5680 H     1 <1>   0.0800 
 44 H       -4.8980   -10.8190    -1.9570 H     1 <1>   0.1500 
 45 H       -8.8360   -10.5560    -0.4520 H     1 <1>   0.1500 
 46 H       -2.1790    -8.4680    -1.5140 H     1 <1>   0.0800 
 47 H       -3.1490    -9.5000    -2.5590 H     1 <1>   0.0800 
 48 H       -2.9040    -9.9310    -0.8550 H     1 <1>   0.0800 
 49 H       -7.0770   -11.8210    -1.5910 H     1 <1>   0.1500 
@<TRIPOS>BOND
  1   1   2  2   
  2   2   3  am  
  3   2   4  1   
  4   3  27  1   
  5   3  28  1   
  6   4   5  ar  
  7   4   6  ar  
  8   5   7  ar  
  9   5  29  1   
 10   6   8  ar  
 11   6  30  1   
 12   7   9  ar  
 13   7  10  1   
 14   8   9  ar  
 15   8  31  1   
 16  10  11  1   
 17  10  12  1   
 18  11  13  1   
 19  11  32  1   
 20  11  33  1   
 21  12  14  1   
 22  12  34  1   
 23  12  35  1   
 24  13  15  1   
 25  13  36  1   
 26  13  37  1   
 27  14  15  1   
 28  14  38  1   
 29  14  39  1   
 30  15  16  1   
 31  15  17  1   
 32  16  18  1   
 33  17  19  ar  
 34  17  20  ar  
 35  18  21  1   
 36  18  40  1   
 37  18  41  1   
 38  19  22  1   
 39  19  23  ar  
 40  20  21  1   
 41  20  24  ar  
 42  21  42  1   
 43  21  43  1   
 44  22  25  1   
 45  23  26  ar  
 46  23  44  1   
 47  24  26  ar  
 48  24  45  1   
 49  25  46  1   
 50  25  47  1   
 51  25  48  1   
 52  26  49  1   
@<TRIPOS>SUBSTRUCTURE
  1 ****  14 GROUP 4 **** **** 0

# MOE 2024.06 (io_trps.svl 2023.06)
