@<TRIPOS>MOLECULE
NONAME
39 42 1 0 0 
SMALL
USER_CHARGES


@<TRIPOS>ATOM
  1 S        0.0040     0.6740     2.4590 S.3   1 <1>  -0.0800 
  2 C       -0.0420     1.7540     1.0810 C.2   1 <1>  -0.1400 
  3 C        1.5760     1.3070     2.9270 C.2   1 <1>  -0.1100 
  4 C        1.0620     2.5080     1.0000 C.2   1 <1>  -0.1810 
  5 C       -1.2040     1.8080     0.1270 C.3   1 <1>   0.0200 
  6 C        1.9900     2.2580     2.0660 C.2   1 <1>  -0.1500 
  7 C        1.2500     3.5140    -0.1380 C.3   1 <1>   0.4610 
  8 C       -1.0980     3.1360    -0.6390 C.3   1 <1>   0.1200 
  9 O        0.2150     3.3580    -1.0960 O.3   1 <1>  -0.5600 
 10 C        1.2300     4.9550     0.3930 C.3   1 <1>  -0.1600 
 11 C        2.5580     3.2300    -0.8880 C.3   1 <1>  -0.1600 
 12 C        1.5170     5.9660    -0.7180 C.3   1 <1>   0.1400 
 13 C        2.8300     4.2690    -1.9780 C.3   1 <1>   0.1400 
 14 N        2.8130     5.6180    -1.3560 N.am  1 <1>  -0.6600 
 15 C        3.9470     6.4280    -1.3120 C.2   1 <1>   0.5440 
 16 O        4.7810     6.2390    -2.1930 O.2   1 <1>  -0.5700 
 17 C        4.1740     7.4580    -0.3190 C.ar  1 <1>   0.3960 
 18 N        3.6900     7.3290     0.9470 N.ar  1 <1>  -0.6200 
 19 C        4.9120     8.5930    -0.6870 C.ar  1 <1>   0.1600 
 20 C        3.9640     8.3500     1.7130 C.ar  1 <1>   0.1600 
 21 N        5.1880     9.6250     0.0720 N.ar  1 <1>  -0.6200 
 22 C        4.6880     9.4980     1.3130 C.ar  1 <1>   0.1390 
 23 O        4.8770    10.4260     2.1160 O.3   1 <1>  -0.8290 
 24 H        2.0290     0.8950     3.8100 H     1 <1>   0.1500 
 25 H       -2.1340     1.7690     0.6640 H     1 <1>   0.0800 
 26 H       -1.1590     0.9780    -0.5540 H     1 <1>   0.0800 
 27 H        2.9170     2.8000     2.1370 H     1 <1>   0.1500 
 28 H       -1.3830     3.9570    -0.0060 H     1 <1>   0.0800 
 29 H       -1.7470     3.1210    -1.4980 H     1 <1>   0.0800 
 30 H        1.9860     5.0640     1.1490 H     1 <1>   0.0800 
 31 H        0.2880     5.1710     0.8570 H     1 <1>   0.0800 
 32 H        2.5130     2.2470    -1.3190 H     1 <1>   0.0800 
 33 H        3.3820     3.2460    -0.1980 H     1 <1>   0.0800 
 34 H        1.5350     6.9660    -0.3210 H     1 <1>   0.0800 
 35 H        0.7390     5.9220    -1.4610 H     1 <1>   0.0800 
 36 H        2.0710     4.2190    -2.7400 H     1 <1>   0.0800 
 37 H        3.7830     4.0700    -2.4370 H     1 <1>   0.0800 
 38 H        5.2890     8.6300    -1.6920 H     1 <1>   0.1500 
 39 H        3.6280     8.3540     2.7320 H     1 <1>   0.1500 
@<TRIPOS>BOND
  1   1   2  1   
  2   1   3  1   
  3   2   4  2   
  4   2   5  1   
  5   3   6  2   
  6   3  24  1   
  7   4   6  1   
  8   4   7  1   
  9   5   8  1   
 10   5  25  1   
 11   5  26  1   
 12   6  27  1   
 13   7   9  1   
 14   7  10  1   
 15   7  11  1   
 16   8   9  1   
 17   8  28  1   
 18   8  29  1   
 19  10  12  1   
 20  10  30  1   
 21  10  31  1   
 22  11  13  1   
 23  11  32  1   
 24  11  33  1   
 25  12  14  1   
 26  12  34  1   
 27  12  35  1   
 28  13  14  1   
 29  13  36  1   
 30  13  37  1   
 31  14  15  am  
 32  15  16  2   
 33  15  17  1   
 34  17  18  ar  
 35  17  19  ar  
 36  18  20  ar  
 37  19  21  ar  
 38  19  38  1   
 39  20  22  ar  
 40  20  39  1   
 41  21  22  ar  
 42  22  23  1   
@<TRIPOS>SUBSTRUCTURE
  1 ****  10 GROUP 4 **** **** 0

# MOE 2024.06 (io_trps.svl 2023.06)
