@<TRIPOS>MOLECULE
NONAME
59 62 1 0 0 
SMALL
USER_CHARGES


@<TRIPOS>ATOM
  1 O       -1.8420     1.0990     2.6430 O.2   1 <1>  -0.5700 
  2 C       -1.7540     1.4790     1.4890 C.2   1 <1>   0.5440 
  3 N       -1.9580     0.5450     0.4990 N.am  1 <1>  -0.6600 
  4 C       -1.4910     2.8760     1.2010 C.ar  1 <1>   0.0860 
  5 C       -1.8540    -0.9080     0.7730 C.3   1 <1>   0.1400 
  6 C       -2.5700     0.8570    -0.8140 C.3   1 <1>   0.1400 
  7 C       -0.4560     3.2840     0.3400 C.ar  1 <1>   0.0000 
  8 C       -2.2890     3.8540     1.7930 C.ar  1 <1>  -0.1500 
  9 C       -3.2790    -1.4930     0.8280 C.3   1 <1>   0.4230 
 10 C       -4.0120     0.3260    -0.8020 C.3   1 <1>  -0.1600 
 11 C        0.4400     2.3380    -0.2890 C.ar  1 <1>   0.0000 
 12 C       -0.2810     4.6420     0.0910 C.ar  1 <1>  -0.1500 
 13 C       -2.1000     5.1980     1.5360 C.ar  1 <1>  -0.1500 
 14 N       -3.3480    -2.9410     1.2850 N.4   1 <1>  -0.9590 
 15 C       -4.1450    -1.1840    -0.4350 C.3   1 <1>   0.0000 
 16 C        1.2530     1.5010     0.4710 C.ar  1 <1>  -0.1500 
 17 C        0.5100     2.2330    -1.6750 C.ar  1 <1>  -0.1500 
 18 C       -1.0920     5.5940     0.6770 C.ar  1 <1>  -0.1500 
 19 C       -4.6830    -3.5790     1.0550 C.3   1 <1>   0.3430 
 20 C       -2.2590    -3.8010     0.7200 C.3   1 <1>   0.2630 
 21 C       -5.6300    -1.4680    -0.0630 C.3   1 <1>  -0.1600 
 22 C       -3.8080    -2.0460    -1.6880 C.3   1 <1>   0.1200 
 23 C        2.0980     0.5800    -0.1230 C.ar  1 <1>  -0.1430 
 24 C        1.3520     1.3180    -2.2790 C.ar  1 <1>  -0.1500 
 25 C       -5.8050    -2.5370     1.0390 C.3   1 <1>  -0.1600 
 26 O       -2.4490    -2.1110    -1.9440 O.3   1 <1>  -0.6800 
 27 C        2.1450     0.4910    -1.5040 C.ar  1 <1>  -0.1500 
 28 C        2.9750    -0.3210     0.7290 C.3   1 <1>  -0.0970 
 29 H       -1.2560    -1.3580     0.0040 H     1 <1>   0.0800 
 30 H       -1.3590    -1.0640     1.7150 H     1 <1>   0.0800 
 31 H       -2.5750     1.9190    -0.9870 H     1 <1>   0.0800 
 32 H       -1.9910     0.3960    -1.5980 H     1 <1>   0.0800 
 33 H       -3.0680     3.5490     2.4690 H     1 <1>   0.1500 
 34 H       -3.7480    -0.9220     1.6120 H     1 <1>   0.0800 
 35 H       -4.5440     0.9270    -0.0840 H     1 <1>   0.0800 
 36 H       -4.4620     0.5190    -1.7600 H     1 <1>   0.0800 
 37 H        0.5110     4.9550    -0.5670 H     1 <1>   0.1500 
 38 H       -2.7310     5.9340     2.0030 H     1 <1>   0.1500 
 39 H       -3.2060    -2.8950     2.3040 H     1 <1>   0.4500 
 40 H        1.2160     1.5800     1.5440 H     1 <1>   0.1500 
 41 H       -0.1030     2.8740    -2.2840 H     1 <1>   0.1500 
 42 H       -0.9370     6.6400     0.4720 H     1 <1>   0.1500 
 43 H       -4.6790    -4.0910     0.1070 H     1 <1>   0.0800 
 44 H       -4.8750    -4.3110     1.8230 H     1 <1>   0.0800 
 45 H       -2.3380    -3.8500    -0.3530 H     1 <1>   0.0800 
 46 H       -2.3280    -4.8010     1.1160 H     1 <1>   0.0800 
 47 H       -1.2910    -3.4020     0.9730 H     1 <1>   0.0800 
 48 H       -6.1120    -0.5720     0.2940 H     1 <1>   0.0800 
 49 H       -6.1770    -1.7660    -0.9420 H     1 <1>   0.0800 
 50 H       -4.2870    -1.6300    -2.5590 H     1 <1>   0.0800 
 51 H       -4.1580    -3.0560    -1.5740 H     1 <1>   0.0800 
 52 H        1.3950     1.2500    -3.3520 H     1 <1>   0.1500 
 53 H       -6.7490    -3.0370     0.8990 H     1 <1>   0.0800 
 54 H       -5.8460    -2.0620     2.0040 H     1 <1>   0.0800 
 55 H       -2.2810    -2.3600    -2.8790 H     1 <1>   0.4000 
 56 H        2.8010    -0.2170    -1.9790 H     1 <1>   0.1500 
 57 H        3.0240    -1.3060     0.3020 H     1 <1>   0.0800 
 58 H        2.5820    -0.4000     1.7270 H     1 <1>   0.0800 
 59 H        3.9690     0.0860     0.7800 H     1 <1>   0.0800 
@<TRIPOS>BOND
  1   1   2  2   
  2   2   3  am  
  3   2   4  1   
  4   3   5  1   
  5   3   6  1   
  6   4   7  ar  
  7   4   8  ar  
  8   5   9  1   
  9   5  29  1   
 10   5  30  1   
 11   6  10  1   
 12   6  31  1   
 13   6  32  1   
 14   7  11  1   
 15   7  12  ar  
 16   8  13  ar  
 17   8  33  1   
 18   9  14  1   
 19   9  15  1   
 20   9  34  1   
 21  10  15  1   
 22  10  35  1   
 23  10  36  1   
 24  11  16  ar  
 25  11  17  ar  
 26  12  18  ar  
 27  12  37  1   
 28  13  18  ar  
 29  13  38  1   
 30  14  19  1   
 31  14  20  1   
 32  14  39  1   
 33  15  21  1   
 34  15  22  1   
 35  16  23  ar  
 36  16  40  1   
 37  17  24  ar  
 38  17  41  1   
 39  18  42  1   
 40  19  25  1   
 41  19  43  1   
 42  19  44  1   
 43  20  45  1   
 44  20  46  1   
 45  20  47  1   
 46  21  25  1   
 47  21  48  1   
 48  21  49  1   
 49  22  26  1   
 50  22  50  1   
 51  22  51  1   
 52  23  27  ar  
 53  23  28  1   
 54  24  27  ar  
 55  24  52  1   
 56  25  53  1   
 57  25  54  1   
 58  26  55  1   
 59  27  56  1   
 60  28  57  1   
 61  28  58  1   
 62  28  59  1   
@<TRIPOS>SUBSTRUCTURE
  1 ****   3 GROUP 4 **** **** 0

# MOE 2024.06 (io_trps.svl 2023.06)
