@<TRIPOS>MOLECULE
NONAME
53 56 1 0 0 
SMALL
USER_CHARGES


@<TRIPOS>ATOM
  1 O        1.3120    -0.3670     0.5120 O.2   1 <1>  -0.5700 
  2 C        2.2030    -1.1820     0.5420 C.2   1 <1>   0.5690 
  3 N        3.4660    -0.8070     0.9220 N.am  1 <1>  -0.6600 
  4 C        1.9200    -2.6110     0.0930 C.3   1 <1>  -0.0990 
  5 C        3.6550     0.4250     1.7560 C.3   1 <1>   0.1400 
  6 C        4.7060    -1.3730     0.3230 C.3   1 <1>   0.1400 
  7 C        0.4520    -3.0370     0.2820 C.3   1 <1>  -0.1600 
  8 C        4.4360     1.5690     1.0640 C.3   1 <1>   0.4230 
  9 C        5.2240    -0.4890    -0.8380 C.3   1 <1>  -0.0800 
 10 C        0.2200    -4.4990    -0.1260 C.3   1 <1>   0.0210 
 11 N        4.0920     1.7860    -0.3960 N.4   1 <1>  -0.9590 
 12 C        5.9670     1.4200     1.2470 C.3   1 <1>   0.1200 
 13 C        6.6410     0.0730    -0.5910 C.3   1 <1>   0.1200 
 14 C        4.2140     0.5870    -1.2980 C.3   1 <1>   0.3430 
 15 C       -1.2260    -4.9310     0.0570 C.2   1 <1>  -0.1810 
 16 C        2.7470     2.4140    -0.5590 C.3   1 <1>   0.2630 
 17 O        6.6230     1.3310     0.0130 O.3   1 <1>  -0.5600 
 18 C       -1.6850    -6.2370    -0.2300 C.ar  1 <1>   0.0000 
 19 C       -2.2900    -4.2140     0.4950 C.2   1 <1>  -0.3020 
 20 C       -3.0460    -6.2510     0.0580 C.ar  1 <1>  -0.1520 
 21 C       -1.0720    -7.4020    -0.7040 C.ar  1 <1>  -0.1500 
 22 N       -3.4030    -5.0040     0.5010 N.pl3 1 <1>   0.0330 
 23 C       -3.8090    -7.4080    -0.1190 C.ar  1 <1>  -0.1500 
 24 C       -1.8220    -8.5420    -0.8790 C.ar  1 <1>  -0.1500 
 25 C       -3.1920    -8.5460    -0.5860 C.ar  1 <1>  -0.1500 
 26 H        2.1830    -2.7010    -0.9450 H     1 <1>   0.0800 
 27 H        2.5410    -3.2780     0.6630 H     1 <1>   0.0800 
 28 H        2.6940     0.8110     2.0510 H     1 <1>   0.0800 
 29 H        4.1530     0.1500     2.6690 H     1 <1>   0.0800 
 30 H        5.4530    -1.4820     1.0910 H     1 <1>   0.0800 
 31 H        4.5090    -2.3620    -0.0550 H     1 <1>   0.0800 
 32 H        0.1750    -2.9120     1.3150 H     1 <1>   0.0800 
 33 H       -0.1850    -2.4030    -0.3100 H     1 <1>   0.0800 
 34 H        4.1730     2.4650     1.6020 H     1 <1>   0.0800 
 35 H        5.3340    -1.1670    -1.6650 H     1 <1>   0.0800 
 36 H        0.8440    -5.1430     0.4680 H     1 <1>   0.0800 
 37 H        0.4860    -4.6320    -1.1600 H     1 <1>   0.0800 
 38 H        4.8360     2.4270    -0.7170 H     1 <1>   0.4500 
 39 H        6.2310     0.5720     1.8560 H     1 <1>   0.0800 
 40 H        6.3450     2.2990     1.7400 H     1 <1>   0.0800 
 41 H        7.1470     0.1980    -1.5340 H     1 <1>   0.0800 
 42 H        7.2360    -0.5930     0.0130 H     1 <1>   0.0800 
 43 H        3.2470     0.1190    -1.3910 H     1 <1>   0.0800 
 44 H        4.4980     0.9260    -2.2810 H     1 <1>   0.0800 
 45 H        1.9770     1.7410    -0.2140 H     1 <1>   0.0800 
 46 H        2.5620     2.6420    -1.5960 H     1 <1>   0.0800 
 47 H        2.6850     3.3280     0.0100 H     1 <1>   0.0800 
 48 H       -2.3290    -3.1850     0.8060 H     1 <1>   0.1500 
 49 H       -0.0210    -7.3890    -0.9250 H     1 <1>   0.1500 
 50 H       -4.3470    -4.7250     0.7850 H     1 <1>   0.2700 
 51 H       -4.8590    -7.4010     0.1080 H     1 <1>   0.1500 
 52 H       -1.3630    -9.4450    -1.2430 H     1 <1>   0.1500 
 53 H       -3.7560    -9.4500    -0.7310 H     1 <1>   0.1500 
@<TRIPOS>BOND
  1   1   2  2   
  2   2   3  am  
  3   2   4  1   
  4   3   5  1   
  5   3   6  1   
  6   4   7  1   
  7   4  26  1   
  8   4  27  1   
  9   5   8  1   
 10   5  28  1   
 11   5  29  1   
 12   6   9  1   
 13   6  30  1   
 14   6  31  1   
 15   7  10  1   
 16   7  32  1   
 17   7  33  1   
 18   8  11  1   
 19   8  12  1   
 20   8  34  1   
 21   9  13  1   
 22   9  14  1   
 23   9  35  1   
 24  10  15  1   
 25  10  36  1   
 26  10  37  1   
 27  11  14  1   
 28  11  16  1   
 29  11  38  1   
 30  12  17  1   
 31  12  39  1   
 32  12  40  1   
 33  13  17  1   
 34  13  41  1   
 35  13  42  1   
 36  14  43  1   
 37  14  44  1   
 38  15  18  1   
 39  15  19  2   
 40  16  45  1   
 41  16  46  1   
 42  16  47  1   
 43  18  20  ar  
 44  18  21  ar  
 45  19  22  1   
 46  19  48  1   
 47  20  22  1   
 48  20  23  ar  
 49  21  24  ar  
 50  21  49  1   
 51  22  50  1   
 52  23  25  ar  
 53  23  51  1   
 54  24  25  ar  
 55  24  52  1   
 56  25  53  1   
@<TRIPOS>SUBSTRUCTURE
  1 ****   4 GROUP 4 **** **** 0

# MOE 2024.06 (io_trps.svl 2023.06)
