@<TRIPOS>MOLECULE
NONAME
36 37 1 0 0 
SMALL
USER_CHARGES


@<TRIPOS>ATOM
  1 CL      -2.3020     1.4150     1.4560 Cl    1 <1>  -0.2900 
  2 C       -1.6980     1.4080    -0.2030 C.3   1 <1>   0.1910 
  3 C       -0.9560     2.6970    -0.5190 C.2   1 <1>   0.5690 
  4 O       -0.1730     2.6940    -1.4360 O.2   1 <1>  -0.5700 
  5 N       -1.2280     3.8140     0.2240 N.am  1 <1>  -0.4930 
  6 C       -0.8520     5.1280    -0.0600 C.2   1 <1>   0.0630 
  7 C        0.5250     5.5850    -0.0390 C.ar  1 <1>   0.0000 
  8 C       -1.7800     6.0660    -0.4160 C.2   1 <1>  -0.0450 
  9 C        1.7130     4.9850     0.3920 C.ar  1 <1>  -0.1430 
 10 C        0.6480     6.8860    -0.5170 C.ar  1 <1>   0.2970 
 11 S       -0.9310     7.5520    -0.9030 S.3   1 <1>  -0.0800 
 12 C       -3.2100     5.9860    -0.4910 C.2   1 <1>   0.8050 
 13 C        2.8700     5.7240     0.2400 C.ar  1 <1>  -0.1500 
 14 C        1.8010     3.6030     1.0210 C.3   1 <1>  -0.0960 
 15 N        1.7330     7.6240    -0.6690 N.ar  1 <1>  -0.5670 
 16 O       -3.8020     4.9310    -0.3580 O.2   1 <1>  -0.5700 
 17 O       -3.9840     7.0580    -0.6900 O.3   1 <1>  -0.4300 
 18 C        2.8360     7.0100    -0.2910 C.ar  1 <1>   0.1670 
 19 C       -3.8630     8.2350     0.0760 C.3   1 <1>   0.1200 
 20 C        4.1190     7.7970    -0.4560 C.3   1 <1>  -0.0970 
 21 C       -5.2680     8.7530     0.3590 C.3   1 <1>  -0.2400 
 22 H       -2.5420     1.2970    -0.8580 H     1 <1>   0.0800 
 23 H       -1.0400     0.5660    -0.3080 H     1 <1>   0.0800 
 24 H       -2.0520     3.7070     0.8250 H     1 <1>   0.3700 
 25 H        3.8140     5.3060     0.5370 H     1 <1>   0.1500 
 26 H        0.9800     3.4380     1.6930 H     1 <1>   0.0800 
 27 H        2.7110     3.5000     1.5840 H     1 <1>   0.0800 
 28 H        1.7950     2.8500     0.2540 H     1 <1>   0.0800 
 29 H       -3.3050     8.9580    -0.4950 H     1 <1>   0.0800 
 30 H       -3.3480     8.0130     0.9960 H     1 <1>   0.0800 
 31 H        4.9700     7.2290    -0.1290 H     1 <1>   0.0800 
 32 H        4.0610     8.7020     0.1210 H     1 <1>   0.0800 
 33 H        4.2500     8.0550    -1.4910 H     1 <1>   0.0800 
 34 H       -5.7770     8.9670    -0.5640 H     1 <1>   0.0800 
 35 H       -5.2140     9.6570     0.9380 H     1 <1>   0.0800 
 36 H       -5.8280     8.0220     0.9160 H     1 <1>   0.0800 
@<TRIPOS>BOND
  1   1   2  1   
  2   2   3  1   
  3   2  22  1   
  4   2  23  1   
  5   3   4  2   
  6   3   5  am  
  7   5   6  1   
  8   5  24  1   
  9   6   7  1   
 10   6   8  2   
 11   7   9  ar  
 12   7  10  ar  
 13   8  11  1   
 14   8  12  1   
 15   9  13  ar  
 16   9  14  1   
 17  10  11  1   
 18  10  15  ar  
 19  12  16  2   
 20  12  17  1   
 21  13  18  ar  
 22  13  25  1   
 23  14  26  1   
 24  14  27  1   
 25  14  28  1   
 26  15  18  ar  
 27  17  19  1   
 28  18  20  1   
 29  19  21  1   
 30  19  29  1   
 31  19  30  1   
 32  20  31  1   
 33  20  32  1   
 34  20  33  1   
 35  21  34  1   
 36  21  35  1   
 37  21  36  1   
@<TRIPOS>SUBSTRUCTURE
  1 ****   6 GROUP 4 **** **** 0

# MOE 2024.06 (io_trps.svl 2023.06)
