@<TRIPOS>MOLECULE
NONAME
53 55 1 0 0 
SMALL
USER_CHARGES


@<TRIPOS>ATOM
  1 O       -1.3660    -0.0150     1.3810 O.2   1 <1>  -0.5700 
  2 C       -2.2140     0.8410     1.1820 C.2   1 <1>   0.7160 
  3 N       -3.5370     0.4630     1.2600 N.am  1 <1>  -0.6600 
  4 C       -1.8340     2.1960     0.8280 C.2   1 <1>  -0.0860 
  5 C       -3.9170    -0.8810     1.7790 C.3   1 <1>   0.1400 
  6 C       -4.5790     1.0710     0.3870 C.3   1 <1>   0.1400 
  7 C       -2.2740     3.3840     1.3640 C.2   1 <1>  -0.3320 
  8 C       -0.9200     2.5640    -0.1760 C.2   1 <1>  -0.1810 
  9 C       -4.0810    -1.8360     0.5740 C.3   1 <1>   0.4230 
 10 C       -4.8230     0.1330    -0.8050 C.3   1 <1>  -0.1600 
 11 N       -1.6790     4.4130     0.7370 N.pl3 1 <1>   0.0330 
 12 C       -3.2640     3.5970     2.4980 C.3   1 <1>  -0.0600 
 13 C       -0.8320     3.9350    -0.2270 C.2   1 <1>  -0.2370 
 14 C       -0.1780     1.5450    -1.0290 C.3   1 <1>  -0.0590 
 15 N       -4.3350    -3.2690     0.9450 N.4   1 <1>  -0.9590 
 16 C       -5.1970    -1.3120    -0.3580 C.3   1 <1>  -0.1060 
 17 C       -0.0520     4.8080    -1.0650 C.2   1 <1>   0.5940 
 18 C       -4.3580    -4.1530    -0.2470 C.3   1 <1>   0.3430 
 19 C       -3.4710    -3.8020     2.0310 C.3   1 <1>   0.2630 
 20 C       -6.5270    -1.3170     0.4210 C.2   1 <1>   0.9060 
 21 C       -5.2900    -2.2130    -1.6130 C.3   1 <1>  -0.1600 
 22 O        0.6320     4.4390    -1.9840 O.2   1 <1>  -0.5700 
 23 C       -0.0800     6.3000    -0.8020 C.3   1 <1>  -0.1790 
 24 C       -5.4360    -3.6950    -1.2340 C.3   1 <1>  -0.1600 
 25 O       -6.7220    -2.2030     1.2700 O.co2 1 <1>  -0.9000 
 26 O       -7.3600    -0.4390     0.2060 O.co2 1 <1>  -0.9000 
 27 H       -3.1490    -1.2320     2.4430 H     1 <1>   0.0800 
 28 H       -4.8340    -0.8000     2.3370 H     1 <1>   0.0800 
 29 H       -5.4890     1.2040     0.9510 H     1 <1>   0.0800 
 30 H       -4.2690     2.0370     0.0280 H     1 <1>   0.0800 
 31 H       -3.1510    -1.7990     0.0310 H     1 <1>   0.0800 
 32 H       -5.6200     0.5420    -1.4040 H     1 <1>   0.0800 
 33 H       -3.9380     0.1220    -1.4160 H     1 <1>   0.0800 
 34 H       -1.8320     5.4050     0.9510 H     1 <1>   0.2700 
 35 H       -3.5490     2.6580     2.9390 H     1 <1>   0.0800 
 36 H       -4.1510     4.0820     2.1300 H     1 <1>   0.0800 
 37 H       -2.8240     4.2070     3.2660 H     1 <1>   0.0800 
 38 H       -0.8740     0.8410    -1.4470 H     1 <1>   0.0800 
 39 H        0.5280     1.0110    -0.4190 H     1 <1>   0.0800 
 40 H        0.3540     2.0090    -1.8360 H     1 <1>   0.0800 
 41 H       -5.3330    -3.2070     1.2860 H     1 <1>   0.4500 
 42 H       -3.3960    -4.1310    -0.7300 H     1 <1>   0.0800 
 43 H       -4.5670    -5.1660     0.0550 H     1 <1>   0.0800 
 44 H       -2.4340    -3.7520     1.7420 H     1 <1>   0.0800 
 45 H       -3.7300    -4.8260     2.2410 H     1 <1>   0.0800 
 46 H       -3.6100    -3.2280     2.9320 H     1 <1>   0.0800 
 47 H       -6.1370    -1.9090    -2.2060 H     1 <1>   0.0800 
 48 H       -4.4060    -2.0910    -2.2150 H     1 <1>   0.0800 
 49 H        0.2120     6.4980     0.2120 H     1 <1>   0.0800 
 50 H       -1.0650     6.6840    -0.9840 H     1 <1>   0.0800 
 51 H        0.6100     6.7960    -1.4600 H     1 <1>   0.0800 
 52 H       -5.3810    -4.2980    -2.1220 H     1 <1>   0.0800 
 53 H       -6.4050    -3.8640    -0.7960 H     1 <1>   0.0800 
@<TRIPOS>BOND
  1   1   2  2   
  2   2   3  am  
  3   2   4  1   
  4   3   5  1   
  5   3   6  1   
  6   4   7  2   
  7   4   8  1   
  8   5   9  1   
  9   5  27  1   
 10   5  28  1   
 11   6  10  1   
 12   6  29  1   
 13   6  30  1   
 14   7  11  1   
 15   7  12  1   
 16   8  13  2   
 17   8  14  1   
 18   9  15  1   
 19   9  16  1   
 20   9  31  1   
 21  10  16  1   
 22  10  32  1   
 23  10  33  1   
 24  11  13  1   
 25  11  34  1   
 26  12  35  1   
 27  12  36  1   
 28  12  37  1   
 29  13  17  1   
 30  14  38  1   
 31  14  39  1   
 32  14  40  1   
 33  15  18  1   
 34  15  19  1   
 35  15  41  1   
 36  16  20  1   
 37  16  21  1   
 38  17  22  2   
 39  17  23  1   
 40  18  24  1   
 41  18  42  1   
 42  18  43  1   
 43  19  44  1   
 44  19  45  1   
 45  19  46  1   
 46  20  25  ar  
 47  20  26  ar  
 48  21  24  1   
 49  21  47  1   
 50  21  48  1   
 51  23  49  1   
 52  23  50  1   
 53  23  51  1   
 54  24  52  1   
 55  24  53  1   
@<TRIPOS>SUBSTRUCTURE
  1 ****   3 GROUP 4 **** **** 0

# MOE 2024.06 (io_trps.svl 2023.06)
