@<TRIPOS>MOLECULE
NONAME
53 56 1 0 0 
SMALL
USER_CHARGES


@<TRIPOS>ATOM
  1 F       -3.9660     3.8690     2.7570 F     1 <1>  -0.1900 
  2 C       -3.0730     4.1990     1.8560 C.ar  1 <1>   0.1900 
  3 C       -3.0940     3.5330     0.6280 C.ar  1 <1>   0.1000 
  4 C       -2.1660     5.1870     2.1590 C.ar  1 <1>  -0.1500 
  5 N       -4.0220     2.5290     0.3480 N.pl3 1 <1>  -0.6000 
  6 C       -2.1480     3.8990    -0.3420 C.ar  1 <1>   0.0860 
  7 C       -1.2270     5.5410     1.1980 C.ar  1 <1>  -0.1500 
  8 C       -4.0690     1.8910    -0.8760 C.2   1 <1>  -0.0380 
  9 C       -2.1770     3.2250    -1.6140 C.2   1 <1>   0.4690 
 10 C       -1.2230     4.9060    -0.0280 C.ar  1 <1>  -0.1500 
 11 C       -3.1640     2.2270    -1.8300 C.2   1 <1>  -0.1360 
 12 C       -5.1620     0.8550    -1.1200 C.3   1 <1>   0.4810 
 13 O       -1.3960     3.4990    -2.5120 O.2   1 <1>  -0.5700 
 14 N       -6.4680     1.5290    -0.9200 N.4   1 <1>  -0.9590 
 15 C       -7.6280     0.6300    -0.6900 C.3   1 <1>   0.3430 
 16 C       -6.7770     2.5900    -1.9070 C.3   1 <1>   0.3430 
 17 C       -8.8890     1.4610    -0.4110 C.3   1 <1>  -0.1600 
 18 C       -7.8030     3.5470    -1.2920 C.3   1 <1>  -0.1600 
 19 C       -8.6020     2.9470    -0.1080 C.3   1 <1>   0.2800 
 20 O       -7.7190     2.9590     1.0040 O.3   1 <1>  -0.5600 
 21 C       -9.9270     3.7110     0.1900 C.3   1 <1>   0.2000 
 22 C       -8.0580     3.7090     2.1430 C.3   1 <1>   0.1200 
 23 O      -10.7370     3.7760    -0.9470 O.3   1 <1>  -0.6800 
 24 C       -9.7090     5.1120     0.8350 C.3   1 <1>   0.2800 
 25 C       -8.4530     5.1250     1.7220 C.3   1 <1>  -0.1600 
 26 O      -10.7970     5.3330     1.6550 O.3   1 <1>  -0.6800 
 27 C       -9.6920     6.2980    -0.1410 C.3   1 <1>  -0.2400 
 28 H       -2.1830     5.6730     3.1180 H     1 <1>   0.1500 
 29 H       -4.6280     2.2700     1.1410 H     1 <1>   0.4000 
 30 H       -0.5050     6.3120     1.4130 H     1 <1>   0.1500 
 31 H       -0.4940     5.1850    -0.7720 H     1 <1>   0.1500 
 32 H       -3.1440     1.7670    -2.8010 H     1 <1>   0.1500 
 33 H       -5.0470     0.0470    -0.4160 H     1 <1>   0.0800 
 34 H       -5.0920     0.4580    -2.1200 H     1 <1>   0.0800 
 35 H       -6.3930     2.0630    -0.0340 H     1 <1>   0.4500 
 36 H       -7.7910    -0.0040    -1.5470 H     1 <1>   0.0800 
 37 H       -7.4280     0.0030     0.1640 H     1 <1>   0.0800 
 38 H       -5.8870     3.1420    -2.1660 H     1 <1>   0.0800 
 39 H       -7.1790     2.1460    -2.8040 H     1 <1>   0.0800 
 40 H       -9.4330     1.0190     0.4040 H     1 <1>   0.0800 
 41 H       -9.5290     1.4000    -1.2740 H     1 <1>   0.0800 
 42 H       -8.4730     3.8380    -2.0810 H     1 <1>   0.0800 
 43 H       -7.3000     4.4400    -0.9710 H     1 <1>   0.0800 
 44 H      -10.4710     3.1110     0.9000 H     1 <1>   0.0800 
 45 H       -8.8650     3.2150     2.6600 H     1 <1>   0.0800 
 46 H       -7.1970     3.7340     2.7890 H     1 <1>   0.0800 
 47 H      -11.5670     4.2390    -0.7080 H     1 <1>   0.4000 
 48 H       -7.6210     5.5480     1.1880 H     1 <1>   0.0800 
 49 H       -8.6100     5.7350     2.5950 H     1 <1>   0.0800 
 50 H      -10.7700     6.2450     2.0040 H     1 <1>   0.4000 
 51 H       -8.9140     6.1740    -0.8710 H     1 <1>   0.0800 
 52 H       -9.5090     7.2190     0.3830 H     1 <1>   0.0800 
 53 H      -10.6270     6.3790    -0.6660 H     1 <1>   0.0800 
@<TRIPOS>BOND
  1   1   2  1   
  2   2   3  ar  
  3   2   4  ar  
  4   3   5  1   
  5   3   6  ar  
  6   4   7  ar  
  7   4  28  1   
  8   5   8  1   
  9   5  29  1   
 10   6   9  1   
 11   6  10  ar  
 12   7  10  ar  
 13   7  30  1   
 14   8  11  2   
 15   8  12  1   
 16   9  11  1   
 17   9  13  2   
 18  10  31  1   
 19  11  32  1   
 20  12  14  1   
 21  12  33  1   
 22  12  34  1   
 23  14  15  1   
 24  14  16  1   
 25  14  35  1   
 26  15  17  1   
 27  15  36  1   
 28  15  37  1   
 29  16  18  1   
 30  16  38  1   
 31  16  39  1   
 32  17  19  1   
 33  17  40  1   
 34  17  41  1   
 35  18  19  1   
 36  18  42  1   
 37  18  43  1   
 38  19  20  1   
 39  19  21  1   
 40  20  22  1   
 41  21  23  1   
 42  21  24  1   
 43  21  44  1   
 44  22  25  1   
 45  22  45  1   
 46  22  46  1   
 47  23  47  1   
 48  24  25  1   
 49  24  26  1   
 50  24  27  1   
 51  25  48  1   
 52  25  49  1   
 53  26  50  1   
 54  27  51  1   
 55  27  52  1   
 56  27  53  1   
@<TRIPOS>SUBSTRUCTURE
  1 ****   5 GROUP 4 **** **** 0

# MOE 2024.06 (io_trps.svl 2023.06)
