@<TRIPOS>MOLECULE
NONAME
49 51 1 0 0 
SMALL
USER_CHARGES


@<TRIPOS>ATOM
  1 S       -0.0730     0.5260     1.4360 S.o2  1 <1>   1.5760 
  2 O        0.7710     0.1600     2.5530 O.2   1 <1>  -0.6500 
  3 O       -1.3200     1.2320     1.6390 O.2   1 <1>  -0.6500 
  4 N        0.8650     1.3650     0.3020 N.am  1 <1>  -0.8490 
  5 N       -0.4340    -0.8730     0.5630 N.am  1 <1>  -0.8490 
  6 C        2.3260     1.3120     0.5200 C.3   1 <1>   0.1960 
  7 C        0.3550     2.6800    -0.1120 C.3   1 <1>   0.1960 
  8 C        0.7250    -1.7180     0.2630 C.3   1 <1>   0.1960 
  9 C       -1.2210    -0.6180    -0.6490 C.3   1 <1>   0.1960 
 10 C        2.8720     2.3250     1.5410 C.3   1 <1>   0.2090 
 11 C        0.3990     3.7420     1.0000 C.3   1 <1>  -0.1600 
 12 C        0.2880    -3.0070    -0.4550 C.3   1 <1>   0.1200 
 13 C       -1.5920    -1.9380    -1.3500 C.3   1 <1>   0.1200 
 14 N        2.9180     3.6930     0.9420 N.pl3 1 <1>  -0.8380 
 15 C        1.7030     4.5430     1.0580 C.3   1 <1>   0.2090 
 16 O       -0.4460    -2.7010    -1.6080 O.3   1 <1>  -0.5600 
 17 C        4.0470     4.1460     0.2910 C.ar  1 <1>   0.7200 
 18 N        4.9290     3.2260    -0.1020 N.ar  1 <1>  -0.6200 
 19 N        4.1550     5.4610     0.1060 N.ar  1 <1>  -0.6200 
 20 C        5.9960     3.6660    -0.7180 C.ar  1 <1>   0.1670 
 21 C        5.2300     5.8780    -0.5120 C.ar  1 <1>   0.1670 
 22 C        6.1960     5.0050    -0.9510 C.ar  1 <1>  -0.1500 
 23 C        7.0050     2.6310    -1.1670 C.3   1 <1>  -0.0970 
 24 C        5.3630     7.3710    -0.7230 C.3   1 <1>  -0.0970 
 25 H        2.8270     1.4780    -0.4180 H     1 <1>   0.0800 
 26 H        2.6010     0.3260     0.8490 H     1 <1>   0.0800 
 27 H       -0.6660     2.5590    -0.4330 H     1 <1>   0.0800 
 28 H        0.9160     3.0270    -0.9640 H     1 <1>   0.0800 
 29 H        1.2310    -1.9770     1.1780 H     1 <1>   0.0800 
 30 H        1.4160    -1.1910    -0.3720 H     1 <1>   0.0800 
 31 H       -0.6610    -0.0050    -1.3340 H     1 <1>   0.0800 
 32 H       -2.1240    -0.0930    -0.3890 H     1 <1>   0.0800 
 33 H        3.8670     2.0290     1.8230 H     1 <1>   0.0800 
 34 H        2.2790     2.3210     2.4380 H     1 <1>   0.0800 
 35 H        0.1930     3.3150     1.9640 H     1 <1>   0.0800 
 36 H       -0.3900     4.4470     0.8120 H     1 <1>   0.0800 
 37 H       -0.3230    -3.6110     0.1940 H     1 <1>   0.0800 
 38 H        1.1480    -3.5790    -0.7540 H     1 <1>   0.0800 
 39 H       -2.0740    -1.7380    -2.2900 H     1 <1>   0.0800 
 40 H       -2.2580    -2.5150    -0.7330 H     1 <1>   0.0800 
 41 H        1.7510     5.0980     1.9790 H     1 <1>   0.0800 
 42 H        1.6910     5.2540     0.2490 H     1 <1>   0.0800 
 43 H        7.0740     5.3570    -1.4570 H     1 <1>   0.1500 
 44 H        6.5360     1.9430    -1.8460 H     1 <1>   0.0800 
 45 H        7.3620     2.0850    -0.3120 H     1 <1>   0.0800 
 46 H        7.8410     3.0930    -1.6590 H     1 <1>   0.0800 
 47 H        4.5350     7.7260    -1.3080 H     1 <1>   0.0800 
 48 H        6.2780     7.6100    -1.2320 H     1 <1>   0.0800 
 49 H        5.3530     7.8690     0.2290 H     1 <1>   0.0800 
@<TRIPOS>BOND
  1   1   2  2   
  2   1   3  2   
  3   1   4  am  
  4   1   5  am  
  5   4   6  1   
  6   4   7  1   
  7   5   8  1   
  8   5   9  1   
  9   6  10  1   
 10   6  25  1   
 11   6  26  1   
 12   7  11  1   
 13   7  27  1   
 14   7  28  1   
 15   8  12  1   
 16   8  29  1   
 17   8  30  1   
 18   9  13  1   
 19   9  31  1   
 20   9  32  1   
 21  10  14  1   
 22  10  33  1   
 23  10  34  1   
 24  11  15  1   
 25  11  35  1   
 26  11  36  1   
 27  12  16  1   
 28  12  37  1   
 29  12  38  1   
 30  13  16  1   
 31  13  39  1   
 32  13  40  1   
 33  14  15  1   
 34  14  17  1   
 35  15  41  1   
 36  15  42  1   
 37  17  18  ar  
 38  17  19  ar  
 39  18  20  ar  
 40  19  21  ar  
 41  20  22  ar  
 42  20  23  1   
 43  21  22  ar  
 44  21  24  1   
 45  22  43  1   
 46  23  44  1   
 47  23  45  1   
 48  23  46  1   
 49  24  47  1   
 50  24  48  1   
 51  24  49  1   
@<TRIPOS>SUBSTRUCTURE
  1 ****   6 GROUP 4 **** **** 0

# MOE 2024.06 (io_trps.svl 2023.06)
