@<TRIPOS>MOLECULE
NONAME
44 46 1 0 0 
SMALL
USER_CHARGES


@<TRIPOS>ATOM
  1 S       -1.0580     0.7890    -2.3530 S.3   1 <1>  -0.0800 
  2 C       -1.7830     0.4280    -0.7940 C.2   1 <1>   0.3020 
  3 C       -0.7080     2.3970    -1.8140 C.2   1 <1>  -0.1100 
  4 N       -1.7370     1.4290     0.0130 N.2   1 <1>  -0.5650 
  5 N       -2.3160    -0.8850    -0.6080 N.pl3 1 <1>   0.6460 
  6 C       -1.1340     2.5670    -0.5430 C.2   1 <1>   0.1410 
  7 N       -2.7730    -1.6260    -1.6630 N.2   1 <1>  -0.7070 
  8 C       -2.4660    -1.6200     0.5250 C.2   1 <1>  -0.3320 
  9 C       -0.9920     3.8030     0.2200 C.2   1 <1>   0.7160 
 10 C       -3.1880    -2.7470    -1.1800 C.2   1 <1>   0.1080 
 11 C       -3.0220    -2.8070     0.1940 C.2   1 <1>  -0.1500 
 12 C       -2.0320    -1.1080     1.8740 C.3   1 <1>   1.2000 
 13 O       -1.8150     4.1470     1.0460 O.2   1 <1>  -0.5700 
 14 N        0.1080     4.5940    -0.0240 N.am  1 <1>  -0.4940 
 15 C       -3.7760    -3.8400    -2.0420 C.3   1 <1>  -0.0590 
 16 F       -2.7810    -0.1090     2.3130 F     1 <1>  -0.3400 
 17 F       -2.1140    -2.0580     2.7960 F     1 <1>  -0.3400 
 18 F       -0.7710    -0.7000     1.8830 F     1 <1>  -0.3400 
 19 C        0.5000     5.8700     0.4530 C.2   1 <1>  -0.0880 
 20 N       -0.2890     6.9240     0.8130 N.pl3 1 <1>   0.3140 
 21 C        1.7800     6.2900     0.6000 C.2   1 <1>  -0.1810 
 22 N        0.4550     7.9950     1.1670 N.2   1 <1>  -0.7070 
 23 C       -1.7530     7.0400     0.7860 C.3   1 <1>   0.0160 
 24 C        1.6820     7.6060     1.0410 C.2   1 <1>   0.1080 
 25 C        3.0580     5.5080     0.3480 C.3   1 <1>   0.0210 
 26 C        2.8410     8.5250     1.3560 C.3   1 <1>  -0.0590 
 27 C        3.5080     5.6650    -1.1050 C.3   1 <1>  -0.2400 
 28 H       -0.2250     3.0590    -2.5100 H     1 <1>   0.1500 
 29 H       -3.2860    -3.6380     0.8270 H     1 <1>   0.1500 
 30 H        0.8400     4.1190    -0.5460 H     1 <1>   0.3700 
 31 H       -4.6410    -3.4650    -2.5580 H     1 <1>   0.0800 
 32 H       -4.0630    -4.6830    -1.4420 H     1 <1>   0.0800 
 33 H       -3.0490    -4.1550    -2.7680 H     1 <1>   0.0800 
 34 H       -2.1380     6.5230    -0.0720 H     1 <1>   0.0800 
 35 H       -2.0240     8.0780     0.7340 H     1 <1>   0.0800 
 36 H       -2.1530     6.6090     1.6840 H     1 <1>   0.0800 
 37 H        2.8920     4.4680     0.5670 H     1 <1>   0.0800 
 38 H        3.8320     5.8570     1.0100 H     1 <1>   0.0800 
 39 H        3.5840     8.4630     0.5840 H     1 <1>   0.0800 
 40 H        3.2750     8.2470     2.2980 H     1 <1>   0.0800 
 41 H        2.4920     9.5400     1.4210 H     1 <1>   0.0800 
 42 H        2.7440     5.3110    -1.7740 H     1 <1>   0.0800 
 43 H        4.4100     5.1060    -1.2780 H     1 <1>   0.0800 
 44 H        3.6970     6.7010    -1.3230 H     1 <1>   0.0800 
@<TRIPOS>BOND
  1   1   2  1   
  2   1   3  1   
  3   2   4  2   
  4   2   5  1   
  5   3   6  2   
  6   3  28  1   
  7   4   6  1   
  8   5   7  1   
  9   5   8  1   
 10   6   9  1   
 11   7  10  2   
 12   8  11  2   
 13   8  12  1   
 14   9  13  2   
 15   9  14  am  
 16  10  11  1   
 17  10  15  1   
 18  11  29  1   
 19  12  16  1   
 20  12  17  1   
 21  12  18  1   
 22  14  19  1   
 23  14  30  1   
 24  15  31  1   
 25  15  32  1   
 26  15  33  1   
 27  19  20  1   
 28  19  21  2   
 29  20  22  1   
 30  20  23  1   
 31  21  24  1   
 32  21  25  1   
 33  22  24  2   
 34  23  34  1   
 35  23  35  1   
 36  23  36  1   
 37  24  26  1   
 38  25  27  1   
 39  25  37  1   
 40  25  38  1   
 41  26  39  1   
 42  26  40  1   
 43  26  41  1   
 44  27  42  1   
 45  27  43  1   
 46  27  44  1   
@<TRIPOS>SUBSTRUCTURE
  1 ****   6 GROUP 4 **** **** 0

# MOE 2024.06 (io_trps.svl 2023.06)
