@<TRIPOS>MOLECULE
NONAME
51 53 1 0 0 
SMALL
USER_CHARGES


@<TRIPOS>ATOM
  1 F        3.3590     1.3900    -1.9280 F     1 <1>  -0.1900 
  2 C        3.3210     0.2700    -1.2590 C.ar  1 <1>   0.1900 
  3 C        3.3450     0.3030     0.1330 C.ar  1 <1>   0.0860 
  4 C        3.2660    -0.9020    -1.9880 C.ar  1 <1>  -0.1500 
  5 C        3.2940    -0.9300     0.7970 C.ar  1 <1>  -0.1440 
  6 C        3.4280     1.5620     0.8400 C.2   1 <1>   0.5440 
  7 C        3.2290    -2.1060    -1.3100 C.ar  1 <1>  -0.1500 
  8 C        3.2420    -2.1140     0.0760 C.ar  1 <1>  -0.1500 
  9 C        3.2880    -0.9790     2.3200 C.3   1 <1>  -0.0960 
 10 O        2.4020     2.0950     1.2200 O.2   1 <1>  -0.5700 
 11 N        4.6430     2.1540     1.1230 N.am  1 <1>  -0.6600 
 12 C        5.9490     1.4720     0.8720 C.3   1 <1>   0.1400 
 13 C        4.6940     3.5090     1.7420 C.3   1 <1>   0.1400 
 14 C        6.5500     1.8760    -0.4830 C.3   1 <1>   0.1100 
 15 C        5.8980     4.3520     1.3020 C.3   1 <1>  -0.1600 
 16 N        7.1620     3.2190    -0.4880 N.3   1 <1>  -0.8100 
 17 C        6.1920     4.2910    -0.1990 C.3   1 <1>   0.1100 
 18 C        7.8250     3.4600    -1.8060 C.3   1 <1>   0.1710 
 19 C        8.6700     4.7410    -1.9260 C.2   1 <1>   0.5690 
 20 O        8.3950     5.5170    -2.8140 O.2   1 <1>  -0.5700 
 21 N        9.7120     4.9850    -1.0710 N.am  1 <1>  -0.6600 
 22 C       10.5470     6.2010    -1.1450 C.3   1 <1>   0.1400 
 23 C       10.0620     4.1640     0.1070 C.3   1 <1>   0.1400 
 24 C       11.2940     6.2390     0.1840 C.3   1 <1>  -0.1600 
 25 C       11.3500     4.7830     0.6390 C.3   1 <1>  -0.1600 
 26 H        3.2510    -0.8700    -3.0630 H     1 <1>   0.1500 
 27 H        3.1860    -3.0340    -1.8550 H     1 <1>   0.1500 
 28 H        3.2040    -3.0590     0.5910 H     1 <1>   0.1500 
 29 H        2.4430    -0.4320     2.7000 H     1 <1>   0.0800 
 30 H        4.1860    -0.5360     2.7120 H     1 <1>   0.0800 
 31 H        3.2230    -1.9910     2.6780 H     1 <1>   0.0800 
 32 H        5.8030     0.4080     0.8770 H     1 <1>   0.0800 
 33 H        6.6450     1.7000     1.6600 H     1 <1>   0.0800 
 34 H        4.6990     3.4030     2.8130 H     1 <1>   0.0800 
 35 H        3.7990     4.0450     1.4750 H     1 <1>   0.0800 
 36 H        5.7950     1.8130    -1.2460 H     1 <1>   0.0800 
 37 H        7.3160     1.1590    -0.7210 H     1 <1>   0.0800 
 38 H        6.7750     4.0770     1.8600 H     1 <1>   0.0800 
 39 H        5.6780     5.3720     1.5590 H     1 <1>   0.0800 
 40 H        6.6140     5.2400    -0.4810 H     1 <1>   0.0800 
 41 H        5.2860     4.1520    -0.7660 H     1 <1>   0.0800 
 42 H        7.0740     3.4870    -2.5770 H     1 <1>   0.0800 
 43 H        8.4810     2.6370    -2.0230 H     1 <1>   0.0800 
 44 H        9.9370     7.0770    -1.2880 H     1 <1>   0.0800 
 45 H       11.2350     6.1020    -1.9670 H     1 <1>   0.0800 
 46 H       10.1970     3.1310    -0.1640 H     1 <1>   0.0800 
 47 H        9.2760     4.2470     0.8390 H     1 <1>   0.0800 
 48 H       10.7220     6.8200     0.8870 H     1 <1>   0.0800 
 49 H       12.2710     6.6770     0.0800 H     1 <1>   0.0800 
 50 H       12.1890     4.2890     0.1800 H     1 <1>   0.0800 
 51 H       11.4280     4.6880     1.7070 H     1 <1>   0.0800 
@<TRIPOS>BOND
  1   1   2  1   
  2   2   3  ar  
  3   2   4  ar  
  4   3   5  ar  
  5   3   6  1   
  6   4   7  ar  
  7   4  26  1   
  8   5   8  ar  
  9   5   9  1   
 10   6  10  2   
 11   6  11  am  
 12   7   8  ar  
 13   7  27  1   
 14   8  28  1   
 15   9  29  1   
 16   9  30  1   
 17   9  31  1   
 18  11  12  1   
 19  11  13  1   
 20  12  14  1   
 21  12  32  1   
 22  12  33  1   
 23  13  15  1   
 24  13  34  1   
 25  13  35  1   
 26  14  16  1   
 27  14  36  1   
 28  14  37  1   
 29  15  17  1   
 30  15  38  1   
 31  15  39  1   
 32  16  17  1   
 33  16  18  1   
 34  17  40  1   
 35  17  41  1   
 36  18  19  1   
 37  18  42  1   
 38  18  43  1   
 39  19  20  2   
 40  19  21  am  
 41  21  22  1   
 42  21  23  1   
 43  22  24  1   
 44  22  44  1   
 45  22  45  1   
 46  23  25  1   
 47  23  46  1   
 48  23  47  1   
 49  24  25  1   
 50  24  48  1   
 51  24  49  1   
 52  25  50  1   
 53  25  51  1   
@<TRIPOS>SUBSTRUCTURE
  1 ****  14 GROUP 4 **** **** 0

# MOE 2024.06 (io_trps.svl 2023.06)
