@<TRIPOS>MOLECULE
NONAME
55 57 1 0 0 
SMALL
USER_CHARGES


@<TRIPOS>ATOM
  1 O       -2.1520     0.4410     2.2900 O.2   1 <1>  -0.5700 
  2 C       -2.0790     0.9970     1.2190 C.2   1 <1>   0.5690 
  3 N       -2.1010     0.2960     0.0410 N.am  1 <1>  -0.6600 
  4 C       -1.9660     2.5170     1.2350 C.3   1 <1>   0.0440 
  5 C       -2.1320    -1.2060     0.0530 C.3   1 <1>   0.3640 
  6 C       -2.0770     0.9420    -1.3120 C.3   1 <1>   0.1400 
  7 C       -0.6700     3.0300     0.6130 C.ar  1 <1>  -0.1440 
  8 C       -0.7220    -1.8130    -0.0690 C.ar  1 <1>  -0.1440 
  9 C       -3.0890    -1.7750    -1.0450 C.3   1 <1>   0.2000 
 10 C       -2.2180    -0.0760    -2.4520 C.3   1 <1>   0.1200 
 11 C       -0.6910     4.0590    -0.3150 C.ar  1 <1>  -0.1500 
 12 C        0.5450     2.4630     0.9660 C.ar  1 <1>  -0.1500 
 13 C       -0.5830    -3.1790     0.1510 C.ar  1 <1>  -0.1500 
 14 C        0.4200    -1.0760    -0.3730 C.ar  1 <1>  -0.1500 
 15 O       -3.2710    -0.9410    -2.1700 O.3   1 <1>  -0.5600 
 16 C       -4.4860    -2.0490    -0.4760 C.3   1 <1>   0.1200 
 17 C        0.4850     4.5040    -0.8940 C.ar  1 <1>  -0.1500 
 18 C        1.7210     2.9080     0.3870 C.ar  1 <1>  -0.1500 
 19 C        0.6460    -3.8060     0.0460 C.ar  1 <1>   0.0830 
 20 C        1.6580    -1.6880    -0.4620 C.ar  1 <1>  -0.1500 
 21 O       -4.4510    -3.1460     0.3800 O.3   1 <1>  -0.6800 
 22 C        1.6970     3.9280    -0.5490 C.ar  1 <1>  -0.1430 
 23 O        0.6760    -5.1500     0.2280 O.3   1 <1>  -0.3620 
 24 C        1.7860    -3.0470    -0.2410 C.ar  1 <1>   0.0830 
 25 C        2.9860     4.4170    -1.1830 C.3   1 <1>  -0.0970 
 26 C        1.0890    -5.9300    -0.8730 C.3   1 <1>   0.0400 
 27 O        3.0310    -3.5790    -0.3020 O.3   1 <1>  -0.3630 
 28 C        3.5620    -4.0450     0.9190 C.3   1 <1>   0.0400 
 29 H       -2.8170     2.9260     0.7250 H     1 <1>   0.0800 
 30 H       -2.0100     2.8530     2.2540 H     1 <1>   0.0800 
 31 H       -2.5070    -1.5370     1.0070 H     1 <1>   0.0800 
 32 H       -2.8860     1.6480    -1.3800 H     1 <1>   0.0800 
 33 H       -1.1540     1.4780    -1.4440 H     1 <1>   0.0800 
 34 H       -2.6940    -2.7010    -1.4200 H     1 <1>   0.0800 
 35 H       -1.3170    -0.6500    -2.5820 H     1 <1>   0.0800 
 36 H       -2.4400     0.4290    -3.3760 H     1 <1>   0.0800 
 37 H       -1.6210     4.5220    -0.5950 H     1 <1>   0.1500 
 38 H        0.5830     1.6680     1.6940 H     1 <1>   0.1500 
 39 H       -1.4380    -3.7790     0.4080 H     1 <1>   0.1500 
 40 H        0.3700    -0.0160    -0.5350 H     1 <1>   0.1500 
 41 H       -5.1830    -2.2650    -1.2670 H     1 <1>   0.0800 
 42 H       -4.8300    -1.1980     0.0870 H     1 <1>   0.0800 
 43 H        0.4540     5.3040    -1.6120 H     1 <1>   0.1500 
 44 H        2.6540     2.4550     0.6720 H     1 <1>   0.1500 
 45 H        2.5340    -1.1100    -0.6930 H     1 <1>   0.1500 
 46 H       -4.4320    -3.9830    -0.1260 H     1 <1>   0.4000 
 47 H        2.8060     4.7520    -2.1890 H     1 <1>   0.0800 
 48 H        3.7140     3.6260    -1.2140 H     1 <1>   0.0800 
 49 H        3.3850     5.2340    -0.6100 H     1 <1>   0.0800 
 50 H        0.9090    -6.9630    -0.6390 H     1 <1>   0.0800 
 51 H        2.1380    -5.7740    -1.0490 H     1 <1>   0.0800 
 52 H        0.5190    -5.6410    -1.7380 H     1 <1>   0.0800 
 53 H        4.5730    -4.3660     0.7460 H     1 <1>   0.0800 
 54 H        2.9700    -4.8700     1.2740 H     1 <1>   0.0800 
 55 H        3.5460    -3.2410     1.6330 H     1 <1>   0.0800 
@<TRIPOS>BOND
  1   1   2  2   
  2   2   3  am  
  3   2   4  1   
  4   3   5  1   
  5   3   6  1   
  6   4   7  1   
  7   4  29  1   
  8   4  30  1   
  9   5   8  1   
 10   5   9  1   
 11   5  31  1   
 12   6  10  1   
 13   6  32  1   
 14   6  33  1   
 15   7  11  ar  
 16   7  12  ar  
 17   8  13  ar  
 18   8  14  ar  
 19   9  15  1   
 20   9  16  1   
 21   9  34  1   
 22  10  15  1   
 23  10  35  1   
 24  10  36  1   
 25  11  17  ar  
 26  11  37  1   
 27  12  18  ar  
 28  12  38  1   
 29  13  19  ar  
 30  13  39  1   
 31  14  20  ar  
 32  14  40  1   
 33  16  21  1   
 34  16  41  1   
 35  16  42  1   
 36  17  22  ar  
 37  17  43  1   
 38  18  22  ar  
 39  18  44  1   
 40  19  23  1   
 41  19  24  ar  
 42  20  24  ar  
 43  20  45  1   
 44  21  46  1   
 45  22  25  1   
 46  23  26  1   
 47  24  27  1   
 48  25  47  1   
 49  25  48  1   
 50  25  49  1   
 51  26  50  1   
 52  26  51  1   
 53  26  52  1   
 54  27  28  1   
 55  28  53  1   
 56  28  54  1   
 57  28  55  1   
@<TRIPOS>SUBSTRUCTURE
  1 ****  14 GROUP 4 **** **** 0

# MOE 2024.06 (io_trps.svl 2023.06)
