@<TRIPOS>MOLECULE
NONAME
48 50 1 0 0 
SMALL
USER_CHARGES


@<TRIPOS>ATOM
  1 N        4.5880     1.4920    -0.5000 N.2   1 <1>  -0.5650 
  2 C        3.6150     2.1830    -0.0080 C.2   1 <1>   0.0060 
  3 C        4.7880     2.0300    -1.7160 C.2   1 <1>   0.0770 
  4 N        3.1670     3.1590    -0.8380 N.pl3 1 <1>   0.0480 
  5 C        3.0500     1.9130     1.3730 C.3   1 <1>  -0.0600 
  6 C        3.9330     3.0500    -1.9380 C.2   1 <1>  -0.3020 
  7 C        2.1750     4.2210    -0.5750 C.3   1 <1>   0.0960 
  8 C        2.9260     5.4470    -0.0430 C.3   1 <1>  -0.1600 
  9 C        2.0140     6.6150     0.3340 C.3   1 <1>   0.3430 
 10 N        2.7960     7.8730     0.5430 N.4   1 <1>  -0.8520 
 11 C        1.8860     9.0090     0.7550 C.3   1 <1>   0.2960 
 12 C        3.8130     7.8160     1.6280 C.3   1 <1>   0.4810 
 13 C        1.2840     9.6520    -0.4470 C.3   1 <1>  -0.2000 
 14 C        2.3490    10.3620     0.3370 C.3   1 <1>  -0.2000 
 15 C        5.1340     7.4780     0.9760 C.2   1 <1>  -0.2880 
 16 C        5.8270     6.3420     1.1650 C.2   1 <1>  -0.1780 
 17 C        7.0550     5.9590     0.5120 C.ar  1 <1>   0.0280 
 18 C        8.0310     6.8890     0.1660 C.ar  1 <1>  -0.1500 
 19 C        7.2840     4.6220     0.1980 C.ar  1 <1>  -0.1500 
 20 C        9.1940     6.4990    -0.4730 C.ar  1 <1>  -0.1500 
 21 C        8.4450     4.2270    -0.4410 C.ar  1 <1>  -0.1500 
 22 C        9.4030     5.1660    -0.7790 C.ar  1 <1>  -0.1500 
 23 H        5.5500     1.6490    -2.3760 H     1 <1>   0.1500 
 24 H        3.5660     1.0800     1.8160 H     1 <1>   0.0800 
 25 H        2.0070     1.6670     1.3030 H     1 <1>   0.0800 
 26 H        3.1800     2.7700     2.0060 H     1 <1>   0.0800 
 27 H        3.8400     3.6820    -2.8010 H     1 <1>   0.1500 
 28 H        1.6650     4.4490    -1.4950 H     1 <1>   0.0800 
 29 H        1.4580     3.8610     0.1410 H     1 <1>   0.0800 
 30 H        3.4630     5.1330     0.8310 H     1 <1>   0.0800 
 31 H        3.6250     5.7640    -0.7980 H     1 <1>   0.0800 
 32 H        1.4600     6.3710     1.2260 H     1 <1>   0.0800 
 33 H        1.3060     6.7750    -0.4640 H     1 <1>   0.0800 
 34 H        3.3220     8.0640    -0.3180 H     1 <1>   0.4500 
 35 H        1.2830     8.9280     1.6480 H     1 <1>   0.1000 
 36 H        3.8950     8.7720     2.1200 H     1 <1>   0.0800 
 37 H        3.5450     7.0720     2.3600 H     1 <1>   0.0800 
 38 H        1.5290     9.3030    -1.4350 H     1 <1>   0.1000 
 39 H        0.2820    10.0440    -0.3880 H     1 <1>   0.1000 
 40 H        2.0510    11.2220     0.9130 H     1 <1>   0.1000 
 41 H        3.3140    10.4920    -0.1210 H     1 <1>   0.1000 
 42 H        5.4820     8.2480     0.3090 H     1 <1>   0.1500 
 43 H        5.4740     5.5860     1.8460 H     1 <1>   0.1500 
 44 H        7.8880     7.9270     0.4040 H     1 <1>   0.1500 
 45 H        6.5480     3.8750     0.4450 H     1 <1>   0.1500 
 46 H        9.9400     7.2310    -0.7330 H     1 <1>   0.1500 
 47 H        8.6010     3.1880    -0.6760 H     1 <1>   0.1500 
 48 H       10.3070     4.8600    -1.2760 H     1 <1>   0.1500 
@<TRIPOS>BOND
  1   1   2  2   
  2   1   3  1   
  3   2   4  1   
  4   2   5  1   
  5   3   6  2   
  6   3  23  1   
  7   4   6  1   
  8   4   7  1   
  9   5  24  1   
 10   5  25  1   
 11   5  26  1   
 12   6  27  1   
 13   7   8  1   
 14   7  28  1   
 15   7  29  1   
 16   8   9  1   
 17   8  30  1   
 18   8  31  1   
 19   9  10  1   
 20   9  32  1   
 21   9  33  1   
 22  10  11  1   
 23  10  12  1   
 24  10  34  1   
 25  11  13  1   
 26  11  14  1   
 27  11  35  1   
 28  12  15  1   
 29  12  36  1   
 30  12  37  1   
 31  13  14  1   
 32  13  38  1   
 33  13  39  1   
 34  14  40  1   
 35  14  41  1   
 36  15  16  2   
 37  15  42  1   
 38  16  17  1   
 39  16  43  1   
 40  17  18  ar  
 41  17  19  ar  
 42  18  20  ar  
 43  18  44  1   
 44  19  21  ar  
 45  19  45  1   
 46  20  22  ar  
 47  20  46  1   
 48  21  22  ar  
 49  21  47  1   
 50  22  48  1   
@<TRIPOS>SUBSTRUCTURE
  1 ****   8 GROUP 4 **** **** 0

# MOE 2024.06 (io_trps.svl 2023.06)
