@<TRIPOS>MOLECULE
NONAME
52 54 1 0 0 
SMALL
USER_CHARGES


@<TRIPOS>ATOM
  1 O        0.8190     0.2240    -1.3480 O.2   1 <1>  -0.5700 
  2 C        1.5840    -0.2990    -0.5590 C.2   1 <1>   0.7150 
  3 N        2.3400     0.5340     0.2580 N.am  1 <1>  -0.6600 
  4 C        1.6760    -1.7450    -0.5240 C.2   1 <1>   0.0550 
  5 C        3.1500     0.0300     1.4060 C.3   1 <1>   0.1400 
  6 C        2.2270     2.0200     0.1530 C.3   1 <1>   0.1400 
  7 O        2.8280    -2.3660    -0.2820 O.3   1 <1>  -0.2800 
  8 C        0.7240    -2.6800    -0.7340 C.2   1 <1>   0.0460 
  9 C        4.6100    -0.2200     0.9790 C.3   1 <1>   0.3430 
 10 C        3.5930     2.7100     0.2160 C.3   1 <1>  -0.1600 
 11 C        2.4780    -3.6340    -0.3650 C.2   1 <1>   0.2980 
 12 N        1.2530    -3.8900    -0.6210 N.2   1 <1>  -0.5650 
 13 C       -0.7510    -2.5390    -1.0540 C.3   1 <1>  -0.0590 
 14 N        5.3700     1.0190     0.5940 N.4   1 <1>  -0.9590 
 15 C        4.7170     1.8970    -0.4270 C.3   1 <1>   0.3430 
 16 C        3.5400    -4.6880    -0.1540 C.3   1 <1>  -0.0600 
 17 C        6.7710     0.6970     0.1830 C.3   1 <1>   0.5240 
 18 C        7.6430     1.9250     0.3980 C.2   1 <1>   0.1080 
 19 N        7.3760     2.8310     1.2730 N.2   1 <1>  -0.4100 
 20 C        8.8070     2.2420    -0.3000 C.2   1 <1>  -0.1500 
 21 O        8.3190     3.7210     1.1680 O.3   1 <1>  -0.0190 
 22 C        9.1890     3.4090     0.2440 C.2   1 <1>  -0.0400 
 23 C       10.3670     4.3390    -0.0170 C.3   1 <1>   0.1000 
 24 C        9.8700     5.6740    -0.5830 C.3   1 <1>  -0.2400 
 25 C       11.3810     3.7080    -0.9780 C.3   1 <1>  -0.2400 
 26 H        2.7250    -0.8910     1.7680 H     1 <1>   0.0800 
 27 H        3.1160     0.7300     2.2220 H     1 <1>   0.0800 
 28 H        1.5890     2.3880     0.9400 H     1 <1>   0.0800 
 29 H        1.7610     2.2860    -0.7820 H     1 <1>   0.0800 
 30 H        4.6050    -0.9080     0.1510 H     1 <1>   0.0800 
 31 H        5.1190    -0.7030     1.7970 H     1 <1>   0.0800 
 32 H        3.8400     2.9670     1.2310 H     1 <1>   0.0800 
 33 H        3.5020     3.6390    -0.3180 H     1 <1>   0.0800 
 34 H       -1.0560    -1.5090    -1.0560 H     1 <1>   0.0800 
 35 H       -1.3320    -3.0700    -0.3220 H     1 <1>   0.0800 
 36 H       -0.9500    -2.9610    -2.0220 H     1 <1>   0.0800 
 37 H        5.5030     1.6170     1.4260 H     1 <1>   0.4500 
 38 H        5.4470     2.5910    -0.8140 H     1 <1>   0.0800 
 39 H        4.3340     1.3130    -1.2500 H     1 <1>   0.0800 
 40 H        4.3180    -4.5710    -0.8850 H     1 <1>   0.0800 
 41 H        3.1070    -5.6660    -0.2610 H     1 <1>   0.0800 
 42 H        3.9550    -4.5970     0.8320 H     1 <1>   0.0800 
 43 H        6.8010     0.3930    -0.8500 H     1 <1>   0.0800 
 44 H        7.1590    -0.1030     0.7910 H     1 <1>   0.0800 
 45 H        9.2760     1.6760    -1.0850 H     1 <1>   0.1500 
 46 H       10.8600     4.5250     0.9220 H     1 <1>   0.0800 
 47 H        9.3570     5.5210    -1.5160 H     1 <1>   0.0800 
 48 H       10.6960     6.3420    -0.7470 H     1 <1>   0.0800 
 49 H        9.1910     6.1400     0.1090 H     1 <1>   0.0800 
 50 H       10.9330     3.5240    -1.9380 H     1 <1>   0.0800 
 51 H       11.7440     2.7780    -0.5770 H     1 <1>   0.0800 
 52 H       12.2210     4.3660    -1.1140 H     1 <1>   0.0800 
@<TRIPOS>BOND
  1   1   2  2   
  2   2   3  am  
  3   2   4  1   
  4   3   5  1   
  5   3   6  1   
  6   4   7  1   
  7   4   8  2   
  8   5   9  1   
  9   5  26  1   
 10   5  27  1   
 11   6  10  1   
 12   6  28  1   
 13   6  29  1   
 14   7  11  1   
 15   8  12  1   
 16   8  13  1   
 17   9  14  1   
 18   9  30  1   
 19   9  31  1   
 20  10  15  1   
 21  10  32  1   
 22  10  33  1   
 23  11  12  2   
 24  11  16  1   
 25  13  34  1   
 26  13  35  1   
 27  13  36  1   
 28  14  15  1   
 29  14  17  1   
 30  14  37  1   
 31  15  38  1   
 32  15  39  1   
 33  16  40  1   
 34  16  41  1   
 35  16  42  1   
 36  17  18  1   
 37  17  43  1   
 38  17  44  1   
 39  18  19  2   
 40  18  20  1   
 41  19  21  1   
 42  20  22  2   
 43  20  45  1   
 44  21  22  1   
 45  22  23  1   
 46  23  24  1   
 47  23  25  1   
 48  23  46  1   
 49  24  47  1   
 50  24  48  1   
 51  24  49  1   
 52  25  50  1   
 53  25  51  1   
 54  25  52  1   
@<TRIPOS>SUBSTRUCTURE
  1 ****  14 GROUP 4 **** **** 0

# MOE 2024.06 (io_trps.svl 2023.06)
