@<TRIPOS>MOLECULE
NONAME
37 39 1 0 0 
SMALL
USER_CHARGES


@<TRIPOS>ATOM
  1 S        0.2080    -0.3300     1.9430 S.3   1 <1>  -0.0800 
  2 C        1.1970    -1.0680     0.6980 C.2   1 <1>  -0.0450 
  3 C        0.8630     1.2310     1.5340 C.2   1 <1>   0.2280 
  4 C        1.9130    -0.0710     0.1240 C.2   1 <1>   0.0460 
  5 C        1.1550    -2.4940     0.4900 C.2   1 <1>   0.7150 
  6 N        1.7140     1.2120     0.5900 N.2   1 <1>  -0.5650 
  7 C        2.9270    -0.2180    -0.9940 C.3   1 <1>  -0.0590 
  8 O        2.1920    -3.1010     0.2960 O.2   1 <1>  -0.5700 
  9 N       -0.0250    -3.2070     0.4770 N.am  1 <1>  -0.6600 
 10 C       -1.3720    -2.6210     0.2590 C.3   1 <1>   0.1400 
 11 C       -0.0550    -4.6740     0.2500 C.3   1 <1>   0.1400 
 12 C       -2.2160    -3.7700    -0.2920 C.3   1 <1>   0.2000 
 13 C       -1.5380    -5.0460     0.1990 C.3   1 <1>  -0.0800 
 14 O       -3.5210    -3.7160     0.1720 O.3   1 <1>  -0.6800 
 15 C       -1.8550    -6.2620    -0.6880 C.3   1 <1>  -0.0170 
 16 C       -1.2130    -7.5330    -0.1560 C.ar  1 <1>   0.1670 
 17 N        0.0620    -7.7220    -0.4580 N.ar  1 <1>  -0.6200 
 18 C       -1.9620    -8.4260     0.6090 C.ar  1 <1>   0.1600 
 19 C        0.5320    -8.8490     0.0510 C.ar  1 <1>   0.1600 
 20 N       -1.4940    -9.5520     1.1200 N.ar  1 <1>  -0.6200 
 21 C       -0.2200    -9.7340     0.8140 C.ar  1 <1>   0.1600 
 22 H        0.5080     2.0790     2.0940 H     1 <1>   0.1500 
 23 H        2.9970    -1.2370    -1.3260 H     1 <1>   0.0800 
 24 H        3.8920     0.0980    -0.6450 H     1 <1>   0.0800 
 25 H        2.6390     0.3980    -1.8250 H     1 <1>   0.0800 
 26 H       -1.7660    -2.2830     1.2010 H     1 <1>   0.0800 
 27 H       -1.3260    -1.8060    -0.4420 H     1 <1>   0.0800 
 28 H        0.4300    -4.8960    -0.6870 H     1 <1>   0.0800 
 29 H        0.4580    -5.1950     1.0410 H     1 <1>   0.0800 
 30 H       -2.2350    -3.7240    -1.3690 H     1 <1>   0.0800 
 31 H       -1.8480    -5.2490     1.2090 H     1 <1>   0.0800 
 32 H       -3.5400    -3.7500     1.1480 H     1 <1>   0.4000 
 33 H       -1.5060    -6.0880    -1.6910 H     1 <1>   0.0800 
 34 H       -2.9220    -6.3940    -0.7380 H     1 <1>   0.0800 
 35 H       -2.9940    -8.1990     0.8080 H     1 <1>   0.1500 
 36 H        1.5630    -9.0840    -0.1450 H     1 <1>   0.1500 
 37 H        0.2520   -10.6260     1.1860 H     1 <1>   0.1500 
@<TRIPOS>BOND
  1   1   2  1   
  2   1   3  1   
  3   2   4  2   
  4   2   5  1   
  5   3   6  2   
  6   3  22  1   
  7   4   6  1   
  8   4   7  1   
  9   5   8  2   
 10   5   9  am  
 11   7  23  1   
 12   7  24  1   
 13   7  25  1   
 14   9  10  1   
 15   9  11  1   
 16  10  12  1   
 17  10  26  1   
 18  10  27  1   
 19  11  13  1   
 20  11  28  1   
 21  11  29  1   
 22  12  13  1   
 23  12  14  1   
 24  12  30  1   
 25  13  15  1   
 26  13  31  1   
 27  14  32  1   
 28  15  16  1   
 29  15  33  1   
 30  15  34  1   
 31  16  17  ar  
 32  16  18  ar  
 33  17  19  ar  
 34  18  20  ar  
 35  18  35  1   
 36  19  21  ar  
 37  19  36  1   
 38  20  21  ar  
 39  21  37  1   
@<TRIPOS>SUBSTRUCTURE
  1 ****  11 GROUP 4 **** **** 0

# MOE 2024.06 (io_trps.svl 2023.06)
