@<TRIPOS>MOLECULE
NONAME
51 54 1 0 0 
SMALL
USER_CHARGES


@<TRIPOS>ATOM
  1 S       -2.0260    -0.4690     0.8360 S.3   1 <1>  -0.0800 
  2 C       -1.6000    -1.1610    -0.7240 C.2   1 <1>  -0.1400 
  3 C       -1.5300     1.1300     0.3120 C.2   1 <1>  -0.1100 
  4 C       -1.1220    -0.2070    -1.5450 C.2   1 <1>  -0.1500 
  5 C       -1.8240    -2.6480    -0.9110 C.3   1 <1>   0.3200 
  6 C       -1.0830     1.0970    -0.9560 C.2   1 <1>  -0.1500 
  7 N       -3.2710    -2.8760    -0.9770 N.am  1 <1>  -0.7300 
  8 C       -3.8880    -3.9780    -0.5000 C.2   1 <1>   0.6900 
  9 O       -3.2200    -4.9500    -0.2040 O.2   1 <1>  -0.5700 
 10 N       -5.2490    -3.9730    -0.3330 N.am  1 <1>  -0.6600 
 11 C       -6.1450    -2.8180    -0.6540 C.3   1 <1>   0.1400 
 12 C       -5.9550    -5.1030     0.3310 C.3   1 <1>   0.1400 
 13 C       -6.7940    -2.2620     0.6280 C.3   1 <1>   0.1440 
 14 C       -6.6310    -4.6080     1.6170 C.3   1 <1>  -0.1600 
 15 C       -7.7030    -1.1120     0.2380 C.ar  1 <1>   0.1670 
 16 C       -7.5460    -3.3960     1.3580 C.3   1 <1>  -0.1600 
 17 C       -5.7550    -1.5650     1.5490 C.3   1 <1>  -0.1600 
 18 N       -8.8580    -1.2300    -0.3690 N.ar  1 <1>  -0.6200 
 19 C       -7.1620     0.0920     0.5740 C.ar  1 <1>  -0.1430 
 20 C       -5.8170    -0.0590     1.2390 C.3   1 <1>  -0.0170 
 21 C       -9.4870    -0.0810    -0.6270 C.ar  1 <1>   0.7200 
 22 C       -7.8780     1.2210     0.2680 C.ar  1 <1>   0.1600 
 23 N       -9.0420     1.1460    -0.3330 N.ar  1 <1>  -0.6200 
 24 N      -10.7120    -0.1690    -1.2600 N.pl3 1 <1>  -0.8380 
 25 C      -11.3840     1.0220    -1.8490 C.3   1 <1>   0.1290 
 26 C      -11.4650    -1.4490    -1.3530 C.3   1 <1>   0.1290 
 27 H       -1.6240     1.9360     1.0190 H     1 <1>   0.1500 
 28 H       -0.7900    -0.3620    -2.5580 H     1 <1>   0.1500 
 29 H       -1.3920    -3.1970    -0.0910 H     1 <1>   0.0800 
 30 H       -1.3710    -2.9810    -1.8290 H     1 <1>   0.0800 
 31 H       -0.7190     1.9430    -1.5130 H     1 <1>   0.1500 
 32 H       -3.8210    -2.0340    -1.1040 H     1 <1>   0.3700 
 33 H       -6.9210    -3.1590    -1.3180 H     1 <1>   0.0800 
 34 H       -5.6150    -2.0340    -1.1610 H     1 <1>   0.0800 
 35 H       -5.2690    -5.8990     0.5670 H     1 <1>   0.0800 
 36 H       -6.6950    -5.4950    -0.3450 H     1 <1>   0.0800 
 37 H       -5.8670    -4.3480     2.3290 H     1 <1>   0.0800 
 38 H       -7.2080    -5.4100     2.0420 H     1 <1>   0.0800 
 39 H       -8.3720    -3.7140     0.7440 H     1 <1>   0.0800 
 40 H       -7.9570    -3.0340     2.2840 H     1 <1>   0.0800 
 41 H       -4.7610    -1.9560     1.4290 H     1 <1>   0.0800 
 42 H       -6.0420    -1.7020     2.5760 H     1 <1>   0.0800 
 43 H       -5.0390     0.2210     0.5500 H     1 <1>   0.0800 
 44 H       -5.7430     0.5320     2.1350 H     1 <1>   0.0800 
 45 H       -7.4930     2.1940     0.5150 H     1 <1>   0.1500 
 46 H      -10.6550     1.7400    -2.1840 H     1 <1>   0.0800 
 47 H      -12.0140     1.4830    -1.1080 H     1 <1>   0.0800 
 48 H      -11.9820     0.7300    -2.6940 H     1 <1>   0.0800 
 49 H      -11.2190    -2.0940    -0.5270 H     1 <1>   0.0800 
 50 H      -11.2140    -1.9480    -2.2730 H     1 <1>   0.0800 
 51 H      -12.5240    -1.2590    -1.3280 H     1 <1>   0.0800 
@<TRIPOS>BOND
  1   1   2  1   
  2   1   3  1   
  3   2   4  2   
  4   2   5  1   
  5   3   6  2   
  6   3  27  1   
  7   4   6  1   
  8   4  28  1   
  9   5   7  1   
 10   5  29  1   
 11   5  30  1   
 12   6  31  1   
 13   7   8  am  
 14   7  32  1   
 15   8   9  2   
 16   8  10  am  
 17  10  11  1   
 18  10  12  1   
 19  11  13  1   
 20  11  33  1   
 21  11  34  1   
 22  12  14  1   
 23  12  35  1   
 24  12  36  1   
 25  13  15  1   
 26  13  16  1   
 27  13  17  1   
 28  14  16  1   
 29  14  37  1   
 30  14  38  1   
 31  15  18  ar  
 32  15  19  ar  
 33  16  39  1   
 34  16  40  1   
 35  17  20  1   
 36  17  41  1   
 37  17  42  1   
 38  18  21  ar  
 39  19  20  1   
 40  19  22  ar  
 41  20  43  1   
 42  20  44  1   
 43  21  23  ar  
 44  21  24  1   
 45  22  23  ar  
 46  22  45  1   
 47  24  25  1   
 48  24  26  1   
 49  25  46  1   
 50  25  47  1   
 51  25  48  1   
 52  26  49  1   
 53  26  50  1   
 54  26  51  1   
@<TRIPOS>SUBSTRUCTURE
  1 ****  13 GROUP 4 **** **** 0

# MOE 2024.06 (io_trps.svl 2023.06)
