@<TRIPOS>MOLECULE
NONAME
39 40 1 0 0 
SMALL
USER_CHARGES


@<TRIPOS>ATOM
  1 S       -0.7030    -1.4440     0.9790 S.3   1 <1>  -0.0800 
  2 C       -0.7630     0.1590     0.3490 C.2   1 <1>   0.4340 
  3 C       -1.3600    -1.9530    -0.5460 C.2   1 <1>   0.4420 
  4 S       -0.1930     1.4670     1.4220 S.3   1 <1>  -0.2860 
  5 N       -1.2140     0.2490    -0.8340 N.2   1 <1>  -0.3380 
  6 N       -1.5590    -0.9710    -1.3530 N.2   1 <1>  -0.3380 
  7 N       -1.5760    -3.3060    -0.6990 N.am  1 <1>  -0.4940 
  8 C       -0.4300     2.9860     0.3950 C.3   1 <1>   0.0700 
  9 C       -2.1320    -3.9960    -1.7400 C.2   1 <1>   0.5690 
 10 C        0.0280     4.1890     1.2130 C.3   1 <1>   0.1200 
 11 O       -2.5430    -3.4670    -2.7420 O.2   1 <1>  -0.5700 
 12 C       -2.2380    -5.5240    -1.6170 C.3   1 <1>   0.2610 
 13 O       -0.1490     5.3340     0.4430 O.3   1 <1>  -0.5600 
 14 O       -1.8330    -5.9540    -0.3190 O.3   1 <1>  -0.3630 
 15 C       -1.3420    -6.2560    -2.6230 C.3   1 <1>  -0.2400 
 16 C        0.2340     6.5080     1.0810 C.3   1 <1>   0.0400 
 17 C       -2.7500    -6.5290     0.5000 C.ar  1 <1>   0.0830 
 18 C       -3.9610    -5.9240     0.8500 C.ar  1 <1>   0.1900 
 19 C       -2.4480    -7.7780     1.0270 C.ar  1 <1>  -0.1500 
 20 F       -4.2530    -4.7330     0.3960 F     1 <1>  -0.1900 
 21 C       -4.8750    -6.5350     1.6860 C.ar  1 <1>  -0.1500 
 22 C       -3.3480    -8.4130     1.8710 C.ar  1 <1>  -0.1500 
 23 C       -4.5420    -7.7820     2.1800 C.ar  1 <1>   0.1900 
 24 F       -5.3850    -8.3870     2.9730 F     1 <1>  -0.1900 
 25 H       -1.3190    -3.8920     0.0950 H     1 <1>   0.3700 
 26 H       -1.4750     3.0500     0.1520 H     1 <1>   0.0800 
 27 H        0.1620     2.8670    -0.4960 H     1 <1>   0.0800 
 28 H        1.0710     4.0970     1.4620 H     1 <1>   0.0800 
 29 H       -0.5630     4.2790     2.1080 H     1 <1>   0.0800 
 30 H       -3.2610    -5.8120    -1.7810 H     1 <1>   0.0800 
 31 H       -0.3130    -5.9850    -2.4740 H     1 <1>   0.0800 
 32 H       -1.6240    -5.9800    -3.6240 H     1 <1>   0.0800 
 33 H       -1.4570    -7.3190    -2.5170 H     1 <1>   0.0800 
 34 H        0.0580     7.3280     0.4060 H     1 <1>   0.0800 
 35 H        1.2810     6.4570     1.3230 H     1 <1>   0.0800 
 36 H       -0.3570     6.6390     1.9710 H     1 <1>   0.0800 
 37 H       -1.5140    -8.2490     0.7750 H     1 <1>   0.1500 
 38 H       -5.8040    -6.0620     1.9450 H     1 <1>   0.1500 
 39 H       -3.1320    -9.3820     2.2850 H     1 <1>   0.1500 
@<TRIPOS>BOND
  1   1   2  1   
  2   1   3  1   
  3   2   4  1   
  4   2   5  2   
  5   3   6  2   
  6   3   7  1   
  7   4   8  1   
  8   5   6  1   
  9   7   9  am  
 10   7  25  1   
 11   8  10  1   
 12   8  26  1   
 13   8  27  1   
 14   9  11  2   
 15   9  12  1   
 16  10  13  1   
 17  10  28  1   
 18  10  29  1   
 19  12  14  1   
 20  12  15  1   
 21  12  30  1   
 22  13  16  1   
 23  14  17  1   
 24  15  31  1   
 25  15  32  1   
 26  15  33  1   
 27  16  34  1   
 28  16  35  1   
 29  16  36  1   
 30  17  18  ar  
 31  17  19  ar  
 32  18  20  1   
 33  18  21  ar  
 34  19  22  ar  
 35  19  37  1   
 36  21  23  ar  
 37  21  38  1   
 38  22  23  ar  
 39  22  39  1   
 40  23  24  1   
@<TRIPOS>SUBSTRUCTURE
  1 ****   7 GROUP 4 **** **** 0

# MOE 2024.06 (io_trps.svl 2023.06)
