@<TRIPOS>MOLECULE
NONAME
52 54 1 0 0 
SMALL
USER_CHARGES


@<TRIPOS>ATOM
  1 O       -0.6000     0.6110    -0.7280 O.2   1 <1>  -0.5700 
  2 C       -1.2640     1.3090     0.0090 C.2   1 <1>   0.5690 
  3 N       -2.4350     0.8060     0.5430 N.am  1 <1>  -0.6600 
  4 C       -0.7780     2.7440     0.3510 C.3   1 <1>   0.4050 
  5 C       -2.8390    -0.6100     0.2780 C.3   1 <1>   0.1400 
  6 C       -3.4660     1.6090     1.2610 C.3   1 <1>   0.1400 
  7 O       -1.5940     3.7140    -0.2770 O.3   1 <1>  -0.5600 
  8 C        0.6950     3.0150     0.0130 C.ar  1 <1>  -0.1440 
  9 C       -3.7510    -0.7260    -0.9530 C.3   1 <1>   0.1400 
 10 C       -4.4530     2.2950     0.3030 C.3   1 <1>  -0.1600 
 11 C       -1.3900     5.0310     0.1380 C.3   1 <1>   0.0400 
 12 C        1.6330     3.1610     1.0260 C.ar  1 <1>  -0.1500 
 13 C        1.1080     3.1310    -1.3070 C.ar  1 <1>  -0.1500 
 14 N       -4.9730     0.1340    -0.8310 N.am  1 <1>  -0.6600 
 15 C       -4.7000     1.5850    -1.0330 C.3   1 <1>   0.1400 
 16 C        2.9590     3.4220     0.7240 C.ar  1 <1>  -0.1500 
 17 C        2.4330     3.3920    -1.6110 C.ar  1 <1>  -0.1500 
 18 C       -6.2440    -0.3070    -0.5770 C.2   1 <1>   0.5690 
 19 C        3.3590     3.5390    -0.5950 C.ar  1 <1>  -0.1500 
 20 O       -7.1720     0.4590    -0.4600 O.2   1 <1>  -0.5700 
 21 C       -6.5240    -1.7910    -0.4230 C.3   1 <1>  -0.0990 
 22 C       -8.0010    -2.0780    -0.1170 C.3   1 <1>   0.0960 
 23 N       -8.2190    -3.5290     0.0240 N.pl3 1 <1>   0.0480 
 24 C       -8.2120    -4.2700     1.1330 C.2   1 <1>   0.0360 
 25 C       -8.4480    -4.4340    -0.9280 C.2   1 <1>   0.0360 
 26 N       -8.4120    -5.5160     0.8780 N.2   1 <1>  -0.3380 
 27 N       -8.5630    -5.6210    -0.4440 N.2   1 <1>  -0.3380 
 28 H       -0.9050     2.8660     1.4090 H     1 <1>   0.0800 
 29 H       -3.3420    -1.0120     1.1380 H     1 <1>   0.0800 
 30 H       -1.9600    -1.2110     0.1150 H     1 <1>   0.0800 
 31 H       -2.9990     2.3490     1.8860 H     1 <1>   0.0800 
 32 H       -4.0210     0.9540     1.9110 H     1 <1>   0.0800 
 33 H       -4.0210    -1.7560    -1.0890 H     1 <1>   0.0800 
 34 H       -3.1920    -0.4310    -1.8240 H     1 <1>   0.0800 
 35 H       -4.0990     3.2860     0.0880 H     1 <1>   0.0800 
 36 H       -5.3940     2.4140     0.8090 H     1 <1>   0.0800 
 37 H       -2.1220     5.6510    -0.3490 H     1 <1>   0.0800 
 38 H       -0.4030     5.3520    -0.1520 H     1 <1>   0.0800 
 39 H       -1.5110     5.0960     1.2050 H     1 <1>   0.0800 
 40 H        1.3410     3.0710     2.0580 H     1 <1>   0.1500 
 41 H        0.3900     3.0130    -2.1010 H     1 <1>   0.1500 
 42 H       -3.8370     1.7070    -1.6670 H     1 <1>   0.0800 
 43 H       -5.5350     2.0450    -1.5330 H     1 <1>   0.0800 
 44 H        3.6800     3.5330     1.5150 H     1 <1>   0.1500 
 45 H        2.7390     3.4770    -2.6390 H     1 <1>   0.1500 
 46 H        4.3890     3.7400    -0.8300 H     1 <1>   0.1500 
 47 H       -5.9160    -2.1700     0.3780 H     1 <1>   0.0800 
 48 H       -6.2520    -2.2820    -1.3390 H     1 <1>   0.0800 
 49 H       -8.6230    -1.7070    -0.9130 H     1 <1>   0.0800 
 50 H       -8.2930    -1.5890     0.7950 H     1 <1>   0.0800 
 51 H       -8.0540    -3.8640     2.1160 H     1 <1>   0.1500 
 52 H       -8.5220    -4.1880    -1.9720 H     1 <1>   0.1500 
@<TRIPOS>BOND
  1   1   2  2   
  2   2   3  am  
  3   2   4  1   
  4   3   5  1   
  5   3   6  1   
  6   4   7  1   
  7   4   8  1   
  8   4  28  1   
  9   5   9  1   
 10   5  29  1   
 11   5  30  1   
 12   6  10  1   
 13   6  31  1   
 14   6  32  1   
 15   7  11  1   
 16   8  12  ar  
 17   8  13  ar  
 18   9  14  1   
 19   9  33  1   
 20   9  34  1   
 21  10  15  1   
 22  10  35  1   
 23  10  36  1   
 24  11  37  1   
 25  11  38  1   
 26  11  39  1   
 27  12  16  ar  
 28  12  40  1   
 29  13  17  ar  
 30  13  41  1   
 31  14  15  1   
 32  14  18  am  
 33  15  42  1   
 34  15  43  1   
 35  16  19  ar  
 36  16  44  1   
 37  17  19  ar  
 38  17  45  1   
 39  18  20  2   
 40  18  21  1   
 41  19  46  1   
 42  21  22  1   
 43  21  47  1   
 44  21  48  1   
 45  22  23  1   
 46  22  49  1   
 47  22  50  1   
 48  23  24  1   
 49  23  25  1   
 50  24  26  2   
 51  24  51  1   
 52  25  27  2   
 53  25  52  1   
 54  26  27  1   
@<TRIPOS>SUBSTRUCTURE
  1 ****   3 GROUP 4 **** **** 0

# MOE 2024.06 (io_trps.svl 2023.06)
