@<TRIPOS>MOLECULE
NONAME
51 53 1 0 0 
SMALL
USER_CHARGES


@<TRIPOS>ATOM
  1 CL       0.7230     0.9040     0.0980 Cl    1 <1>  -0.1770 
  2 C        1.9580    -0.3120     0.3140 C.ar  1 <1>   0.1770 
  3 C        3.1360     0.0190     0.9600 C.ar  1 <1>  -0.1440 
  4 C        1.7350    -1.5790    -0.1880 C.ar  1 <1>  -0.1500 
  5 C        4.1070    -0.9600     1.0980 C.ar  1 <1>  -0.1500 
  6 C        3.3670     1.4180     1.4940 C.3   1 <1>   0.4870 
  7 C        2.7130    -2.5610    -0.0560 C.ar  1 <1>   0.0830 
  8 C        3.9150    -2.2400     0.6030 C.ar  1 <1>   0.0830 
  9 N        4.3730     2.0980     0.6360 N.4   1 <1>  -0.9590 
 10 O        2.5230    -3.8100    -0.5680 O.3   1 <1>  -0.3620 
 11 O        4.9710    -3.0730     0.8230 O.3   1 <1>  -0.3620 
 12 C        4.9580     3.3210     1.2950 C.3   1 <1>   0.3430 
 13 C        3.8990     2.2680    -0.7810 C.3   1 <1>   0.3430 
 14 C        1.2950    -4.2360    -1.1130 C.3   1 <1>   0.1200 
 15 C        4.8750    -4.4770     0.7420 C.3   1 <1>   0.1200 
 16 C        6.1980     3.9320     0.5810 C.3   1 <1>   0.2200 
 17 C        5.0170     2.5980    -1.7820 C.3   1 <1>  -0.0190 
 18 C        1.4340    -5.7090    -1.4840 C.3   1 <1>  -0.2400 
 19 C        6.1440    -5.0720     1.3450 C.3   1 <1>  -0.2400 
 20 N        5.7870     4.6480    -0.6480 N.am  1 <1>  -0.7300 
 21 C        7.3010     2.8930     0.2570 C.3   1 <1>   0.1200 
 22 C        5.2650     4.0810    -1.7490 C.2   1 <1>   0.5690 
 23 C        6.3320     1.7980    -1.6450 C.3   1 <1>   0.1200 
 24 O        6.7950     1.7170    -0.3230 O.3   1 <1>  -0.5600 
 25 O        4.9660     4.7560    -2.6950 O.2   1 <1>  -0.5700 
 26 H        0.8000    -1.7670    -0.6810 H     1 <1>   0.1500 
 27 H        5.0390    -0.7530     1.5970 H     1 <1>   0.1500 
 28 H        3.7330     1.3460     2.5050 H     1 <1>   0.0800 
 29 H        2.4470     1.9790     1.5070 H     1 <1>   0.0800 
 30 H        5.1800     1.4480     0.5370 H     1 <1>   0.4500 
 31 H        4.2020     4.0850     1.3830 H     1 <1>   0.0800 
 32 H        5.2630     3.0530     2.2930 H     1 <1>   0.0800 
 33 H        3.4440     1.3470    -1.1070 H     1 <1>   0.0800 
 34 H        3.1420     3.0350    -0.8270 H     1 <1>   0.0800 
 35 H        0.5260    -4.1030    -0.3720 H     1 <1>   0.0800 
 36 H        1.0830    -3.6440    -1.9870 H     1 <1>   0.0800 
 37 H        4.0060    -4.7950     1.2920 H     1 <1>   0.0800 
 38 H        4.7830    -4.7540    -0.2930 H     1 <1>   0.0800 
 39 H        6.6280     4.6660     1.2400 H     1 <1>   0.0800 
 40 H        4.6280     2.3890    -2.7620 H     1 <1>   0.0800 
 41 H        1.6590    -6.2920    -0.6090 H     1 <1>   0.0800 
 42 H        2.2170    -5.8350    -2.2110 H     1 <1>   0.0800 
 43 H        0.5130    -6.0660    -1.9070 H     1 <1>   0.0800 
 44 H        6.2370    -4.7790     2.3750 H     1 <1>   0.0800 
 45 H        7.0060    -4.7380     0.7960 H     1 <1>   0.0800 
 46 H        6.1000    -6.1440     1.2950 H     1 <1>   0.0800 
 47 H        5.9810     5.6540    -0.7110 H     1 <1>   0.3700 
 48 H        7.7890     2.5980     1.1700 H     1 <1>   0.0800 
 49 H        8.0490     3.3140    -0.3950 H     1 <1>   0.0800 
 50 H        7.1080     2.2260    -2.2590 H     1 <1>   0.0800 
 51 H        6.1690     0.7860    -1.9770 H     1 <1>   0.0800 
@<TRIPOS>BOND
  1   1   2  1   
  2   2   3  ar  
  3   2   4  ar  
  4   3   5  ar  
  5   3   6  1   
  6   4   7  ar  
  7   4  26  1   
  8   5   8  ar  
  9   5  27  1   
 10   6   9  1   
 11   6  28  1   
 12   6  29  1   
 13   7   8  ar  
 14   7  10  1   
 15   8  11  1   
 16   9  12  1   
 17   9  13  1   
 18   9  30  1   
 19  10  14  1   
 20  11  15  1   
 21  12  16  1   
 22  12  31  1   
 23  12  32  1   
 24  13  17  1   
 25  13  33  1   
 26  13  34  1   
 27  14  18  1   
 28  14  35  1   
 29  14  36  1   
 30  15  19  1   
 31  15  37  1   
 32  15  38  1   
 33  16  20  1   
 34  16  21  1   
 35  16  39  1   
 36  17  22  1   
 37  17  23  1   
 38  17  40  1   
 39  18  41  1   
 40  18  42  1   
 41  18  43  1   
 42  19  44  1   
 43  19  45  1   
 44  19  46  1   
 45  20  22  am  
 46  20  47  1   
 47  21  24  1   
 48  21  48  1   
 49  21  49  1   
 50  22  25  2   
 51  23  24  1   
 52  23  50  1   
 53  23  51  1   
@<TRIPOS>SUBSTRUCTURE
  1 ****   3 GROUP 4 **** **** 0

# MOE 2024.06 (io_trps.svl 2023.06)
