@<TRIPOS>MOLECULE
NONAME
28 30 1 0 0 
SMALL
USER_CHARGES


@<TRIPOS>ATOM
  1 O        0.0030    -0.3270     0.1940 O.2   1 <1>  -0.5700 
  2 C        0.2190    -1.5090     0.2630 C.2   1 <1>   0.4230 
  3 C       -0.7020    -2.6090     0.2080 C.ar  1 <1>   0.0860 
  4 C        1.6280    -2.0350     0.4430 C.3   1 <1>  -0.0990 
  5 C       -2.0910    -2.6370     0.0480 C.ar  1 <1>  -0.1440 
  6 C       -0.0110    -3.7990     0.3540 C.ar  1 <1>  -0.1440 
  7 C        1.4780    -3.5660     0.5100 C.3   1 <1>  -0.0160 
  8 C       -2.7520    -3.8640     0.0540 C.ar  1 <1>  -0.1440 
  9 C       -2.8530    -1.3210    -0.1110 C.3   1 <1>  -0.0160 
 10 C       -0.6560    -5.0170     0.3530 C.ar  1 <1>  -0.1500 
 11 C       -2.0310    -5.0420     0.2040 C.ar  1 <1>  -0.1500 
 12 C       -4.2640    -3.9660    -0.1100 C.3   1 <1>  -0.0170 
 13 C       -4.2990    -1.5050    -0.5850 C.3   1 <1>  -0.1600 
 14 C       -4.9780    -2.6430     0.1790 C.3   1 <1>  -0.1600 
 15 H        2.0460    -1.6450     1.3520 H     1 <1>   0.0800 
 16 H        2.2340    -1.7390    -0.3940 H     1 <1>   0.0800 
 17 H        1.8200    -3.9460     1.4570 H     1 <1>   0.0800 
 18 H        2.0180    -4.0420    -0.2910 H     1 <1>   0.0800 
 19 H       -2.3430    -0.6860    -0.8130 H     1 <1>   0.0800 
 20 H       -2.8540    -0.8180     0.8410 H     1 <1>   0.0800 
 21 H       -0.1050    -5.9340     0.4680 H     1 <1>   0.1500 
 22 H       -2.5430    -5.9890     0.2030 H     1 <1>   0.1500 
 23 H       -4.6510    -4.7240     0.5470 H     1 <1>   0.0800 
 24 H       -4.4730    -4.2670    -1.1220 H     1 <1>   0.0800 
 25 H       -4.3000    -1.7310    -1.6380 H     1 <1>   0.0800 
 26 H       -4.8420    -0.5870    -0.4420 H     1 <1>   0.0800 
 27 H       -4.9400    -2.4380     1.2360 H     1 <1>   0.0800 
 28 H       -6.0110    -2.7180    -0.1120 H     1 <1>   0.0800 
@<TRIPOS>BOND
  1   1   2  2   
  2   2   3  1   
  3   2   4  1   
  4   3   5  ar  
  5   3   6  ar  
  6   4   7  1   
  7   4  15  1   
  8   4  16  1   
  9   5   8  ar  
 10   5   9  1   
 11   6   7  1   
 12   6  10  ar  
 13   7  17  1   
 14   7  18  1   
 15   8  11  ar  
 16   8  12  1   
 17   9  13  1   
 18   9  19  1   
 19   9  20  1   
 20  10  11  ar  
 21  10  21  1   
 22  11  22  1   
 23  12  14  1   
 24  12  23  1   
 25  12  24  1   
 26  13  14  1   
 27  13  25  1   
 28  13  26  1   
 29  14  27  1   
 30  14  28  1   
@<TRIPOS>SUBSTRUCTURE
  1 ****   5 GROUP 4 **** **** 0

# MOE 2024.06 (io_trps.svl 2023.06)
