@<TRIPOS>MOLECULE
NONAME
44 46 1 0 0 
SMALL
USER_CHARGES


@<TRIPOS>ATOM
  1 S        0.3280     0.4130     0.7100 S.3   1 <1>  -0.3320 
  2 C        0.5110    -1.3590     0.7530 C.ar  1 <1>   0.7220 
  3 C        1.1950     0.9150    -0.8550 C.3   1 <1>   0.1310 
  4 N        1.2180    -1.8880    -0.2350 N.ar  1 <1>  -0.6200 
  5 N       -0.0760    -1.9530     1.7760 N.ar  1 <1>  -0.6200 
  6 C        1.2630     2.4300    -0.9850 C.2   1 <1>   0.5690 
  7 C        1.3390    -3.1940    -0.1840 C.ar  1 <1>   0.1660 
  8 C        0.0650    -3.2590     1.7970 C.ar  1 <1>   0.1600 
  9 O        0.6280     2.9320    -1.8850 O.2   1 <1>  -0.5700 
 10 N        2.0400     3.1890    -0.1440 N.am  1 <1>  -0.6600 
 11 C        0.7710    -3.9340     0.8290 C.ar  1 <1>  -0.1500 
 12 C        2.1320    -3.8540    -1.2910 C.3   1 <1>  -0.0970 
 13 C        2.1030     4.6760    -0.2630 C.3   1 <1>   0.1400 
 14 C        2.8750     2.6730     0.9820 C.3   1 <1>   0.1400 
 15 C        3.5600     5.1610    -0.3420 C.3   1 <1>   0.1100 
 16 C        4.3190     3.1930     0.8710 C.3   1 <1>   0.1100 
 17 N        4.3710     4.6670     0.7960 N.3   1 <1>  -0.8100 
 18 C        5.7790     5.1410     0.7150 C.3   1 <1>   0.2910 
 19 C        5.9500     6.6620     0.7650 C.2   1 <1>   0.3350 
 20 N        6.1520     7.3400     1.8270 N.2   1 <1>  -0.4100 
 21 N        5.9300     7.4070    -0.3370 N.2   1 <1>  -0.5650 
 22 O        6.2600     8.5840     1.4730 O.3   1 <1>  -0.0190 
 23 C        6.1180     8.5560     0.1720 C.2   1 <1>   0.2980 
 24 C        6.1910     9.8550    -0.5960 C.3   1 <1>  -0.0600 
 25 H        0.6350     0.4950    -1.6700 H     1 <1>   0.0800 
 26 H        2.1810     0.4930    -0.8380 H     1 <1>   0.0800 
 27 H       -0.3950    -3.8020     2.6060 H     1 <1>   0.1500 
 28 H        0.8700    -5.0020     0.8680 H     1 <1>   0.1500 
 29 H        3.1340    -3.4650    -1.2990 H     1 <1>   0.0800 
 30 H        1.6720    -3.6430    -2.2400 H     1 <1>   0.0800 
 31 H        2.1740    -4.9190    -1.1560 H     1 <1>   0.0800 
 32 H        1.6310     5.1180     0.5970 H     1 <1>   0.0800 
 33 H        1.5720     5.0110    -1.1370 H     1 <1>   0.0800 
 34 H        2.8920     1.5990     0.9950 H     1 <1>   0.0800 
 35 H        2.4520     3.0070     1.9130 H     1 <1>   0.0800 
 36 H        3.5510     6.2370    -0.3400 H     1 <1>   0.0800 
 37 H        3.9890     4.8320    -1.2730 H     1 <1>   0.0800 
 38 H        4.7770     2.7650    -0.0050 H     1 <1>   0.0800 
 39 H        4.8700     2.8620     1.7340 H     1 <1>   0.0800 
 40 H        6.2310     4.7780    -0.1910 H     1 <1>   0.0800 
 41 H        6.3260     4.7300     1.5450 H     1 <1>   0.0800 
 42 H        6.0570     9.6690    -1.6450 H     1 <1>   0.0800 
 43 H        7.1500    10.3140    -0.4400 H     1 <1>   0.0800 
 44 H        5.4190    10.5200    -0.2550 H     1 <1>   0.0800 
@<TRIPOS>BOND
  1   1   2  1   
  2   1   3  1   
  3   2   4  ar  
  4   2   5  ar  
  5   3   6  1   
  6   3  25  1   
  7   3  26  1   
  8   4   7  ar  
  9   5   8  ar  
 10   6   9  2   
 11   6  10  am  
 12   7  11  ar  
 13   7  12  1   
 14   8  11  ar  
 15   8  27  1   
 16  10  13  1   
 17  10  14  1   
 18  11  28  1   
 19  12  29  1   
 20  12  30  1   
 21  12  31  1   
 22  13  15  1   
 23  13  32  1   
 24  13  33  1   
 25  14  16  1   
 26  14  34  1   
 27  14  35  1   
 28  15  17  1   
 29  15  36  1   
 30  15  37  1   
 31  16  17  1   
 32  16  38  1   
 33  16  39  1   
 34  17  18  1   
 35  18  19  1   
 36  18  40  1   
 37  18  41  1   
 38  19  20  2   
 39  19  21  1   
 40  20  22  1   
 41  21  23  2   
 42  22  23  1   
 43  23  24  1   
 44  24  42  1   
 45  24  43  1   
 46  24  44  1   
@<TRIPOS>SUBSTRUCTURE
  1 ****  14 GROUP 4 **** **** 0

# MOE 2024.06 (io_trps.svl 2023.06)
