@<TRIPOS>MOLECULE
NONAME
53 54 1 0 0 
SMALL
USER_CHARGES


@<TRIPOS>ATOM
  1 O       -0.7350    -1.0350     0.9140 O.2   1 <1>  -0.5700 
  2 C        0.1240    -1.6370     0.3010 C.2   1 <1>   0.5440 
  3 N        1.1120    -0.9270    -0.3230 N.am  1 <1>  -0.7300 
  4 C        0.1000    -3.0870     0.2530 C.ar  1 <1>   0.0860 
  5 C        1.2040     0.5450    -0.3550 C.3   1 <1>   0.1400 
  6 C       -0.5110    -3.8390     1.2390 C.ar  1 <1>  -0.1500 
  7 C        0.6690    -3.8300    -0.7750 C.ar  1 <1>  -0.1500 
  8 C        1.7480     0.9690    -1.7130 C.3   1 <1>  -0.2400 
  9 C       -0.5300    -5.2240     1.1790 C.ar  1 <1>   0.4100 
 10 C        0.5960    -5.2080    -0.7570 C.ar  1 <1>   0.1600 
 11 N        0.0030    -5.9210     0.1860 N.ar  1 <1>  -0.6200 
 12 N       -1.1530    -5.9340     2.1800 N.pl3 1 <1>  -0.8690 
 13 C       -0.5640    -7.1900     2.7040 C.3   1 <1>   0.2090 
 14 C       -1.4390    -8.3950     2.3400 C.3   1 <1>  -0.1600 
 15 C       -1.3520    -8.7500     0.8410 C.3   1 <1>   0.4230 
 16 N       -2.6470    -8.5100     0.1390 N.4   1 <1>  -0.9590 
 17 C       -0.9480   -10.2190     0.6760 C.3   1 <1>  -0.2400 
 18 C       -2.6620    -8.9040    -1.3110 C.3   1 <1>   0.3430 
 19 C       -3.1150    -7.0850     0.2460 C.3   1 <1>   0.3430 
 20 C       -4.0550    -8.6920    -1.9540 C.3   1 <1>   0.1100 
 21 C       -4.5050    -6.8800    -0.4020 C.3   1 <1>   0.1100 
 22 N       -5.0360    -8.1240    -1.0030 N.3   1 <1>  -0.8100 
 23 C       -6.3380    -7.8980    -1.6420 C.3   1 <1>   0.0300 
 24 H        1.9200    -1.4170    -0.7060 H     1 <1>   0.3700 
 25 H        1.8580     0.8800     0.4330 H     1 <1>   0.0800 
 26 H        0.2290     0.9790    -0.1960 H     1 <1>   0.0800 
 27 H       -0.9770    -3.3360     2.0660 H     1 <1>   0.1500 
 28 H        1.1610    -3.3340    -1.5910 H     1 <1>   0.1500 
 29 H        2.7320     0.5660    -1.8700 H     1 <1>   0.0800 
 30 H        1.8090     2.0420    -1.7560 H     1 <1>   0.0800 
 31 H        1.0900     0.6360    -2.4960 H     1 <1>   0.0800 
 32 H        1.0490    -5.7550    -1.5680 H     1 <1>   0.1500 
 33 H       -1.4840    -5.3340     2.9430 H     1 <1>   0.4000 
 34 H       -0.4930    -7.1140     3.7760 H     1 <1>   0.0800 
 35 H        0.4360    -7.3250     2.3220 H     1 <1>   0.0800 
 36 H       -2.4500    -8.2330     2.6630 H     1 <1>   0.0800 
 37 H       -1.0650    -9.2170     2.9230 H     1 <1>   0.0800 
 38 H       -0.5880    -8.1410     0.3870 H     1 <1>   0.0800 
 39 H       -3.4000    -9.0610     0.5720 H     1 <1>   0.4500 
 40 H       -1.7230   -10.8740     1.0340 H     1 <1>   0.0800 
 41 H       -0.0540   -10.4150     1.2420 H     1 <1>   0.0800 
 42 H       -0.7170   -10.4510    -0.3460 H     1 <1>   0.0800 
 43 H       -2.3990    -9.9420    -1.4160 H     1 <1>   0.0800 
 44 H       -1.9320    -8.3240    -1.8500 H     1 <1>   0.0800 
 45 H       -2.4020    -6.4310    -0.2270 H     1 <1>   0.0800 
 46 H       -3.1790    -6.7930     1.2790 H     1 <1>   0.0800 
 47 H       -4.4190    -9.6400    -2.3120 H     1 <1>   0.0800 
 48 H       -3.9530    -8.0430    -2.8060 H     1 <1>   0.0800 
 49 H       -4.4290    -6.1110    -1.1530 H     1 <1>   0.0800 
 50 H       -5.1890    -6.5290     0.3520 H     1 <1>   0.0800 
 51 H       -6.7210    -8.8250    -2.0340 H     1 <1>   0.0800 
 52 H       -6.2510    -7.1870    -2.4470 H     1 <1>   0.0800 
 53 H       -7.0420    -7.5230    -0.9190 H     1 <1>   0.0800 
@<TRIPOS>BOND
  1   1   2  2   
  2   2   3  am  
  3   2   4  1   
  4   3   5  1   
  5   3  24  1   
  6   4   6  ar  
  7   4   7  ar  
  8   5   8  1   
  9   5  25  1   
 10   5  26  1   
 11   6   9  ar  
 12   6  27  1   
 13   7  10  ar  
 14   7  28  1   
 15   8  29  1   
 16   8  30  1   
 17   8  31  1   
 18   9  11  ar  
 19   9  12  1   
 20  10  11  ar  
 21  10  32  1   
 22  12  13  1   
 23  12  33  1   
 24  13  14  1   
 25  13  34  1   
 26  13  35  1   
 27  14  15  1   
 28  14  36  1   
 29  14  37  1   
 30  15  16  1   
 31  15  17  1   
 32  15  38  1   
 33  16  18  1   
 34  16  19  1   
 35  16  39  1   
 36  17  40  1   
 37  17  41  1   
 38  17  42  1   
 39  18  20  1   
 40  18  43  1   
 41  18  44  1   
 42  19  21  1   
 43  19  45  1   
 44  19  46  1   
 45  20  22  1   
 46  20  47  1   
 47  20  48  1   
 48  21  22  1   
 49  21  49  1   
 50  21  50  1   
 51  22  23  1   
 52  23  51  1   
 53  23  52  1   
 54  23  53  1   
@<TRIPOS>SUBSTRUCTURE
  1 ****   9 GROUP 4 **** **** 0

# MOE 2024.06 (io_trps.svl 2023.06)
