@<TRIPOS>MOLECULE
NONAME
43 45 1 0 0 
SMALL
USER_CHARGES


@<TRIPOS>ATOM
  1 O        2.4440    -2.4130    -2.7430 O.2   1 <1>  -0.5700 
  2 C        1.9070    -2.2720    -1.6570 C.2   1 <1>   0.5440 
  3 N        2.5620    -1.4960    -0.7180 N.am  1 <1>  -0.6600 
  4 C        0.6090    -2.9070    -1.4270 C.ar  1 <1>   0.3960 
  5 C        3.8310    -0.7900    -1.0090 C.3   1 <1>   0.1400 
  6 C        2.0020    -1.0530     0.5810 C.3   1 <1>   0.1400 
  7 N        0.2970    -3.4360    -0.2280 N.ar  1 <1>  -0.6200 
  8 C       -0.2850    -2.9570    -2.5010 C.ar  1 <1>   0.1600 
  9 C        3.8630     0.3710    -0.0240 C.3   1 <1>  -0.1600 
 10 C        3.0540    -0.1210     1.1730 C.3   1 <1>  -0.1600 
 11 C       -0.9020    -3.9780    -0.1870 C.ar  1 <1>   0.4100 
 12 N       -1.4990    -3.4900    -2.4710 N.ar  1 <1>  -0.6200 
 13 N       -1.2130    -4.4980     1.0420 N.pl3 1 <1>  -0.8690 
 14 C       -1.7770    -3.9950    -1.2860 C.ar  1 <1>   0.1600 
 15 C       -1.1780    -5.9870     1.2760 C.3   1 <1>   0.4940 
 16 C       -1.8980    -6.7250     0.1430 C.ar  1 <1>  -0.1440 
 17 C        0.2460    -6.5370     1.5640 C.2   1 <1>   0.5690 
 18 C       -1.2180    -7.2040    -0.9710 C.ar  1 <1>  -0.1500 
 19 C       -3.2720    -6.9110     0.2210 C.ar  1 <1>  -0.1500 
 20 O        0.3840    -7.5220     2.2470 O.2   1 <1>  -0.5700 
 21 N        1.3490    -5.9080     1.0910 N.am  1 <1>  -0.8000 
 22 C       -1.9000    -7.8540    -1.9840 C.ar  1 <1>  -0.1500 
 23 C       -3.9540    -7.5620    -0.7910 C.ar  1 <1>  -0.1500 
 24 C       -3.2680    -8.0340    -1.8950 C.ar  1 <1>  -0.1500 
 25 H        4.6530    -1.4630    -0.8320 H     1 <1>   0.0800 
 26 H        3.8630    -0.4440    -2.0290 H     1 <1>   0.0800 
 27 H        1.0800    -0.5230     0.4100 H     1 <1>   0.0800 
 28 H        1.8260    -1.8920     1.2310 H     1 <1>   0.0800 
 29 H        0.0290    -2.5280    -3.4370 H     1 <1>   0.1500 
 30 H        4.8700     0.6410     0.2420 H     1 <1>   0.0800 
 31 H        3.3780     1.2210    -0.4710 H     1 <1>   0.0800 
 32 H        2.6080     0.6870     1.7250 H     1 <1>   0.0800 
 33 H        3.6890    -0.6860     1.8330 H     1 <1>   0.0800 
 34 H       -0.6400    -4.0470     1.7590 H     1 <1>   0.4000 
 35 H       -2.7400    -4.4540    -1.1520 H     1 <1>   0.1500 
 36 H       -1.7390    -6.1730     2.1740 H     1 <1>   0.0800 
 37 H       -0.1540    -7.0730    -1.0670 H     1 <1>   0.1500 
 38 H       -3.8220    -6.5440     1.0710 H     1 <1>   0.1500 
 39 H        2.2820    -6.2730     1.2860 H     1 <1>   0.3700 
 40 H        1.2880    -5.0410     0.5410 H     1 <1>   0.3700 
 41 H       -1.3650    -8.2190    -2.8440 H     1 <1>   0.1500 
 42 H       -5.0190    -7.7020    -0.7210 H     1 <1>   0.1500 
 43 H       -3.7970    -8.5400    -2.6840 H     1 <1>   0.1500 
@<TRIPOS>BOND
  1   1   2  2   
  2   2   3  am  
  3   2   4  1   
  4   3   5  1   
  5   3   6  1   
  6   4   7  ar  
  7   4   8  ar  
  8   5   9  1   
  9   5  25  1   
 10   5  26  1   
 11   6  10  1   
 12   6  27  1   
 13   6  28  1   
 14   7  11  ar  
 15   8  12  ar  
 16   8  29  1   
 17   9  10  1   
 18   9  30  1   
 19   9  31  1   
 20  10  32  1   
 21  10  33  1   
 22  11  13  1   
 23  11  14  ar  
 24  12  14  ar  
 25  13  15  1   
 26  13  34  1   
 27  14  35  1   
 28  15  16  1   
 29  15  17  1   
 30  15  36  1   
 31  16  18  ar  
 32  16  19  ar  
 33  17  20  2   
 34  17  21  am  
 35  18  22  ar  
 36  18  37  1   
 37  19  23  ar  
 38  19  38  1   
 39  21  39  1   
 40  21  40  1   
 41  22  24  ar  
 42  22  41  1   
 43  23  24  ar  
 44  23  42  1   
 45  24  43  1   
@<TRIPOS>SUBSTRUCTURE
  1 ****   7 GROUP 4 **** **** 0

# MOE 2024.06 (io_trps.svl 2023.06)
