@<TRIPOS>MOLECULE
NONAME
52 54 1 0 0 
SMALL
USER_CHARGES


@<TRIPOS>ATOM
  1 S        0.7220    -0.0600    -0.4200 S.o2  1 <1>   1.3330 
  2 O        0.5970    -0.1170    -1.8590 O.2   1 <1>  -0.6500 
  3 O        2.0340    -0.0130     0.1860 O.2   1 <1>  -0.6500 
  4 N       -0.1060    -1.3870     0.2390 N.am  1 <1>  -0.8490 
  5 C       -0.2400     1.3380     0.1510 C.3   1 <1>  -0.0550 
  6 C        0.0800    -2.6040    -0.5560 C.3   1 <1>   0.1160 
  7 C        0.2380    -1.6510     1.6400 C.3   1 <1>   0.1160 
  8 C        0.2460     2.6850    -0.4200 C.3   1 <1>  -0.0800 
  9 C       -0.6510     3.8740    -0.0690 C.3   1 <1>   0.2000 
 10 C        1.6440     3.1080     0.0540 C.3   1 <1>   0.1400 
 11 O       -0.9790     3.8130     1.2780 O.3   1 <1>  -0.6800 
 12 C        0.2560     5.0830    -0.2770 C.3   1 <1>   0.1400 
 13 N        1.6040     4.5940     0.1070 N.am  1 <1>  -0.6600 
 14 C        2.7450     5.3650     0.1500 C.2   1 <1>   0.5440 
 15 O        3.8220     4.8030     0.1930 O.2   1 <1>  -0.5700 
 16 C        2.6860     6.8120     0.1320 C.ar  1 <1>   0.0860 
 17 C        1.9660     7.5330     1.0840 C.ar  1 <1>  -0.1500 
 18 C        3.3600     7.5460    -0.8430 C.ar  1 <1>  -0.1500 
 19 C        1.8990     8.9130     1.0480 C.ar  1 <1>  -0.1500 
 20 C        3.2940     8.9250    -0.8820 C.ar  1 <1>  -0.1500 
 21 C        2.5540     9.6400     0.0560 C.ar  1 <1>   0.1170 
 22 N        2.4690    11.0420     0.0010 N.am  1 <1>  -0.4770 
 23 C        3.4420    11.9260    -0.3770 C.2   1 <1>   0.5690 
 24 C        1.1880    11.7440     0.2320 C.3   1 <1>   0.1400 
 25 O        4.5870    11.6680    -0.6550 O.2   1 <1>  -0.5700 
 26 C        2.9210    13.3360    -0.4240 C.3   1 <1>  -0.0990 
 27 C        1.5360    13.2370     0.2240 C.3   1 <1>  -0.1600 
 28 H       -1.2600     1.1920    -0.1450 H     1 <1>   0.0800 
 29 H       -0.2150     1.3700     1.2220 H     1 <1>   0.0800 
 30 H       -0.4710    -3.4220    -0.1230 H     1 <1>   0.0800 
 31 H        1.1250    -2.8650    -0.6040 H     1 <1>   0.0800 
 32 H       -0.2840    -2.4490    -1.5590 H     1 <1>   0.0800 
 33 H       -0.3770    -2.4450     2.0280 H     1 <1>   0.0800 
 34 H        0.0700    -0.7710     2.2370 H     1 <1>   0.0800 
 35 H        1.2740    -1.9360     1.7280 H     1 <1>   0.0800 
 36 H        0.2800     2.6080    -1.4940 H     1 <1>   0.0800 
 37 H       -1.5600     3.9170    -0.6450 H     1 <1>   0.0800 
 38 H        2.4110     2.7680    -0.6230 H     1 <1>   0.0800 
 39 H        1.8560     2.7300     1.0400 H     1 <1>   0.0800 
 40 H       -0.1610     3.9430     1.8010 H     1 <1>   0.4000 
 41 H       -0.0630     5.9210     0.3170 H     1 <1>   0.0800 
 42 H        0.2670     5.3610    -1.3170 H     1 <1>   0.0800 
 43 H        1.4600     6.9960     1.8670 H     1 <1>   0.1500 
 44 H        3.9470     7.0170    -1.5740 H     1 <1>   0.1500 
 45 H        1.3430     9.4300     1.8070 H     1 <1>   0.1500 
 46 H        3.8270     9.4580    -1.6500 H     1 <1>   0.1500 
 47 H        0.5100    11.5060    -0.5700 H     1 <1>   0.0800 
 48 H        0.7520    11.4600     1.1730 H     1 <1>   0.0800 
 49 H        3.5720    13.9990     0.1160 H     1 <1>   0.0800 
 50 H        2.8500    13.6460    -1.4500 H     1 <1>   0.0800 
 51 H        0.7980    13.8130    -0.3060 H     1 <1>   0.0800 
 52 H        1.5860    13.5890     1.2400 H     1 <1>   0.0800 
@<TRIPOS>BOND
  1   1   2  2   
  2   1   3  2   
  3   1   4  am  
  4   1   5  1   
  5   4   6  1   
  6   4   7  1   
  7   5   8  1   
  8   5  28  1   
  9   5  29  1   
 10   6  30  1   
 11   6  31  1   
 12   6  32  1   
 13   7  33  1   
 14   7  34  1   
 15   7  35  1   
 16   8   9  1   
 17   8  10  1   
 18   8  36  1   
 19   9  11  1   
 20   9  12  1   
 21   9  37  1   
 22  10  13  1   
 23  10  38  1   
 24  10  39  1   
 25  11  40  1   
 26  12  13  1   
 27  12  41  1   
 28  12  42  1   
 29  13  14  am  
 30  14  15  2   
 31  14  16  1   
 32  16  17  ar  
 33  16  18  ar  
 34  17  19  ar  
 35  17  43  1   
 36  18  20  ar  
 37  18  44  1   
 38  19  21  ar  
 39  19  45  1   
 40  20  21  ar  
 41  20  46  1   
 42  21  22  1   
 43  22  23  am  
 44  22  24  1   
 45  23  25  2   
 46  23  26  1   
 47  24  27  1   
 48  24  47  1   
 49  24  48  1   
 50  26  27  1   
 51  26  49  1   
 52  26  50  1   
 53  27  51  1   
 54  27  52  1   
@<TRIPOS>SUBSTRUCTURE
  1 ****  13 GROUP 4 **** **** 0

# MOE 2024.06 (io_trps.svl 2023.06)
