@<TRIPOS>MOLECULE
NONAME
44 46 1 0 0 
SMALL
USER_CHARGES


@<TRIPOS>ATOM
  1 O       -1.4400     0.1040     3.2850 O.2   1 <1>  -0.5700 
  2 C       -1.6870     0.8560     2.3710 C.2   1 <1>   0.5690 
  3 N       -2.8550     0.7340     1.6590 N.am  1 <1>  -0.6600 
  4 C       -0.6790     1.9450     2.0720 C.3   1 <1>   0.1570 
  5 C       -3.3420     1.6340     0.5710 C.3   1 <1>   0.1400 
  6 C       -3.5300    -0.5820     1.5540 C.3   1 <1>   0.1400 
  7 N       -0.1080     1.7680     0.7260 N.pl3 1 <1>   0.3140 
  8 C       -4.4370     0.8370    -0.1440 C.3   1 <1>   0.2000 
  9 C       -4.0660    -0.6240     0.1180 C.3   1 <1>  -0.0800 
 10 N        0.4070     0.5880     0.2950 N.2   1 <1>  -0.7070 
 11 C       -0.1180     2.6940    -0.2750 C.2   1 <1>  -0.0680 
 12 O       -5.6520     1.0970     0.4690 O.3   1 <1>  -0.6800 
 13 C       -2.9910    -1.0910    -0.8870 C.3   1 <1>  -0.0170 
 14 C        0.7000     0.7880    -0.9480 C.2   1 <1>   0.1080 
 15 N       -0.5930     4.0110    -0.1860 N.pl3 1 <1>  -0.8840 
 16 C        0.3950     2.0780    -1.3640 C.2   1 <1>  -0.1500 
 17 C       -2.5010    -2.5010    -0.6010 C.ar  1 <1>  -0.1440 
 18 C        1.3000    -0.2930    -1.8160 C.3   1 <1>  -0.0590 
 19 C       -1.3140    -2.7300     0.0650 C.ar  1 <1>  -0.1500 
 20 C       -3.2080    -3.6190    -0.9920 C.ar  1 <1>  -0.1500 
 21 C       -0.9030    -4.0300     0.3030 C.ar  1 <1>   0.1600 
 22 C       -2.7060    -4.8790    -0.7050 C.ar  1 <1>   0.1600 
 23 N       -1.5700    -5.1120    -0.0670 N.ar  1 <1>  -0.6200 
 24 H        0.1210     1.8940     2.7860 H     1 <1>   0.0800 
 25 H       -1.1560     2.9010     2.1410 H     1 <1>   0.0800 
 26 H       -3.7140     2.5650     0.9600 H     1 <1>   0.0800 
 27 H       -2.5520     1.8290    -0.1290 H     1 <1>   0.0800 
 28 H       -2.8540    -1.3910     1.7710 H     1 <1>   0.0800 
 29 H       -4.3410    -0.6160     2.2610 H     1 <1>   0.0800 
 30 H       -4.5260     1.0830    -1.1890 H     1 <1>   0.0800 
 31 H       -4.9230    -1.2700     0.0410 H     1 <1>   0.0800 
 32 H       -5.5500     1.0000     1.4370 H     1 <1>   0.4000 
 33 H       -2.1460    -0.4250    -0.8680 H     1 <1>   0.0800 
 34 H       -3.3980    -1.0610    -1.8830 H     1 <1>   0.0800 
 35 H       -0.1360     4.5740     0.5420 H     1 <1>   0.4000 
 36 H       -0.5230     4.5260    -1.0720 H     1 <1>   0.4000 
 37 H        0.5440     2.4790    -2.3490 H     1 <1>   0.1500 
 38 H        1.5450     0.0940    -2.7880 H     1 <1>   0.0800 
 39 H        0.5980    -1.0990    -1.9240 H     1 <1>   0.0800 
 40 H        2.1930    -0.6700    -1.3520 H     1 <1>   0.0800 
 41 H       -0.7050    -1.9090     0.4060 H     1 <1>   0.1500 
 42 H       -4.1410    -3.5230    -1.5150 H     1 <1>   0.1500 
 43 H        0.0240    -4.1850     0.8290 H     1 <1>   0.1500 
 44 H       -3.2710    -5.7400    -1.0170 H     1 <1>   0.1500 
@<TRIPOS>BOND
  1   1   2  2   
  2   2   3  am  
  3   2   4  1   
  4   3   5  1   
  5   3   6  1   
  6   4   7  1   
  7   4  24  1   
  8   4  25  1   
  9   5   8  1   
 10   5  26  1   
 11   5  27  1   
 12   6   9  1   
 13   6  28  1   
 14   6  29  1   
 15   7  10  1   
 16   7  11  1   
 17   8   9  1   
 18   8  12  1   
 19   8  30  1   
 20   9  13  1   
 21   9  31  1   
 22  10  14  2   
 23  11  15  1   
 24  11  16  2   
 25  12  32  1   
 26  13  17  1   
 27  13  33  1   
 28  13  34  1   
 29  14  16  1   
 30  14  18  1   
 31  15  35  1   
 32  15  36  1   
 33  16  37  1   
 34  17  19  ar  
 35  17  20  ar  
 36  18  38  1   
 37  18  39  1   
 38  18  40  1   
 39  19  21  ar  
 40  19  41  1   
 41  20  22  ar  
 42  20  42  1   
 43  21  23  ar  
 44  21  43  1   
 45  22  23  ar  
 46  22  44  1   
@<TRIPOS>SUBSTRUCTURE
  1 ****  13 GROUP 4 **** **** 0

# MOE 2024.06 (io_trps.svl 2023.06)
