@<TRIPOS>MOLECULE
NONAME
47 49 1 0 0 
SMALL
USER_CHARGES


@<TRIPOS>ATOM
  1 O        0.8140    -0.0600    -1.7920 O.2   1 <1>  -0.5700 
  2 C        1.6840    -0.7860    -1.3520 C.2   1 <1>   0.5440 
  3 N        2.8900    -0.2270    -0.9790 N.am  1 <1>  -0.6600 
  4 C        1.4260    -2.2040    -1.2110 C.ar  1 <1>   0.0860 
  5 C        3.1850     1.2140    -1.2310 C.3   1 <1>   0.1400 
  6 C        3.8200    -0.8730    -0.0110 C.3   1 <1>   0.1400 
  7 C        0.3980    -2.6650    -0.3970 C.ar  1 <1>  -0.1500 
  8 C        2.1990    -3.1530    -1.8750 C.ar  1 <1>  -0.1500 
  9 C        3.0820     1.9970     0.0840 C.3   1 <1>   0.1200 
 10 C        3.7460    -0.1250     1.3250 C.3   1 <1>  -0.1600 
 11 C        0.1340    -4.0120    -0.2180 C.ar  1 <1>   0.1000 
 12 C        1.9560    -4.5070    -1.7240 C.ar  1 <1>  -0.1500 
 13 C        3.4230     3.4280    -0.1590 C.1   1 <1>   0.3570 
 14 C        4.0050     1.3830     1.1570 C.3   1 <1>  -0.1600 
 15 N       -0.9270    -4.3370     0.6370 N.pl3 1 <1>  -0.8380 
 16 C        0.9260    -4.9520    -0.9010 C.ar  1 <1>   0.0830 
 17 N        3.7010     4.5140    -0.3480 N.1   1 <1>  -0.5570 
 18 C       -2.2650    -4.5660     0.0170 C.3   1 <1>   0.2090 
 19 C       -0.6630    -5.1500     1.8650 C.3   1 <1>   0.2090 
 20 O        0.6520    -6.2780    -0.7430 O.3   1 <1>  -0.3630 
 21 C       -2.6610    -6.0520     0.0250 C.3   1 <1>   0.1200 
 22 C       -1.2380    -6.5800     1.7920 C.3   1 <1>   0.1200 
 23 C        1.2980    -7.2730    -1.5070 C.3   1 <1>   0.0400 
 24 O       -2.5540    -6.5910     1.3120 O.3   1 <1>  -0.5600 
 25 H        2.4990     1.6220    -1.9550 H     1 <1>   0.0800 
 26 H        4.1790     1.3020    -1.6360 H     1 <1>   0.0800 
 27 H        4.8210    -0.8320    -0.4040 H     1 <1>   0.0800 
 28 H        3.5650    -1.9070     0.1440 H     1 <1>   0.0800 
 29 H       -0.2200    -1.9500     0.1160 H     1 <1>   0.1500 
 30 H        2.9950    -2.8190    -2.5170 H     1 <1>   0.1500 
 31 H        2.0620     1.9550     0.4200 H     1 <1>   0.0800 
 32 H        4.4690    -0.5420     2.0050 H     1 <1>   0.0800 
 33 H        2.7710    -0.2800     1.7540 H     1 <1>   0.0800 
 34 H        2.5810    -5.1960    -2.2590 H     1 <1>   0.1500 
 35 H        3.8500     1.8830     2.0980 H     1 <1>   0.0800 
 36 H        5.0330     1.5320     0.8710 H     1 <1>   0.0800 
 37 H       -2.2580    -4.2060    -0.9970 H     1 <1>   0.0800 
 38 H       -3.0020    -4.0040     0.5620 H     1 <1>   0.0800 
 39 H       -1.1040    -4.6460     2.7060 H     1 <1>   0.0800 
 40 H        0.3970    -5.2050     2.0370 H     1 <1>   0.0800 
 41 H       -2.0260    -6.6110    -0.6410 H     1 <1>   0.0800 
 42 H       -3.6810    -6.1640    -0.2940 H     1 <1>   0.0800 
 43 H       -1.2440    -7.0210     2.7720 H     1 <1>   0.0800 
 44 H       -0.6370    -7.1970     1.1490 H     1 <1>   0.0800 
 45 H        0.8680    -8.2230    -1.2470 H     1 <1>   0.0800 
 46 H        2.3460    -7.2700    -1.2700 H     1 <1>   0.0800 
 47 H        1.1350    -7.0720    -2.5510 H     1 <1>   0.0800 
@<TRIPOS>BOND
  1   1   2  2   
  2   2   3  am  
  3   2   4  1   
  4   3   5  1   
  5   3   6  1   
  6   4   7  ar  
  7   4   8  ar  
  8   5   9  1   
  9   5  25  1   
 10   5  26  1   
 11   6  10  1   
 12   6  27  1   
 13   6  28  1   
 14   7  11  ar  
 15   7  29  1   
 16   8  12  ar  
 17   8  30  1   
 18   9  13  1   
 19   9  14  1   
 20   9  31  1   
 21  10  14  1   
 22  10  32  1   
 23  10  33  1   
 24  11  15  1   
 25  11  16  ar  
 26  12  16  ar  
 27  12  34  1   
 28  13  17  3   
 29  14  35  1   
 30  14  36  1   
 31  15  18  1   
 32  15  19  1   
 33  16  20  1   
 34  18  21  1   
 35  18  37  1   
 36  18  38  1   
 37  19  22  1   
 38  19  39  1   
 39  19  40  1   
 40  20  23  1   
 41  21  24  1   
 42  21  41  1   
 43  21  42  1   
 44  22  24  1   
 45  22  43  1   
 46  22  44  1   
 47  23  45  1   
 48  23  46  1   
 49  23  47  1   
@<TRIPOS>SUBSTRUCTURE
  1 ****   7 GROUP 4 **** **** 0

# MOE 2024.06 (io_trps.svl 2023.06)
