@<TRIPOS>MOLECULE
NONAME
50 51 1 0 0 
SMALL
USER_CHARGES


@<TRIPOS>ATOM
  1 S       -2.2560     0.0730     1.8550 S.3   1 <1>  -0.0800 
  2 C       -2.5650     0.5000     0.1870 C.2   1 <1>   0.1980 
  3 C       -0.5530     0.2520     1.5530 C.2   1 <1>  -0.1100 
  4 N       -1.5170     0.7410    -0.4940 N.2   1 <1>  -0.5650 
  5 C       -4.0150     0.5310    -0.2670 C.3   1 <1>   0.3200 
  6 C       -0.3590     0.6040     0.2700 C.2   1 <1>   0.0460 
  7 N       -4.5570    -0.8460    -0.3720 N.am  1 <1>  -0.7300 
  8 C        0.9950     0.8620    -0.4170 C.3   1 <1>   0.1810 
  9 C       -5.6910    -1.2720     0.2270 C.2   1 <1>   0.5690 
 10 C        1.1810    -0.1240    -1.5790 C.3   1 <1>  -0.2400 
 11 C        1.0360     2.2990    -0.9590 C.3   1 <1>  -0.2400 
 12 C        2.1660     0.6820     0.5640 C.3   1 <1>  -0.2400 
 13 O       -6.4060    -0.5310     0.8540 O.2   1 <1>  -0.5700 
 14 C       -6.0550    -2.7310     0.1240 C.3   1 <1>  -0.0990 
 15 C       -5.3780    -3.5040     1.2520 C.3   1 <1>   0.1400 
 16 N       -5.6010    -4.9560     1.0610 N.am  1 <1>  -0.7300 
 17 C       -4.8460    -5.7530     0.2450 C.2   1 <1>   0.5440 
 18 O       -3.9640    -5.2310    -0.4110 O.2   1 <1>  -0.5700 
 19 C       -5.0850    -7.1850     0.1700 C.ar  1 <1>   0.0860 
 20 C       -4.0530    -8.0660    -0.1490 C.ar  1 <1>  -0.1500 
 21 C       -6.3440    -7.7400     0.4110 C.ar  1 <1>  -0.1500 
 22 C       -4.2580    -9.4320    -0.2120 C.ar  1 <1>  -0.1500 
 23 C       -6.5550    -9.1060     0.3510 C.ar  1 <1>  -0.1500 
 24 C       -5.5110    -9.9620     0.0420 C.ar  1 <1>  -0.1440 
 25 C       -5.7390   -11.4610    -0.0260 C.3   1 <1>  -0.0970 
 26 H        0.1180     0.0720     2.3720 H     1 <1>   0.1500 
 27 H       -4.0690     1.0040    -1.2320 H     1 <1>   0.0800 
 28 H       -4.5950     1.1130     0.4280 H     1 <1>   0.0800 
 29 H       -3.9450    -1.5110    -0.8520 H     1 <1>   0.3700 
 30 H        0.4010     0.0070    -2.3080 H     1 <1>   0.0800 
 31 H        1.1350    -1.1360    -1.2170 H     1 <1>   0.0800 
 32 H        2.1290     0.0280    -2.0630 H     1 <1>   0.0800 
 33 H        0.2580     2.4450    -1.6870 H     1 <1>   0.0800 
 34 H        1.9820     2.5040    -1.4280 H     1 <1>   0.0800 
 35 H        0.8850     3.0010    -0.1600 H     1 <1>   0.0800 
 36 H        2.1800    -0.3210     0.9520 H     1 <1>   0.0800 
 37 H        2.0760     1.3700     1.3860 H     1 <1>   0.0800 
 38 H        3.1030     0.8660     0.0710 H     1 <1>   0.0800 
 39 H       -5.7300    -3.1070    -0.8290 H     1 <1>   0.0800 
 40 H       -7.1210    -2.8340     0.1950 H     1 <1>   0.0800 
 41 H       -5.7740    -3.1950     2.2050 H     1 <1>   0.0800 
 42 H       -4.3180    -3.3060     1.2450 H     1 <1>   0.0800 
 43 H       -6.2890    -5.3880     1.6790 H     1 <1>   0.3700 
 44 H       -3.0730    -7.6660    -0.3510 H     1 <1>   0.1500 
 45 H       -7.1740    -7.0980     0.6400 H     1 <1>   0.1500 
 46 H       -3.4370   -10.0820    -0.4610 H     1 <1>   0.1500 
 47 H       -7.5360    -9.5040     0.5420 H     1 <1>   0.1500 
 48 H       -4.8450   -11.9900     0.2520 H     1 <1>   0.0800 
 49 H       -6.0110   -11.7420    -1.0280 H     1 <1>   0.0800 
 50 H       -6.5280   -11.7540     0.6430 H     1 <1>   0.0800 
@<TRIPOS>BOND
  1   1   2  1   
  2   1   3  1   
  3   2   4  2   
  4   2   5  1   
  5   3   6  2   
  6   3  26  1   
  7   4   6  1   
  8   5   7  1   
  9   5  27  1   
 10   5  28  1   
 11   6   8  1   
 12   7   9  am  
 13   7  29  1   
 14   8  10  1   
 15   8  11  1   
 16   8  12  1   
 17   9  13  2   
 18   9  14  1   
 19  10  30  1   
 20  10  31  1   
 21  10  32  1   
 22  11  33  1   
 23  11  34  1   
 24  11  35  1   
 25  12  36  1   
 26  12  37  1   
 27  12  38  1   
 28  14  15  1   
 29  14  39  1   
 30  14  40  1   
 31  15  16  1   
 32  15  41  1   
 33  15  42  1   
 34  16  17  am  
 35  16  43  1   
 36  17  18  2   
 37  17  19  1   
 38  19  20  ar  
 39  19  21  ar  
 40  20  22  ar  
 41  20  44  1   
 42  21  23  ar  
 43  21  45  1   
 44  22  24  ar  
 45  22  46  1   
 46  23  24  ar  
 47  23  47  1   
 48  24  25  1   
 49  25  48  1   
 50  25  49  1   
 51  25  50  1   
@<TRIPOS>SUBSTRUCTURE
  1 ****  18 GROUP 4 **** **** 0

# MOE 2024.06 (io_trps.svl 2023.06)
