@<TRIPOS>MOLECULE
NONAME
59 61 1 0 0 
SMALL
USER_CHARGES


@<TRIPOS>ATOM
  1 F       -4.3740     1.9580    -1.4060 F     1 <1>  -0.1900 
  2 C       -3.1380     2.0730    -0.9990 C.ar  1 <1>   0.1900 
  3 C       -2.8500     1.9550     0.3600 C.ar  1 <1>   0.0860 
  4 C       -2.1720     2.3090    -1.9610 C.ar  1 <1>  -0.1500 
  5 C       -3.8690     1.7210     1.3570 C.2   1 <1>   0.5440 
  6 C       -1.5100     2.0650     0.7280 C.ar  1 <1>  -0.1500 
  7 C       -0.8520     2.4270    -1.5640 C.ar  1 <1>  -0.1500 
  8 O       -3.8330     0.6820     1.9890 O.2   1 <1>  -0.5700 
  9 N       -4.8480     2.6530     1.6460 N.am  1 <1>  -0.6600 
 10 C       -0.5300     2.3010    -0.2220 C.ar  1 <1>   0.0830 
 11 C       -5.9700     2.3560     2.5780 C.3   1 <1>   0.1400 
 12 C       -4.8530     4.0520     1.1390 C.3   1 <1>   0.1400 
 13 O        0.7540     2.4070     0.1480 O.3   1 <1>  -0.5320 
 14 C       -7.3020     2.6270     1.8730 C.3   1 <1>  -0.1600 
 15 C       -6.1770     4.3250     0.4190 C.3   1 <1>  -0.1600 
 16 C       -7.3980     4.0610     1.3270 C.3   1 <1>   0.2800 
 17 O       -7.3420     4.8990     2.4510 O.3   1 <1>  -0.5600 
 18 C       -8.7400     4.2610     0.5760 C.3   1 <1>  -0.1600 
 19 C       -7.4580     6.2860     2.2690 C.3   1 <1>   0.1200 
 20 C       -9.5620     5.4830     1.0240 C.3   1 <1>   0.3000 
 21 C       -8.5680     6.6480     1.2670 C.3   1 <1>   0.2000 
 22 N      -10.5040     5.9300    -0.0290 N.am  1 <1>  -0.7300 
 23 C      -10.4140     5.1620     2.2670 C.3   1 <1>  -0.2400 
 24 O       -9.2240     7.8080     1.6860 O.3   1 <1>  -0.6800 
 25 C      -11.4060     5.3160    -0.8410 C.2   1 <1>   0.5690 
 26 O      -12.1110     6.0100    -1.5310 O.2   1 <1>  -0.5700 
 27 C      -11.6260     3.8000    -0.8950 C.3   1 <1>   0.1810 
 28 O      -10.5720     3.1280    -1.5360 O.3   1 <1>  -0.5600 
 29 C      -10.7630     1.7610    -1.6700 C.3   1 <1>   0.1200 
 30 C       -9.4790     1.1780    -2.2450 C.3   1 <1>  -0.2400 
 31 H       -2.4480     2.3940    -2.9960 H     1 <1>   0.1500 
 32 H       -1.2520     1.9600     1.7670 H     1 <1>   0.1500 
 33 H       -0.0710     2.6100    -2.2820 H     1 <1>   0.1500 
 34 H       -5.9380     1.3290     2.9010 H     1 <1>   0.0800 
 35 H       -5.8790     2.9820     3.4500 H     1 <1>   0.0800 
 36 H       -4.7470     4.7230     1.9740 H     1 <1>   0.0800 
 37 H       -4.0320     4.2250     0.4670 H     1 <1>   0.0800 
 38 H        0.8970     2.2610     1.1010 H     1 <1>   0.4500 
 39 H       -8.1080     2.4490     2.5620 H     1 <1>   0.0800 
 40 H       -7.4030     1.9240     1.0650 H     1 <1>   0.0800 
 41 H       -6.2320     3.6750    -0.4360 H     1 <1>   0.0800 
 42 H       -6.1880     5.3300     0.0430 H     1 <1>   0.0800 
 43 H       -8.5290     4.3530    -0.4740 H     1 <1>   0.0800 
 44 H       -9.3380     3.3780     0.6880 H     1 <1>   0.0800 
 45 H       -7.6730     6.7070     3.2350 H     1 <1>   0.0800 
 46 H       -6.5110     6.6660     1.9310 H     1 <1>   0.0800 
 47 H       -8.0950     6.8880     0.3310 H     1 <1>   0.0800 
 48 H      -10.5240     6.9530    -0.0980 H     1 <1>   0.3700 
 49 H       -9.7920     4.9090     3.1070 H     1 <1>   0.0800 
 50 H      -11.0570     4.3240     2.0790 H     1 <1>   0.0800 
 51 H      -11.0240     6.0030     2.5400 H     1 <1>   0.0800 
 52 H       -9.7630     7.6200     2.4790 H     1 <1>   0.4000 
 53 H      -12.5300     3.6050    -1.4430 H     1 <1>   0.0800 
 54 H      -11.7280     3.4130     0.1000 H     1 <1>   0.0800 
 55 H      -10.9700     1.3370    -0.7010 H     1 <1>   0.0800 
 56 H      -11.5940     1.5910    -2.3350 H     1 <1>   0.0800 
 57 H       -8.6550     1.3680    -1.5800 H     1 <1>   0.0800 
 58 H       -9.2730     1.6180    -3.2040 H     1 <1>   0.0800 
 59 H       -9.5830     0.1160    -2.3690 H     1 <1>   0.0800 
@<TRIPOS>BOND
  1   1   2  1   
  2   2   3  ar  
  3   2   4  ar  
  4   3   5  1   
  5   3   6  ar  
  6   4   7  ar  
  7   4  31  1   
  8   5   8  2   
  9   5   9  am  
 10   6  10  ar  
 11   6  32  1   
 12   7  10  ar  
 13   7  33  1   
 14   9  11  1   
 15   9  12  1   
 16  10  13  1   
 17  11  14  1   
 18  11  34  1   
 19  11  35  1   
 20  12  15  1   
 21  12  36  1   
 22  12  37  1   
 23  13  38  1   
 24  14  16  1   
 25  14  39  1   
 26  14  40  1   
 27  15  16  1   
 28  15  41  1   
 29  15  42  1   
 30  16  17  1   
 31  16  18  1   
 32  17  19  1   
 33  18  20  1   
 34  18  43  1   
 35  18  44  1   
 36  19  21  1   
 37  19  45  1   
 38  19  46  1   
 39  20  21  1   
 40  20  22  1   
 41  20  23  1   
 42  21  24  1   
 43  21  47  1   
 44  22  25  am  
 45  22  48  1   
 46  23  49  1   
 47  23  50  1   
 48  23  51  1   
 49  24  52  1   
 50  25  26  2   
 51  25  27  1   
 52  27  28  1   
 53  27  53  1   
 54  27  54  1   
 55  28  29  1   
 56  29  30  1   
 57  29  55  1   
 58  29  56  1   
 59  30  57  1   
 60  30  58  1   
 61  30  59  1   
@<TRIPOS>SUBSTRUCTURE
  1 ****  15 GROUP 4 **** **** 0

# MOE 2024.06 (io_trps.svl 2023.06)
