@<TRIPOS>MOLECULE
NONAME
56 58 1 0 0 
SMALL
USER_CHARGES


@<TRIPOS>ATOM
  1 O       -2.3160     0.5220     2.4950 O.2   1 <1>  -0.5700 
  2 C       -2.3800     0.9080     1.3520 C.2   1 <1>   0.5690 
  3 N       -2.3890     0.0360     0.2950 N.am  1 <1>  -0.6600 
  4 C       -2.4440     2.4140     1.1300 C.3   1 <1>   0.0440 
  5 C       -2.1950    -1.4370     0.5260 C.3   1 <1>   0.3640 
  6 C       -2.5570     0.4610    -1.1330 C.3   1 <1>   0.1400 
  7 C       -1.2140     2.9530     0.4050 C.ar  1 <1>  -0.1440 
  8 C       -0.7220    -1.8530     0.3590 C.ar  1 <1>  -0.1440 
  9 C       -3.1270    -2.2980    -0.3870 C.3   1 <1>   0.2000 
 10 C       -2.6450    -0.7310    -2.0960 C.3   1 <1>   0.1200 
 11 C        0.0570     2.6160     0.8470 C.ar  1 <1>  -0.1500 
 12 C       -1.3500     3.7770    -0.7030 C.ar  1 <1>  -0.1500 
 13 C       -0.3620    -3.1340     0.7520 C.ar  1 <1>  -0.1500 
 14 C        0.2720    -1.0240    -0.1480 C.ar  1 <1>  -0.1500 
 15 O       -3.5370    -1.6690    -1.5820 O.3   1 <1>  -0.5600 
 16 C       -4.4070    -2.7090     0.3500 C.3   1 <1>   0.1200 
 17 C        1.1800     3.0820     0.1880 C.ar  1 <1>  -0.1500 
 18 C       -0.2280     4.2430    -1.3660 C.ar  1 <1>  -0.1500 
 19 C        0.9350    -3.6020     0.6280 C.ar  1 <1>   0.0830 
 20 C        1.5740    -1.4750    -0.2870 C.ar  1 <1>  -0.1500 
 21 O       -4.1150    -3.6420     1.3420 O.3   1 <1>  -0.6800 
 22 C        1.0410     3.9000    -0.9290 C.ar  1 <1>   0.0830 
 23 O        1.1350    -4.8790     1.0550 O.3   1 <1>  -0.3620 
 24 C        1.9240    -2.7700     0.0830 C.ar  1 <1>   0.0830 
 25 O        2.0860     4.3980    -1.6350 O.3   1 <1>  -0.3630 
 26 C        2.3110    -5.2140     1.7590 C.3   1 <1>   0.0400 
 27 O        3.1930    -3.2440    -0.0880 O.3   1 <1>  -0.3630 
 28 C        3.4150     4.2140    -1.2020 C.3   1 <1>   0.0400 
 29 C        4.1600    -2.5330    -0.8290 C.3   1 <1>   0.0400 
 30 H       -3.3390     2.6450     0.5870 H     1 <1>   0.0800 
 31 H       -2.5150     2.8990     2.0870 H     1 <1>   0.0800 
 32 H       -2.4470    -1.6630     1.5490 H     1 <1>   0.0800 
 33 H       -3.4590     1.0400    -1.2240 H     1 <1>   0.0800 
 34 H       -1.7300     1.0820    -1.4290 H     1 <1>   0.0800 
 35 H       -2.6120    -3.1930    -0.6830 H     1 <1>   0.0800 
 36 H       -1.6850    -1.1980    -2.2350 H     1 <1>   0.0800 
 37 H       -3.0140    -0.4100    -3.0540 H     1 <1>   0.0800 
 38 H        0.1760     1.9820     1.7120 H     1 <1>   0.1500 
 39 H       -2.3250     4.0610    -1.0580 H     1 <1>   0.1500 
 40 H       -1.0960    -3.7970     1.1750 H     1 <1>   0.1500 
 41 H        0.0560    -0.0130    -0.4380 H     1 <1>   0.1500 
 42 H       -5.1110    -3.1560    -0.3300 H     1 <1>   0.0800 
 43 H       -4.8550    -1.8510     0.8220 H     1 <1>   0.0800 
 44 H        2.1470     2.7990     0.5570 H     1 <1>   0.1500 
 45 H       -0.3280     4.8810    -2.2250 H     1 <1>   0.1500 
 46 H        2.2980    -0.7930    -0.6870 H     1 <1>   0.1500 
 47 H       -3.9440    -4.5230     0.9520 H     1 <1>   0.4000 
 48 H        2.1120    -6.0900     2.3470 H     1 <1>   0.0800 
 49 H        2.5850    -4.3930     2.3980 H     1 <1>   0.0800 
 50 H        3.0930    -5.4230     1.0510 H     1 <1>   0.0800 
 51 H        4.0640     4.7310    -1.8860 H     1 <1>   0.0800 
 52 H        3.6420     3.1630    -1.2070 H     1 <1>   0.0800 
 53 H        3.5210     4.6280    -0.2150 H     1 <1>   0.0800 
 54 H        5.0400    -3.1460    -0.9040 H     1 <1>   0.0800 
 55 H        4.3960    -1.6200    -0.3120 H     1 <1>   0.0800 
 56 H        3.7700    -2.3330    -1.8110 H     1 <1>   0.0800 
@<TRIPOS>BOND
  1   1   2  2   
  2   2   3  am  
  3   2   4  1   
  4   3   5  1   
  5   3   6  1   
  6   4   7  1   
  7   4  30  1   
  8   4  31  1   
  9   5   8  1   
 10   5   9  1   
 11   5  32  1   
 12   6  10  1   
 13   6  33  1   
 14   6  34  1   
 15   7  11  ar  
 16   7  12  ar  
 17   8  13  ar  
 18   8  14  ar  
 19   9  15  1   
 20   9  16  1   
 21   9  35  1   
 22  10  15  1   
 23  10  36  1   
 24  10  37  1   
 25  11  17  ar  
 26  11  38  1   
 27  12  18  ar  
 28  12  39  1   
 29  13  19  ar  
 30  13  40  1   
 31  14  20  ar  
 32  14  41  1   
 33  16  21  1   
 34  16  42  1   
 35  16  43  1   
 36  17  22  ar  
 37  17  44  1   
 38  18  22  ar  
 39  18  45  1   
 40  19  23  1   
 41  19  24  ar  
 42  20  24  ar  
 43  20  46  1   
 44  21  47  1   
 45  22  25  1   
 46  23  26  1   
 47  24  27  1   
 48  25  28  1   
 49  26  48  1   
 50  26  49  1   
 51  26  50  1   
 52  27  29  1   
 53  28  51  1   
 54  28  52  1   
 55  28  53  1   
 56  29  54  1   
 57  29  55  1   
 58  29  56  1   
@<TRIPOS>SUBSTRUCTURE
  1 ****  14 GROUP 4 **** **** 0

# MOE 2024.06 (io_trps.svl 2023.06)
