@<TRIPOS>MOLECULE
NONAME
54 57 1 0 0 
SMALL
USER_CHARGES


@<TRIPOS>ATOM
  1 CL       3.2290    -1.2460     2.5890 Cl    1 <1>  -0.1770 
  2 C        1.8020    -1.9370     1.8600 C.ar  1 <1>   0.1770 
  3 C        1.9370    -2.9470     0.9340 C.ar  1 <1>  -0.1500 
  4 C        0.5590    -1.4630     2.2260 C.ar  1 <1>  -0.1500 
  5 C        0.8190    -3.5310     0.3360 C.ar  1 <1>   0.0860 
  6 C       -0.5620    -2.0230     1.6430 C.ar  1 <1>  -0.1500 
  7 C        1.0710    -4.5860    -0.6190 C.2   1 <1>   0.5440 
  8 C       -0.4550    -3.0470     0.7100 C.ar  1 <1>   0.0830 
  9 O        1.1670    -4.3110    -1.7990 O.2   1 <1>  -0.5700 
 10 N        1.2190    -5.8980    -0.2220 N.am  1 <1>  -0.6600 
 11 O       -1.6550    -3.4860     0.2460 O.3   1 <1>  -0.3630 
 12 C        1.1560    -6.3240     1.2080 C.3   1 <1>   0.1400 
 13 C        1.6260    -6.9640    -1.1880 C.3   1 <1>   0.1400 
 14 C       -1.8330    -4.5850    -0.6190 C.3   1 <1>   0.1200 
 15 C        1.0070    -7.8520     1.3740 C.3   1 <1>   0.2000 
 16 C        2.5330    -8.0070    -0.5090 C.3   1 <1>   0.1200 
 17 C       -3.3270    -4.8410    -0.7990 C.3   1 <1>   0.0960 
 18 O        1.9840    -8.5730     0.6580 O.3   1 <1>  -0.5600 
 19 C       -0.3890    -8.3830     0.9970 C.3   1 <1>   0.1400 
 20 N       -3.5280    -6.2560    -1.1510 N.pl3 1 <1>   0.3140 
 21 N       -0.4600    -9.8430     1.2660 N.am  1 <1>  -0.7300 
 22 N       -2.8290    -6.8680    -2.1110 N.2   1 <1>  -0.4180 
 23 C       -4.2870    -7.1520    -0.5170 C.2   1 <1>  -0.3020 
 24 C       -1.5320   -10.6610     1.3850 C.2   1 <1>   0.5690 
 25 N       -3.1300    -8.1170    -2.1020 N.2   1 <1>  -0.2270 
 26 C       -4.0200    -8.3170    -1.1250 C.2   1 <1>   0.0460 
 27 O       -1.3790   -11.8160     1.6880 O.2   1 <1>  -0.5700 
 28 C       -2.9390   -10.1570     1.1210 C.3   1 <1>  -0.0990 
 29 C       -4.5570    -9.7030    -0.8140 C.3   1 <1>   0.0210 
 30 C       -3.4380   -10.6030    -0.2670 C.3   1 <1>  -0.1600 
 31 H        2.9220    -3.2840     0.6640 H     1 <1>   0.1500 
 32 H        0.4750    -0.6710     2.9490 H     1 <1>   0.1500 
 33 H       -1.5390    -1.6630     1.9130 H     1 <1>   0.1500 
 34 H        0.3340    -5.8330     1.6990 H     1 <1>   0.0800 
 35 H        2.0630    -6.0160     1.7000 H     1 <1>   0.0800 
 36 H        2.1620    -6.5260    -2.0130 H     1 <1>   0.0800 
 37 H        0.7510    -7.4430    -1.5920 H     1 <1>   0.0800 
 38 H       -1.3710    -5.4410    -0.1620 H     1 <1>   0.0800 
 39 H       -1.3770    -4.3640    -1.5680 H     1 <1>   0.0800 
 40 H        1.1630    -8.0810     2.4140 H     1 <1>   0.0800 
 41 H        3.4650    -7.5450    -0.2380 H     1 <1>   0.0800 
 42 H        2.7430    -8.8120    -1.1910 H     1 <1>   0.0800 
 43 H       -3.7200    -4.2270    -1.5880 H     1 <1>   0.0800 
 44 H       -3.8510    -4.6410     0.1170 H     1 <1>   0.0800 
 45 H       -0.6000    -8.1970    -0.0420 H     1 <1>   0.0800 
 46 H       -1.1300    -7.8740     1.5870 H     1 <1>   0.0800 
 47 H        0.4580   -10.2980     1.3070 H     1 <1>   0.3700 
 48 H       -4.9390    -6.9200     0.3040 H     1 <1>   0.1500 
 49 H       -2.9580    -9.0890     1.2050 H     1 <1>   0.0800 
 50 H       -3.5920   -10.5490     1.8790 H     1 <1>   0.0800 
 51 H       -4.9490   -10.1290    -1.7200 H     1 <1>   0.0800 
 52 H       -5.3590    -9.6350    -0.1010 H     1 <1>   0.0800 
 53 H       -3.7850   -11.6210    -0.2040 H     1 <1>   0.0800 
 54 H       -2.6170   -10.5890    -0.9640 H     1 <1>   0.0800 
@<TRIPOS>BOND
  1   1   2  1   
  2   2   3  ar  
  3   2   4  ar  
  4   3   5  ar  
  5   3  31  1   
  6   4   6  ar  
  7   4  32  1   
  8   5   7  1   
  9   5   8  ar  
 10   6   8  ar  
 11   6  33  1   
 12   7   9  2   
 13   7  10  am  
 14   8  11  1   
 15  10  12  1   
 16  10  13  1   
 17  11  14  1   
 18  12  15  1   
 19  12  34  1   
 20  12  35  1   
 21  13  16  1   
 22  13  36  1   
 23  13  37  1   
 24  14  17  1   
 25  14  38  1   
 26  14  39  1   
 27  15  18  1   
 28  15  19  1   
 29  15  40  1   
 30  16  18  1   
 31  16  41  1   
 32  16  42  1   
 33  17  20  1   
 34  17  43  1   
 35  17  44  1   
 36  19  21  1   
 37  19  45  1   
 38  19  46  1   
 39  20  22  1   
 40  20  23  1   
 41  21  24  am  
 42  21  47  1   
 43  22  25  2   
 44  23  26  2   
 45  23  48  1   
 46  24  27  2   
 47  24  28  1   
 48  25  26  1   
 49  26  29  1   
 50  28  30  1   
 51  28  49  1   
 52  28  50  1   
 53  29  30  1   
 54  29  51  1   
 55  29  52  1   
 56  30  53  1   
 57  30  54  1   
@<TRIPOS>SUBSTRUCTURE
  1 ****  10 GROUP 4 **** **** 0

# MOE 2024.06 (io_trps.svl 2023.06)
