@<TRIPOS>MOLECULE
NONAME
54 57 1 0 0 
SMALL
USER_CHARGES


@<TRIPOS>ATOM
  1 O        0.1020    -0.5590     0.0940 O.3   1 <1>  -0.2800 
  2 C        0.9300    -1.4710    -0.3820 C.2   1 <1>  -0.0400 
  3 C        0.3090     0.5570    -0.5760 C.2   1 <1>  -0.0100 
  4 C        1.6820    -0.9510    -1.3770 C.2   1 <1>  -0.1500 
  5 C        0.9100    -2.8690     0.2080 C.3   1 <1>   0.5230 
  6 C        1.2730     0.3820    -1.5030 C.2   1 <1>  -0.1500 
  7 N       -0.4790    -3.4150     0.0880 N.4   1 <1>  -0.9590 
  8 C       -1.3160    -2.9670     1.2410 C.3   1 <1>   0.3430 
  9 C       -0.4770    -4.8900    -0.1120 C.3   1 <1>   0.3430 
 10 C       -2.7530    -3.4510     1.0540 C.3   1 <1>  -0.1600 
 11 C       -1.9100    -5.3920    -0.3080 C.3   1 <1>  -0.1600 
 12 C       -2.7960    -4.9690     0.8700 C.3   1 <1>   0.4230 
 13 N       -4.2070    -5.4130     0.7070 N.4   1 <1>  -0.9590 
 14 C       -4.9790    -4.9990    -0.5010 C.3   1 <1>   0.3430 
 15 C       -4.4650    -6.8810     0.8400 C.3   1 <1>   0.3430 
 16 C       -6.2870    -5.7700    -0.3330 C.3   1 <1>   0.2000 
 17 C       -5.8240    -7.1420     0.1650 C.3   1 <1>  -0.0800 
 18 O       -6.9830    -5.1580     0.7040 O.3   1 <1>  -0.6800 
 19 C       -5.7020    -8.1610    -0.9840 C.3   1 <1>  -0.0170 
 20 C       -4.9860    -9.4240    -0.5280 C.ar  1 <1>  -0.1440 
 21 C       -3.8070    -9.8450    -1.1110 C.ar  1 <1>  -0.1500 
 22 C       -5.4790   -10.2170     0.4900 C.ar  1 <1>  -0.1500 
 23 C       -3.1840   -10.9920    -0.6450 C.ar  1 <1>   0.1600 
 24 C       -4.7760   -11.3440     0.8830 C.ar  1 <1>   0.1600 
 25 N       -3.6350   -11.7390     0.3470 N.ar  1 <1>  -0.6200 
 26 H       -0.2690     1.4340    -0.3320 H     1 <1>   0.1500 
 27 H        2.4490    -1.4110    -1.9780 H     1 <1>   0.1500 
 28 H        1.2210    -2.8370     1.2400 H     1 <1>   0.0800 
 29 H        1.6040    -3.4820    -0.3420 H     1 <1>   0.0800 
 30 H        1.6710     1.0980    -2.2040 H     1 <1>   0.1500 
 31 H       -0.8410    -2.9440    -0.7560 H     1 <1>   0.4500 
 32 H       -0.9130    -3.3610     2.1610 H     1 <1>   0.0800 
 33 H       -1.3090    -1.8900     1.3120 H     1 <1>   0.0800 
 34 H        0.1150    -5.1430    -0.9790 H     1 <1>   0.0800 
 35 H       -0.0360    -5.3740     0.7460 H     1 <1>   0.0800 
 36 H       -3.1780    -2.9440     0.2070 H     1 <1>   0.0800 
 37 H       -3.3170    -3.1760     1.9280 H     1 <1>   0.0800 
 38 H       -1.8820    -6.4640    -0.3800 H     1 <1>   0.0800 
 39 H       -2.2860    -4.9990    -1.2350 H     1 <1>   0.0800 
 40 H       -2.4030    -5.4220     1.7680 H     1 <1>   0.0800 
 41 H       -4.7700    -4.9970     1.4710 H     1 <1>   0.4500 
 42 H       -5.1600    -3.9370    -0.5310 H     1 <1>   0.0800 
 43 H       -4.4790    -5.3170    -1.4010 H     1 <1>   0.0800 
 44 H       -3.6960    -7.4480     0.3420 H     1 <1>   0.0800 
 45 H       -4.4950    -7.1720     1.8780 H     1 <1>   0.0800 
 46 H       -6.9010    -5.7840    -1.2190 H     1 <1>   0.0800 
 47 H       -6.5170    -7.5360     0.8900 H     1 <1>   0.0800 
 48 H       -7.9150    -5.4670     0.7410 H     1 <1>   0.4000 
 49 H       -5.1690    -7.7300    -1.8130 H     1 <1>   0.0800 
 50 H       -6.6840    -8.4280    -1.3380 H     1 <1>   0.0800 
 51 H       -3.3640    -9.3090    -1.9300 H     1 <1>   0.1500 
 52 H       -6.4050    -9.9840     0.9830 H     1 <1>   0.1500 
 53 H       -2.2680   -11.3140    -1.1120 H     1 <1>   0.1500 
 54 H       -5.1730   -11.9530     1.6780 H     1 <1>   0.1500 
@<TRIPOS>BOND
  1   1   2  1   
  2   1   3  1   
  3   2   4  2   
  4   2   5  1   
  5   3   6  2   
  6   3  26  1   
  7   4   6  1   
  8   4  27  1   
  9   5   7  1   
 10   5  28  1   
 11   5  29  1   
 12   6  30  1   
 13   7   8  1   
 14   7   9  1   
 15   7  31  1   
 16   8  10  1   
 17   8  32  1   
 18   8  33  1   
 19   9  11  1   
 20   9  34  1   
 21   9  35  1   
 22  10  12  1   
 23  10  36  1   
 24  10  37  1   
 25  11  12  1   
 26  11  38  1   
 27  11  39  1   
 28  12  13  1   
 29  12  40  1   
 30  13  14  1   
 31  13  15  1   
 32  13  41  1   
 33  14  16  1   
 34  14  42  1   
 35  14  43  1   
 36  15  17  1   
 37  15  44  1   
 38  15  45  1   
 39  16  17  1   
 40  16  18  1   
 41  16  46  1   
 42  17  19  1   
 43  17  47  1   
 44  18  48  1   
 45  19  20  1   
 46  19  49  1   
 47  19  50  1   
 48  20  21  ar  
 49  20  22  ar  
 50  21  23  ar  
 51  21  51  1   
 52  22  24  ar  
 53  22  52  1   
 54  23  25  ar  
 55  23  53  1   
 56  24  25  ar  
 57  24  54  1   
@<TRIPOS>SUBSTRUCTURE
  1 ****  11 GROUP 4 **** **** 0

# MOE 2024.06 (io_trps.svl 2023.06)
