@<TRIPOS>MOLECULE
NONAME
47 49 1 0 0 
SMALL
USER_CHARGES


@<TRIPOS>ATOM
  1 O       -0.8890     0.4630    -1.9390 O.co2 1 <1>  -0.9000 
  2 C       -1.3830     0.7810    -0.8500 C.2   1 <1>   0.9060 
  3 O       -2.1480     0.0120    -0.2460 O.co2 1 <1>  -0.9000 
  4 C       -1.0520     2.1330    -0.2110 C.3   1 <1>  -0.1060 
  5 C       -2.3830     2.7740     0.2300 C.3   1 <1>   0.2000 
  6 C       -0.4640     3.0650    -1.2990 C.3   1 <1>   0.1100 
  7 C       -0.0970     1.8660     0.9970 C.3   1 <1>  -0.0170 
  8 O       -2.9390     2.0340     1.2570 O.3   1 <1>  -0.6800 
  9 C       -2.2720     4.2410     0.6750 C.3   1 <1>  -0.1600 
 10 N       -0.4480     4.5230    -0.9830 N.3   1 <1>  -0.8100 
 11 C        1.3990     1.8740     0.6800 C.ar  1 <1>  -0.1440 
 12 C       -0.9160     4.8830     0.3630 C.3   1 <1>   0.1100 
 13 C        0.8920     5.0860    -1.2740 C.3   1 <1>   0.2900 
 14 C        2.2310     2.8290     1.2460 C.ar  1 <1>  -0.1500 
 15 C        1.9440     0.9240    -0.1700 C.ar  1 <1>  -0.1500 
 16 C        0.9760     6.6030    -1.1330 C.2   1 <1>   0.2980 
 17 C        3.5840     2.8430     0.9560 C.ar  1 <1>  -0.1500 
 18 C        3.2970     0.9360    -0.4610 C.ar  1 <1>  -0.1500 
 19 O        0.2620     7.3490    -1.9400 O.3   1 <1>  -0.0190 
 20 N        1.6940     7.2400    -0.2910 N.2   1 <1>  -0.5650 
 21 C        4.1190     1.8960     0.1010 C.ar  1 <1>  -0.1500 
 22 N        0.5490     8.5650    -1.5810 N.2   1 <1>  -0.4100 
 23 C        1.3820     8.4840    -0.6220 C.2   1 <1>   0.3350 
 24 C        1.9850     9.6720     0.1060 C.3   1 <1>   0.0210 
 25 C        3.4710     9.8600    -0.2310 C.3   1 <1>  -0.2400 
 26 H       -3.0700     2.7210    -0.5990 H     1 <1>   0.0800 
 27 H       -1.0680     2.9530    -2.1840 H     1 <1>   0.0800 
 28 H        0.5160     2.7160    -1.5740 H     1 <1>   0.0800 
 29 H       -0.2880     2.5740     1.7790 H     1 <1>   0.0800 
 30 H       -0.3380     0.9080     1.4260 H     1 <1>   0.0800 
 31 H       -2.8730     1.0830     0.9500 H     1 <1>   0.4000 
 32 H       -3.0320     4.8040     0.1650 H     1 <1>   0.0800 
 33 H       -2.4550     4.3280     1.7300 H     1 <1>   0.0800 
 34 H       -0.1850     4.5850     1.0910 H     1 <1>   0.0800 
 35 H       -1.0220     5.9520     0.4340 H     1 <1>   0.0800 
 36 H        1.6160     4.6390    -0.6170 H     1 <1>   0.0800 
 37 H        1.1640     4.8330    -2.2830 H     1 <1>   0.0800 
 38 H        1.8270     3.5680     1.9140 H     1 <1>   0.1500 
 39 H        1.3100     0.1730    -0.6160 H     1 <1>   0.1500 
 40 H        4.2190     3.5910     1.3970 H     1 <1>   0.1500 
 41 H        3.7000     0.1940    -1.1280 H     1 <1>   0.1500 
 42 H        5.1700     1.9050    -0.1270 H     1 <1>   0.1500 
 43 H        1.4420    10.5590    -0.1660 H     1 <1>   0.0800 
 44 H        1.8690     9.5210     1.1640 H     1 <1>   0.0800 
 45 H        3.5920    10.0140    -1.2890 H     1 <1>   0.0800 
 46 H        4.0280     8.9850     0.0560 H     1 <1>   0.0800 
 47 H        3.8660    10.7110     0.2930 H     1 <1>   0.0800 
@<TRIPOS>BOND
  1   1   2  ar  
  2   2   3  ar  
  3   2   4  1   
  4   4   5  1   
  5   4   6  1   
  6   4   7  1   
  7   5   8  1   
  8   5   9  1   
  9   5  26  1   
 10   6  10  1   
 11   6  27  1   
 12   6  28  1   
 13   7  11  1   
 14   7  29  1   
 15   7  30  1   
 16   8  31  1   
 17   9  12  1   
 18   9  32  1   
 19   9  33  1   
 20  10  12  1   
 21  10  13  1   
 22  11  14  ar  
 23  11  15  ar  
 24  12  34  1   
 25  12  35  1   
 26  13  16  1   
 27  13  36  1   
 28  13  37  1   
 29  14  17  ar  
 30  14  38  1   
 31  15  18  ar  
 32  15  39  1   
 33  16  19  1   
 34  16  20  2   
 35  17  21  ar  
 36  17  40  1   
 37  18  21  ar  
 38  18  41  1   
 39  19  22  1   
 40  20  23  1   
 41  21  42  1   
 42  22  23  2   
 43  23  24  1   
 44  24  25  1   
 45  24  43  1   
 46  24  44  1   
 47  25  45  1   
 48  25  46  1   
 49  25  47  1   
@<TRIPOS>SUBSTRUCTURE
  1 ****  10 GROUP 4 **** **** 0

# MOE 2024.06 (io_trps.svl 2023.06)
