@<TRIPOS>MOLECULE
NONAME
61 65 1 0 0 
SMALL
USER_CHARGES


@<TRIPOS>ATOM
  1 O       -1.4870    -0.1730    -0.7160 O.2   1 <1>  -0.5700 
  2 C       -0.9790    -1.2740    -0.7920 C.2   1 <1>   0.5440 
  3 N        0.3800    -1.3710    -0.9060 N.am  1 <1>  -0.7300 
  4 C       -1.8050    -2.4670    -0.7480 C.ar  1 <1>   0.0860 
  5 C        1.3150    -0.2420    -0.9740 C.3   1 <1>   0.2200 
  6 C       -3.0440    -2.4740    -0.1370 C.ar  1 <1>  -0.1500 
  7 C       -1.4300    -3.6810    -1.3110 C.ar  1 <1>  -0.1500 
  8 C        2.1630    -0.4030    -2.2310 C.3   1 <1>  -0.2400 
  9 C        2.1780    -0.2630     0.2830 C.3   1 <1>  -0.2400 
 10 C       -3.8280    -3.6180    -0.1010 C.ar  1 <1>   0.4100 
 11 C       -2.2680    -4.7740    -1.2230 C.ar  1 <1>   0.1600 
 12 N       -3.4480    -4.7730    -0.6310 N.ar  1 <1>  -0.6200 
 13 N       -5.0690    -3.5710     0.5030 N.pl3 1 <1>  -0.8380 
 14 C       -6.0980    -2.6690    -0.0980 C.3   1 <1>   0.2090 
 15 C       -5.6470    -4.8120     1.0870 C.3   1 <1>   0.2090 
 16 C       -7.1290    -2.2360     0.9610 C.3   1 <1>   0.1430 
 17 C       -6.6850    -4.4440     2.1560 C.3   1 <1>  -0.1600 
 18 C       -8.1560    -1.3410     0.2930 C.ar  1 <1>   0.1670 
 19 C       -7.7620    -3.4870     1.6100 C.3   1 <1>  -0.1600 
 20 C       -6.4970    -1.2870     2.0160 C.3   1 <1>  -0.1600 
 21 N       -9.0940    -1.7420    -0.5300 N.ar  1 <1>  -0.6200 
 22 C       -7.9820    -0.0360     0.6350 C.ar  1 <1>  -0.1430 
 23 C       -6.8170     0.1510     1.5750 C.3   1 <1>  -0.0170 
 24 C       -9.8980    -0.7860    -1.0140 C.ar  1 <1>   0.6200 
 25 C       -8.8440     0.8850     0.0980 C.ar  1 <1>   0.1600 
 26 N       -9.8040     0.5200    -0.7220 N.ar  1 <1>  -0.6200 
 27 C      -10.9540    -1.1970    -1.9290 C.ar  1 <1>   0.0000 
 28 C      -10.8270    -2.3340    -2.7330 C.ar  1 <1>  -0.1500 
 29 C      -12.1460    -0.4750    -2.0470 C.ar  1 <1>  -0.1500 
 30 C      -11.8270    -2.7290    -3.6030 C.ar  1 <1>  -0.1500 
 31 C      -13.1510    -0.8630    -2.9150 C.ar  1 <1>  -0.1500 
 32 C      -12.9940    -1.9920    -3.6960 C.ar  1 <1>  -0.1500 
 33 H        0.8240    -2.2840    -0.8400 H     1 <1>   0.3700 
 34 H        0.7710     0.6880    -1.0230 H     1 <1>   0.0800 
 35 H       -3.4120    -1.5790     0.3270 H     1 <1>   0.1500 
 36 H       -0.4920    -3.7740    -1.8250 H     1 <1>   0.1500 
 37 H        2.7200    -1.3210    -2.2040 H     1 <1>   0.0800 
 38 H        2.8540     0.4170    -2.3100 H     1 <1>   0.0800 
 39 H        1.5300    -0.3920    -3.1000 H     1 <1>   0.0800 
 40 H        2.7350    -1.1790     0.3540 H     1 <1>   0.0800 
 41 H        1.5550    -0.1550     1.1530 H     1 <1>   0.0800 
 42 H        2.8700     0.5600     0.2630 H     1 <1>   0.0800 
 43 H       -1.9550    -5.7050    -1.6650 H     1 <1>   0.1500 
 44 H       -6.6030    -3.1960    -0.8900 H     1 <1>   0.0800 
 45 H       -5.6310    -1.8010    -0.5280 H     1 <1>   0.0800 
 46 H       -4.8620    -5.4040     1.5290 H     1 <1>   0.0800 
 47 H       -6.1060    -5.3900     0.3040 H     1 <1>   0.0800 
 48 H       -6.1740    -3.9890     2.9860 H     1 <1>   0.0800 
 49 H       -7.1510    -5.3440     2.5150 H     1 <1>   0.0800 
 50 H       -8.3380    -4.0090     0.8650 H     1 <1>   0.0800 
 51 H       -8.4380    -3.1980     2.3950 H     1 <1>   0.0800 
 52 H       -5.4380    -1.4440     2.1260 H     1 <1>   0.0800 
 53 H       -6.9610    -1.4550     2.9710 H     1 <1>   0.0800 
 54 H       -5.9850     0.5780     1.0410 H     1 <1>   0.0800 
 55 H       -7.0740     0.7740     2.4140 H     1 <1>   0.0800 
 56 H       -8.7470     1.9290     0.3410 H     1 <1>   0.1500 
 57 H       -9.9260    -2.9200    -2.6760 H     1 <1>   0.1500 
 58 H      -12.2870     0.4070    -1.4470 H     1 <1>   0.1500 
 59 H      -11.6980    -3.6090    -4.2080 H     1 <1>   0.1500 
 60 H      -14.0560    -0.2840    -2.9820 H     1 <1>   0.1500 
 61 H      -13.7740    -2.2960    -4.3720 H     1 <1>   0.1500 
@<TRIPOS>BOND
  1   1   2  2   
  2   2   3  am  
  3   2   4  1   
  4   3   5  1   
  5   3  33  1   
  6   4   6  ar  
  7   4   7  ar  
  8   5   8  1   
  9   5   9  1   
 10   5  34  1   
 11   6  10  ar  
 12   6  35  1   
 13   7  11  ar  
 14   7  36  1   
 15   8  37  1   
 16   8  38  1   
 17   8  39  1   
 18   9  40  1   
 19   9  41  1   
 20   9  42  1   
 21  10  12  ar  
 22  10  13  1   
 23  11  12  ar  
 24  11  43  1   
 25  13  14  1   
 26  13  15  1   
 27  14  16  1   
 28  14  44  1   
 29  14  45  1   
 30  15  17  1   
 31  15  46  1   
 32  15  47  1   
 33  16  18  1   
 34  16  19  1   
 35  16  20  1   
 36  17  19  1   
 37  17  48  1   
 38  17  49  1   
 39  18  21  ar  
 40  18  22  ar  
 41  19  50  1   
 42  19  51  1   
 43  20  23  1   
 44  20  52  1   
 45  20  53  1   
 46  21  24  ar  
 47  22  23  1   
 48  22  25  ar  
 49  23  54  1   
 50  23  55  1   
 51  24  26  ar  
 52  24  27  1   
 53  25  26  ar  
 54  25  56  1   
 55  27  28  ar  
 56  27  29  ar  
 57  28  30  ar  
 58  28  57  1   
 59  29  31  ar  
 60  29  58  1   
 61  30  32  ar  
 62  30  59  1   
 63  31  32  ar  
 64  31  60  1   
 65  32  61  1   
@<TRIPOS>SUBSTRUCTURE
  1 ****  14 GROUP 4 **** **** 0

# MOE 2024.06 (io_trps.svl 2023.06)
