@<TRIPOS>MOLECULE
NONAME
54 56 1 0 0 
SMALL
USER_CHARGES


@<TRIPOS>ATOM
  1 O       -0.3380     0.1660    -1.3510 O.2   1 <1>  -0.5700 
  2 C        0.7080    -0.3550    -1.6560 C.2   1 <1>   0.5690 
  3 N        1.8810     0.3470    -1.7580 N.am  1 <1>  -0.4940 
  4 C        0.7160    -1.8960    -1.8230 C.3   1 <1>   0.4840 
  5 C        2.2220     1.5270    -1.0740 C.2   1 <1>  -0.0880 
  6 N        0.8840    -2.6390    -0.5200 N.4   1 <1>  -0.9590 
  7 C        1.7610    -2.4160    -2.8180 C.3   1 <1>  -0.2400 
  8 N        1.5760     2.7220    -1.0920 N.pl3 1 <1>   0.3140 
  9 C        3.2830     1.6610    -0.2330 C.2   1 <1>  -0.0540 
 10 C       -0.3050    -2.3950     0.3480 C.3   1 <1>   0.3430 
 11 C        2.1180    -2.2650     0.2330 C.3   1 <1>   0.3430 
 12 N        2.1970     3.6210    -0.3020 N.2   1 <1>  -0.7070 
 13 C        0.3720     3.0970    -1.8440 C.3   1 <1>   0.0160 
 14 C        4.2190     0.6350     0.1470 C.ar  1 <1>   0.0540 
 15 C        3.2060     2.9880     0.2000 C.2   1 <1>   0.1080 
 16 C       -0.5340    -3.5590     1.3160 C.3   1 <1>  -0.1600 
 17 C        2.7750    -3.5130     0.8220 C.3   1 <1>  -0.1600 
 18 C        5.0520     0.0360    -0.7940 C.ar  1 <1>  -0.1500 
 19 C        4.2880     0.1900     1.4640 C.ar  1 <1>  -0.1500 
 20 C        4.1740     3.6560     1.1520 C.3   1 <1>  -0.0590 
 21 C        0.6510    -3.9300     2.2270 C.3   1 <1>  -0.1600 
 22 C        1.8300    -4.5470     1.4610 C.3   1 <1>  -0.1600 
 23 C        5.9070    -0.9910    -0.4380 C.ar  1 <1>  -0.1500 
 24 C        5.1460    -0.8320     1.8270 C.ar  1 <1>  -0.1500 
 25 C        5.9530    -1.4280     0.8740 C.ar  1 <1>  -0.1500 
 26 H        2.6920    -0.1610    -2.1130 H     1 <1>   0.3700 
 27 H       -0.2520    -2.1490    -2.2240 H     1 <1>   0.0800 
 28 H        0.9280    -3.6470    -0.7100 H     1 <1>   0.4500 
 29 H        2.7670    -2.2250    -2.4910 H     1 <1>   0.0800 
 30 H        1.6190    -1.9340    -3.7700 H     1 <1>   0.0800 
 31 H        1.6360    -3.4740    -2.9690 H     1 <1>   0.0800 
 32 H       -1.1870    -2.2820    -0.2630 H     1 <1>   0.0800 
 33 H       -0.1750    -1.4770     0.9000 H     1 <1>   0.0800 
 34 H        1.8670    -1.5810     1.0290 H     1 <1>   0.0800 
 35 H        2.8290    -1.7690    -0.4060 H     1 <1>   0.0800 
 36 H        0.3320     2.5410    -2.7610 H     1 <1>   0.0800 
 37 H        0.4060     4.1490    -2.0590 H     1 <1>   0.0800 
 38 H       -0.4940     2.8790    -1.2470 H     1 <1>   0.0800 
 39 H       -0.8470    -4.4250     0.7590 H     1 <1>   0.0800 
 40 H       -1.3630    -3.2890     1.9470 H     1 <1>   0.0800 
 41 H        3.4690    -3.1790     1.5740 H     1 <1>   0.0800 
 42 H        3.3640    -3.9950     0.0610 H     1 <1>   0.0800 
 43 H        5.0370     0.3910    -1.8100 H     1 <1>   0.1500 
 44 H        3.6640     0.6550     2.2070 H     1 <1>   0.1500 
 45 H        5.1320     3.1720     1.1170 H     1 <1>   0.0800 
 46 H        3.7860     3.6090     2.1520 H     1 <1>   0.0800 
 47 H        4.2960     4.6870     0.8750 H     1 <1>   0.0800 
 48 H        0.2980    -4.6650     2.9320 H     1 <1>   0.0800 
 49 H        0.9740    -3.0780     2.8030 H     1 <1>   0.0800 
 50 H        2.4100    -5.1420     2.1470 H     1 <1>   0.0800 
 51 H        1.4590    -5.2250     0.7110 H     1 <1>   0.0800 
 52 H        6.5510    -1.4420    -1.1760 H     1 <1>   0.1500 
 53 H        5.1940    -1.1600     2.8520 H     1 <1>   0.1500 
 54 H        6.6270    -2.2210     1.1560 H     1 <1>   0.1500 
@<TRIPOS>BOND
  1   1   2  2   
  2   2   3  am  
  3   2   4  1   
  4   3   5  1   
  5   3  26  1   
  6   4   6  1   
  7   4   7  1   
  8   4  27  1   
  9   5   8  1   
 10   5   9  2   
 11   6  10  1   
 12   6  11  1   
 13   6  28  1   
 14   7  29  1   
 15   7  30  1   
 16   7  31  1   
 17   8  12  1   
 18   8  13  1   
 19   9  14  1   
 20   9  15  1   
 21  10  16  1   
 22  10  32  1   
 23  10  33  1   
 24  11  17  1   
 25  11  34  1   
 26  11  35  1   
 27  12  15  2   
 28  13  36  1   
 29  13  37  1   
 30  13  38  1   
 31  14  18  ar  
 32  14  19  ar  
 33  15  20  1   
 34  16  21  1   
 35  16  39  1   
 36  16  40  1   
 37  17  22  1   
 38  17  41  1   
 39  17  42  1   
 40  18  23  ar  
 41  18  43  1   
 42  19  24  ar  
 43  19  44  1   
 44  20  45  1   
 45  20  46  1   
 46  20  47  1   
 47  21  22  1   
 48  21  48  1   
 49  21  49  1   
 50  22  50  1   
 51  22  51  1   
 52  23  25  ar  
 53  23  52  1   
 54  24  25  ar  
 55  24  53  1   
 56  25  54  1   
@<TRIPOS>SUBSTRUCTURE
  1 ****   3 GROUP 4 **** **** 0

# MOE 2024.06 (io_trps.svl 2023.06)
