@<TRIPOS>MOLECULE
NONAME
46 49 1 0 0 
SMALL
USER_CHARGES


@<TRIPOS>ATOM
  1 F       -1.7530    -0.8850     2.3140 F     1 <1>  -0.3400 
  2 C       -2.0340    -0.8610     1.0130 C.3   1 <1>   0.7810 
  3 F       -3.0360     0.0080     0.9050 F     1 <1>  -0.3400 
  4 C       -2.4800    -2.2480     0.5300 C.2   1 <1>   0.1080 
  5 N       -2.0970    -2.7880    -0.5970 N.2   1 <1>  -0.7070 
  6 C       -3.3330    -3.0890     1.2270 C.2   1 <1>  -0.1500 
  7 N       -2.6930    -3.9900    -0.6280 N.pl3 1 <1>   0.3140 
  8 C       -3.4750    -4.2040     0.4570 C.2   1 <1>  -0.2370 
  9 C       -2.4650    -4.9120    -1.7540 C.3   1 <1>   0.0160 
 10 C       -4.2420    -5.4020     0.6480 C.2   1 <1>   0.7150 
 11 O       -3.7000    -6.4790     0.4760 O.2   1 <1>  -0.5700 
 12 N       -5.5820    -5.3720     0.9750 N.am  1 <1>  -0.6600 
 13 C       -6.4200    -4.1330     0.9630 C.3   1 <1>   0.1400 
 14 C       -6.3640    -6.6390     1.1400 C.3   1 <1>   0.1400 
 15 C       -7.3880    -4.1360    -0.2410 C.3   1 <1>   0.1430 
 16 C       -7.8280    -6.4780     0.6870 C.3   1 <1>  -0.1600 
 17 C       -8.4890    -3.1330     0.0580 C.ar  1 <1>   0.1670 
 18 C       -7.9350    -5.5580    -0.5400 C.3   1 <1>  -0.1600 
 19 C       -6.7200    -3.5150    -1.4960 C.3   1 <1>  -0.1600 
 20 N       -9.4940    -3.3230     0.8800 N.ar  1 <1>  -0.6200 
 21 C       -8.3050    -1.9690    -0.6320 C.ar  1 <1>  -0.1440 
 22 C       -7.0670    -2.0160    -1.4910 C.3   1 <1>  -0.0170 
 23 C      -10.3140    -2.2870     0.9780 C.ar  1 <1>   0.7200 
 24 C       -9.2280    -0.9660    -0.4540 C.ar  1 <1>   0.1600 
 25 N      -10.2520    -1.1190     0.3550 N.ar  1 <1>  -0.6200 
 26 N      -11.3570    -2.4520     1.7920 N.pl3 1 <1>  -0.9000 
 27 H       -1.1830    -0.4720     0.4850 H     1 <1>   0.0800 
 28 H       -3.7790    -2.8830     2.1850 H     1 <1>   0.1500 
 29 H       -1.9020    -4.4080    -2.5180 H     1 <1>   0.0800 
 30 H       -3.4100    -5.2320    -2.1500 H     1 <1>   0.0800 
 31 H       -1.9130    -5.7630    -1.4020 H     1 <1>   0.0800 
 32 H       -5.8250    -3.2410     0.9420 H     1 <1>   0.0800 
 33 H       -6.9910    -4.1090     1.8770 H     1 <1>   0.0800 
 34 H       -6.3310    -6.9460     2.1720 H     1 <1>   0.0800 
 35 H       -5.9100    -7.4180     0.5510 H     1 <1>   0.0800 
 36 H       -8.4100    -6.0690     1.4950 H     1 <1>   0.0800 
 37 H       -8.2360    -7.4470     0.4590 H     1 <1>   0.0800 
 38 H       -7.3610    -6.0070    -1.3320 H     1 <1>   0.0800 
 39 H       -8.9570    -5.4980    -0.8710 H     1 <1>   0.0800 
 40 H       -7.1520    -3.9480    -2.3820 H     1 <1>   0.0800 
 41 H       -5.6580    -3.6800    -1.5220 H     1 <1>   0.0800 
 42 H       -7.2530    -1.6490    -2.4850 H     1 <1>   0.0800 
 43 H       -6.2810    -1.4440    -1.0290 H     1 <1>   0.0800 
 44 H       -9.1240    -0.0320    -0.9780 H     1 <1>   0.1500 
 45 H      -12.1310    -1.8130     1.6350 H     1 <1>   0.4000 
 46 H      -11.5910    -3.4180     2.0030 H     1 <1>   0.4000 
@<TRIPOS>BOND
  1   1   2  1   
  2   2   3  1   
  3   2   4  1   
  4   2  27  1   
  5   4   5  2   
  6   4   6  1   
  7   5   7  1   
  8   6   8  2   
  9   6  28  1   
 10   7   8  1   
 11   7   9  1   
 12   8  10  1   
 13   9  29  1   
 14   9  30  1   
 15   9  31  1   
 16  10  11  2   
 17  10  12  am  
 18  12  13  1   
 19  12  14  1   
 20  13  15  1   
 21  13  32  1   
 22  13  33  1   
 23  14  16  1   
 24  14  34  1   
 25  14  35  1   
 26  15  17  1   
 27  15  18  1   
 28  15  19  1   
 29  16  18  1   
 30  16  36  1   
 31  16  37  1   
 32  17  20  ar  
 33  17  21  ar  
 34  18  38  1   
 35  18  39  1   
 36  19  22  1   
 37  19  40  1   
 38  19  41  1   
 39  20  23  ar  
 40  21  22  1   
 41  21  24  ar  
 42  22  42  1   
 43  22  43  1   
 44  23  25  ar  
 45  23  26  1   
 46  24  25  ar  
 47  24  44  1   
 48  26  45  1   
 49  26  46  1   
@<TRIPOS>SUBSTRUCTURE
  1 ****  13 GROUP 4 **** **** 0

# MOE 2024.06 (io_trps.svl 2023.06)
