@<TRIPOS>MOLECULE
NONAME
51 54 1 0 0 
SMALL
USER_CHARGES


@<TRIPOS>ATOM
  1 O        0.2780     0.1680     2.0490 O.3   1 <1>  -0.6800 
  2 C        0.8680     0.0720     0.7960 C.3   1 <1>   0.2000 
  3 C        1.6010    -1.2670     0.7290 C.3   1 <1>  -0.0800 
  4 C        2.0010     1.1130     0.7130 C.3   1 <1>   0.3430 
  5 C        2.8560    -0.9460     1.5410 C.3   1 <1>   0.3430 
  6 C        1.8970    -1.6520    -0.7450 C.3   1 <1>  -0.0160 
  7 N        3.2690     0.3730     1.0200 N.4   1 <1>  -0.9590 
  8 C        3.2280    -2.3630    -0.9410 C.ar  1 <1>   0.1670 
  9 C        4.1940     1.1250     1.8850 C.3   1 <1>   0.5230 
 10 N        4.3060    -1.5870    -1.0090 N.ar  1 <1>  -0.6200 
 11 C        3.2520    -3.7460    -1.0400 C.ar  1 <1>  -0.1500 
 12 C        4.5240     2.4050     1.1560 C.2   1 <1>  -0.3320 
 13 C        5.4500    -2.2310    -1.2090 C.ar  1 <1>   0.1600 
 14 C        4.4520    -4.3950    -1.2300 C.ar  1 <1>  -0.1500 
 15 N        5.3100     2.4700     0.0300 N.pl3 1 <1>   0.0480 
 16 C        4.0980     3.6500     1.4810 C.2   1 <1>  -0.1500 
 17 C        5.5760    -3.6050    -1.3190 C.ar  1 <1>  -0.1500 
 18 C        5.3540     3.7840    -0.3700 C.ar  1 <1>  -0.1520 
 19 C        6.0440     1.3800    -0.6440 C.3   1 <1>   0.0160 
 20 C        4.6100     4.5460     0.5230 C.ar  1 <1>   0.0000 
 21 C        5.9890     4.3940    -1.4560 C.ar  1 <1>  -0.1500 
 22 C        4.4980     5.9280     0.3420 C.ar  1 <1>  -0.1500 
 23 C        5.8700     5.7540    -1.6240 C.ar  1 <1>  -0.1500 
 24 C        5.1250     6.5290    -0.7260 C.ar  1 <1>  -0.1430 
 25 C        5.0260     8.0270    -0.9520 C.3   1 <1>  -0.0970 
 26 H       -0.5720    -0.3200     2.0850 H     1 <1>   0.4000 
 27 H        0.1110     0.2150     0.0420 H     1 <1>   0.0800 
 28 H        1.0460    -2.0610     1.1980 H     1 <1>   0.0800 
 29 H        1.8230     1.9050     1.4230 H     1 <1>   0.0800 
 30 H        2.0600     1.5340    -0.2770 H     1 <1>   0.0800 
 31 H        3.6290    -1.6880     1.4170 H     1 <1>   0.0800 
 32 H        2.5950    -0.8650     2.5850 H     1 <1>   0.0800 
 33 H        1.9120    -0.7790    -1.3740 H     1 <1>   0.0800 
 34 H        1.0990    -2.2730    -1.1130 H     1 <1>   0.0800 
 35 H        3.7550     0.1780     0.1280 H     1 <1>   0.4500 
 36 H        3.7180     1.3510     2.8260 H     1 <1>   0.0800 
 37 H        5.0900     0.5570     2.0720 H     1 <1>   0.0800 
 38 H        2.3440    -4.3200    -0.9750 H     1 <1>   0.1500 
 39 H        6.3440    -1.6380    -1.2930 H     1 <1>   0.1500 
 40 H        4.5090    -5.4680    -1.3130 H     1 <1>   0.1500 
 41 H        3.4780     3.9640     2.3030 H     1 <1>   0.1500 
 42 H        6.5420    -4.0500    -1.4780 H     1 <1>   0.1500 
 43 H        6.1560     0.5430     0.0180 H     1 <1>   0.0800 
 44 H        7.0190     1.7330    -0.9270 H     1 <1>   0.0800 
 45 H        5.5050     1.0800    -1.5240 H     1 <1>   0.0800 
 46 H        6.5620     3.8080    -2.1500 H     1 <1>   0.1500 
 47 H        3.9210     6.4970     1.0470 H     1 <1>   0.1500 
 48 H        6.3550     6.2370    -2.4550 H     1 <1>   0.1500 
 49 H        4.5740     8.2230    -1.9070 H     1 <1>   0.0800 
 50 H        6.0070     8.4650    -0.9340 H     1 <1>   0.0800 
 51 H        4.4290     8.4920    -0.1880 H     1 <1>   0.0800 
@<TRIPOS>BOND
  1   1   2  1   
  2   1  26  1   
  3   2   3  1   
  4   2   4  1   
  5   2  27  1   
  6   3   5  1   
  7   3   6  1   
  8   3  28  1   
  9   4   7  1   
 10   4  29  1   
 11   4  30  1   
 12   5   7  1   
 13   5  31  1   
 14   5  32  1   
 15   6   8  1   
 16   6  33  1   
 17   6  34  1   
 18   7   9  1   
 19   7  35  1   
 20   8  10  ar  
 21   8  11  ar  
 22   9  12  1   
 23   9  36  1   
 24   9  37  1   
 25  10  13  ar  
 26  11  14  ar  
 27  11  38  1   
 28  12  15  1   
 29  12  16  2   
 30  13  17  ar  
 31  13  39  1   
 32  14  17  ar  
 33  14  40  1   
 34  15  18  1   
 35  15  19  1   
 36  16  20  1   
 37  16  41  1   
 38  17  42  1   
 39  18  20  ar  
 40  18  21  ar  
 41  19  43  1   
 42  19  44  1   
 43  19  45  1   
 44  20  22  ar  
 45  21  23  ar  
 46  21  46  1   
 47  22  24  ar  
 48  22  47  1   
 49  23  24  ar  
 50  23  48  1   
 51  24  25  1   
 52  25  49  1   
 53  25  50  1   
 54  25  51  1   
@<TRIPOS>SUBSTRUCTURE
  1 ****   7 GROUP 4 **** **** 0

# MOE 2024.06 (io_trps.svl 2023.06)
