@<TRIPOS>MOLECULE
NONAME
47 49 1 0 0 
SMALL
USER_CHARGES


@<TRIPOS>ATOM
  1 O        3.2420    -0.5400     0.8610 O.2   1 <1>  -0.5700 
  2 C        2.2560    -0.8750     0.2500 C.2   1 <1>   0.5690 
  3 N        1.4010     0.0270    -0.2940 N.am  1 <1>  -0.7300 
  4 C        1.9570    -2.3450     0.0890 C.3   1 <1>  -0.0990 
  5 C        1.5550     1.4950    -0.1610 C.3   1 <1>   0.1400 
  6 C        1.1690    -2.8690     1.2920 C.3   1 <1>   0.0200 
  7 C        2.5430     2.0210    -1.2020 C.3   1 <1>   0.0200 
  8 C        0.7810    -4.3160     1.0710 C.2   1 <1>   0.0060 
  9 C        3.0700     3.3730    -0.7670 C.2   1 <1>   0.0060 
 10 N       -0.2660    -4.6760     0.4170 N.2   1 <1>  -0.5650 
 11 N        1.5190    -5.3540     1.5390 N.pl3 1 <1>   0.0330 
 12 N        2.5990     4.4920    -1.2130 N.2   1 <1>  -0.5650 
 13 N        4.0720     3.5210     0.1360 N.pl3 1 <1>   0.0480 
 14 C       -0.2390    -6.0430     0.4460 C.ar  1 <1>   0.2270 
 15 C        0.8730    -6.4780     1.1420 C.ar  1 <1>  -0.1520 
 16 C        3.3290     5.4240    -0.5740 C.2   1 <1>   0.0770 
 17 C        4.2300     4.8510     0.2530 C.2   1 <1>  -0.3020 
 18 C        4.8280     2.4780     0.8580 C.3   1 <1>   0.0160 
 19 C       -1.1340    -6.9710    -0.1060 C.ar  1 <1>  -0.1430 
 20 C        1.1390    -7.8350     1.3130 C.ar  1 <1>  -0.1500 
 21 C       -0.8710    -8.3230     0.0510 C.ar  1 <1>  -0.1430 
 22 C       -2.3510    -6.4400    -0.8570 C.3   1 <1>  -0.0970 
 23 C        0.2620    -8.7420     0.7640 C.ar  1 <1>  -0.1500 
 24 C       -1.7810    -9.3940    -0.5330 C.3   1 <1>  -0.0970 
 25 H        0.5850    -0.2960    -0.8190 H     1 <1>   0.3700 
 26 H        2.8830    -2.8830    -0.0040 H     1 <1>   0.0800 
 27 H        1.3900    -2.5020    -0.8110 H     1 <1>   0.0800 
 28 H        1.9220     1.7140     0.8270 H     1 <1>   0.0800 
 29 H        0.6030     1.9840    -0.2770 H     1 <1>   0.0800 
 30 H        0.2700    -2.2890     1.4120 H     1 <1>   0.0800 
 31 H        1.7510    -2.7690     2.1910 H     1 <1>   0.0800 
 32 H        2.0490     2.1200    -2.1520 H     1 <1>   0.0800 
 33 H        3.3690     1.3430    -1.3170 H     1 <1>   0.0800 
 34 H        2.3840    -5.3110     2.0810 H     1 <1>   0.2700 
 35 H        3.1640     6.4740    -0.7460 H     1 <1>   0.1500 
 36 H        4.9540     5.3100     0.9000 H     1 <1>   0.1500 
 37 H        5.2290     1.7720     0.1540 H     1 <1>   0.0800 
 38 H        4.1730     1.9670     1.5390 H     1 <1>   0.0800 
 39 H        5.6330     2.9300     1.4070 H     1 <1>   0.0800 
 40 H        2.0070    -8.1570     1.8590 H     1 <1>   0.1500 
 41 H       -2.6690    -5.5040    -0.4340 H     1 <1>   0.0800 
 42 H       -3.1780    -7.1220    -0.7990 H     1 <1>   0.0800 
 43 H       -2.0950    -6.2790    -1.8880 H     1 <1>   0.0800 
 44 H        0.4510    -9.7940     0.8840 H     1 <1>   0.1500 
 45 H       -2.0240    -9.1600    -1.5540 H     1 <1>   0.0800 
 46 H       -2.6890    -9.4520     0.0400 H     1 <1>   0.0800 
 47 H       -1.3040   -10.3570    -0.5180 H     1 <1>   0.0800 
@<TRIPOS>BOND
  1   1   2  2   
  2   2   3  am  
  3   2   4  1   
  4   3   5  1   
  5   3  25  1   
  6   4   6  1   
  7   4  26  1   
  8   4  27  1   
  9   5   7  1   
 10   5  28  1   
 11   5  29  1   
 12   6   8  1   
 13   6  30  1   
 14   6  31  1   
 15   7   9  1   
 16   7  32  1   
 17   7  33  1   
 18   8  10  2   
 19   8  11  1   
 20   9  12  2   
 21   9  13  1   
 22  10  14  1   
 23  11  15  1   
 24  11  34  1   
 25  12  16  1   
 26  13  17  1   
 27  13  18  1   
 28  14  15  ar  
 29  14  19  ar  
 30  15  20  ar  
 31  16  17  2   
 32  16  35  1   
 33  17  36  1   
 34  18  37  1   
 35  18  38  1   
 36  18  39  1   
 37  19  21  ar  
 38  19  22  1   
 39  20  23  ar  
 40  20  40  1   
 41  21  23  ar  
 42  21  24  1   
 43  22  41  1   
 44  22  42  1   
 45  22  43  1   
 46  23  44  1   
 47  24  45  1   
 48  24  46  1   
 49  24  47  1   
@<TRIPOS>SUBSTRUCTURE
  1 ****   4 GROUP 4 **** **** 0

# MOE 2024.06 (io_trps.svl 2023.06)
