@<TRIPOS>MOLECULE
NONAME
42 43 1 0 0 
SMALL
USER_CHARGES


@<TRIPOS>ATOM
  1 F        0.2260     0.3890    -0.8540 F     1 <1>  -0.3400 
  2 C       -0.5370     1.0720    -0.0090 C.3   1 <1>   0.8800 
  3 F       -1.7730     0.6360    -0.2030 F     1 <1>  -0.3400 
  4 O       -0.4960     2.4340    -0.3630 O.3   1 <1>  -0.3620 
  5 C        0.5290     3.2230     0.0390 C.ar  1 <1>   0.0830 
  6 C        0.3130     4.5890    -0.0020 C.ar  1 <1>  -0.1500 
  7 C        1.7550     2.7360     0.4810 C.ar  1 <1>  -0.1500 
  8 C        1.2900     5.5020     0.3900 C.ar  1 <1>   0.0860 
  9 C        2.7370     3.6210     0.8870 C.ar  1 <1>  -0.1500 
 10 C        1.0420     6.9290     0.3240 C.2   1 <1>   0.5440 
 11 C        2.5050     4.9840     0.8470 C.ar  1 <1>  -0.1500 
 12 O       -0.0540     7.3710     0.6020 O.2   1 <1>  -0.5700 
 13 N        2.0580     7.7720    -0.0630 N.am  1 <1>  -0.4940 
 14 C        2.1470     9.1840    -0.1320 C.2   1 <1>  -0.0880 
 15 N        1.1740    10.0740    -0.4790 N.pl3 1 <1>   0.3140 
 16 C        3.2620     9.9170     0.1070 C.2   1 <1>  -0.1810 
 17 N        1.6430    11.3420    -0.4720 N.2   1 <1>  -0.7070 
 18 C       -0.2000     9.8160    -0.9290 C.3   1 <1>   0.0160 
 19 C        2.8840    11.2390    -0.1180 C.2   1 <1>   0.1080 
 20 C        4.6310     9.4170     0.5360 C.3   1 <1>   0.0210 
 21 C        3.7750    12.4610     0.0190 C.3   1 <1>   0.0210 
 22 C        5.5040     9.1260    -0.6860 C.3   1 <1>  -0.2400 
 23 C        3.7290    13.0210     1.4450 C.3   1 <1>  -0.2400 
 24 H       -0.2370     0.8870     1.0070 H     1 <1>   0.0800 
 25 H       -0.6380     4.9580    -0.3470 H     1 <1>   0.1500 
 26 H        1.9730     1.6830     0.5090 H     1 <1>   0.1500 
 27 H        3.6850     3.2470     1.2370 H     1 <1>   0.1500 
 28 H        3.2770     5.6540     1.1840 H     1 <1>   0.1500 
 29 H        2.9370     7.3020    -0.2730 H     1 <1>   0.3700 
 30 H       -0.2240     8.9090    -1.5000 H     1 <1>   0.0800 
 31 H       -0.5320    10.6360    -1.5370 H     1 <1>   0.0800 
 32 H       -0.8350     9.7250    -0.0690 H     1 <1>   0.0800 
 33 H        4.5180     8.5220     1.1220 H     1 <1>   0.0800 
 34 H        5.1070    10.1520     1.1600 H     1 <1>   0.0800 
 35 H        3.4350    13.2120    -0.6710 H     1 <1>   0.0800 
 36 H        4.7840    12.2050    -0.2430 H     1 <1>   0.0800 
 37 H        5.0400     8.3810    -1.3070 H     1 <1>   0.0800 
 38 H        6.4700     8.7700    -0.3770 H     1 <1>   0.0800 
 39 H        5.6360    10.0210    -1.2680 H     1 <1>   0.0800 
 40 H        2.7170    13.2910     1.6930 H     1 <1>   0.0800 
 41 H        4.3510    13.8940     1.5220 H     1 <1>   0.0800 
 42 H        4.0680    12.2820     2.1480 H     1 <1>   0.0800 
@<TRIPOS>BOND
  1   1   2  1   
  2   2   3  1   
  3   2   4  1   
  4   2  24  1   
  5   4   5  1   
  6   5   6  ar  
  7   5   7  ar  
  8   6   8  ar  
  9   6  25  1   
 10   7   9  ar  
 11   7  26  1   
 12   8  10  1   
 13   8  11  ar  
 14   9  11  ar  
 15   9  27  1   
 16  10  12  2   
 17  10  13  am  
 18  11  28  1   
 19  13  14  1   
 20  13  29  1   
 21  14  15  1   
 22  14  16  2   
 23  15  17  1   
 24  15  18  1   
 25  16  19  1   
 26  16  20  1   
 27  17  19  2   
 28  18  30  1   
 29  18  31  1   
 30  18  32  1   
 31  19  21  1   
 32  20  22  1   
 33  20  33  1   
 34  20  34  1   
 35  21  23  1   
 36  21  35  1   
 37  21  36  1   
 38  22  37  1   
 39  22  38  1   
 40  22  39  1   
 41  23  40  1   
 42  23  41  1   
 43  23  42  1   
@<TRIPOS>SUBSTRUCTURE
  1 ****  10 GROUP 4 **** **** 0

# MOE 2024.06 (io_trps.svl 2023.06)
