@<TRIPOS>MOLECULE
NONAME
44 46 1 0 0 
SMALL
USER_CHARGES


@<TRIPOS>ATOM
  1 O        0.6360    -0.1250    -1.8810 O.2   1 <1>  -0.5700 
  2 C        1.4100     0.4480    -1.1340 C.2   1 <1>   0.5440 
  3 N        1.0130     1.6380    -0.5670 N.am  1 <1>  -0.6600 
  4 C        2.7060    -0.1230    -0.8570 C.ar  1 <1>   0.0860 
  5 C        1.6400     2.2560     0.6230 C.3   1 <1>   0.1400 
  6 C       -0.3180     2.2290    -0.8290 C.3   1 <1>   0.1400 
  7 C        2.8240    -1.4400    -0.3750 C.ar  1 <1>   0.4100 
  8 C        3.8720     0.6050    -1.0520 C.ar  1 <1>  -0.1500 
  9 C        0.5210     3.0570     1.2780 C.3   1 <1>  -0.1600 
 10 C       -0.4210     3.4090     0.1310 C.3   1 <1>  -0.1600 
 11 N        3.9860    -2.0150    -0.0710 N.ar  1 <1>  -0.6200 
 12 N        1.7040    -2.2110    -0.1830 N.pl3 1 <1>  -0.8690 
 13 C        5.0720     0.0050    -0.7470 C.ar  1 <1>  -0.1500 
 14 C        5.0710    -1.2920    -0.2630 C.ar  1 <1>   0.1600 
 15 C        1.7360    -3.6750    -0.0580 C.3   1 <1>   0.3890 
 16 C        0.3890    -4.0980     0.4720 C.2   1 <1>  -0.3320 
 17 N       -0.1550    -3.5340     1.5640 N.pl3 1 <1>   0.3000 
 18 C       -0.4910    -5.0250     0.0350 C.2   1 <1>  -0.1500 
 19 N       -1.3580    -4.0680     1.8580 N.2   1 <1>  -0.7070 
 20 C       -1.5550    -4.9620     0.9320 C.2   1 <1>   0.1080 
 21 C       -2.8160    -5.8140     0.8730 C.3   1 <1>   0.3010 
 22 O       -2.7580    -6.7360    -0.1820 O.3   1 <1>  -0.5600 
 23 C       -3.8900    -7.5350    -0.2950 C.3   1 <1>   0.0400 
 24 H        2.4300     2.9140     0.3030 H     1 <1>   0.0800 
 25 H        2.0330     1.5090     1.2930 H     1 <1>   0.0800 
 26 H       -1.0770     1.4950    -0.6110 H     1 <1>   0.0800 
 27 H       -0.4020     2.5380    -1.8570 H     1 <1>   0.0800 
 28 H        3.8290     1.6090    -1.4350 H     1 <1>   0.1500 
 29 H        0.8950     3.9280     1.7860 H     1 <1>   0.0800 
 30 H        0.0120     2.4280     1.9880 H     1 <1>   0.0800 
 31 H       -1.4320     3.5660     0.4620 H     1 <1>   0.0800 
 32 H       -0.0750     4.2960    -0.3700 H     1 <1>   0.0800 
 33 H        0.8770    -1.8900    -0.7100 H     1 <1>   0.4000 
 34 H        6.0010     0.5290    -0.8820 H     1 <1>   0.1500 
 35 H        6.0140    -1.7540    -0.0240 H     1 <1>   0.1500 
 36 H        2.5110    -3.9770     0.6270 H     1 <1>   0.0800 
 37 H        1.9240    -4.1210    -1.0200 H     1 <1>   0.0800 
 38 H        0.2710    -2.7700     2.1030 H     1 <1>   0.2700 
 39 H       -0.4290    -5.6860    -0.8110 H     1 <1>   0.1500 
 40 H       -3.6680    -5.1740     0.7260 H     1 <1>   0.0800 
 41 H       -2.9240    -6.3530     1.7970 H     1 <1>   0.0800 
 42 H       -3.7450    -8.2040    -1.1260 H     1 <1>   0.0800 
 43 H       -4.7490    -6.9120    -0.4770 H     1 <1>   0.0800 
 44 H       -4.0170    -8.1040     0.6100 H     1 <1>   0.0800 
@<TRIPOS>BOND
  1   1   2  2   
  2   2   3  am  
  3   2   4  1   
  4   3   5  1   
  5   3   6  1   
  6   4   7  ar  
  7   4   8  ar  
  8   5   9  1   
  9   5  24  1   
 10   5  25  1   
 11   6  10  1   
 12   6  26  1   
 13   6  27  1   
 14   7  11  ar  
 15   7  12  1   
 16   8  13  ar  
 17   8  28  1   
 18   9  10  1   
 19   9  29  1   
 20   9  30  1   
 21  10  31  1   
 22  10  32  1   
 23  11  14  ar  
 24  12  15  1   
 25  12  33  1   
 26  13  14  ar  
 27  13  34  1   
 28  14  35  1   
 29  15  16  1   
 30  15  36  1   
 31  15  37  1   
 32  16  17  1   
 33  16  18  2   
 34  17  19  1   
 35  17  38  1   
 36  18  20  1   
 37  18  39  1   
 38  19  20  2   
 39  20  21  1   
 40  21  22  1   
 41  21  40  1   
 42  21  41  1   
 43  22  23  1   
 44  23  42  1   
 45  23  43  1   
 46  23  44  1   
@<TRIPOS>SUBSTRUCTURE
  1 ****  12 GROUP 4 **** **** 0

# MOE 2024.06 (io_trps.svl 2023.06)
