@<TRIPOS>MOLECULE
NONAME
43 46 1 0 0 
SMALL
USER_CHARGES


@<TRIPOS>ATOM
  1 O        0.3450    -1.1450     2.0310 O.3   1 <1>  -0.0190 
  2 N        1.6130    -1.0270     1.7830 N.2   1 <1>  -0.4100 
  3 C       -0.1560    -1.6200     0.9200 C.2   1 <1>   0.2980 
  4 C        1.8150    -1.4180     0.5740 C.2   1 <1>   0.5150 
  5 N        0.6810    -1.8170    -0.0140 N.2   1 <1>  -0.5650 
  6 C       -1.6540    -1.8980     0.8490 C.3   1 <1>   0.2900 
  7 C        3.1030    -1.4340    -0.0860 C.2   1 <1>   0.1410 
  8 N       -2.4800    -0.6770     1.0010 N.3   1 <1>  -0.8100 
  9 O        3.2360    -1.8570    -1.3410 O.3   1 <1>  -0.2800 
 10 C        4.3280    -1.0630     0.3760 C.2   1 <1>  -0.1500 
 11 C       -3.8940    -0.9500     1.3270 C.3   1 <1>   0.1100 
 12 C       -2.3070     0.2950    -0.1030 C.3   1 <1>   0.1100 
 13 C        4.5040    -1.7650    -1.6850 C.2   1 <1>  -0.0100 
 14 C        5.2370    -1.2780    -0.6630 C.2   1 <1>  -0.1500 
 15 C       -4.7050    -1.5470     0.1460 C.3   1 <1>   0.0000 
 16 C       -3.5110     0.3610    -1.0610 C.3   1 <1>  -0.1600 
 17 C       -6.2080    -1.2820     0.3790 C.3   1 <1>   0.2000 
 18 C       -4.1950    -1.0040    -1.2230 C.3   1 <1>  -0.1600 
 19 C       -4.6930    -3.0870     0.1230 C.3   1 <1>  -0.1600 
 20 O       -6.6020    -0.0210    -0.0250 O.3   1 <1>  -0.6800 
 21 C       -6.9680    -2.3530    -0.4040 C.3   1 <1>  -0.1600 
 22 C       -5.9680    -3.4950    -0.6230 C.3   1 <1>  -0.1600 
 23 H       -1.8980    -2.5920     1.6330 H     1 <1>   0.0800 
 24 H       -1.8670    -2.3660    -0.0940 H     1 <1>   0.0800 
 25 H        4.5670    -0.6760     1.3510 H     1 <1>   0.1500 
 26 H       -3.9530    -1.5900     2.1910 H     1 <1>   0.0800 
 27 H       -4.3430    -0.0110     1.6080 H     1 <1>   0.0800 
 28 H       -2.1520     1.2720     0.3230 H     1 <1>   0.0800 
 29 H       -1.4230     0.0550    -0.6700 H     1 <1>   0.0800 
 30 H        4.7970    -2.0670    -2.6760 H     1 <1>   0.1500 
 31 H        6.2950    -1.0850    -0.6240 H     1 <1>   0.1500 
 32 H       -4.2140     1.0790    -0.6780 H     1 <1>   0.0800 
 33 H       -3.1770     0.7220    -2.0170 H     1 <1>   0.0800 
 34 H       -6.4430    -1.3790     1.4270 H     1 <1>   0.0800 
 35 H       -3.4640    -1.6770    -1.6350 H     1 <1>   0.0800 
 36 H       -4.9920    -0.9410    -1.9420 H     1 <1>   0.0800 
 37 H       -3.8170    -3.5040    -0.3400 H     1 <1>   0.0800 
 38 H       -4.7530    -3.4640     1.1310 H     1 <1>   0.0800 
 39 H       -6.2790     0.1420    -0.9300 H     1 <1>   0.4000 
 40 H       -7.8140    -2.6920     0.1670 H     1 <1>   0.0800 
 41 H       -7.3060    -1.9780    -1.3540 H     1 <1>   0.0800 
 42 H       -6.3490    -4.4340    -0.2590 H     1 <1>   0.0800 
 43 H       -5.7570    -3.5910    -1.6750 H     1 <1>   0.0800 
@<TRIPOS>BOND
  1   1   2  1   
  2   1   3  1   
  3   2   4  2   
  4   3   5  2   
  5   3   6  1   
  6   4   5  1   
  7   4   7  1   
  8   6   8  1   
  9   6  23  1   
 10   6  24  1   
 11   7   9  1   
 12   7  10  2   
 13   8  11  1   
 14   8  12  1   
 15   9  13  1   
 16  10  14  1   
 17  10  25  1   
 18  11  15  1   
 19  11  26  1   
 20  11  27  1   
 21  12  16  1   
 22  12  28  1   
 23  12  29  1   
 24  13  14  2   
 25  13  30  1   
 26  14  31  1   
 27  15  17  1   
 28  15  18  1   
 29  15  19  1   
 30  16  18  1   
 31  16  32  1   
 32  16  33  1   
 33  17  20  1   
 34  17  21  1   
 35  17  34  1   
 36  18  35  1   
 37  18  36  1   
 38  19  22  1   
 39  19  37  1   
 40  19  38  1   
 41  20  39  1   
 42  21  22  1   
 43  21  40  1   
 44  21  41  1   
 45  22  42  1   
 46  22  43  1   
@<TRIPOS>SUBSTRUCTURE
  1 ****   6 GROUP 4 **** **** 0

# MOE 2024.06 (io_trps.svl 2023.06)
