@<TRIPOS>MOLECULE
NONAME
40 41 1 0 0 
SMALL
USER_CHARGES


@<TRIPOS>ATOM
  1 S       -0.4940    -0.4640    -0.4120 S.o2  1 <1>   1.3330 
  2 O       -1.3170    -1.5750     0.0120 O.2   1 <1>  -0.6500 
  3 O       -0.1390    -0.3260    -1.8080 O.2   1 <1>  -0.6500 
  4 N       -1.1980     0.9860     0.1200 N.am  1 <1>  -0.8490 
  5 C        1.0180    -0.5610     0.5620 C.3   1 <1>  -0.0550 
  6 C       -2.5830     0.9310     0.6340 C.3   1 <1>   0.1960 
  7 C       -0.9130     2.1890    -0.6670 C.3   1 <1>   0.1960 
  8 C        2.0310     0.5810     0.3550 C.3   1 <1>  -0.2400 
  9 C       -3.6850     1.1610    -0.4430 C.3   1 <1>   0.0000 
 10 C       -1.9330     2.3930    -1.7930 C.3   1 <1>  -0.1600 
 11 C       -5.0780     1.2480     0.2120 C.3   1 <1>   0.2000 
 12 C       -3.3650     2.4380    -1.2450 C.3   1 <1>  -0.1600 
 13 C       -3.8790    -0.0570    -1.3640 C.3   1 <1>  -0.1600 
 14 O       -5.0480     1.9690     1.4080 O.3   1 <1>  -0.5600 
 15 C       -5.5180    -0.2010     0.4450 C.3   1 <1>  -0.1600 
 16 C       -4.7260    -1.0470    -0.5600 C.3   1 <1>  -0.1600 
 17 C       -6.2950     2.3540     1.8940 C.3   1 <1>   0.0400 
 18 H        0.7520    -0.5970     1.6010 H     1 <1>   0.0800 
 19 H        1.5050    -1.4880     0.3270 H     1 <1>   0.0800 
 20 H       -2.7550     0.0050     1.1550 H     1 <1>   0.0800 
 21 H       -2.6680     1.7110     1.3700 H     1 <1>   0.0800 
 22 H       -0.9480     3.0410    -0.0100 H     1 <1>   0.0800 
 23 H        0.0790     2.1370    -1.0830 H     1 <1>   0.0800 
 24 H        1.6120     1.5150     0.6810 H     1 <1>   0.0800 
 25 H        2.2930     0.6590    -0.6860 H     1 <1>   0.0800 
 26 H        2.9230     0.3890     0.9230 H     1 <1>   0.0800 
 27 H       -1.7150     3.3170    -2.2980 H     1 <1>   0.0800 
 28 H       -1.8330     1.6010    -2.5150 H     1 <1>   0.0800 
 29 H       -5.7570     1.7300    -0.4720 H     1 <1>   0.0800 
 30 H       -4.0630     2.5610    -2.0550 H     1 <1>   0.0800 
 31 H       -3.4640     3.2900    -0.5940 H     1 <1>   0.0800 
 32 H       -4.4400     0.2370    -2.2340 H     1 <1>   0.0800 
 33 H       -2.9610    -0.4960    -1.7040 H     1 <1>   0.0800 
 34 H       -5.2730    -0.5110     1.4460 H     1 <1>   0.0800 
 35 H       -6.5760    -0.3050     0.2820 H     1 <1>   0.0800 
 36 H       -4.0810    -1.7300    -0.0320 H     1 <1>   0.0800 
 37 H       -5.3740    -1.6150    -1.2050 H     1 <1>   0.0800 
 38 H       -6.1410     2.9150     2.7980 H     1 <1>   0.0800 
 39 H       -6.8830     1.4790     2.1080 H     1 <1>   0.0800 
 40 H       -6.7860     2.9730     1.1630 H     1 <1>   0.0800 
@<TRIPOS>BOND
  1   1   2  2   
  2   1   3  2   
  3   1   4  am  
  4   1   5  1   
  5   4   6  1   
  6   4   7  1   
  7   5   8  1   
  8   5  18  1   
  9   5  19  1   
 10   6   9  1   
 11   6  20  1   
 12   6  21  1   
 13   7  10  1   
 14   7  22  1   
 15   7  23  1   
 16   8  24  1   
 17   8  25  1   
 18   8  26  1   
 19   9  11  1   
 20   9  12  1   
 21   9  13  1   
 22  10  12  1   
 23  10  27  1   
 24  10  28  1   
 25  11  14  1   
 26  11  15  1   
 27  11  29  1   
 28  12  30  1   
 29  12  31  1   
 30  13  16  1   
 31  13  32  1   
 32  13  33  1   
 33  14  17  1   
 34  15  16  1   
 35  15  34  1   
 36  15  35  1   
 37  16  36  1   
 38  16  37  1   
 39  17  38  1   
 40  17  39  1   
 41  17  40  1   
@<TRIPOS>SUBSTRUCTURE
  1 ****   6 GROUP 4 **** **** 0

# MOE 2024.06 (io_trps.svl 2023.06)
