@<TRIPOS>MOLECULE
NONAME
52 54 1 0 0 
SMALL
USER_CHARGES


@<TRIPOS>ATOM
  1 O       -0.4420     0.1350    -0.2240 O.2   1 <1>  -0.5700 
  2 C       -1.4640     0.7750    -0.0640 C.2   1 <1>   0.5440 
  3 N       -2.6390     0.0930     0.1540 N.am  1 <1>  -0.6600 
  4 C       -1.4260     2.2250    -0.1280 C.ar  1 <1>   0.0860 
  5 C       -3.9930     0.6490    -0.0980 C.3   1 <1>   0.1400 
  6 C       -2.6900    -1.3890     0.2200 C.3   1 <1>   0.1400 
  7 C       -0.7670     2.8760    -1.1690 C.ar  1 <1>  -0.1500 
  8 C       -2.0400     3.0220     0.8380 C.ar  1 <1>  -0.1500 
  9 C       -4.8450    -0.5610    -0.4750 C.3   1 <1>   0.2000 
 10 C       -4.1780    -1.7470     0.2140 C.3   1 <1>  -0.0800 
 11 C       -0.7390     4.2560    -1.2550 C.ar  1 <1>  -0.1500 
 12 C       -2.0160     4.4020     0.7560 C.ar  1 <1>  -0.1500 
 13 O       -6.1530    -0.4230    -0.0390 O.3   1 <1>  -0.6800 
 14 C       -4.4820    -3.0920    -0.4620 C.3   1 <1>   0.0210 
 15 C       -1.3670     5.0300    -0.2930 C.ar  1 <1>  -0.1430 
 16 C       -3.7250    -4.2190     0.2120 C.2   1 <1>   0.1080 
 17 C       -1.3430     6.5510    -0.3830 C.3   1 <1>  -0.0170 
 18 N       -3.9350    -4.5690     1.4430 N.2   1 <1>  -0.7070 
 19 C       -2.7300    -4.9820    -0.3900 C.2   1 <1>  -0.1500 
 20 C       -0.3470     7.1860     0.6050 C.3   1 <1>  -0.0800 
 21 N       -3.0720    -5.5790     1.6610 N.pl3 1 <1>   0.3000 
 22 C       -2.3300    -5.8460     0.5660 C.2   1 <1>  -0.3320 
 23 C       -0.4440     8.7160     0.5490 C.3   1 <1>  -0.2400 
 24 C        1.0980     6.7510     0.3200 C.3   1 <1>  -0.2400 
 25 C       -1.2660    -6.9270     0.4990 C.3   1 <1>  -0.0600 
 26 H       -4.3600     1.1040     0.8050 H     1 <1>   0.0800 
 27 H       -3.9720     1.3680    -0.8980 H     1 <1>   0.0800 
 28 H       -2.1900    -1.7970    -0.6420 H     1 <1>   0.0800 
 29 H       -2.2040    -1.7480     1.1120 H     1 <1>   0.0800 
 30 H       -0.2690     2.2820    -1.9160 H     1 <1>   0.1500 
 31 H       -2.5370     2.5470     1.6650 H     1 <1>   0.1500 
 32 H       -4.8530    -0.6780    -1.5450 H     1 <1>   0.0800 
 33 H       -4.4930    -1.7920     1.2420 H     1 <1>   0.0800 
 34 H       -0.2210     4.7260    -2.0730 H     1 <1>   0.1500 
 35 H       -2.5020     4.9900     1.5160 H     1 <1>   0.1500 
 36 H       -6.1950    -0.5080     0.9330 H     1 <1>   0.4000 
 37 H       -4.2140    -3.0530    -1.5020 H     1 <1>   0.0800 
 38 H       -5.5360    -3.2970    -0.3940 H     1 <1>   0.0800 
 39 H       -1.0960     6.8520    -1.3860 H     1 <1>   0.0800 
 40 H       -2.3330     6.9200    -0.1760 H     1 <1>   0.0800 
 41 H       -2.3750    -4.8820    -1.3990 H     1 <1>   0.1500 
 42 H       -0.6050     6.8690     1.6020 H     1 <1>   0.0800 
 43 H       -3.0150    -6.0630     2.5650 H     1 <1>   0.2700 
 44 H       -0.1870     9.0780    -0.4310 H     1 <1>   0.0800 
 45 H        0.2270     9.1590     1.2640 H     1 <1>   0.0800 
 46 H       -1.4430     9.0380     0.7840 H     1 <1>   0.0800 
 47 H        1.3860     7.0220    -0.6810 H     1 <1>   0.0800 
 48 H        1.1990     5.6860     0.4300 H     1 <1>   0.0800 
 49 H        1.7730     7.2210     1.0120 H     1 <1>   0.0800 
 50 H       -0.8160    -6.9420    -0.4770 H     1 <1>   0.0800 
 51 H       -1.7020    -7.8910     0.6910 H     1 <1>   0.0800 
 52 H       -0.4970    -6.7370     1.2270 H     1 <1>   0.0800 
@<TRIPOS>BOND
  1   1   2  2   
  2   2   3  am  
  3   2   4  1   
  4   3   5  1   
  5   3   6  1   
  6   4   7  ar  
  7   4   8  ar  
  8   5   9  1   
  9   5  26  1   
 10   5  27  1   
 11   6  10  1   
 12   6  28  1   
 13   6  29  1   
 14   7  11  ar  
 15   7  30  1   
 16   8  12  ar  
 17   8  31  1   
 18   9  10  1   
 19   9  13  1   
 20   9  32  1   
 21  10  14  1   
 22  10  33  1   
 23  11  15  ar  
 24  11  34  1   
 25  12  15  ar  
 26  12  35  1   
 27  13  36  1   
 28  14  16  1   
 29  14  37  1   
 30  14  38  1   
 31  15  17  1   
 32  16  18  2   
 33  16  19  1   
 34  17  20  1   
 35  17  39  1   
 36  17  40  1   
 37  18  21  1   
 38  19  22  2   
 39  19  41  1   
 40  20  23  1   
 41  20  24  1   
 42  20  42  1   
 43  21  22  1   
 44  21  43  1   
 45  22  25  1   
 46  23  44  1   
 47  23  45  1   
 48  23  46  1   
 49  24  47  1   
 50  24  48  1   
 51  24  49  1   
 52  25  50  1   
 53  25  51  1   
 54  25  52  1   
@<TRIPOS>SUBSTRUCTURE
  1 ****   3 GROUP 4 **** **** 0

# MOE 2024.06 (io_trps.svl 2023.06)
