@<TRIPOS>MOLECULE
NONAME
53 55 1 0 0 
SMALL
USER_CHARGES


@<TRIPOS>ATOM
  1 O        0.0420     1.0980    -1.4790 O.2   1 <1>  -0.5700 
  2 C       -0.0870     2.2000    -0.9970 C.2   1 <1>   0.5690 
  3 N       -1.1320     2.5270    -0.1710 N.am  1 <1>  -0.6600 
  4 C        0.9650     3.2490    -1.3560 C.3   1 <1>   0.1810 
  5 C       -1.2940     3.9500     0.3170 C.3   1 <1>   0.3640 
  6 C       -1.9780     1.4350     0.4070 C.3   1 <1>   0.2200 
  7 O        1.0250     4.2980    -0.4240 O.3   1 <1>  -0.5600 
  8 C       -2.6670     4.5020    -0.0730 C.ar  1 <1>  -0.1440 
  9 C       -0.2180     4.9370    -0.2170 C.3   1 <1>   0.2610 
 10 C       -3.3000     1.3060    -0.3460 C.3   1 <1>  -0.2400 
 11 C       -2.2110     1.6090     1.9100 C.3   1 <1>  -0.2400 
 12 C       -3.1290     4.4170    -1.3810 C.ar  1 <1>  -0.1500 
 13 C       -3.4630     5.1190     0.8820 C.ar  1 <1>  -0.1500 
 14 C       -0.0520     6.1750     0.6870 C.2   1 <1>   0.5690 
 15 C       -4.3650     4.9350    -1.7260 C.ar  1 <1>  -0.1500 
 16 C       -4.7000     5.6370     0.5390 C.ar  1 <1>  -0.1500 
 17 O       -0.5470     6.1650     1.7940 O.2   1 <1>  -0.5700 
 18 N        0.6440     7.2780     0.2460 N.am  1 <1>  -0.6600 
 19 C       -5.1520     5.5450    -0.7650 C.ar  1 <1>  -0.1500 
 20 C        0.8730     8.4450     1.1470 C.3   1 <1>   0.3210 
 21 C        1.3710     7.3430    -1.0560 C.3   1 <1>   0.0600 
 22 C        2.3620     8.6670     1.3510 C.2   1 <1>  -0.1810 
 23 C        3.1460     9.7360     1.0770 C.2   1 <1>  -0.3320 
 24 C        3.2260     7.7240     1.8970 C.2   1 <1>   0.1390 
 25 N        4.3970     9.3990     1.4590 N.pl3 1 <1>   0.3000 
 26 C        2.8010    11.0850     0.4690 C.3   1 <1>  -0.0600 
 27 N        4.4480     8.1540     1.9650 N.2   1 <1>  -0.7070 
 28 H        0.7530     3.6590    -2.3260 H     1 <1>   0.0800 
 29 H        1.9330     2.7820    -1.3800 H     1 <1>   0.0800 
 30 H       -1.2130     3.9310     1.3880 H     1 <1>   0.0800 
 31 H       -1.4530     0.5020     0.2830 H     1 <1>   0.0800 
 32 H       -0.5490     5.2920    -1.1750 H     1 <1>   0.0800 
 33 H       -3.9540     2.1310    -0.1350 H     1 <1>   0.0800 
 34 H       -3.8000     0.4040    -0.0440 H     1 <1>   0.0800 
 35 H       -3.1170     1.2500    -1.4040 H     1 <1>   0.0800 
 36 H       -2.8450     2.4520     2.1120 H     1 <1>   0.0800 
 37 H       -1.2710     1.7260     2.4200 H     1 <1>   0.0800 
 38 H       -2.6950     0.7320     2.2990 H     1 <1>   0.0800 
 39 H       -2.5320     3.9360    -2.1360 H     1 <1>   0.1500 
 40 H       -3.1200     5.2060     1.9000 H     1 <1>   0.1500 
 41 H       -4.7170     4.8610    -2.7400 H     1 <1>   0.1500 
 42 H       -5.3090     6.1130     1.2870 H     1 <1>   0.1500 
 43 H       -6.1140     5.9480    -1.0320 H     1 <1>   0.1500 
 44 H        0.4260     9.3180     0.7060 H     1 <1>   0.0800 
 45 H        0.4110     8.2920     2.1060 H     1 <1>   0.0800 
 46 H        1.4900     8.3680    -1.3630 H     1 <1>   0.0800 
 47 H        0.8370     6.8190    -1.8260 H     1 <1>   0.0800 
 48 H        2.3470     6.9020    -0.9420 H     1 <1>   0.0800 
 49 H        2.9190     6.7430     2.2250 H     1 <1>   0.1500 
 50 H        5.2330     9.9910     1.3910 H     1 <1>   0.2700 
 51 H        1.7550    11.1390     0.2280 H     1 <1>   0.0800 
 52 H        3.3660    11.2410    -0.4330 H     1 <1>   0.0800 
 53 H        3.0310    11.8730     1.1650 H     1 <1>   0.0800 
@<TRIPOS>BOND
  1   1   2  2   
  2   2   3  am  
  3   2   4  1   
  4   3   5  1   
  5   3   6  1   
  6   4   7  1   
  7   4  28  1   
  8   4  29  1   
  9   5   8  1   
 10   5   9  1   
 11   5  30  1   
 12   6  10  1   
 13   6  11  1   
 14   6  31  1   
 15   7   9  1   
 16   8  12  ar  
 17   8  13  ar  
 18   9  14  1   
 19   9  32  1   
 20  10  33  1   
 21  10  34  1   
 22  10  35  1   
 23  11  36  1   
 24  11  37  1   
 25  11  38  1   
 26  12  15  ar  
 27  12  39  1   
 28  13  16  ar  
 29  13  40  1   
 30  14  17  2   
 31  14  18  am  
 32  15  19  ar  
 33  15  41  1   
 34  16  19  ar  
 35  16  42  1   
 36  18  20  1   
 37  18  21  1   
 38  19  43  1   
 39  20  22  1   
 40  20  44  1   
 41  20  45  1   
 42  21  46  1   
 43  21  47  1   
 44  21  48  1   
 45  22  23  2   
 46  22  24  1   
 47  23  25  1   
 48  23  26  1   
 49  24  27  2   
 50  24  49  1   
 51  25  27  1   
 52  25  50  1   
 53  26  51  1   
 54  26  52  1   
 55  26  53  1   
@<TRIPOS>SUBSTRUCTURE
  1 ****   9 GROUP 4 **** **** 0

# MOE 2024.06 (io_trps.svl 2023.06)
