@<TRIPOS>MOLECULE
NONAME
54 55 1 0 0 
SMALL
USER_CHARGES


@<TRIPOS>ATOM
  1 S        1.3800     0.2060    -0.2160 S.o2  1 <1>   1.3330 
  2 O        2.2520     0.3320     0.9300 O.2   1 <1>  -0.6500 
  3 O        1.9510    -0.0110    -1.5260 O.2   1 <1>  -0.6500 
  4 N        0.2860    -1.0520     0.1010 N.am  1 <1>  -0.8490 
  5 C        0.3220     1.6470    -0.3190 C.3   1 <1>  -0.0550 
  6 C        0.7800    -2.3480    -0.3730 C.3   1 <1>   0.1160 
  7 C       -0.0930    -1.1510     1.5150 C.3   1 <1>   0.1160 
  8 C        1.0820     2.9330    -0.6990 C.3   1 <1>  -0.0800 
  9 C        0.1780     4.1400    -0.9700 C.3   1 <1>   0.2000 
 10 C        2.0640     3.4240     0.3750 C.3   1 <1>   0.1400 
 11 O       -0.7860     4.2150     0.0240 O.3   1 <1>  -0.6800 
 12 C        1.1170     5.3310    -0.8090 C.3   1 <1>   0.1400 
 13 N        2.0460     4.9040     0.2650 N.am  1 <1>  -0.6600 
 14 C        2.6880     5.7400     1.1480 C.2   1 <1>   0.5440 
 15 O        3.2230     5.2400     2.1200 O.2   1 <1>  -0.5700 
 16 C        2.7060     7.1790     0.9880 C.ar  1 <1>   0.0860 
 17 C        3.1860     7.8150    -0.1650 C.ar  1 <1>   0.0820 
 18 C        2.2470     7.9950     2.0240 C.ar  1 <1>  -0.1500 
 19 O        3.6600     7.0930    -1.2010 O.3   1 <1>  -0.3630 
 20 C        3.1740     9.1980    -0.2780 C.ar  1 <1>  -0.1500 
 21 C        2.2420     9.3730     1.9160 C.ar  1 <1>  -0.1500 
 22 C        5.0580     7.0370    -1.3890 C.3   1 <1>   0.1200 
 23 C        2.7030     9.9780     0.7600 C.ar  1 <1>  -0.1500 
 24 C        5.6450     5.9340    -0.5030 C.3   1 <1>  -0.1600 
 25 C        7.1420     5.7420    -0.7700 C.3   1 <1>  -0.1600 
 26 C        7.7170     4.6360     0.1200 C.3   1 <1>  -0.2400 
 27 H       -0.4300     1.4650    -1.0620 H     1 <1>   0.0800 
 28 H       -0.1780     1.7890     0.6190 H     1 <1>   0.0800 
 29 H        0.0570    -3.1200    -0.1730 H     1 <1>   0.0800 
 30 H        1.7090    -2.5960     0.1140 H     1 <1>   0.0800 
 31 H        0.9460    -2.3120    -1.4370 H     1 <1>   0.0800 
 32 H       -0.8510    -1.9060     1.6430 H     1 <1>   0.0800 
 33 H       -0.4900    -0.2120     1.8610 H     1 <1>   0.0800 
 34 H        0.7620    -1.4070     2.1180 H     1 <1>   0.0800 
 35 H        1.6500     2.7440    -1.5940 H     1 <1>   0.0800 
 36 H       -0.3120     4.1070    -1.9290 H     1 <1>   0.0800 
 37 H        3.0590     3.0460     0.2090 H     1 <1>   0.0800 
 38 H        1.7420     3.1410     1.3640 H     1 <1>   0.0800 
 39 H       -0.3400     4.4530     0.8630 H     1 <1>   0.4000 
 40 H        0.5870     6.2330    -0.5560 H     1 <1>   0.0800 
 41 H        1.6770     5.4820    -1.7160 H     1 <1>   0.0800 
 42 H        1.8950     7.5280     2.9280 H     1 <1>   0.1500 
 43 H        3.5320     9.6590    -1.1810 H     1 <1>   0.1500 
 44 H        1.8800     9.9770     2.7310 H     1 <1>   0.1500 
 45 H        5.2320     6.8140    -2.4270 H     1 <1>   0.0800 
 46 H        5.4870     7.9950    -1.1560 H     1 <1>   0.0800 
 47 H        2.6950    11.0510     0.6720 H     1 <1>   0.1500 
 48 H        5.5030     6.1930     0.5320 H     1 <1>   0.0800 
 49 H        5.1260     5.0110    -0.6990 H     1 <1>   0.0800 
 50 H        7.2970     5.4800    -1.8040 H     1 <1>   0.0800 
 51 H        7.6660     6.6620    -0.5740 H     1 <1>   0.0800 
 52 H        7.2220     3.7010    -0.0750 H     1 <1>   0.0800 
 53 H        7.5850     4.8840     1.1590 H     1 <1>   0.0800 
 54 H        8.7680     4.5150    -0.0730 H     1 <1>   0.0800 
@<TRIPOS>BOND
  1   1   2  2   
  2   1   3  2   
  3   1   4  am  
  4   1   5  1   
  5   4   6  1   
  6   4   7  1   
  7   5   8  1   
  8   5  27  1   
  9   5  28  1   
 10   6  29  1   
 11   6  30  1   
 12   6  31  1   
 13   7  32  1   
 14   7  33  1   
 15   7  34  1   
 16   8   9  1   
 17   8  10  1   
 18   8  35  1   
 19   9  11  1   
 20   9  12  1   
 21   9  36  1   
 22  10  13  1   
 23  10  37  1   
 24  10  38  1   
 25  11  39  1   
 26  12  13  1   
 27  12  40  1   
 28  12  41  1   
 29  13  14  am  
 30  14  15  2   
 31  14  16  1   
 32  16  17  ar  
 33  16  18  ar  
 34  17  19  1   
 35  17  20  ar  
 36  18  21  ar  
 37  18  42  1   
 38  19  22  1   
 39  20  23  ar  
 40  20  43  1   
 41  21  23  ar  
 42  21  44  1   
 43  22  24  1   
 44  22  45  1   
 45  22  46  1   
 46  23  47  1   
 47  24  25  1   
 48  24  48  1   
 49  24  49  1   
 50  25  26  1   
 51  25  50  1   
 52  25  51  1   
 53  26  52  1   
 54  26  53  1   
 55  26  54  1   
@<TRIPOS>SUBSTRUCTURE
  1 ****  13 GROUP 4 **** **** 0

# MOE 2024.06 (io_trps.svl 2023.06)
