@<TRIPOS>MOLECULE
NONAME
46 48 1 0 0 
SMALL
USER_CHARGES


@<TRIPOS>ATOM
  1 O       -2.0250     0.5480     2.0460 O.2   1 <1>  -0.5700 
  2 C       -2.1540     0.9910     0.9220 C.2   1 <1>   0.5440 
  3 N       -2.5920     0.1700    -0.0910 N.am  1 <1>  -0.6600 
  4 C       -1.8490     2.3800     0.6640 C.ar  1 <1>   0.0860 
  5 C       -2.6350    -1.3180     0.1210 C.3   1 <1>   0.3640 
  6 C       -3.1510     0.7370    -1.3570 C.3   1 <1>   0.1400 
  7 C       -0.6690     2.7760     0.0260 C.ar  1 <1>   0.1660 
  8 C       -2.7450     3.3740     1.0280 C.ar  1 <1>  -0.1500 
  9 C       -1.2290    -1.8920    -0.0820 C.ar  1 <1>  -0.1440 
 10 C       -3.6600    -2.0890    -0.7650 C.3   1 <1>   0.2000 
 11 C       -3.7570    -0.3190    -2.2920 C.3   1 <1>   0.1200 
 12 N       -0.3700     4.0260    -0.2940 N.ar  1 <1>  -0.6200 
 13 C        0.3910     1.7550    -0.3600 C.3   1 <1>  -0.0960 
 14 C       -2.4330     4.6770     0.7150 C.ar  1 <1>  -0.1500 
 15 C       -0.6730    -2.6890     0.9080 C.ar  1 <1>  -0.1500 
 16 C       -0.4910    -1.6420    -1.2330 C.ar  1 <1>  -0.1500 
 17 O       -4.4710    -1.2530    -1.5500 O.3   1 <1>  -0.5600 
 18 C       -4.6010    -2.9680     0.0710 C.3   1 <1>   0.1200 
 19 C       -1.2470     4.9510     0.0550 C.ar  1 <1>   0.1670 
 20 C        0.5910    -3.2300     0.7520 C.ar  1 <1>  -0.1500 
 21 C        0.7730    -2.1810    -1.3910 C.ar  1 <1>  -0.1500 
 22 O       -3.8830    -3.9250     0.7850 O.3   1 <1>  -0.6800 
 23 C       -0.8830     6.3750    -0.3080 C.3   1 <1>  -0.0970 
 24 C        1.3150    -2.9770    -0.3990 C.ar  1 <1>  -0.1500 
 25 H       -2.9100    -1.4930     1.1480 H     1 <1>   0.0800 
 26 H       -3.9240     1.4420    -1.1030 H     1 <1>   0.0800 
 27 H       -2.3810     1.2730    -1.8830 H     1 <1>   0.0800 
 28 H       -3.6570     3.1210     1.5420 H     1 <1>   0.1500 
 29 H       -3.1290    -2.7280    -1.4470 H     1 <1>   0.0800 
 30 H       -2.9960    -0.8270    -2.8570 H     1 <1>   0.0800 
 31 H       -4.4380     0.1480    -2.9810 H     1 <1>   0.0800 
 32 H        0.3870     0.9090     0.3040 H     1 <1>   0.0800 
 33 H        1.3660     2.2060    -0.3120 H     1 <1>   0.0800 
 34 H        0.2190     1.4160    -1.3630 H     1 <1>   0.0800 
 35 H       -3.1040     5.4730     0.9820 H     1 <1>   0.1500 
 36 H       -1.2250    -2.8900     1.8110 H     1 <1>   0.1500 
 37 H       -0.8930    -1.0210    -2.0100 H     1 <1>   0.1500 
 38 H       -5.3010    -3.4810    -0.5650 H     1 <1>   0.0800 
 39 H       -5.1380    -2.3630     0.7810 H     1 <1>   0.0800 
 40 H        1.0100    -3.8450     1.5290 H     1 <1>   0.1500 
 41 H        1.3370    -1.9810    -2.2860 H     1 <1>   0.1500 
 42 H       -3.4550    -4.5660     0.1830 H     1 <1>   0.4000 
 43 H       -1.6440     7.0640     0.0080 H     1 <1>   0.0800 
 44 H       -0.7600     6.4530    -1.3720 H     1 <1>   0.0800 
 45 H        0.0440     6.6380     0.1670 H     1 <1>   0.0800 
 46 H        2.2990    -3.3970    -0.5190 H     1 <1>   0.1500 
@<TRIPOS>BOND
  1   1   2  2   
  2   2   3  am  
  3   2   4  1   
  4   3   5  1   
  5   3   6  1   
  6   4   7  ar  
  7   4   8  ar  
  8   5   9  1   
  9   5  10  1   
 10   5  25  1   
 11   6  11  1   
 12   6  26  1   
 13   6  27  1   
 14   7  12  ar  
 15   7  13  1   
 16   8  14  ar  
 17   8  28  1   
 18   9  15  ar  
 19   9  16  ar  
 20  10  17  1   
 21  10  18  1   
 22  10  29  1   
 23  11  17  1   
 24  11  30  1   
 25  11  31  1   
 26  12  19  ar  
 27  13  32  1   
 28  13  33  1   
 29  13  34  1   
 30  14  19  ar  
 31  14  35  1   
 32  15  20  ar  
 33  15  36  1   
 34  16  21  ar  
 35  16  37  1   
 36  18  22  1   
 37  18  38  1   
 38  18  39  1   
 39  19  23  1   
 40  20  24  ar  
 41  20  40  1   
 42  21  24  ar  
 43  21  41  1   
 44  22  42  1   
 45  23  43  1   
 46  23  44  1   
 47  23  45  1   
 48  24  46  1   
@<TRIPOS>SUBSTRUCTURE
  1 ****   3 GROUP 4 **** **** 0

# MOE 2024.06 (io_trps.svl 2023.06)
