@<TRIPOS>MOLECULE
NONAME
52 54 1 0 0 
SMALL
USER_CHARGES


@<TRIPOS>ATOM
  1 O       -0.8500    -4.3260     1.7250 O.2   1 <1>  -0.5700 
  2 C       -0.0150    -3.5200     1.3550 C.2   1 <1>   0.6900 
  3 N        1.3250    -3.8310     1.2070 N.am  1 <1>  -0.4200 
  4 N       -0.4420    -2.2610     1.0320 N.am  1 <1>  -0.5390 
  5 C        2.1820    -2.9150     0.6210 C.2   1 <1>   0.6160 
  6 C        1.8770    -5.1380     1.6810 C.3   1 <1>   0.1400 
  7 C        0.3890    -1.3010     0.4970 C.2   1 <1>  -0.0290 
  8 O        3.3380    -3.2170     0.3860 O.2   1 <1>  -0.5700 
  9 C        1.6830    -1.6220     0.2860 C.2   1 <1>  -0.1360 
 10 C        1.9320    -6.1760     0.5480 C.3   1 <1>   0.1100 
 11 C       -0.2230     0.0500     0.1870 C.3   1 <1>  -0.1020 
 12 N        0.5700    -6.4370     0.0710 N.3   1 <1>  -0.8100 
 13 C        0.2380    -6.1390    -1.3290 C.3   1 <1>   0.1100 
 14 C       -0.1590    -7.5800     0.6510 C.3   1 <1>   0.1100 
 15 C       -1.2860    -5.8990    -1.4820 C.3   1 <1>   0.3430 
 16 C       -1.6760    -7.4900     0.3480 C.3   1 <1>   0.3430 
 17 N       -2.0320    -6.1320    -0.1900 N.4   1 <1>  -0.9590 
 18 C       -3.4840    -5.7990    -0.2070 C.3   1 <1>   0.4230 
 19 C       -3.6880    -4.3650    -0.7340 C.3   1 <1>  -0.1600 
 20 C       -4.0680    -5.9320     1.2130 C.3   1 <1>  -0.1600 
 21 C       -5.1530    -3.9130    -0.6510 C.3   1 <1>  -0.1600 
 22 C       -5.5320    -5.4750     1.2890 C.3   1 <1>  -0.1600 
 23 C       -5.6930    -4.0420     0.7750 C.3   1 <1>  -0.1600 
 24 H       -1.4150    -2.0570     1.2600 H     1 <1>   0.3700 
 25 H        1.2740    -5.5160     2.4870 H     1 <1>   0.0800 
 26 H        2.8700    -4.9850     2.0670 H     1 <1>   0.0800 
 27 H        2.3950    -0.9360    -0.1320 H     1 <1>   0.1500 
 28 H        2.3780    -7.0870     0.9080 H     1 <1>   0.0800 
 29 H        2.5500    -5.7970    -0.2500 H     1 <1>   0.0800 
 30 H       -1.0200    -0.0570    -0.5260 H     1 <1>   0.0800 
 31 H        0.5160     0.7150    -0.2240 H     1 <1>   0.0800 
 32 H       -0.6150     0.4930     1.0860 H     1 <1>   0.0800 
 33 H        0.5510    -6.9520    -1.9610 H     1 <1>   0.0800 
 34 H        0.7620    -5.2530    -1.6450 H     1 <1>   0.0800 
 35 H       -0.0240    -7.5780     1.7190 H     1 <1>   0.0800 
 36 H        0.2370    -8.5060     0.2690 H     1 <1>   0.0800 
 37 H       -1.6720    -6.5440    -2.2530 H     1 <1>   0.0800 
 38 H       -1.4260    -4.8820    -1.8050 H     1 <1>   0.0800 
 39 H       -2.2100    -7.6930     1.2590 H     1 <1>   0.0800 
 40 H       -1.9430    -8.2470    -0.3690 H     1 <1>   0.0800 
 41 H       -1.5700    -5.4880     0.4890 H     1 <1>   0.4500 
 42 H       -4.0040    -6.4820    -0.8590 H     1 <1>   0.0800 
 43 H       -3.3940    -4.2990    -1.7650 H     1 <1>   0.0800 
 44 H       -3.0860    -3.6850    -0.1570 H     1 <1>   0.0800 
 45 H       -3.4860    -5.3370     1.8960 H     1 <1>   0.0800 
 46 H       -4.0380    -6.9550     1.5380 H     1 <1>   0.0800 
 47 H       -5.7560    -4.5100    -1.3150 H     1 <1>   0.0800 
 48 H       -5.2350    -2.8880    -0.9720 H     1 <1>   0.0800 
 49 H       -5.8730    -5.5280     2.3100 H     1 <1>   0.0800 
 50 H       -6.1500    -6.1360     0.7040 H     1 <1>   0.0800 
 51 H       -6.7350    -3.7680     0.7930 H     1 <1>   0.0800 
 52 H       -5.1660    -3.3640     1.4260 H     1 <1>   0.0800 
@<TRIPOS>BOND
  1   1   2  2   
  2   2   3  am  
  3   2   4  am  
  4   3   5  am  
  5   3   6  1   
  6   4   7  1   
  7   4  24  1   
  8   5   8  2   
  9   5   9  1   
 10   6  10  1   
 11   6  25  1   
 12   6  26  1   
 13   7   9  2   
 14   7  11  1   
 15   9  27  1   
 16  10  12  1   
 17  10  28  1   
 18  10  29  1   
 19  11  30  1   
 20  11  31  1   
 21  11  32  1   
 22  12  13  1   
 23  12  14  1   
 24  13  15  1   
 25  13  33  1   
 26  13  34  1   
 27  14  16  1   
 28  14  35  1   
 29  14  36  1   
 30  15  17  1   
 31  15  37  1   
 32  15  38  1   
 33  16  17  1   
 34  16  39  1   
 35  16  40  1   
 36  17  18  1   
 37  17  41  1   
 38  18  19  1   
 39  18  20  1   
 40  18  42  1   
 41  19  21  1   
 42  19  43  1   
 43  19  44  1   
 44  20  22  1   
 45  20  45  1   
 46  20  46  1   
 47  21  23  1   
 48  21  47  1   
 49  21  48  1   
 50  22  23  1   
 51  22  49  1   
 52  22  50  1   
 53  23  51  1   
 54  23  52  1   
@<TRIPOS>SUBSTRUCTURE
  1 ****   1 GROUP 4 **** **** 0

# MOE 2024.06 (io_trps.svl 2023.06)
