@<TRIPOS>MOLECULE
NONAME
60 63 1 0 0 
SMALL
USER_CHARGES


@<TRIPOS>ATOM
  1 O        0.2440     0.9930     0.7870 O.2   1 <1>  -0.5700 
  2 C        0.1180     2.1810     0.6070 C.2   1 <1>   0.5690 
  3 N       -1.0040     2.8660     0.9860 N.am  1 <1>  -0.6600 
  4 C        1.2550     2.9220    -0.1010 C.3   1 <1>   0.1810 
  5 C       -1.1310     4.3400     0.7450 C.3   1 <1>   0.3640 
  6 C       -2.0900     2.2380     1.7940 C.3   1 <1>   0.0600 
  7 O        1.2600     4.3080     0.1510 O.3   1 <1>  -0.5600 
  8 C       -2.4870     4.6980     0.1130 C.ar  1 <1>  -0.1430 
  9 C        0.0180     4.9440    -0.1050 C.3   1 <1>   0.2610 
 10 C       -3.0420     4.0670    -1.0070 C.ar  1 <1>  -0.1430 
 11 C       -3.1880     5.7390     0.7090 C.ar  1 <1>  -0.1500 
 12 C        0.1440     6.4630     0.1060 C.2   1 <1>   0.5690 
 13 C       -4.2720     4.4920    -1.4880 C.ar  1 <1>  -0.1500 
 14 C       -2.3800     2.9080    -1.7470 C.3   1 <1>  -0.0960 
 15 C       -4.4120     6.1550     0.2190 C.ar  1 <1>  -0.1500 
 16 O       -0.2080     6.9400     1.1640 O.2   1 <1>  -0.5700 
 17 N        0.6880     7.2680    -0.8720 N.am  1 <1>  -0.6600 
 18 C       -4.9560     5.5290    -0.8830 C.ar  1 <1>  -0.1500 
 19 C        1.4980     6.7610    -2.0210 C.3   1 <1>   0.1400 
 20 C        0.7670     8.7380    -0.6790 C.3   1 <1>   0.1400 
 21 C        2.7980     7.5740    -2.1790 C.3   1 <1>  -0.1600 
 22 C        2.2000     9.1190    -0.2670 C.3   1 <1>  -0.1600 
 23 C        3.2890     8.1670    -0.8390 C.3   1 <1>   0.0000 
 24 C        4.6220     8.9040    -0.9800 C.3   1 <1>   0.3430 
 25 C        3.6470     7.0660     0.1760 C.3   1 <1>  -0.1600 
 26 N        5.2090     8.8890     0.3880 N.4   1 <1>  -0.9590 
 27 C        4.7970     7.6030     1.0200 C.3   1 <1>   0.3430 
 28 C        6.6870     9.1000     0.3980 C.3   1 <1>   0.2630 
 29 H        1.1770     2.7660    -1.1610 H     1 <1>   0.0800 
 30 H        2.1940     2.5260     0.2380 H     1 <1>   0.0800 
 31 H       -1.0870     4.7940     1.7200 H     1 <1>   0.0800 
 32 H       -3.0220     2.2850     1.2590 H     1 <1>   0.0800 
 33 H       -2.1960     2.7600     2.7290 H     1 <1>   0.0800 
 34 H       -1.8640     1.2060     2.0000 H     1 <1>   0.0800 
 35 H       -0.2130     4.7890    -1.1400 H     1 <1>   0.0800 
 36 H       -2.7820     6.2480     1.5670 H     1 <1>   0.1500 
 37 H       -4.7150     4.0140    -2.3440 H     1 <1>   0.1500 
 38 H       -2.8310     2.7610    -2.7120 H     1 <1>   0.0800 
 39 H       -2.4980     2.0000    -1.1840 H     1 <1>   0.0800 
 40 H       -1.3350     3.0850    -1.9040 H     1 <1>   0.0800 
 41 H       -4.9360     6.9650     0.6960 H     1 <1>   0.1500 
 42 H       -5.9090     5.8470    -1.2690 H     1 <1>   0.1500 
 43 H        1.7610     5.7310    -1.8590 H     1 <1>   0.0800 
 44 H        0.9140     6.8180    -2.9240 H     1 <1>   0.0800 
 45 H        0.5080     9.2190    -1.6070 H     1 <1>   0.0800 
 46 H        0.0620     9.0700     0.0650 H     1 <1>   0.0800 
 47 H        3.5500     6.9420    -2.6200 H     1 <1>   0.0800 
 48 H        2.6140     8.3740    -2.8760 H     1 <1>   0.0800 
 49 H        2.3640    10.1270    -0.6060 H     1 <1>   0.0800 
 50 H        2.2450     9.1420     0.8080 H     1 <1>   0.0800 
 51 H        4.4880     9.9080    -1.3480 H     1 <1>   0.0800 
 52 H        5.2600     8.3580    -1.6550 H     1 <1>   0.0800 
 53 H        3.9840     6.1760    -0.3270 H     1 <1>   0.0800 
 54 H        2.8180     6.7880     0.8030 H     1 <1>   0.0800 
 55 H        4.7520     9.6430     0.9210 H     1 <1>   0.4500 
 56 H        5.6110     6.8950     1.0170 H     1 <1>   0.0800 
 57 H        4.4770     7.7680     2.0370 H     1 <1>   0.0800 
 58 H        7.1810     8.3170    -0.1540 H     1 <1>   0.0800 
 59 H        7.0580     9.0960     1.4100 H     1 <1>   0.0800 
 60 H        6.9320    10.0480    -0.0530 H     1 <1>   0.0800 
@<TRIPOS>BOND
  1   1   2  2   
  2   2   3  am  
  3   2   4  1   
  4   3   5  1   
  5   3   6  1   
  6   4   7  1   
  7   4  29  1   
  8   4  30  1   
  9   5   8  1   
 10   5   9  1   
 11   5  31  1   
 12   6  32  1   
 13   6  33  1   
 14   6  34  1   
 15   7   9  1   
 16   8  10  ar  
 17   8  11  ar  
 18   9  12  1   
 19   9  35  1   
 20  10  13  ar  
 21  10  14  1   
 22  11  15  ar  
 23  11  36  1   
 24  12  16  2   
 25  12  17  am  
 26  13  18  ar  
 27  13  37  1   
 28  14  38  1   
 29  14  39  1   
 30  14  40  1   
 31  15  18  ar  
 32  15  41  1   
 33  17  19  1   
 34  17  20  1   
 35  18  42  1   
 36  19  21  1   
 37  19  43  1   
 38  19  44  1   
 39  20  22  1   
 40  20  45  1   
 41  20  46  1   
 42  21  23  1   
 43  21  47  1   
 44  21  48  1   
 45  22  23  1   
 46  22  49  1   
 47  22  50  1   
 48  23  24  1   
 49  23  25  1   
 50  24  26  1   
 51  24  51  1   
 52  24  52  1   
 53  25  27  1   
 54  25  53  1   
 55  25  54  1   
 56  26  27  1   
 57  26  28  1   
 58  26  55  1   
 59  27  56  1   
 60  27  57  1   
 61  28  58  1   
 62  28  59  1   
 63  28  60  1   
@<TRIPOS>SUBSTRUCTURE
  1 ****  12 GROUP 4 **** **** 0

# MOE 2024.06 (io_trps.svl 2023.06)
