@<TRIPOS>MOLECULE
NONAME
27 28 1 0 0 
SMALL
USER_CHARGES


@<TRIPOS>ATOM
  1 CL      -0.2810    -0.0420     0.4890 Cl    1 <1>  -0.1770 
  2 C        1.2030    -0.9390     0.2130 C.ar  1 <1>   0.1770 
  3 C        1.1950    -2.3250     0.1160 C.ar  1 <1>   0.4100 
  4 C        2.3980    -0.2870     0.0910 C.ar  1 <1>   0.1600 
  5 N        2.3210    -2.9860    -0.0830 N.ar  1 <1>  -0.6200 
  6 N        0.0360    -3.0570     0.2260 N.pl3 1 <1>  -0.8690 
  7 N        3.5300    -0.9400    -0.1130 N.ar  1 <1>  -0.6200 
  8 C        3.4180    -2.2570    -0.1890 C.ar  1 <1>   0.4770 
  9 C       -0.0040    -4.5410     0.3400 C.3   1 <1>   0.3900 
 10 C        4.7010    -3.0180    -0.4190 C.3   1 <1>  -0.0960 
 11 C       -1.3620    -5.0910    -0.0810 C.2   1 <1>   0.0460 
 12 N       -1.6540    -6.4040     0.2720 N.2   1 <1>  -0.5650 
 13 C       -2.3160    -4.4400    -0.7680 C.2   1 <1>  -0.1100 
 14 C       -2.8080    -6.7480    -0.1350 C.2   1 <1>   0.1980 
 15 S       -3.6750    -5.4990    -1.0000 S.3   1 <1>  -0.0800 
 16 C       -3.5000    -8.0800     0.0390 C.3   1 <1>  -0.0600 
 17 H        2.4340     0.7860     0.1610 H     1 <1>   0.1500 
 18 H       -0.7940    -2.5850     0.5910 H     1 <1>   0.4000 
 19 H        0.1840    -4.8160     1.3630 H     1 <1>   0.0800 
 20 H        0.7570    -4.9870    -0.2750 H     1 <1>   0.0800 
 21 H        4.4970    -3.9500    -0.9120 H     1 <1>   0.0800 
 22 H        5.1710    -3.2130     0.5260 H     1 <1>   0.0800 
 23 H        5.3670    -2.4400    -1.0320 H     1 <1>   0.0800 
 24 H       -2.3720    -3.4460    -1.1730 H     1 <1>   0.1500 
 25 H       -2.8620    -8.7510     0.5840 H     1 <1>   0.0800 
 26 H       -3.7160    -8.5050    -0.9230 H     1 <1>   0.0800 
 27 H       -4.4160    -7.9460     0.5840 H     1 <1>   0.0800 
@<TRIPOS>BOND
  1   1   2  1   
  2   2   3  ar  
  3   2   4  ar  
  4   3   5  ar  
  5   3   6  1   
  6   4   7  ar  
  7   4  17  1   
  8   5   8  ar  
  9   6   9  1   
 10   6  18  1   
 11   7   8  ar  
 12   8  10  1   
 13   9  11  1   
 14   9  19  1   
 15   9  20  1   
 16  10  21  1   
 17  10  22  1   
 18  10  23  1   
 19  11  12  1   
 20  11  13  2   
 21  12  14  2   
 22  13  15  1   
 23  13  24  1   
 24  14  15  1   
 25  14  16  1   
 26  16  25  1   
 27  16  26  1   
 28  16  27  1   
@<TRIPOS>SUBSTRUCTURE
  1 ****   6 GROUP 4 **** **** 0

# MOE 2024.06 (io_trps.svl 2023.06)
