@<TRIPOS>MOLECULE
NONAME
54 57 1 0 0 
SMALL
USER_CHARGES


@<TRIPOS>ATOM
  1 O        0.8620     0.0650    -0.4650 O.2   1 <1>  -0.5700 
  2 C        1.8180    -0.6290    -0.1800 C.2   1 <1>   0.5440 
  3 N        3.0560    -0.0360    -0.0350 N.am  1 <1>  -0.6600 
  4 C        1.6200    -2.0470    -0.0170 C.ar  1 <1>   0.0860 
  5 C        4.3500    -0.7730    -0.2210 C.3   1 <1>   0.1400 
  6 C        3.1620     1.4320     0.2040 C.3   1 <1>   0.1400 
  7 C        2.1560    -2.7610     1.0370 C.ar  1 <1>   0.1600 
  8 C        0.8660    -2.7860    -0.9070 C.ar  1 <1>   0.1600 
  9 C        5.1920    -0.2150    -1.3790 C.3   1 <1>   0.1400 
 10 C        3.4500     2.1630    -1.1120 C.3   1 <1>  -0.1600 
 11 N        2.0010    -4.0600     1.1810 N.ar  1 <1>  -0.6200 
 12 N        0.6890    -4.0860    -0.7950 N.ar  1 <1>  -0.6200 
 13 N        5.7570     1.1250    -1.0430 N.am  1 <1>  -0.6600 
 14 C        4.9430     2.3130    -1.4350 C.3   1 <1>   0.1400 
 15 C        1.2700    -4.6550     0.2500 C.ar  1 <1>   0.4770 
 16 C        6.9060     1.2170    -0.2800 C.2   1 <1>   0.5440 
 17 C        1.0740    -6.1550     0.4010 C.3   1 <1>  -0.0160 
 18 O        7.3370     0.2070     0.2460 O.2   1 <1>  -0.5700 
 19 C        7.5960     2.4740    -0.0720 C.ar  1 <1>   0.0860 
 20 C       -0.1630    -6.4940     1.2450 C.3   1 <1>  -0.2400 
 21 C        7.8450     2.9520     1.2120 C.ar  1 <1>  -0.1500 
 22 C        8.0330     3.2590    -1.1390 C.ar  1 <1>  -0.1500 
 23 C        8.4760     4.1630     1.4190 C.ar  1 <1>  -0.1500 
 24 C        8.6660     4.4700    -0.9310 C.ar  1 <1>  -0.1500 
 25 C        8.9030     4.9570     0.3550 C.ar  1 <1>   0.0540 
 26 C        9.5580     6.2270     0.5900 C.2   1 <1>   0.2350 
 27 N        9.3930     6.9480     1.6740 N.2   1 <1>  -0.7070 
 28 C       10.4480     6.8620    -0.2860 C.2   1 <1>  -0.1500 
 29 N       10.1600     8.0360     1.5010 N.pl3 1 <1>   0.3000 
 30 C       10.8090     8.0080     0.3230 C.2   1 <1>  -0.3020 
 31 H        4.1570    -1.8080    -0.4370 H     1 <1>   0.0800 
 32 H        4.9220    -0.7320     0.6900 H     1 <1>   0.0800 
 33 H        3.9300     1.6340     0.9320 H     1 <1>   0.0800 
 34 H        2.2300     1.7910     0.6080 H     1 <1>   0.0800 
 35 H        2.7330    -2.2390     1.7810 H     1 <1>   0.1500 
 36 H        0.3990    -2.2810    -1.7360 H     1 <1>   0.1500 
 37 H        4.6000    -0.1620    -2.2750 H     1 <1>   0.0800 
 38 H        6.0060    -0.8940    -1.5670 H     1 <1>   0.0800 
 39 H        3.0340     3.1520    -1.0470 H     1 <1>   0.0800 
 40 H        2.9390     1.6700    -1.9190 H     1 <1>   0.0800 
 41 H        5.3030     3.1820    -0.9120 H     1 <1>   0.0800 
 42 H        5.0660     2.4930    -2.4890 H     1 <1>   0.0800 
 43 H        1.9490    -6.5770     0.8610 H     1 <1>   0.0800 
 44 H        0.9720    -6.5940    -0.5750 H     1 <1>   0.0800 
 45 H       -0.0640    -6.0740     2.2310 H     1 <1>   0.0800 
 46 H       -0.2730    -7.5600     1.3310 H     1 <1>   0.0800 
 47 H       -1.0470    -6.0890     0.7840 H     1 <1>   0.0800 
 48 H        7.5340     2.3580     2.0550 H     1 <1>   0.1500 
 49 H        7.8700     2.9070    -2.1420 H     1 <1>   0.1500 
 50 H        8.6500     4.5110     2.4230 H     1 <1>   0.1500 
 51 H        8.9780     5.0510    -1.7800 H     1 <1>   0.1500 
 52 H       10.7660     6.4870    -1.2410 H     1 <1>   0.1500 
 53 H       10.2210     8.7810     2.2060 H     1 <1>   0.2700 
 54 H       11.4750     8.7860    -0.0030 H     1 <1>   0.1500 
@<TRIPOS>BOND
  1   1   2  2   
  2   2   3  am  
  3   2   4  1   
  4   3   5  1   
  5   3   6  1   
  6   4   7  ar  
  7   4   8  ar  
  8   5   9  1   
  9   5  31  1   
 10   5  32  1   
 11   6  10  1   
 12   6  33  1   
 13   6  34  1   
 14   7  11  ar  
 15   7  35  1   
 16   8  12  ar  
 17   8  36  1   
 18   9  13  1   
 19   9  37  1   
 20   9  38  1   
 21  10  14  1   
 22  10  39  1   
 23  10  40  1   
 24  11  15  ar  
 25  12  15  ar  
 26  13  14  1   
 27  13  16  am  
 28  14  41  1   
 29  14  42  1   
 30  15  17  1   
 31  16  18  2   
 32  16  19  1   
 33  17  20  1   
 34  17  43  1   
 35  17  44  1   
 36  19  21  ar  
 37  19  22  ar  
 38  20  45  1   
 39  20  46  1   
 40  20  47  1   
 41  21  23  ar  
 42  21  48  1   
 43  22  24  ar  
 44  22  49  1   
 45  23  25  ar  
 46  23  50  1   
 47  24  25  ar  
 48  24  51  1   
 49  25  26  1   
 50  26  27  2   
 51  26  28  1   
 52  27  29  1   
 53  28  30  2   
 54  28  52  1   
 55  29  30  1   
 56  29  53  1   
 57  30  54  1   
@<TRIPOS>SUBSTRUCTURE
  1 ****  13 GROUP 4 **** **** 0

# MOE 2024.06 (io_trps.svl 2023.06)
