@<TRIPOS>MOLECULE
NONAME
50 51 1 0 0 
SMALL
USER_CHARGES


@<TRIPOS>ATOM
  1 CL      -5.4350     0.1140    -1.4690 Cl    1 <1>  -0.1770 
  2 C       -4.2370     0.5420    -0.2670 C.ar  1 <1>   0.1770 
  3 C       -3.4980    -0.4430     0.3780 C.ar  1 <1>  -0.1440 
  4 C       -4.0600     1.8830     0.0210 C.ar  1 <1>  -0.1500 
  5 C       -2.5710    -0.0520     1.3330 C.ar  1 <1>  -0.1500 
  6 C       -3.6760    -1.9240     0.0690 C.3   1 <1>  -0.0160 
  7 C       -3.1300     2.2580     0.9750 C.ar  1 <1>  -0.1500 
  8 C       -2.3880     1.2900     1.6290 C.ar  1 <1>  -0.1500 
  9 C       -4.8760    -2.4930     0.8360 C.3   1 <1>  -0.0990 
 10 C       -5.1000    -3.9610     0.5120 C.2   1 <1>   0.5690 
 11 O       -4.6670    -4.7520     1.3100 O.2   1 <1>  -0.5700 
 12 N       -5.7420    -4.3760    -0.6310 N.am  1 <1>  -0.6600 
 13 C       -5.6060    -5.8200    -1.0290 C.3   1 <1>   0.3210 
 14 C       -6.3130    -3.4610    -1.6800 C.3   1 <1>   0.1400 
 15 C       -6.7360    -6.6960    -0.4880 C.2   1 <1>   0.0460 
 16 C       -7.8120    -3.6810    -1.9820 C.3   1 <1>   0.3430 
 17 N       -7.9460    -6.7410    -1.0900 N.2   1 <1>  -0.5650 
 18 C       -6.7030    -7.5380     0.5720 C.2   1 <1>  -0.3320 
 19 N       -8.6430    -3.9860    -0.7740 N.4   1 <1>  -0.9590 
 20 C       -8.6060    -7.6140    -0.3990 C.2   1 <1>   0.0360 
 21 N       -7.9080    -8.1300     0.6310 N.pl3 1 <1>   0.0330 
 22 C       -5.5960    -7.8610     1.5650 C.3   1 <1>  -0.0600 
 23 C      -10.0470    -4.2960    -1.1630 C.3   1 <1>   0.2630 
 24 C       -8.5810    -2.9700     0.3140 C.3   1 <1>   0.2630 
 25 H       -4.6430     2.6240    -0.4950 H     1 <1>   0.1500 
 26 H       -1.9830    -0.7880     1.8550 H     1 <1>   0.1500 
 27 H       -2.7890    -2.4650     0.3520 H     1 <1>   0.0800 
 28 H       -3.8020    -2.0610    -0.9900 H     1 <1>   0.0800 
 29 H       -2.9830     3.2990     1.2070 H     1 <1>   0.1500 
 30 H       -1.6650     1.5810     2.3720 H     1 <1>   0.1500 
 31 H       -5.7570    -1.9170     0.6390 H     1 <1>   0.0800 
 32 H       -4.6770    -2.4060     1.8900 H     1 <1>   0.0800 
 33 H       -4.6680    -6.2030    -0.6670 H     1 <1>   0.0800 
 34 H       -5.5820    -5.9070    -2.1010 H     1 <1>   0.0800 
 35 H       -5.7560    -3.5850    -2.5930 H     1 <1>   0.0800 
 36 H       -6.1910    -2.4370    -1.3910 H     1 <1>   0.0800 
 37 H       -7.8900    -4.5120    -2.6650 H     1 <1>   0.0800 
 38 H       -8.2000    -2.8120    -2.4850 H     1 <1>   0.0800 
 39 H       -8.2310    -4.8830    -0.4210 H     1 <1>   0.4500 
 40 H       -9.6160    -7.9260    -0.6080 H     1 <1>   0.1500 
 41 H       -8.2190    -8.8400     1.3020 H     1 <1>   0.2700 
 42 H       -4.6790    -7.3710     1.2950 H     1 <1>   0.0800 
 43 H       -5.4140    -8.9210     1.5900 H     1 <1>   0.0800 
 44 H       -5.8740    -7.5300     2.5500 H     1 <1>   0.0800 
 45 H      -10.5190    -3.4300    -1.5970 H     1 <1>   0.0800 
 46 H      -10.6120    -4.6070    -0.2990 H     1 <1>   0.0800 
 47 H      -10.0600    -5.1000    -1.8830 H     1 <1>   0.0800 
 48 H       -8.9030    -2.0080    -0.0500 H     1 <1>   0.0800 
 49 H       -7.5760    -2.8880     0.6870 H     1 <1>   0.0800 
 50 H       -9.2190    -3.2650     1.1320 H     1 <1>   0.0800 
@<TRIPOS>BOND
  1   1   2  1   
  2   2   3  ar  
  3   2   4  ar  
  4   3   5  ar  
  5   3   6  1   
  6   4   7  ar  
  7   4  25  1   
  8   5   8  ar  
  9   5  26  1   
 10   6   9  1   
 11   6  27  1   
 12   6  28  1   
 13   7   8  ar  
 14   7  29  1   
 15   8  30  1   
 16   9  10  1   
 17   9  31  1   
 18   9  32  1   
 19  10  11  2   
 20  10  12  am  
 21  12  13  1   
 22  12  14  1   
 23  13  15  1   
 24  13  33  1   
 25  13  34  1   
 26  14  16  1   
 27  14  35  1   
 28  14  36  1   
 29  15  17  1   
 30  15  18  2   
 31  16  19  1   
 32  16  37  1   
 33  16  38  1   
 34  17  20  2   
 35  18  21  1   
 36  18  22  1   
 37  19  23  1   
 38  19  24  1   
 39  19  39  1   
 40  20  21  1   
 41  20  40  1   
 42  21  41  1   
 43  22  42  1   
 44  22  43  1   
 45  22  44  1   
 46  23  45  1   
 47  23  46  1   
 48  23  47  1   
 49  24  48  1   
 50  24  49  1   
 51  24  50  1   
@<TRIPOS>SUBSTRUCTURE
  1 ****  10 GROUP 4 **** **** 0

# MOE 2024.06 (io_trps.svl 2023.06)
