@<TRIPOS>MOLECULE
NONAME
49 51 1 0 0 
SMALL
USER_CHARGES


@<TRIPOS>ATOM
  1 O        0.0160     0.1840     1.9100 O.2   1 <1>  -0.5700 
  2 C       -1.0520     0.7510     1.9320 C.2   1 <1>   0.5690 
  3 N       -1.6840     1.1720     0.8010 N.am  1 <1>  -0.5470 
  4 C       -1.5610     1.2180     3.2710 C.3   1 <1>  -0.0990 
  5 C       -1.0820     1.3770    -0.4450 C.ar  1 <1>   0.1170 
  6 C       -0.5010     2.1220     3.9150 C.3   1 <1>   0.2090 
  7 C       -0.3280     0.3880    -1.0650 C.ar  1 <1>  -0.1500 
  8 C       -1.2000     2.6170    -1.0620 C.ar  1 <1>  -0.1500 
  9 N       -0.2180     3.3160     3.0650 N.pl3 1 <1>  -0.8690 
 10 C        0.3100     0.6390    -2.2670 C.ar  1 <1>  -0.1500 
 11 C       -0.5620     2.8710    -2.2620 C.ar  1 <1>  -0.1500 
 12 C        0.6110     3.5260     2.0270 C.ar  1 <1>   0.7710 
 13 C        0.1960     1.8820    -2.8650 C.ar  1 <1>  -0.1500 
 14 N        0.6510     4.7650     1.5800 N.ar  1 <1>  -0.6200 
 15 N        1.3210     2.5280     1.4670 N.ar  1 <1>  -0.1790 
 16 C        1.4170     5.0250     0.5340 C.ar  1 <1>   0.4100 
 17 C        2.0860     2.7410     0.3740 C.ar  1 <1>   0.2110 
 18 N        1.4660     6.3090     0.0900 N.pl3 1 <1>  -0.8380 
 19 C        2.1460     4.0030    -0.1090 C.ar  1 <1>  -0.1500 
 20 C        2.6370     6.9230    -0.6190 C.3   1 <1>   0.2090 
 21 C        0.3580     7.2880     0.3170 C.3   1 <1>   0.2090 
 22 C        2.1960     7.4780    -1.9840 C.3   1 <1>   0.2000 
 23 C       -0.1120     7.8450    -1.0330 C.3   1 <1>  -0.1600 
 24 O        3.2570     8.1260    -2.5910 O.3   1 <1>  -0.6800 
 25 C        1.0380     8.4710    -1.8430 C.3   1 <1>  -0.1600 
 26 H       -2.5980     1.6130     0.9190 H     1 <1>   0.3700 
 27 H       -1.7290     0.3590     3.8960 H     1 <1>   0.0800 
 28 H       -2.4900     1.7490     3.1710 H     1 <1>   0.0800 
 29 H        0.4080     1.5650     4.0790 H     1 <1>   0.0800 
 30 H       -0.8520     2.4530     4.8790 H     1 <1>   0.0800 
 31 H       -0.2430    -0.5820    -0.6070 H     1 <1>   0.1500 
 32 H       -1.7860     3.3940    -0.6030 H     1 <1>   0.1500 
 33 H       -0.6840     4.1750     3.3810 H     1 <1>   0.4000 
 34 H        0.8880    -0.1350    -2.7430 H     1 <1>   0.1500 
 35 H       -0.6580     3.8350    -2.7320 H     1 <1>   0.1500 
 36 H        0.6870     2.0760    -3.8040 H     1 <1>   0.1500 
 37 H        1.1310     1.5760     1.8040 H     1 <1>   0.4570 
 38 H        2.5980     1.9070    -0.0790 H     1 <1>   0.1500 
 39 H        2.7190     4.2300    -0.9870 H     1 <1>   0.1500 
 40 H        3.4310     6.2130    -0.7550 H     1 <1>   0.0800 
 41 H        3.0150     7.7290    -0.0140 H     1 <1>   0.0800 
 42 H        0.7140     8.0870     0.9450 H     1 <1>   0.0800 
 43 H       -0.4760     6.8220     0.8140 H     1 <1>   0.0800 
 44 H        1.9120     6.6590    -2.6220 H     1 <1>   0.0800 
 45 H       -0.8740     8.5850    -0.8620 H     1 <1>   0.0800 
 46 H       -0.5580     7.0450    -1.5970 H     1 <1>   0.0800 
 47 H        3.4100     8.9970    -2.1770 H     1 <1>   0.4000 
 48 H        0.6800     8.7500    -2.8180 H     1 <1>   0.0800 
 49 H        1.3770     9.3550    -1.3320 H     1 <1>   0.0800 
@<TRIPOS>BOND
  1   1   2  2   
  2   2   3  am  
  3   2   4  1   
  4   3   5  1   
  5   3  26  1   
  6   4   6  1   
  7   4  27  1   
  8   4  28  1   
  9   5   7  ar  
 10   5   8  ar  
 11   6   9  1   
 12   6  29  1   
 13   6  30  1   
 14   7  10  ar  
 15   7  31  1   
 16   8  11  ar  
 17   8  32  1   
 18   9  12  1   
 19   9  33  1   
 20  10  13  ar  
 21  10  34  1   
 22  11  13  ar  
 23  11  35  1   
 24  12  14  ar  
 25  12  15  ar  
 26  13  36  1   
 27  14  16  ar  
 28  15  17  ar  
 29  15  37  1   
 30  16  18  1   
 31  16  19  ar  
 32  17  19  ar  
 33  17  38  1   
 34  18  20  1   
 35  18  21  1   
 36  19  39  1   
 37  20  22  1   
 38  20  40  1   
 39  20  41  1   
 40  21  23  1   
 41  21  42  1   
 42  21  43  1   
 43  22  24  1   
 44  22  25  1   
 45  22  44  1   
 46  23  25  1   
 47  23  45  1   
 48  23  46  1   
 49  24  47  1   
 50  25  48  1   
 51  25  49  1   
@<TRIPOS>SUBSTRUCTURE
  1 ****  16 GROUP 4 **** **** 0

# MOE 2024.06 (io_trps.svl 2023.06)
