@<TRIPOS>MOLECULE
NONAME
48 51 1 0 0 
SMALL
USER_CHARGES


@<TRIPOS>ATOM
  1 F       -0.2660    -4.0110    -1.6730 F     1 <1>  -0.1900 
  2 C        0.8840    -3.4140    -1.4810 C.ar  1 <1>   0.1900 
  3 C        1.5100    -3.5090    -0.2430 C.ar  1 <1>  -0.0230 
  4 C        1.4200    -2.7020    -2.5370 C.ar  1 <1>  -0.1500 
  5 N        0.9470    -4.2580     0.8220 N.pl3 1 <1>   0.5930 
  6 C        2.7180    -2.8330    -0.0840 C.ar  1 <1>  -0.1500 
  7 C        2.6260    -2.0470    -2.3580 C.ar  1 <1>  -0.1500 
  8 N        0.8810    -3.8070     2.1000 N.2   1 <1>  -0.7070 
  9 C        0.4100    -5.5030     0.7620 C.2   1 <1>  -0.3020 
 10 C        3.2700    -2.1130    -1.1320 C.ar  1 <1>  -0.1500 
 11 C        0.3050    -4.7400     2.7840 C.2   1 <1>   0.1390 
 12 C       -0.0260    -5.8370     1.9980 C.2   1 <1>  -0.1810 
 13 C       -0.7230    -7.0850     2.5000 C.3   1 <1>   0.5240 
 14 N       -1.5170    -7.6800     1.3960 N.4   1 <1>  -0.9590 
 15 C       -2.5550    -6.7630     0.8230 C.3   1 <1>   0.3430 
 16 C       -2.1950    -8.9640     1.7150 C.3   1 <1>   0.3430 
 17 C       -3.7360    -7.6520     0.4020 C.3   1 <1>   0.2000 
 18 C       -3.3230    -9.1030     0.6860 C.3   1 <1>  -0.0800 
 19 O       -4.8450    -7.3430     1.1790 O.3   1 <1>  -0.6800 
 20 C       -2.8860    -9.8700    -0.5860 C.3   1 <1>   0.0200 
 21 C       -1.4990    -9.4900    -1.0720 C.2   1 <1>  -0.0400 
 22 O       -1.2480    -8.2630    -1.4380 O.3   1 <1>  -0.0190 
 23 C       -0.3630   -10.1940    -1.1900 C.2   1 <1>  -0.1500 
 24 N        0.0020    -8.0940    -1.7390 N.2   1 <1>  -0.4100 
 25 C        0.5590    -9.2460    -1.6260 C.2   1 <1>   0.1080 
 26 C        2.0170    -9.5220    -1.9250 C.3   1 <1>  -0.0590 
 27 H        0.9010    -2.6600    -3.4780 H     1 <1>   0.1500 
 28 H        3.2260    -2.8700     0.8650 H     1 <1>   0.1500 
 29 H        3.0620    -1.4850    -3.1670 H     1 <1>   0.1500 
 30 H        0.3840    -6.0440    -0.1650 H     1 <1>   0.1500 
 31 H        4.2060    -1.5980    -0.9920 H     1 <1>   0.1500 
 32 H        0.1160    -4.6500     3.8430 H     1 <1>   0.1500 
 33 H       -1.3720    -6.8290     3.3220 H     1 <1>   0.0800 
 34 H        0.0150    -7.7890     2.8490 H     1 <1>   0.0800 
 35 H       -0.8560    -7.8550     0.6160 H     1 <1>   0.4500 
 36 H       -2.8830    -6.0390     1.5500 H     1 <1>   0.0800 
 37 H       -2.1530    -6.2450    -0.0340 H     1 <1>   0.0800 
 38 H       -1.5100    -9.7960     1.6670 H     1 <1>   0.0800 
 39 H       -2.6220    -8.9130     2.7030 H     1 <1>   0.0800 
 40 H       -4.0050    -7.4820    -0.6280 H     1 <1>   0.0800 
 41 H       -4.1460    -9.6490     1.1140 H     1 <1>   0.0800 
 42 H       -4.7460    -7.5840     2.1200 H     1 <1>   0.4000 
 43 H       -3.5980    -9.7100    -1.3780 H     1 <1>   0.0800 
 44 H       -2.8850   -10.9250    -0.3730 H     1 <1>   0.0800 
 45 H       -0.1630   -11.2340    -0.9990 H     1 <1>   0.1500 
 46 H        2.4930    -9.9700    -1.0730 H     1 <1>   0.0800 
 47 H        2.5250    -8.6050    -2.1660 H     1 <1>   0.0800 
 48 H        2.0950   -10.1880    -2.7650 H     1 <1>   0.0800 
@<TRIPOS>BOND
  1   1   2  1   
  2   2   3  ar  
  3   2   4  ar  
  4   3   5  1   
  5   3   6  ar  
  6   4   7  ar  
  7   4  27  1   
  8   5   8  1   
  9   5   9  1   
 10   6  10  ar  
 11   6  28  1   
 12   7  10  ar  
 13   7  29  1   
 14   8  11  2   
 15   9  12  2   
 16   9  30  1   
 17  10  31  1   
 18  11  12  1   
 19  11  32  1   
 20  12  13  1   
 21  13  14  1   
 22  13  33  1   
 23  13  34  1   
 24  14  15  1   
 25  14  16  1   
 26  14  35  1   
 27  15  17  1   
 28  15  36  1   
 29  15  37  1   
 30  16  18  1   
 31  16  38  1   
 32  16  39  1   
 33  17  18  1   
 34  17  19  1   
 35  17  40  1   
 36  18  20  1   
 37  18  41  1   
 38  19  42  1   
 39  20  21  1   
 40  20  43  1   
 41  20  44  1   
 42  21  22  1   
 43  21  23  2   
 44  22  24  1   
 45  23  25  1   
 46  23  45  1   
 47  24  25  2   
 48  25  26  1   
 49  26  46  1   
 50  26  47  1   
 51  26  48  1   
@<TRIPOS>SUBSTRUCTURE
  1 ****   9 GROUP 4 **** **** 0

# MOE 2024.06 (io_trps.svl 2023.06)
