@<TRIPOS>MOLECULE
NONAME
47 50 1 0 0 
SMALL
USER_CHARGES


@<TRIPOS>ATOM
  1 O        1.6100    -0.4760     2.4640 O.2   1 <1>  -0.5700 
  2 C        1.4330    -1.1470     1.4600 C.2   1 <1>   0.5440 
  3 N        1.9940    -0.6730     0.2870 N.am  1 <1>  -0.6600 
  4 C        0.6750    -2.3990     1.5680 C.ar  1 <1>   0.3960 
  5 C        2.0210    -1.3690    -1.0190 C.3   1 <1>   0.1400 
  6 C        2.7220     0.6130     0.2130 C.3   1 <1>   0.1400 
  7 N        0.0030    -2.9020     0.5190 N.ar  1 <1>  -0.6200 
  8 C        0.6720    -3.0490     2.8070 C.ar  1 <1>   0.1600 
  9 C        3.0370    -0.5970    -1.8520 C.3   1 <1>  -0.1600 
 10 C        3.0190     0.8130    -1.2690 C.3   1 <1>  -0.1600 
 11 C       -0.6330    -4.0330     0.7730 C.ar  1 <1>   0.4100 
 12 N        0.0460    -4.1850     3.0860 N.ar  1 <1>  -0.6200 
 13 N       -1.3300    -4.6010    -0.2850 N.pl3 1 <1>  -0.8380 
 14 C       -0.6050    -4.6430     2.0370 C.ar  1 <1>   0.1600 
 15 C       -1.1120    -6.0370    -0.6150 C.3   1 <1>   0.3530 
 16 C       -1.8510    -3.7560    -1.3970 C.3   1 <1>   0.1290 
 17 C       -2.2960    -6.9320    -0.2370 C.ar  1 <1>  -0.1440 
 18 C       -2.2050    -8.3230    -0.5100 C.ar  1 <1>   0.0000 
 19 C       -3.4290    -6.4260     0.3570 C.ar  1 <1>  -0.1500 
 20 C       -3.2930    -9.1640    -0.1680 C.ar  1 <1>   0.3100 
 21 C       -1.0880    -8.9430    -1.1100 C.ar  1 <1>  -0.1500 
 22 C       -4.4980    -7.2580     0.6960 C.ar  1 <1>  -0.1500 
 23 N       -3.2990   -10.5040    -0.3940 N.ar  1 <1>  -0.6200 
 24 C       -4.4240    -8.5970     0.4350 C.ar  1 <1>  -0.1500 
 25 C       -1.1190   -10.2880    -1.3240 C.ar  1 <1>  -0.1500 
 26 C       -2.2490   -11.0220    -0.9480 C.ar  1 <1>   0.1600 
 27 H        1.0440    -1.3090    -1.4680 H     1 <1>   0.0800 
 28 H        2.3050    -2.4010    -0.9040 H     1 <1>   0.0800 
 29 H        3.6360     0.5300     0.7770 H     1 <1>   0.0800 
 30 H        2.1240     1.4150     0.6130 H     1 <1>   0.0800 
 31 H        1.2240    -2.5990     3.6140 H     1 <1>   0.1500 
 32 H        2.7910    -0.6120    -2.8990 H     1 <1>   0.0800 
 33 H        4.0090    -1.0370    -1.7130 H     1 <1>   0.0800 
 34 H        3.9460     1.3350    -1.4230 H     1 <1>   0.0800 
 35 H        2.2180     1.3820    -1.7100 H     1 <1>   0.0800 
 36 H       -1.1630    -5.5530     2.1610 H     1 <1>   0.1500 
 37 H       -0.2330    -6.3860    -0.1020 H     1 <1>   0.0800 
 38 H       -0.9270    -6.1260    -1.6720 H     1 <1>   0.0800 
 39 H       -2.1360    -2.7880    -1.0230 H     1 <1>   0.0800 
 40 H       -2.7160    -4.2220    -1.8380 H     1 <1>   0.0800 
 41 H       -1.0900    -3.6290    -2.1480 H     1 <1>   0.0800 
 42 H       -3.5300    -5.3780     0.5800 H     1 <1>   0.1500 
 43 H       -0.2230    -8.3760    -1.3970 H     1 <1>   0.1500 
 44 H       -5.3710    -6.8330     1.1600 H     1 <1>   0.1500 
 45 H       -5.2340    -9.2560     0.6870 H     1 <1>   0.1500 
 46 H       -0.2920   -10.8040    -1.7770 H     1 <1>   0.1500 
 47 H       -2.2450   -12.0840    -1.1300 H     1 <1>   0.1500 
@<TRIPOS>BOND
  1   1   2  2   
  2   2   3  am  
  3   2   4  1   
  4   3   5  1   
  5   3   6  1   
  6   4   7  ar  
  7   4   8  ar  
  8   5   9  1   
  9   5  27  1   
 10   5  28  1   
 11   6  10  1   
 12   6  29  1   
 13   6  30  1   
 14   7  11  ar  
 15   8  12  ar  
 16   8  31  1   
 17   9  10  1   
 18   9  32  1   
 19   9  33  1   
 20  10  34  1   
 21  10  35  1   
 22  11  13  1   
 23  11  14  ar  
 24  12  14  ar  
 25  13  15  1   
 26  13  16  1   
 27  14  36  1   
 28  15  17  1   
 29  15  37  1   
 30  15  38  1   
 31  16  39  1   
 32  16  40  1   
 33  16  41  1   
 34  17  18  ar  
 35  17  19  ar  
 36  18  20  ar  
 37  18  21  ar  
 38  19  22  ar  
 39  19  42  1   
 40  20  23  ar  
 41  20  24  ar  
 42  21  25  ar  
 43  21  43  1   
 44  22  24  ar  
 45  22  44  1   
 46  23  26  ar  
 47  24  45  1   
 48  25  26  ar  
 49  25  46  1   
 50  26  47  1   
@<TRIPOS>SUBSTRUCTURE
  1 ****  13 GROUP 4 **** **** 0

# MOE 2024.06 (io_trps.svl 2023.06)
