@<TRIPOS>MOLECULE
NONAME
40 41 1 0 0 
SMALL
USER_CHARGES


@<TRIPOS>ATOM
  1 O        3.4160    -1.2360    -0.7390 O.2   1 <1>  -0.5700 
  2 C        2.2190    -1.2250    -0.9030 C.2   1 <1>   0.5690 
  3 N        1.4330    -0.1400    -0.6200 N.am  1 <1>  -0.4940 
  4 C        1.5260    -2.4700    -1.4490 C.3   1 <1>   0.2370 
  5 C        1.7290     1.1270    -0.1070 C.2   1 <1>   0.2040 
  6 N        0.3120    -2.6950    -0.6270 N.pl3 1 <1>   0.3140 
  7 C        2.4110    -3.7290    -1.5910 C.3   1 <1>  -0.2400 
  8 O        0.7640     1.7630     0.5130 O.3   1 <1>  -0.0190 
  9 C        2.8150     1.9320    -0.0900 C.2   1 <1>  -0.1810 
 10 N       -0.8540    -2.1670    -1.0560 N.2   1 <1>  -0.7070 
 11 C        0.1710    -3.2160     0.6200 C.2   1 <1>  -0.3320 
 12 N        1.1410     2.9340     0.9500 N.2   1 <1>  -0.4100 
 13 C        2.3700     3.0590     0.6020 C.2   1 <1>   0.1080 
 14 C        4.2050     1.7480    -0.6790 C.3   1 <1>   0.0210 
 15 C       -1.7040    -2.3970    -0.1090 C.2   1 <1>   0.1080 
 16 C       -1.1220    -3.0490     0.9680 C.2   1 <1>  -0.1500 
 17 C        1.2640    -3.8360     1.4750 C.3   1 <1>  -0.0600 
 18 C        3.1880     4.2940     0.9170 C.3   1 <1>  -0.0590 
 19 C        5.2020     1.3030     0.3940 C.3   1 <1>  -0.2400 
 20 C       -3.1520    -1.9750    -0.1970 C.3   1 <1>  -0.0590 
 21 H        0.4240    -0.3410    -0.6600 H     1 <1>   0.3700 
 22 H        1.1820    -2.2200    -2.4350 H     1 <1>   0.0800 
 23 H        2.9370    -3.9400    -0.6790 H     1 <1>   0.0800 
 24 H        3.1480    -3.5580    -2.3550 H     1 <1>   0.0800 
 25 H        1.8140    -4.5770    -1.8750 H     1 <1>   0.0800 
 26 H        4.5360     2.6720    -1.1180 H     1 <1>   0.0800 
 27 H        4.1730     1.0190    -1.4680 H     1 <1>   0.0800 
 28 H       -1.6190    -3.3360     1.8780 H     1 <1>   0.1500 
 29 H        2.1060    -3.1710     1.5510 H     1 <1>   0.0800 
 30 H        1.5820    -4.7730     1.0560 H     1 <1>   0.0800 
 31 H        0.8920    -4.0220     2.4680 H     1 <1>   0.0800 
 32 H        3.6260     4.6860     0.0190 H     1 <1>   0.0800 
 33 H        3.9650     4.0470     1.6170 H     1 <1>   0.0800 
 34 H        2.5590     5.0490     1.3530 H     1 <1>   0.0800 
 35 H        5.2840     2.0420     1.1680 H     1 <1>   0.0800 
 36 H        6.1710     1.1490    -0.0450 H     1 <1>   0.0800 
 37 H        4.8760     0.3770     0.8350 H     1 <1>   0.0800 
 38 H       -3.2100    -0.9060    -0.2850 H     1 <1>   0.0800 
 39 H       -3.6880    -2.2870     0.6800 H     1 <1>   0.0800 
 40 H       -3.6030    -2.4220    -1.0630 H     1 <1>   0.0800 
@<TRIPOS>BOND
  1   1   2  2   
  2   2   3  am  
  3   2   4  1   
  4   3   5  1   
  5   3  21  1   
  6   4   6  1   
  7   4   7  1   
  8   4  22  1   
  9   5   8  1   
 10   5   9  2   
 11   6  10  1   
 12   6  11  1   
 13   7  23  1   
 14   7  24  1   
 15   7  25  1   
 16   8  12  1   
 17   9  13  1   
 18   9  14  1   
 19  10  15  2   
 20  11  16  2   
 21  11  17  1   
 22  12  13  2   
 23  13  18  1   
 24  14  19  1   
 25  14  26  1   
 26  14  27  1   
 27  15  16  1   
 28  15  20  1   
 29  16  28  1   
 30  17  29  1   
 31  17  30  1   
 32  17  31  1   
 33  18  32  1   
 34  18  33  1   
 35  18  34  1   
 36  19  35  1   
 37  19  36  1   
 38  19  37  1   
 39  20  38  1   
 40  20  39  1   
 41  20  40  1   
@<TRIPOS>SUBSTRUCTURE
  1 ****   3 GROUP 4 **** **** 0

# MOE 2024.06 (io_trps.svl 2023.06)
