@<TRIPOS>MOLECULE
NONAME
40 42 1 0 0 
SMALL
USER_CHARGES


@<TRIPOS>ATOM
  1 CL      -0.8130    -0.1680     1.1040 Cl    1 <1>  -0.1230 
  2 C       -1.2870    -1.6750     0.3540 C.2   1 <1>   0.4120 
  3 N       -2.0970    -1.7580    -0.6370 N.2   1 <1>  -0.4100 
  4 C       -0.8250    -2.9160     0.7710 C.2   1 <1>  -0.1500 
  5 O       -2.1830    -3.0350    -0.8930 O.3   1 <1>  -0.0190 
  6 C       -1.4450    -3.7520    -0.0780 C.2   1 <1>  -0.0400 
  7 C       -1.4110    -5.2630    -0.2120 C.3   1 <1>   0.0200 
  8 C       -2.8090    -5.8680    -0.0060 C.3   1 <1>  -0.0990 
  9 C       -2.8270    -7.3840    -0.1230 C.2   1 <1>   0.5690 
 10 O       -1.7800    -7.9850    -0.0970 O.2   1 <1>  -0.5700 
 11 N       -4.0220    -8.0370    -0.2450 N.am  1 <1>  -0.6600 
 12 C       -5.3750    -7.4280    -0.2100 C.3   1 <1>   0.1400 
 13 C       -4.1160    -9.5130    -0.3530 C.3   1 <1>   0.1400 
 14 C       -6.3470    -8.6070    -0.3040 C.3   1 <1>   0.2000 
 15 C       -5.5430    -9.8480     0.0830 C.3   1 <1>  -0.0800 
 16 O       -7.4200    -8.4530     0.5600 O.3   1 <1>  -0.6800 
 17 C       -6.1110   -11.1350    -0.5390 C.3   1 <1>  -0.0170 
 18 C       -5.3210   -12.3650    -0.1190 C.ar  1 <1>   0.1670 
 19 N       -4.2130   -12.6150    -0.7980 N.ar  1 <1>  -0.6200 
 20 C       -5.7740   -13.1580     0.9330 C.ar  1 <1>   0.1600 
 21 C       -3.5930   -13.6970    -0.3570 C.ar  1 <1>   0.1600 
 22 N       -5.1560   -14.2410     1.3760 N.ar  1 <1>  -0.6200 
 23 C       -4.0490   -14.4830     0.6950 C.ar  1 <1>   0.1600 
 24 H       -0.1420    -3.1040     1.5760 H     1 <1>   0.1500 
 25 H       -1.0450    -5.5230    -1.1900 H     1 <1>   0.0800 
 26 H       -0.7290    -5.6670     0.5160 H     1 <1>   0.0800 
 27 H       -3.4730    -5.4550    -0.7420 H     1 <1>   0.0800 
 28 H       -3.1710    -5.5990     0.9690 H     1 <1>   0.0800 
 29 H       -5.5040    -6.8920     0.7140 H     1 <1>   0.0800 
 30 H       -5.5070    -6.7660    -1.0480 H     1 <1>   0.0800 
 31 H       -3.9480    -9.8010    -1.3780 H     1 <1>   0.0800 
 32 H       -3.3860    -9.9990     0.2730 H     1 <1>   0.0800 
 33 H       -6.7270    -8.6840    -1.3080 H     1 <1>   0.0800 
 34 H       -5.5290    -9.9460     1.1550 H     1 <1>   0.0800 
 35 H       -7.1090    -8.3950     1.4840 H     1 <1>   0.4000 
 36 H       -6.0960   -11.0620    -1.6130 H     1 <1>   0.0800 
 37 H       -7.1370   -11.2490    -0.2390 H     1 <1>   0.0800 
 38 H       -6.6860   -12.8860     1.4330 H     1 <1>   0.1500 
 39 H       -2.6790   -13.9760    -0.8510 H     1 <1>   0.1500 
 40 H       -3.4730   -15.3450     0.9820 H     1 <1>   0.1500 
@<TRIPOS>BOND
  1   1   2  1   
  2   2   3  2   
  3   2   4  1   
  4   3   5  1   
  5   4   6  2   
  6   4  24  1   
  7   5   6  1   
  8   6   7  1   
  9   7   8  1   
 10   7  25  1   
 11   7  26  1   
 12   8   9  1   
 13   8  27  1   
 14   8  28  1   
 15   9  10  2   
 16   9  11  am  
 17  11  12  1   
 18  11  13  1   
 19  12  14  1   
 20  12  29  1   
 21  12  30  1   
 22  13  15  1   
 23  13  31  1   
 24  13  32  1   
 25  14  15  1   
 26  14  16  1   
 27  14  33  1   
 28  15  17  1   
 29  15  34  1   
 30  16  35  1   
 31  17  18  1   
 32  17  36  1   
 33  17  37  1   
 34  18  19  ar  
 35  18  20  ar  
 36  19  21  ar  
 37  20  22  ar  
 38  20  38  1   
 39  21  23  ar  
 40  21  39  1   
 41  22  23  ar  
 42  23  40  1   
@<TRIPOS>SUBSTRUCTURE
  1 ****  11 GROUP 4 **** **** 0

# MOE 2024.06 (io_trps.svl 2023.06)
