@<TRIPOS>MOLECULE
NONAME
44 46 1 0 0 
SMALL
USER_CHARGES


@<TRIPOS>ATOM
  1 S        0.6590     0.2300    -1.5360 S.o2  1 <1>   1.3330 
  2 O        1.0230    -1.1240    -1.8910 O.2   1 <1>  -0.6500 
  3 O       -0.1790     1.0010    -2.4260 O.2   1 <1>  -0.6500 
  4 N       -0.1310     0.1720    -0.0320 N.am  1 <1>  -0.8490 
  5 C        2.1680     1.1380    -1.1980 C.3   1 <1>  -0.0550 
  6 C       -1.0460    -0.9700     0.0650 C.3   1 <1>   0.1160 
  7 C       -0.8500     1.4100     0.2930 C.3   1 <1>   0.1160 
  8 C        3.1780     0.3820    -0.3070 C.3   1 <1>  -0.0800 
  9 C        4.5310     1.0610    -0.1560 C.3   1 <1>   0.2200 
 10 C        2.7400     0.1750     1.1480 C.3   1 <1>   0.1200 
 11 N        4.3630     2.5190     0.0560 N.am  1 <1>  -0.7300 
 12 C        5.0170     0.4290     1.1390 C.3   1 <1>   0.1200 
 13 O        3.8810     0.3330     1.9420 O.3   1 <1>  -0.5600 
 14 C        4.5450     3.4850    -0.8910 C.2   1 <1>   0.5440 
 15 O        4.8590     3.1290    -2.0100 O.2   1 <1>  -0.5700 
 16 C        4.3500     4.8890    -0.5760 C.ar  1 <1>   0.0860 
 17 C        3.6080     5.2990     0.5250 C.ar  1 <1>  -0.1500 
 18 C        4.9130     5.8900    -1.4000 C.ar  1 <1>  -0.1500 
 19 C        3.4390     6.6500     0.7980 C.ar  1 <1>   0.2270 
 20 C        4.7540     7.2310    -1.1410 C.ar  1 <1>  -0.1500 
 21 N        2.7560     7.2420     1.8150 N.2   1 <1>  -0.5650 
 22 C        4.0060     7.6040    -0.0240 C.ar  1 <1>  -0.1520 
 23 C        2.9110     8.5030     1.6090 C.2   1 <1>   0.0360 
 24 N        3.6570     8.7970     0.5140 N.pl3 1 <1>   0.0330 
 25 H        2.6490     1.3480    -2.1350 H     1 <1>   0.0800 
 26 H        1.9220     2.0810    -0.7520 H     1 <1>   0.0800 
 27 H       -1.5220    -0.9870     1.0300 H     1 <1>   0.0800 
 28 H       -0.5010    -1.8910    -0.0560 H     1 <1>   0.0800 
 29 H       -1.8000    -0.9110    -0.7030 H     1 <1>   0.0800 
 30 H       -1.2570     1.3510     1.2880 H     1 <1>   0.0800 
 31 H       -1.6540     1.5740    -0.4050 H     1 <1>   0.0800 
 32 H       -0.1810     2.2520     0.2510 H     1 <1>   0.0800 
 33 H        3.3470    -0.5910    -0.7370 H     1 <1>   0.0800 
 34 H        5.1930     0.8670    -0.9840 H     1 <1>   0.0800 
 35 H        2.3330    -0.8100     1.3070 H     1 <1>   0.0800 
 36 H        2.0250     0.9160     1.4600 H     1 <1>   0.0800 
 37 H        4.1410     2.7700     1.0220 H     1 <1>   0.3700 
 38 H        5.7690     1.0170     1.6360 H     1 <1>   0.0800 
 39 H        5.3850    -0.5670     0.9640 H     1 <1>   0.0800 
 40 H        3.1410     4.5990     1.1900 H     1 <1>   0.1500 
 41 H        5.4840     5.5770    -2.2580 H     1 <1>   0.1500 
 42 H        5.1920     7.9790    -1.7800 H     1 <1>   0.1500 
 43 H        2.4970     9.2760     2.2340 H     1 <1>   0.1500 
 44 H        3.9050     9.7260     0.1620 H     1 <1>   0.2700 
@<TRIPOS>BOND
  1   1   2  2   
  2   1   3  2   
  3   1   4  am  
  4   1   5  1   
  5   4   6  1   
  6   4   7  1   
  7   5   8  1   
  8   5  25  1   
  9   5  26  1   
 10   6  27  1   
 11   6  28  1   
 12   6  29  1   
 13   7  30  1   
 14   7  31  1   
 15   7  32  1   
 16   8   9  1   
 17   8  10  1   
 18   8  33  1   
 19   9  11  1   
 20   9  12  1   
 21   9  34  1   
 22  10  13  1   
 23  10  35  1   
 24  10  36  1   
 25  11  14  am  
 26  11  37  1   
 27  12  13  1   
 28  12  38  1   
 29  12  39  1   
 30  14  15  2   
 31  14  16  1   
 32  16  17  ar  
 33  16  18  ar  
 34  17  19  ar  
 35  17  40  1   
 36  18  20  ar  
 37  18  41  1   
 38  19  21  1   
 39  19  22  ar  
 40  20  22  ar  
 41  20  42  1   
 42  21  23  2   
 43  22  24  1   
 44  23  24  1   
 45  23  43  1   
 46  24  44  1   
@<TRIPOS>SUBSTRUCTURE
  1 ****  11 GROUP 4 **** **** 0

# MOE 2024.06 (io_trps.svl 2023.06)
