@<TRIPOS>MOLECULE
NONAME
53 55 1 0 0 
SMALL
USER_CHARGES


@<TRIPOS>ATOM
  1 O       -2.4870     0.4260    -3.1700 O.2   1 <1>  -0.5700 
  2 C       -2.0880     0.8150    -2.0980 C.2   1 <1>   0.5690 
  3 N       -2.0300     0.0030    -1.0150 N.am  1 <1>  -0.7300 
  4 C       -1.6410     2.2720    -1.9320 C.3   1 <1>   0.1710 
  5 C       -2.4180    -1.4210    -0.9610 C.3   1 <1>   0.2200 
  6 N       -0.7560     2.5160    -0.7480 N.3   1 <1>  -0.8100 
  7 C       -3.6210    -1.5700    -0.0470 C.3   1 <1>  -0.0800 
  8 C       -1.3480    -2.2270    -0.2260 C.3   1 <1>   0.1200 
  9 C       -0.7180     3.9590    -0.4270 C.3   1 <1>   0.1100 
 10 C        0.5970     1.9900    -1.0050 C.3   1 <1>   0.0300 
 11 C       -2.9520    -1.6480     1.3260 C.3   1 <1>   0.1200 
 12 C       -4.4260    -2.8430    -0.3760 C.3   1 <1>  -0.0160 
 13 O       -1.7070    -2.2480     1.1270 O.3   1 <1>  -0.5600 
 14 C       -0.1760     4.2120     0.9830 C.3   1 <1>   0.1200 
 15 C       -5.6650    -2.9660     0.5060 C.ar  1 <1>  -0.1440 
 16 O       -0.2440     5.5800     1.2390 O.3   1 <1>  -0.5600 
 17 C       -6.8290    -2.1900     0.2920 C.ar  1 <1>   0.0000 
 18 C       -5.6770    -3.8460     1.5480 C.ar  1 <1>  -0.1500 
 19 C        0.1900     5.9350     2.5110 C.3   1 <1>   0.0400 
 20 C       -7.9130    -2.3710     1.1870 C.ar  1 <1>   0.3100 
 21 C       -6.9850    -1.2500    -0.7540 C.ar  1 <1>  -0.1500 
 22 C       -6.8050    -3.9520     2.3700 C.ar  1 <1>   0.1600 
 23 N       -7.8840    -3.2530     2.2180 N.ar  1 <1>  -0.6200 
 24 C       -9.0780    -1.6080     1.0070 C.ar  1 <1>  -0.1500 
 25 C       -8.1360    -0.5240    -0.9030 C.ar  1 <1>  -0.1500 
 26 C       -9.1960    -0.7020    -0.0120 C.ar  1 <1>  -0.1500 
 27 H       -1.6350     0.4140    -0.1620 H     1 <1>   0.3700 
 28 H       -2.5390     2.8540    -1.8310 H     1 <1>   0.0800 
 29 H       -1.1460     2.5880    -2.8330 H     1 <1>   0.0800 
 30 H       -2.5930    -1.7940    -1.9570 H     1 <1>   0.0800 
 31 H       -4.2660    -0.7120    -0.1090 H     1 <1>   0.0800 
 32 H       -0.3670    -1.7990    -0.3310 H     1 <1>   0.0800 
 33 H       -1.3390    -3.2450    -0.5720 H     1 <1>   0.0800 
 34 H       -0.1170     4.4850    -1.1480 H     1 <1>   0.0800 
 35 H       -1.7180     4.3570    -0.4590 H     1 <1>   0.0800 
 36 H        1.2070     2.0770    -0.1230 H     1 <1>   0.0800 
 37 H        1.0670     2.5310    -1.8090 H     1 <1>   0.0800 
 38 H        0.5500     0.9480    -1.2710 H     1 <1>   0.0800 
 39 H       -3.5120    -2.2200     2.0440 H     1 <1>   0.0800 
 40 H       -2.7770    -0.6600     1.7160 H     1 <1>   0.0800 
 41 H       -3.8030    -3.7100    -0.2400 H     1 <1>   0.0800 
 42 H       -4.7260    -2.8340    -1.4090 H     1 <1>   0.0800 
 43 H        0.8510     3.9040     1.0600 H     1 <1>   0.0800 
 44 H       -0.7800     3.6940     1.7070 H     1 <1>   0.0800 
 45 H       -4.8300    -4.4710     1.7670 H     1 <1>   0.1500 
 46 H        0.1020     7.0030     2.6090 H     1 <1>   0.0800 
 47 H        1.2190     5.6430     2.6310 H     1 <1>   0.0800 
 48 H       -0.4300     5.4510     3.2470 H     1 <1>   0.0800 
 49 H       -6.1850    -1.0990    -1.4540 H     1 <1>   0.1500 
 50 H       -6.7710    -4.6590     3.1820 H     1 <1>   0.1500 
 51 H       -9.8810    -1.7640     1.7030 H     1 <1>   0.1500 
 52 H       -8.2390     0.1880    -1.7030 H     1 <1>   0.1500 
 53 H      -10.0960    -0.1250    -0.1380 H     1 <1>   0.1500 
@<TRIPOS>BOND
  1   1   2  2   
  2   2   3  am  
  3   2   4  1   
  4   3   5  1   
  5   3  27  1   
  6   4   6  1   
  7   4  28  1   
  8   4  29  1   
  9   5   7  1   
 10   5   8  1   
 11   5  30  1   
 12   6   9  1   
 13   6  10  1   
 14   7  11  1   
 15   7  12  1   
 16   7  31  1   
 17   8  13  1   
 18   8  32  1   
 19   8  33  1   
 20   9  14  1   
 21   9  34  1   
 22   9  35  1   
 23  10  36  1   
 24  10  37  1   
 25  10  38  1   
 26  11  13  1   
 27  11  39  1   
 28  11  40  1   
 29  12  15  1   
 30  12  41  1   
 31  12  42  1   
 32  14  16  1   
 33  14  43  1   
 34  14  44  1   
 35  15  17  ar  
 36  15  18  ar  
 37  16  19  1   
 38  17  20  ar  
 39  17  21  ar  
 40  18  22  ar  
 41  18  45  1   
 42  19  46  1   
 43  19  47  1   
 44  19  48  1   
 45  20  23  ar  
 46  20  24  ar  
 47  21  25  ar  
 48  21  49  1   
 49  22  23  ar  
 50  22  50  1   
 51  24  26  ar  
 52  24  51  1   
 53  25  26  ar  
 54  25  52  1   
 55  26  53  1   
@<TRIPOS>SUBSTRUCTURE
  1 ****   7 GROUP 4 **** **** 0

# MOE 2024.06 (io_trps.svl 2023.06)
