@<TRIPOS>MOLECULE
NONAME
42 44 1 0 0 
SMALL
USER_CHARGES


@<TRIPOS>ATOM
  1 O        0.2300     1.2720     0.3270 O.2   1 <1>  -0.5700 
  2 C        0.1190     2.4710     0.2980 C.2   1 <1>   0.5690 
  3 N       -0.9820     3.0770     0.7890 N.am  1 <1>  -0.7300 
  4 C        1.2110     3.3310    -0.3350 C.3   1 <1>   0.1810 
  5 C       -1.2370     4.5370     0.6980 C.3   1 <1>   0.3640 
  6 O        1.1770     4.6610     0.1310 O.3   1 <1>  -0.5600 
  7 C       -2.5610     4.7310    -0.0400 C.ar  1 <1>  -0.1440 
  8 C       -0.0830     5.3140    -0.0030 C.3   1 <1>   0.2610 
  9 C       -2.8360     4.0500    -1.2200 C.ar  1 <1>  -0.1500 
 10 C       -3.5150     5.6030     0.4660 C.ar  1 <1>  -0.1500 
 11 C        0.0190     6.7440     0.5500 C.2   1 <1>   0.5690 
 12 C       -4.0390     4.2360    -1.8780 C.ar  1 <1>  -0.1500 
 13 C       -4.7180     5.7910    -0.1910 C.ar  1 <1>  -0.1500 
 14 O       -0.9760     7.3880     0.7800 O.2   1 <1>  -0.5700 
 15 N        1.2470     7.2710     0.7830 N.am  1 <1>  -0.7300 
 16 C       -4.9820     5.1070    -1.3640 C.ar  1 <1>  -0.1500 
 17 C        1.5080     8.6570     1.2500 C.3   1 <1>   0.3200 
 18 C        2.8820     9.1460     0.8170 C.2   1 <1>   0.2980 
 19 O        3.9350     8.4960     1.2480 O.3   1 <1>  -0.0190 
 20 N        3.1260    10.1440     0.0650 N.2   1 <1>  -0.5650 
 21 N        4.9340     9.1350     0.7220 N.2   1 <1>  -0.4100 
 22 C        4.4500    10.0940     0.0350 C.2   1 <1>   0.3350 
 23 C        5.2370    11.1210    -0.7670 C.3   1 <1>   0.0210 
 24 C        6.7620    10.9680    -0.6570 C.3   1 <1>  -0.2400 
 25 H       -1.7410     2.4960     1.1500 H     1 <1>   0.3700 
 26 H        1.0950     3.3380    -1.4030 H     1 <1>   0.0800 
 27 H        2.1740     2.9210    -0.0900 H     1 <1>   0.0800 
 28 H       -1.3390     4.9120     1.7020 H     1 <1>   0.0800 
 29 H       -0.2960     5.3870    -1.0540 H     1 <1>   0.0800 
 30 H       -2.1180     3.3640    -1.6370 H     1 <1>   0.1500 
 31 H       -3.3250     6.1520     1.3730 H     1 <1>   0.1500 
 32 H       -4.2430     3.7030    -2.7910 H     1 <1>   0.1500 
 33 H       -5.4490     6.4720     0.2110 H     1 <1>   0.1500 
 34 H        2.0650     6.6710     0.6280 H     1 <1>   0.3700 
 35 H       -5.9180     5.2530    -1.8740 H     1 <1>   0.1500 
 36 H        0.7570     9.3170     0.8520 H     1 <1>   0.0800 
 37 H        1.4470     8.6840     2.3230 H     1 <1>   0.0800 
 38 H        4.9450    11.0360    -1.7980 H     1 <1>   0.0800 
 39 H        4.9550    12.1000    -0.4240 H     1 <1>   0.0800 
 40 H        7.0640    10.0000    -1.0180 H     1 <1>   0.0800 
 41 H        7.0720    11.0640     0.3680 H     1 <1>   0.0800 
 42 H        7.2540    11.7250    -1.2410 H     1 <1>   0.0800 
@<TRIPOS>BOND
  1   1   2  2   
  2   2   3  am  
  3   2   4  1   
  4   3   5  1   
  5   3  25  1   
  6   4   6  1   
  7   4  26  1   
  8   4  27  1   
  9   5   7  1   
 10   5   8  1   
 11   5  28  1   
 12   6   8  1   
 13   7   9  ar  
 14   7  10  ar  
 15   8  11  1   
 16   8  29  1   
 17   9  12  ar  
 18   9  30  1   
 19  10  13  ar  
 20  10  31  1   
 21  11  14  2   
 22  11  15  am  
 23  12  16  ar  
 24  12  32  1   
 25  13  16  ar  
 26  13  33  1   
 27  15  17  1   
 28  15  34  1   
 29  16  35  1   
 30  17  18  1   
 31  17  36  1   
 32  17  37  1   
 33  18  19  1   
 34  18  20  2   
 35  19  21  1   
 36  20  22  1   
 37  21  22  2   
 38  22  23  1   
 39  23  24  1   
 40  23  38  1   
 41  23  39  1   
 42  24  40  1   
 43  24  41  1   
 44  24  42  1   
@<TRIPOS>SUBSTRUCTURE
  1 ****  11 GROUP 4 **** **** 0

# MOE 2024.06 (io_trps.svl 2023.06)
