@<TRIPOS>MOLECULE
NONAME
38 39 1 0 0 
SMALL
USER_CHARGES


@<TRIPOS>ATOM
  1 S        0.3210    -0.0510    -0.3460 S.o2  1 <1>   1.3330 
  2 O       -0.3850     0.2070    -1.5760 O.2   1 <1>  -0.6500 
  3 O        1.1660    -1.2100    -0.2090 O.2   1 <1>  -0.6500 
  4 N        1.3980     1.2530    -0.0430 N.am  1 <1>  -0.7570 
  5 C       -0.8070    -0.0180     1.0580 C.3   1 <1>  -0.0550 
  6 C        1.2900     2.6130    -0.2880 C.ar  1 <1>   0.1990 
  7 C       -1.6920     1.2360     1.1850 C.3   1 <1>  -0.2400 
  8 C        2.3130     3.4480     0.1470 C.ar  1 <1>  -0.1500 
  9 C        0.2130     3.2010    -0.9440 C.ar  1 <1>  -0.1500 
 10 C        2.2620     4.8130    -0.0590 C.ar  1 <1>  -0.1500 
 11 C        0.1630     4.5660    -1.1480 C.ar  1 <1>  -0.1500 
 12 C        1.1860     5.4130    -0.7170 C.ar  1 <1>   0.0860 
 13 C        1.1190     6.8430    -0.9480 C.2   1 <1>   0.5440 
 14 O        0.0510     7.4130    -1.0510 O.2   1 <1>  -0.5700 
 15 N        2.2550     7.5890    -1.0670 N.am  1 <1>  -0.7300 
 16 C        2.2740     9.0540    -1.2220 C.3   1 <1>   0.3200 
 17 C        3.5250     9.5890    -0.5640 C.2   1 <1>  -0.1400 
 18 S        5.0280     9.4060    -1.3940 S.3   1 <1>   0.1810 
 19 C        3.8000    10.2160     0.5830 C.2   1 <1>   0.0460 
 20 N        5.8980    10.1710    -0.1550 N.2   1 <1>  -0.2210 
 21 N        5.1300    10.5260     0.7790 N.2   1 <1>  -0.2270 
 22 C        2.8280    10.6100     1.6760 C.3   1 <1>  -0.0590 
 23 H        2.3030     0.8780     0.2230 H     1 <1>   0.4200 
 24 H       -0.2380    -0.1260     1.9610 H     1 <1>   0.0800 
 25 H       -1.4510    -0.8740     0.9880 H     1 <1>   0.0800 
 26 H       -1.0870     2.1090     1.3550 H     1 <1>   0.0800 
 27 H       -2.3710     1.1260     2.0120 H     1 <1>   0.0800 
 28 H       -2.2660     1.3790     0.2860 H     1 <1>   0.0800 
 29 H        3.1570     3.0210     0.6580 H     1 <1>   0.1500 
 30 H       -0.5980     2.5990    -1.3070 H     1 <1>   0.1500 
 31 H        3.0680     5.4250     0.3060 H     1 <1>   0.1500 
 32 H       -0.6850     4.9960    -1.6560 H     1 <1>   0.1500 
 33 H        3.1690     7.1370    -1.0660 H     1 <1>   0.3700 
 34 H        1.4020     9.4810    -0.7560 H     1 <1>   0.0800 
 35 H        2.2610     9.3100    -2.2670 H     1 <1>   0.0800 
 36 H        1.8290    10.2980     1.4340 H     1 <1>   0.0800 
 37 H        2.8390    11.6770     1.8040 H     1 <1>   0.0800 
 38 H        3.1190    10.1480     2.6020 H     1 <1>   0.0800 
@<TRIPOS>BOND
  1   1   2  2   
  2   1   3  2   
  3   1   4  am  
  4   1   5  1   
  5   4   6  1   
  6   4  23  1   
  7   5   7  1   
  8   5  24  1   
  9   5  25  1   
 10   6   8  ar  
 11   6   9  ar  
 12   7  26  1   
 13   7  27  1   
 14   7  28  1   
 15   8  10  ar  
 16   8  29  1   
 17   9  11  ar  
 18   9  30  1   
 19  10  12  ar  
 20  10  31  1   
 21  11  12  ar  
 22  11  32  1   
 23  12  13  1   
 24  13  14  2   
 25  13  15  am  
 26  15  16  1   
 27  15  33  1   
 28  16  17  1   
 29  16  34  1   
 30  16  35  1   
 31  17  18  1   
 32  17  19  2   
 33  18  20  1   
 34  19  21  1   
 35  19  22  1   
 36  20  21  2   
 37  22  36  1   
 38  22  37  1   
 39  22  38  1   
@<TRIPOS>SUBSTRUCTURE
  1 ****  10 GROUP 4 **** **** 0

# MOE 2024.06 (io_trps.svl 2023.06)
