@<TRIPOS>MOLECULE
NONAME
50 53 1 0 0 
SMALL
USER_CHARGES


@<TRIPOS>ATOM
  1 S       -0.9890     0.4350     0.8370 S.o2  1 <1>   1.0900 
  2 O        0.4330     0.1850     0.8370 O.2   1 <1>  -0.6500 
  3 O       -1.5600     1.5990     1.4710 O.2   1 <1>  -0.6500 
  4 C       -1.7900    -1.0390     1.4030 C.3   1 <1>  -0.0550 
  5 C       -1.5730     0.2880    -0.8470 C.3   1 <1>  -0.0550 
  6 C       -1.7800    -1.9640     0.1880 C.3   1 <1>   0.1760 
  7 C       -2.1880    -1.1110    -1.0290 C.3   1 <1>  -0.1600 
  8 N       -2.6880    -3.1250     0.3690 N.pl3 1 <1>   0.3140 
  9 N       -3.9460    -2.9650     0.8250 N.2   1 <1>  -0.7070 
 10 C       -2.4290    -4.4240     0.0740 C.2   1 <1>  -0.3320 
 11 C       -4.4630    -4.1520     0.8000 C.2   1 <1>   0.1080 
 12 C       -3.5640    -5.1120     0.3330 C.2   1 <1>   0.0630 
 13 C       -1.0950    -4.9420    -0.4480 C.3   1 <1>  -0.0600 
 14 C       -5.8880    -4.4210     1.2290 C.3   1 <1>  -0.0590 
 15 N       -3.8270    -6.4960     0.1890 N.am  1 <1>  -0.4930 
 16 C       -3.6920    -7.3010    -0.9150 C.2   1 <1>   0.6300 
 17 O       -3.1860    -6.8520    -1.9320 O.2   1 <1>  -0.5700 
 18 C       -4.1730    -8.6770    -0.8460 C.2   1 <1>   0.4360 
 19 N       -4.7540    -9.1150     0.2500 N.2   1 <1>  -0.5760 
 20 C       -4.0110    -9.5420    -1.9820 C.2   1 <1>  -0.1360 
 21 C       -5.1900   -10.4160     0.2560 C.2   1 <1>  -0.0260 
 22 C       -4.4460   -10.8290    -1.9680 C.2   1 <1>  -0.1690 
 23 N       -5.0570   -11.2800    -0.8080 N.pl3 1 <1>   0.6010 
 24 C       -5.8130   -11.1290     1.2300 C.2   1 <1>  -0.1500 
 25 C       -4.3050   -11.7940    -3.1380 C.3   1 <1>  -0.1020 
 26 N       -5.5750   -12.4950    -0.5290 N.2   1 <1>  -0.7070 
 27 C       -6.0190   -12.3860     0.6900 C.2   1 <1>   0.1080 
 28 C       -6.6860   -13.5430     1.3980 C.3   1 <1>  -0.0590 
 29 H       -2.8020    -0.8120     1.6820 H     1 <1>   0.0800 
 30 H       -1.2730    -1.4750     2.2360 H     1 <1>   0.0800 
 31 H       -0.7520     0.4250    -1.5260 H     1 <1>   0.0800 
 32 H       -2.3120     1.0380    -1.0530 H     1 <1>   0.0800 
 33 H       -0.7780    -2.3240     0.0450 H     1 <1>   0.0800 
 34 H       -1.8570    -1.5660    -1.9470 H     1 <1>   0.0800 
 35 H       -3.2610    -1.0150    -1.0540 H     1 <1>   0.0800 
 36 H       -0.2950    -4.6540     0.2100 H     1 <1>   0.0800 
 37 H       -0.9060    -4.5520    -1.4320 H     1 <1>   0.0800 
 38 H       -1.1050    -6.0150    -0.5080 H     1 <1>   0.0800 
 39 H       -6.4390    -3.4990     1.2580 H     1 <1>   0.0800 
 40 H       -5.8940    -4.8610     2.2090 H     1 <1>   0.0800 
 41 H       -6.3630    -5.0870     0.5330 H     1 <1>   0.0800 
 42 H       -4.3170    -6.9420     0.9680 H     1 <1>   0.3700 
 43 H       -3.5300    -9.1290    -2.8510 H     1 <1>   0.1500 
 44 H       -6.0860   -10.7880     2.2110 H     1 <1>   0.1500 
 45 H       -3.7260   -12.6500    -2.8380 H     1 <1>   0.0800 
 46 H       -3.8170   -11.3210    -3.9710 H     1 <1>   0.0800 
 47 H       -5.2760   -12.1330    -3.4530 H     1 <1>   0.0800 
 48 H       -6.9820   -13.2580     2.3900 H     1 <1>   0.0800 
 49 H       -6.0010   -14.3690     1.4570 H     1 <1>   0.0800 
 50 H       -7.5540   -13.8500     0.8440 H     1 <1>   0.0800 
@<TRIPOS>BOND
  1   1   2  2   
  2   1   3  2   
  3   1   4  1   
  4   1   5  1   
  5   4   6  1   
  6   4  29  1   
  7   4  30  1   
  8   5   7  1   
  9   5  31  1   
 10   5  32  1   
 11   6   7  1   
 12   6   8  1   
 13   6  33  1   
 14   7  34  1   
 15   7  35  1   
 16   8   9  1   
 17   8  10  1   
 18   9  11  2   
 19  10  12  2   
 20  10  13  1   
 21  11  12  1   
 22  11  14  1   
 23  12  15  1   
 24  13  36  1   
 25  13  37  1   
 26  13  38  1   
 27  14  39  1   
 28  14  40  1   
 29  14  41  1   
 30  15  16  am  
 31  15  42  1   
 32  16  17  2   
 33  16  18  1   
 34  18  19  2   
 35  18  20  1   
 36  19  21  1   
 37  20  22  2   
 38  20  43  1   
 39  21  23  1   
 40  21  24  2   
 41  22  23  1   
 42  22  25  1   
 43  23  26  1   
 44  24  27  1   
 45  24  44  1   
 46  25  45  1   
 47  25  46  1   
 48  25  47  1   
 49  26  27  2   
 50  27  28  1   
 51  28  48  1   
 52  28  49  1   
 53  28  50  1   
@<TRIPOS>SUBSTRUCTURE
  1 ****  15 GROUP 4 **** **** 0

# MOE 2024.06 (io_trps.svl 2023.06)
