@<TRIPOS>MOLECULE
NONAME
43 45 1 0 0 
SMALL
USER_CHARGES


@<TRIPOS>ATOM
  1 CL      -2.6480    -0.8360    -2.5180 Cl    1 <1>  -0.1770 
  2 C       -2.0920     0.4160    -1.4330 C.ar  1 <1>   0.1770 
  3 C       -2.1270     0.2150    -0.0550 C.ar  1 <1>   0.0860 
  4 C       -1.6350     1.5950    -1.9910 C.ar  1 <1>  -0.1500 
  5 C       -2.6110    -1.0140     0.5300 C.2   1 <1>   0.5440 
  6 C       -1.6690     1.2560     0.7530 C.ar  1 <1>  -0.1500 
  7 C       -1.1930     2.6150    -1.1670 C.ar  1 <1>  -0.1500 
  8 O       -1.7990    -1.7870     1.0000 O.2   1 <1>  -0.5700 
  9 N       -3.9580    -1.3210     0.6070 N.am  1 <1>  -0.6600 
 10 C       -1.2100     2.4420     0.2070 C.ar  1 <1>  -0.1500 
 11 C       -5.0180    -0.4000     0.0950 C.3   1 <1>   0.2200 
 12 C       -4.3840    -2.6300     1.1970 C.3   1 <1>   0.0600 
 13 C       -6.0410    -1.0690    -0.8200 C.3   1 <1>  -0.1600 
 14 C       -5.8480     0.2200     1.2120 C.3   1 <1>  -0.1600 
 15 C       -7.2420    -0.1150    -0.8050 C.3   1 <1>  -0.0800 
 16 C       -7.1400     0.6780     0.5200 C.3   1 <1>  -0.0800 
 17 C       -8.5820    -0.8400    -1.0340 C.3   1 <1>   0.1400 
 18 C       -8.3840     0.5440     1.4160 C.3   1 <1>  -0.0990 
 19 N       -9.7120     0.0180    -0.5960 N.am  1 <1>  -0.6600 
 20 C       -9.6460     0.6950     0.5910 C.2   1 <1>   0.5690 
 21 C      -10.9100     0.0550    -1.4750 C.3   1 <1>   0.0600 
 22 O      -10.5360     1.3960     1.0080 O.2   1 <1>  -0.5700 
 23 H       -1.6240     1.7120    -3.0600 H     1 <1>   0.1500 
 24 H       -1.6730     1.1210     1.8220 H     1 <1>   0.1500 
 25 H       -0.8340     3.5380    -1.5910 H     1 <1>   0.1500 
 26 H       -0.8610     3.2310     0.8520 H     1 <1>   0.1500 
 27 H       -4.5780     0.4080    -0.4620 H     1 <1>   0.0800 
 28 H       -5.3620    -2.5590     1.6350 H     1 <1>   0.0800 
 29 H       -3.6950    -2.9370     1.9650 H     1 <1>   0.0800 
 30 H       -4.3940    -3.3810     0.4270 H     1 <1>   0.0800 
 31 H       -5.6490    -1.2000    -1.8130 H     1 <1>   0.0800 
 32 H       -6.3380    -2.0220    -0.4250 H     1 <1>   0.0800 
 33 H       -6.0710    -0.5140     1.9630 H     1 <1>   0.0800 
 34 H       -5.3320     1.0470     1.6670 H     1 <1>   0.0800 
 35 H       -7.1140     0.5880    -1.6120 H     1 <1>   0.0800 
 36 H       -7.0360     1.7190     0.2610 H     1 <1>   0.0800 
 37 H       -8.6150    -1.7530    -0.4640 H     1 <1>   0.0800 
 38 H       -8.6860    -1.0890    -2.0770 H     1 <1>   0.0800 
 39 H       -8.3670     1.2920     2.1880 H     1 <1>   0.0800 
 40 H       -8.4140    -0.4230     1.8820 H     1 <1>   0.0800 
 41 H      -10.6430     0.4530    -2.4380 H     1 <1>   0.0800 
 42 H      -11.6750     0.6800    -1.0460 H     1 <1>   0.0800 
 43 H      -11.3050    -0.9380    -1.5960 H     1 <1>   0.0800 
@<TRIPOS>BOND
  1   1   2  1   
  2   2   3  ar  
  3   2   4  ar  
  4   3   5  1   
  5   3   6  ar  
  6   4   7  ar  
  7   4  23  1   
  8   5   8  2   
  9   5   9  am  
 10   6  10  ar  
 11   6  24  1   
 12   7  10  ar  
 13   7  25  1   
 14   9  11  1   
 15   9  12  1   
 16  10  26  1   
 17  11  13  1   
 18  11  14  1   
 19  11  27  1   
 20  12  28  1   
 21  12  29  1   
 22  12  30  1   
 23  13  15  1   
 24  13  31  1   
 25  13  32  1   
 26  14  16  1   
 27  14  33  1   
 28  14  34  1   
 29  15  16  1   
 30  15  17  1   
 31  15  35  1   
 32  16  18  1   
 33  16  36  1   
 34  17  19  1   
 35  17  37  1   
 36  17  38  1   
 37  18  20  1   
 38  18  39  1   
 39  18  40  1   
 40  19  20  am  
 41  19  21  1   
 42  20  22  2   
 43  21  41  1   
 44  21  42  1   
 45  21  43  1   
@<TRIPOS>SUBSTRUCTURE
  1 ****  11 GROUP 4 **** **** 0

# MOE 2024.06 (io_trps.svl 2023.06)
