@<TRIPOS>MOLECULE
NONAME
69 73 1 0 0 
SMALL
USER_CHARGES


@<TRIPOS>ATOM
  1 O        1.4040    -4.0640     2.4680 O.2   1 <1>  -0.5700 
  2 C        0.6090    -3.9510     1.5620 C.2   1 <1>   0.5690 
  3 N        0.9840    -3.4440     0.3460 N.am  1 <1>  -0.6600 
  4 C       -0.8160    -4.4380     1.8100 C.3   1 <1>   0.1810 
  5 C        0.1000    -3.2180    -0.8180 C.3   1 <1>   0.1400 
  6 C        2.3540    -2.9580     0.0770 C.3   1 <1>   0.1400 
  7 O       -1.7750    -3.4190     1.5570 O.3   1 <1>  -0.3620 
  8 C        1.0440    -2.8190    -1.9470 C.3   1 <1>  -0.1600 
  9 C        2.2470    -2.2000    -1.2410 C.3   1 <1>  -0.1600 
 10 C       -3.1000    -3.6340     1.7250 C.ar  1 <1>   0.0820 
 11 C       -3.6480    -4.8550     2.1050 C.ar  1 <1>  -0.1500 
 12 C       -3.9350    -2.5540     1.5000 C.ar  1 <1>  -0.1500 
 13 C       -5.0190    -4.9840     2.2480 C.ar  1 <1>  -0.1500 
 14 C       -5.3040    -2.6810     1.6440 C.ar  1 <1>  -0.1500 
 15 C       -5.8550    -3.9010     2.0120 C.ar  1 <1>  -0.1430 
 16 C       -7.3580    -4.0450     2.1510 C.3   1 <1>   0.4860 
 17 N       -7.9500    -4.0720     0.7880 N.4   1 <1>  -0.9590 
 18 C       -9.4430    -3.9110     0.8490 C.3   1 <1>   0.3430 
 19 C       -7.5630    -5.3080     0.0450 C.3   1 <1>   0.3430 
 20 C      -10.0780    -3.8430    -0.5510 C.3   1 <1>   0.1430 
 21 C       -8.1210    -5.2580    -1.3800 C.3   1 <1>  -0.1600 
 22 C      -11.5770    -3.8280    -0.3800 C.ar  1 <1>   0.1670 
 23 C       -9.6480    -5.0590    -1.3970 C.3   1 <1>  -0.1600 
 24 C       -9.8120    -2.4990    -1.2830 C.3   1 <1>  -0.1600 
 25 N      -12.2340    -4.6370     0.4090 N.ar  1 <1>  -0.6200 
 26 C      -12.1650    -2.8540    -1.1260 C.ar  1 <1>  -0.1430 
 27 C      -11.1500    -2.0720    -1.9210 C.3   1 <1>  -0.0170 
 28 C      -13.5570    -4.4450     0.4290 C.ar  1 <1>   0.7200 
 29 C      -13.5290    -2.7320    -1.0410 C.ar  1 <1>   0.1600 
 30 N      -14.2310    -3.5210    -0.2620 N.ar  1 <1>  -0.6200 
 31 N      -14.2900    -5.2750     1.2510 N.pl3 1 <1>  -0.8380 
 32 C      -13.8400    -6.6490     1.6040 C.3   1 <1>   0.1290 
 33 C      -15.6940    -4.9510     1.6300 C.3   1 <1>   0.1290 
 34 H       -0.9120    -4.7400     2.8370 H     1 <1>   0.0800 
 35 H       -1.0220    -5.2690     1.1620 H     1 <1>   0.0800 
 36 H       -0.5750    -2.4090    -0.5940 H     1 <1>   0.0800 
 37 H       -0.4580    -4.1040    -1.0630 H     1 <1>   0.0800 
 38 H        3.0110    -3.8050    -0.0220 H     1 <1>   0.0800 
 39 H        2.7000    -2.3250     0.8770 H     1 <1>   0.0800 
 40 H        0.5770    -2.1380    -2.6370 H     1 <1>   0.0800 
 41 H        1.3480    -3.7040    -2.4780 H     1 <1>   0.0800 
 42 H        3.1500    -2.2770    -1.8200 H     1 <1>   0.0800 
 43 H        2.0540    -1.1620    -1.0300 H     1 <1>   0.0800 
 44 H       -3.0260    -5.7100     2.2970 H     1 <1>   0.1500 
 45 H       -3.4990    -1.6110     1.2180 H     1 <1>   0.1500 
 46 H       -5.4200    -5.9370     2.5490 H     1 <1>   0.1500 
 47 H       -5.9240    -1.8170     1.4710 H     1 <1>   0.1500 
 48 H       -7.7420    -3.2060     2.7080 H     1 <1>   0.0800 
 49 H       -7.6000    -4.9490     2.6850 H     1 <1>   0.0800 
 50 H       -7.5490    -3.2760     0.2770 H     1 <1>   0.4500 
 51 H       -9.7030    -3.0180     1.3930 H     1 <1>   0.0800 
 52 H       -9.8740    -4.7500     1.3710 H     1 <1>   0.0800 
 53 H       -7.9560    -6.1760     0.5510 H     1 <1>   0.0800 
 54 H       -6.4880    -5.3960     0.0050 H     1 <1>   0.0800 
 55 H       -7.8840    -6.1830    -1.8770 H     1 <1>   0.0800 
 56 H       -7.6320    -4.4730    -1.9280 H     1 <1>   0.0800 
 57 H       -9.9970    -4.9490    -2.4100 H     1 <1>   0.0800 
 58 H      -10.1160    -5.9430    -0.9960 H     1 <1>   0.0800 
 59 H       -9.0370    -2.5670    -2.0260 H     1 <1>   0.0800 
 60 H       -9.5340    -1.7440    -0.5680 H     1 <1>   0.0800 
 61 H      -11.1960    -2.3710    -2.9550 H     1 <1>   0.0800 
 62 H      -11.3120    -1.0110    -1.8420 H     1 <1>   0.0800 
 63 H      -14.0500    -1.9810    -1.6100 H     1 <1>   0.1500 
 64 H      -13.0270    -6.9600     0.9730 H     1 <1>   0.0800 
 65 H      -14.6510    -7.3450     1.4740 H     1 <1>   0.0800 
 66 H      -13.5170    -6.6690     2.6300 H     1 <1>   0.0800 
 67 H      -15.8290    -3.8850     1.6960 H     1 <1>   0.0800 
 68 H      -15.9280    -5.3830     2.5870 H     1 <1>   0.0800 
 69 H      -16.3680    -5.3420     0.8870 H     1 <1>   0.0800 
@<TRIPOS>BOND
  1   1   2  2   
  2   2   3  am  
  3   2   4  1   
  4   3   5  1   
  5   3   6  1   
  6   4   7  1   
  7   4  34  1   
  8   4  35  1   
  9   5   8  1   
 10   5  36  1   
 11   5  37  1   
 12   6   9  1   
 13   6  38  1   
 14   6  39  1   
 15   7  10  1   
 16   8   9  1   
 17   8  40  1   
 18   8  41  1   
 19   9  42  1   
 20   9  43  1   
 21  10  11  ar  
 22  10  12  ar  
 23  11  13  ar  
 24  11  44  1   
 25  12  14  ar  
 26  12  45  1   
 27  13  15  ar  
 28  13  46  1   
 29  14  15  ar  
 30  14  47  1   
 31  15  16  1   
 32  16  17  1   
 33  16  48  1   
 34  16  49  1   
 35  17  18  1   
 36  17  19  1   
 37  17  50  1   
 38  18  20  1   
 39  18  51  1   
 40  18  52  1   
 41  19  21  1   
 42  19  53  1   
 43  19  54  1   
 44  20  22  1   
 45  20  23  1   
 46  20  24  1   
 47  21  23  1   
 48  21  55  1   
 49  21  56  1   
 50  22  25  ar  
 51  22  26  ar  
 52  23  57  1   
 53  23  58  1   
 54  24  27  1   
 55  24  59  1   
 56  24  60  1   
 57  25  28  ar  
 58  26  27  1   
 59  26  29  ar  
 60  27  61  1   
 61  27  62  1   
 62  28  30  ar  
 63  28  31  1   
 64  29  30  ar  
 65  29  63  1   
 66  31  32  1   
 67  31  33  1   
 68  32  64  1   
 69  32  65  1   
 70  32  66  1   
 71  33  67  1   
 72  33  68  1   
 73  33  69  1   
@<TRIPOS>SUBSTRUCTURE
  1 ****  17 GROUP 4 **** **** 0

# MOE 2024.06 (io_trps.svl 2023.06)
