@<TRIPOS>MOLECULE
NONAME
48 51 1 0 0 
SMALL
USER_CHARGES


@<TRIPOS>ATOM
  1 S        0.7050     1.0110     1.1120 S.3   1 <1>  -0.0800 
  2 C        1.9200     0.0610     0.2520 C.ar  1 <1>   0.0400 
  3 C       -0.2410    -0.4290     1.4680 C.2   1 <1>  -0.1100 
  4 C        1.5860    -1.2870     0.2740 C.ar  1 <1>   0.0000 
  5 C        3.0550     0.5620    -0.3560 C.ar  1 <1>  -0.1500 
  6 C        0.3310    -1.5320     0.9480 C.2   1 <1>  -0.1810 
  7 C        2.4840    -2.1740    -0.3230 C.ar  1 <1>  -0.1500 
  8 C        3.9140    -0.3360    -0.9620 C.ar  1 <1>  -0.1500 
  9 C       -0.2620    -2.9210     1.0400 C.3   1 <1>   0.5240 
 10 C        3.6290    -1.6970    -0.9390 C.ar  1 <1>  -0.1500 
 11 N       -0.5030    -3.4310    -0.3440 N.4   1 <1>  -0.9590 
 12 C       -1.8680    -3.2400    -0.9220 C.3   1 <1>   0.4230 
 13 C       -0.0880    -4.8630    -0.4590 C.3   1 <1>   0.2630 
 14 C       -3.0010    -3.8830    -0.1240 C.3   1 <1>  -0.1600 
 15 C       -2.2980    -1.7870    -1.0690 C.3   1 <1>  -0.1600 
 16 C       -4.2710    -3.2150    -0.6750 C.3   1 <1>  -0.0800 
 17 C       -3.8140    -1.8680    -1.2840 C.3   1 <1>  -0.0800 
 18 C       -5.4050    -3.1100     0.3640 C.3   1 <1>   0.1400 
 19 C       -4.5720    -0.6450    -0.7330 C.3   1 <1>  -0.0990 
 20 N       -6.4260    -2.1420    -0.1020 N.am  1 <1>  -0.6600 
 21 C       -6.0550    -0.9390    -0.6370 C.2   1 <1>   0.5690 
 22 C       -7.8520    -2.5250     0.0860 C.3   1 <1>   0.0600 
 23 O       -6.8410    -0.1110    -1.0280 O.2   1 <1>  -0.5700 
 24 H       -1.1460    -0.2680     2.0300 H     1 <1>   0.1500 
 25 H        3.2590     1.6180    -0.3490 H     1 <1>   0.1500 
 26 H        2.3140    -3.2330    -0.3060 H     1 <1>   0.1500 
 27 H        4.8090     0.0180    -1.4460 H     1 <1>   0.1500 
 28 H       -1.1760    -2.8970     1.6080 H     1 <1>   0.0800 
 29 H        0.4400    -3.5570     1.5550 H     1 <1>   0.0800 
 30 H        4.3200    -2.3810    -1.4030 H     1 <1>   0.1500 
 31 H        0.1310    -2.8610    -0.9250 H     1 <1>   0.4500 
 32 H       -1.8850    -3.6720    -1.9110 H     1 <1>   0.0800 
 33 H       -0.7230    -5.4890     0.1470 H     1 <1>   0.0800 
 34 H        0.9310    -4.9900    -0.1320 H     1 <1>   0.0800 
 35 H       -0.1600    -5.1920    -1.4840 H     1 <1>   0.0800 
 36 H       -3.0390    -4.9480    -0.2660 H     1 <1>   0.0800 
 37 H       -2.9110    -3.6590     0.9220 H     1 <1>   0.0800 
 38 H       -2.1120    -1.2390    -0.1680 H     1 <1>   0.0800 
 39 H       -1.8110    -1.3020    -1.8970 H     1 <1>   0.0800 
 40 H       -4.6430    -3.8230    -1.4850 H     1 <1>   0.0800 
 41 H       -4.0090    -1.9150    -2.3450 H     1 <1>   0.0800 
 42 H       -5.0240    -2.7650     1.3100 H     1 <1>   0.0800 
 43 H       -5.8550    -4.0780     0.5130 H     1 <1>   0.0800 
 44 H       -4.4180     0.2060    -1.3720 H     1 <1>   0.0800 
 45 H       -4.2310    -0.3910     0.2530 H     1 <1>   0.0800 
 46 H       -8.0670    -3.4190    -0.4730 H     1 <1>   0.0800 
 47 H       -8.5030    -1.7400    -0.2590 H     1 <1>   0.0800 
 48 H       -8.0490    -2.7000     1.1290 H     1 <1>   0.0800 
@<TRIPOS>BOND
  1   1   2  1   
  2   1   3  1   
  3   2   4  ar  
  4   2   5  ar  
  5   3   6  2   
  6   3  24  1   
  7   4   6  1   
  8   4   7  ar  
  9   5   8  ar  
 10   5  25  1   
 11   6   9  1   
 12   7  10  ar  
 13   7  26  1   
 14   8  10  ar  
 15   8  27  1   
 16   9  11  1   
 17   9  28  1   
 18   9  29  1   
 19  10  30  1   
 20  11  12  1   
 21  11  13  1   
 22  11  31  1   
 23  12  14  1   
 24  12  15  1   
 25  12  32  1   
 26  13  33  1   
 27  13  34  1   
 28  13  35  1   
 29  14  16  1   
 30  14  36  1   
 31  14  37  1   
 32  15  17  1   
 33  15  38  1   
 34  15  39  1   
 35  16  17  1   
 36  16  18  1   
 37  16  40  1   
 38  17  19  1   
 39  17  41  1   
 40  18  20  1   
 41  18  42  1   
 42  18  43  1   
 43  19  21  1   
 44  19  44  1   
 45  19  45  1   
 46  20  21  am  
 47  20  22  1   
 48  21  23  2   
 49  22  46  1   
 50  22  47  1   
 51  22  48  1   
@<TRIPOS>SUBSTRUCTURE
  1 ****  15 GROUP 4 **** **** 0

# MOE 2024.06 (io_trps.svl 2023.06)
