@<TRIPOS>MOLECULE
NONAME
52 54 1 0 0 
SMALL
USER_CHARGES


@<TRIPOS>ATOM
  1 O        0.9430    -0.7260     1.4730 O.2   1 <1>  -0.5700 
  2 C        0.7010    -1.8980     1.2190 C.2   1 <1>   0.6160 
  3 N        0.9860    -2.4290    -0.0310 N.am  1 <1>  -0.4690 
  4 C        0.1180    -2.7640     2.1840 C.2   1 <1>  -0.1360 
  5 C        0.6940    -3.7420    -0.3130 C.2   1 <1>  -0.0410 
  6 C        1.6240    -1.5630    -1.0550 C.3   1 <1>   0.0600 
  7 C       -0.1680    -4.0600     1.8940 C.2   1 <1>  -0.1500 
  8 C        0.1080    -4.5890     0.5950 C.2   1 <1>   0.0140 
  9 C       -0.2060    -5.9600     0.2640 C.2   1 <1>   0.6160 
 10 O        0.4940    -6.5670    -0.5270 O.2   1 <1>  -0.5700 
 11 N       -1.3030    -6.6070     0.7900 N.am  1 <1>  -0.6600 
 12 C       -1.4260    -8.0980     0.7260 C.3   1 <1>   0.1400 
 13 C       -2.6330    -5.9350     0.9060 C.3   1 <1>   0.1400 
 14 C       -2.4480    -8.5170    -0.3440 C.3   1 <1>   0.3430 
 15 C       -3.6050    -6.4580    -0.1790 C.3   1 <1>   0.2000 
 16 O       -3.6680    -7.8610    -0.1170 O.3   1 <1>  -0.5600 
 17 C       -2.6640   -10.0280    -0.3180 C.ar  1 <1>  -0.1430 
 18 C       -5.0490    -5.8760    -0.0950 C.3   1 <1>   0.0000 
 19 C       -3.6330   -10.6100     0.4880 C.ar  1 <1>  -0.1500 
 20 C       -1.8650   -10.8440    -1.1060 C.ar  1 <1>  -0.1500 
 21 C       -5.7600    -6.2730     1.2130 C.3   1 <1>  -0.2400 
 22 C       -5.8840    -6.4060    -1.2750 C.3   1 <1>  -0.2400 
 23 C       -5.0300    -4.3400    -0.1920 C.3   1 <1>  -0.2400 
 24 C       -3.8010   -11.9840     0.5050 C.ar  1 <1>  -0.1500 
 25 C       -2.0310   -12.2190    -1.0900 C.ar  1 <1>  -0.1500 
 26 C       -2.9990   -12.7900    -0.2830 C.ar  1 <1>  -0.1500 
 27 H       -0.0750    -2.3320     3.1480 H     1 <1>   0.1500 
 28 H        0.9430    -4.1080    -1.2970 H     1 <1>   0.1500 
 29 H        1.7990    -2.1120    -1.9630 H     1 <1>   0.0800 
 30 H        2.5630    -1.1960    -0.6790 H     1 <1>   0.0800 
 31 H        0.9830    -0.7250    -1.2660 H     1 <1>   0.0800 
 32 H       -0.5980    -4.7170     2.6310 H     1 <1>   0.1500 
 33 H       -0.4730    -8.5470     0.5040 H     1 <1>   0.0800 
 34 H       -1.7460    -8.4710     1.6820 H     1 <1>   0.0800 
 35 H       -3.0380    -6.1280     1.8830 H     1 <1>   0.0800 
 36 H       -2.5190    -4.8730     0.7940 H     1 <1>   0.0800 
 37 H       -2.0900    -8.2270    -1.3170 H     1 <1>   0.0800 
 38 H       -3.2020    -6.1990    -1.1440 H     1 <1>   0.0800 
 39 H       -4.2640    -9.9910     1.1020 H     1 <1>   0.1500 
 40 H       -1.1070   -10.4140    -1.7380 H     1 <1>   0.1500 
 41 H       -6.7740    -5.9110     1.2150 H     1 <1>   0.0800 
 42 H       -5.2610    -5.8640     2.0720 H     1 <1>   0.0800 
 43 H       -5.7890    -7.3440     1.3150 H     1 <1>   0.0800 
 44 H       -6.8780    -5.9960    -1.2580 H     1 <1>   0.0800 
 45 H       -5.9650    -7.4780    -1.2300 H     1 <1>   0.0800 
 46 H       -5.4250    -6.1450    -2.2120 H     1 <1>   0.0800 
 47 H       -6.0340    -3.9550    -0.2380 H     1 <1>   0.0800 
 48 H       -4.5100    -4.0230    -1.0790 H     1 <1>   0.0800 
 49 H       -4.5530    -3.8980     0.6630 H     1 <1>   0.0800 
 50 H       -4.5570   -12.4240     1.1320 H     1 <1>   0.1500 
 51 H       -1.4080   -12.8430    -1.7050 H     1 <1>   0.1500 
 52 H       -3.1300   -13.8570    -0.2700 H     1 <1>   0.1500 
@<TRIPOS>BOND
  1   1   2  2   
  2   2   3  am  
  3   2   4  1   
  4   3   5  1   
  5   3   6  1   
  6   4   7  2   
  7   4  27  1   
  8   5   8  2   
  9   5  28  1   
 10   6  29  1   
 11   6  30  1   
 12   6  31  1   
 13   7   8  1   
 14   7  32  1   
 15   8   9  1   
 16   9  10  2   
 17   9  11  am  
 18  11  12  1   
 19  11  13  1   
 20  12  14  1   
 21  12  33  1   
 22  12  34  1   
 23  13  15  1   
 24  13  35  1   
 25  13  36  1   
 26  14  16  1   
 27  14  17  1   
 28  14  37  1   
 29  15  16  1   
 30  15  18  1   
 31  15  38  1   
 32  17  19  ar  
 33  17  20  ar  
 34  18  21  1   
 35  18  22  1   
 36  18  23  1   
 37  19  24  ar  
 38  19  39  1   
 39  20  25  ar  
 40  20  40  1   
 41  21  41  1   
 42  21  42  1   
 43  21  43  1   
 44  22  44  1   
 45  22  45  1   
 46  22  46  1   
 47  23  47  1   
 48  23  48  1   
 49  23  49  1   
 50  24  26  ar  
 51  24  50  1   
 52  25  26  ar  
 53  25  51  1   
 54  26  52  1   
@<TRIPOS>SUBSTRUCTURE
  1 ****  11 GROUP 4 **** **** 0

# MOE 2024.06 (io_trps.svl 2023.06)
