@<TRIPOS>MOLECULE
NONAME
49 51 1 0 0 
SMALL
USER_CHARGES


@<TRIPOS>ATOM
  1 O        0.0770    -1.7840    -2.2150 O.2   1 <1>  -0.5700 
  2 C        0.5170    -1.2130    -1.2300 C.2   1 <1>   0.5440 
  3 N       -0.2260    -0.2050    -0.6590 N.am  1 <1>  -0.6600 
  4 C        1.7820    -1.6230    -0.6810 C.ar  1 <1>   0.0860 
  5 C       -1.4690     0.3150    -1.2750 C.3   1 <1>   0.1400 
  6 C        0.3190     0.7710     0.3200 C.3   1 <1>   0.1400 
  7 C        1.8630    -2.2000     0.6000 C.ar  1 <1>   0.4100 
  8 C        2.9530    -1.4920    -1.4130 C.ar  1 <1>  -0.1500 
  9 C       -1.8170     1.5640    -0.4740 C.3   1 <1>  -0.1600 
 10 C       -0.4830     2.0450     0.0880 C.3   1 <1>  -0.1600 
 11 N        2.9950    -2.6430     1.1390 N.ar  1 <1>  -0.6200 
 12 N        0.7300    -2.3720     1.3670 N.pl3 1 <1>  -0.8690 
 13 C        4.1260    -1.9300    -0.8430 C.ar  1 <1>  -0.1500 
 14 C        4.0910    -2.4900     0.4210 C.ar  1 <1>   0.1600 
 15 C        0.6850    -2.8910     2.7540 C.3   1 <1>   0.2090 
 16 C       -0.6040    -3.6880     2.9900 C.3   1 <1>  -0.1600 
 17 C       -0.7210    -4.9910     2.1810 C.3   1 <1>   0.3540 
 18 N       -0.9900    -4.7250     0.7460 N.pl3 1 <1>  -0.4570 
 19 N       -2.1800    -4.2090     0.3400 N.2   1 <1>  -0.2600 
 20 C       -0.1620    -4.8190    -0.2810 C.cat 1 <1>   0.6560 
 21 C       -2.0180    -3.9970    -0.9170 C.2   1 <1>   0.4850 
 22 N       -0.7900    -4.3700    -1.3350 N.pl3 1 <1>  -0.7000 
 23 C        1.2660    -5.3190    -0.2880 C.3   1 <1>  -0.0960 
 24 C       -3.0360    -3.3980    -1.8580 C.3   1 <1>  -0.0720 
 25 H       -2.2570    -0.4170    -1.2240 H     1 <1>   0.0800 
 26 H       -1.2750     0.5680    -2.3040 H     1 <1>   0.0800 
 27 H        1.3710     0.9410     0.1670 H     1 <1>   0.0800 
 28 H        0.1520     0.4050     1.3180 H     1 <1>   0.0800 
 29 H        2.9350    -1.0580    -2.3990 H     1 <1>   0.1500 
 30 H       -2.4780     1.2940     0.3310 H     1 <1>   0.0800 
 31 H       -2.2960     2.3090    -1.0840 H     1 <1>   0.0800 
 32 H        0.0250     2.6500    -0.6430 H     1 <1>   0.0800 
 33 H       -0.6000     2.6160     0.9930 H     1 <1>   0.0800 
 34 H       -0.1040    -1.8450     1.0730 H     1 <1>   0.4000 
 35 H        5.0610    -1.8410    -1.3690 H     1 <1>   0.1500 
 36 H        5.0160    -2.8300     0.8600 H     1 <1>   0.1500 
 37 H        0.7240    -2.0560     3.4340 H     1 <1>   0.0800 
 38 H        1.5400    -3.5160     2.9520 H     1 <1>   0.0800 
 39 H       -1.4610    -3.0630     2.8140 H     1 <1>   0.0800 
 40 H       -0.6220    -3.9540     4.0320 H     1 <1>   0.0800 
 41 H       -1.5400    -5.5730     2.5700 H     1 <1>   0.0800 
 42 H        0.1770    -5.5740     2.2900 H     1 <1>   0.0800 
 43 H       -0.4120    -4.1920    -2.2680 H     1 <1>   0.4500 
 44 H        1.7430    -5.1160     0.6520 H     1 <1>   0.0800 
 45 H        1.8230    -4.8250    -1.0620 H     1 <1>   0.0800 
 46 H        1.2770    -6.3780    -0.4670 H     1 <1>   0.0800 
 47 H       -3.8950    -3.0630    -1.3070 H     1 <1>   0.0800 
 48 H       -3.3470    -4.1340    -2.5760 H     1 <1>   0.0800 
 49 H       -2.6050    -2.5610    -2.3760 H     1 <1>   0.0800 
@<TRIPOS>BOND
  1   1   2  2   
  2   2   3  am  
  3   2   4  1   
  4   3   5  1   
  5   3   6  1   
  6   4   7  ar  
  7   4   8  ar  
  8   5   9  1   
  9   5  25  1   
 10   5  26  1   
 11   6  10  1   
 12   6  27  1   
 13   6  28  1   
 14   7  11  ar  
 15   7  12  1   
 16   8  13  ar  
 17   8  29  1   
 18   9  10  1   
 19   9  30  1   
 20   9  31  1   
 21  10  32  1   
 22  10  33  1   
 23  11  14  ar  
 24  12  15  1   
 25  12  34  1   
 26  13  14  ar  
 27  13  35  1   
 28  14  36  1   
 29  15  16  1   
 30  15  37  1   
 31  15  38  1   
 32  16  17  1   
 33  16  39  1   
 34  16  40  1   
 35  17  18  1   
 36  17  41  1   
 37  17  42  1   
 38  18  19  1   
 39  18  20  ar  
 40  19  21  2   
 41  20  22  ar  
 42  20  23  1   
 43  21  22  1   
 44  21  24  1   
 45  22  43  1   
 46  23  44  1   
 47  23  45  1   
 48  23  46  1   
 49  24  47  1   
 50  24  48  1   
 51  24  49  1   
@<TRIPOS>SUBSTRUCTURE
  1 ****  12 GROUP 4 **** **** 0

# MOE 2024.06 (io_trps.svl 2023.06)
