@<TRIPOS>MOLECULE
NONAME
45 46 1 0 0 
SMALL
USER_CHARGES


@<TRIPOS>ATOM
  1 O       -3.0670     1.4750    -1.8330 O.2   1 <1>  -0.5700 
  2 C       -2.6550     1.3320    -0.7100 C.2   1 <1>   0.5690 
  3 N       -2.2990     0.1200    -0.2250 N.am  1 <1>  -0.7300 
  4 C       -2.5290     2.5420     0.1930 C.3   1 <1>  -0.0990 
  5 C       -2.2830    -1.1360    -1.0080 C.3   1 <1>   0.2200 
  6 C       -1.0600     2.9450     0.4040 C.3   1 <1>  -0.1600 
  7 C       -3.4090    -2.0690    -0.5830 C.3   1 <1>  -0.0800 
  8 C       -1.0720    -1.9540    -0.5840 C.3   1 <1>   0.1200 
  9 C       -0.9440     4.2150     1.2440 C.3   1 <1>   0.1400 
 10 C       -2.8180    -2.7980     0.6290 C.3   1 <1>   0.1200 
 11 C       -4.7720    -1.4010    -0.3230 C.3   1 <1>  -0.0160 
 12 O       -1.4440    -2.5370     0.6270 O.3   1 <1>  -0.5600 
 13 N        0.4860     4.5310     1.4320 N.am  1 <1>  -0.7300 
 14 C       -5.8350    -2.4430    -0.0110 C.ar  1 <1>  -0.1440 
 15 C        1.2450     5.4510     0.7970 C.2   1 <1>   0.5690 
 16 C       -6.2120    -2.7450     1.2820 C.ar  1 <1>  -0.1500 
 17 C       -6.4770    -3.1430    -1.0120 C.ar  1 <1>  -0.1500 
 18 O        2.4080     5.5700     1.0830 O.2   1 <1>  -0.5700 
 19 C        0.6580     6.3330    -0.2770 C.3   1 <1>  -0.1790 
 20 C       -7.1810    -3.7090     1.5050 C.ar  1 <1>   0.1600 
 21 C       -7.4340    -4.0880    -0.6810 C.ar  1 <1>   0.1600 
 22 N       -7.8000    -4.3900     0.5540 N.ar  1 <1>  -0.6200 
 23 H       -1.9570     0.0110     0.7320 H     1 <1>   0.3700 
 24 H       -3.0660     3.3560    -0.2610 H     1 <1>   0.0800 
 25 H       -2.9950     2.3210     1.1350 H     1 <1>   0.0800 
 26 H       -2.2880    -0.9280    -2.0650 H     1 <1>   0.0800 
 27 H       -0.6040     3.1140    -0.5560 H     1 <1>   0.0800 
 28 H       -0.5350     2.1430     0.8930 H     1 <1>   0.0800 
 29 H       -3.5400    -2.7980    -1.3630 H     1 <1>   0.0800 
 30 H       -0.1880    -1.3560    -0.4470 H     1 <1>   0.0800 
 31 H       -0.8770    -2.7460    -1.2870 H     1 <1>   0.0800 
 32 H       -1.4010     4.0700     2.2090 H     1 <1>   0.0800 
 33 H       -1.4450     5.0320     0.7530 H     1 <1>   0.0800 
 34 H       -2.9730    -3.8620     0.5670 H     1 <1>   0.0800 
 35 H       -3.2190    -2.4270     1.5560 H     1 <1>   0.0800 
 36 H       -5.0670    -0.8400    -1.1940 H     1 <1>   0.0800 
 37 H       -4.7030    -0.7080     0.4970 H     1 <1>   0.0800 
 38 H        0.9870     3.9700     2.1250 H     1 <1>   0.3700 
 39 H       -5.7650    -2.2410     2.1190 H     1 <1>   0.1500 
 40 H       -6.2440    -2.9620    -2.0450 H     1 <1>   0.1500 
 41 H        0.2090     5.7290    -1.0420 H     1 <1>   0.0800 
 42 H        1.4360     6.9290    -0.7180 H     1 <1>   0.0800 
 43 H       -0.0770     6.9860     0.1530 H     1 <1>   0.0800 
 44 H       -7.4630    -3.9320     2.5200 H     1 <1>   0.1500 
 45 H       -7.9250    -4.6250    -1.4750 H     1 <1>   0.1500 
@<TRIPOS>BOND
  1   1   2  2   
  2   2   3  am  
  3   2   4  1   
  4   3   5  1   
  5   3  23  1   
  6   4   6  1   
  7   4  24  1   
  8   4  25  1   
  9   5   7  1   
 10   5   8  1   
 11   5  26  1   
 12   6   9  1   
 13   6  27  1   
 14   6  28  1   
 15   7  10  1   
 16   7  11  1   
 17   7  29  1   
 18   8  12  1   
 19   8  30  1   
 20   8  31  1   
 21   9  13  1   
 22   9  32  1   
 23   9  33  1   
 24  10  12  1   
 25  10  34  1   
 26  10  35  1   
 27  11  14  1   
 28  11  36  1   
 29  11  37  1   
 30  13  15  am  
 31  13  38  1   
 32  14  16  ar  
 33  14  17  ar  
 34  15  18  2   
 35  15  19  1   
 36  16  20  ar  
 37  16  39  1   
 38  17  21  ar  
 39  17  40  1   
 40  19  41  1   
 41  19  42  1   
 42  19  43  1   
 43  20  22  ar  
 44  20  44  1   
 45  21  22  ar  
 46  21  45  1   
@<TRIPOS>SUBSTRUCTURE
  1 ****   3 GROUP 4 **** **** 0

# MOE 2024.06 (io_trps.svl 2023.06)
