@<TRIPOS>MOLECULE
NONAME
55 58 1 0 0 
SMALL
USER_CHARGES


@<TRIPOS>ATOM
  1 O       -2.7460     2.5820    -2.0600 O.2   1 <1>  -0.5700 
  2 C       -2.9110     2.3370    -0.8820 C.2   1 <1>   0.5690 
  3 N       -3.9350     1.4980    -0.4850 N.am  1 <1>  -0.6600 
  4 C       -1.9530     3.0310     0.1250 C.3   1 <1>   0.2810 
  5 C       -4.8840     0.9220    -1.4810 C.3   1 <1>   0.1400 
  6 C       -4.1510     0.9580     0.8900 C.3   1 <1>   0.1400 
  7 N       -0.5430     2.5460     0.0290 N.am  1 <1>  -0.6600 
  8 C       -1.8500     4.5520    -0.1040 C.3   1 <1>  -0.1600 
  9 C       -4.7010    -0.5950    -1.5410 C.3   1 <1>  -0.1600 
 10 C       -3.9890    -0.5630     0.8780 C.3   1 <1>  -0.1600 
 11 C       -0.1390     1.3580     0.5590 C.2   1 <1>   0.5690 
 12 C        0.3150     3.5870    -0.5610 C.3   1 <1>   0.1400 
 13 C       -0.3570     4.8830    -0.1330 C.3   1 <1>  -0.1600 
 14 C       -4.8910    -1.2490    -0.1600 C.3   1 <1>   0.4240 
 15 O       -0.8710     0.6660     1.2230 O.2   1 <1>  -0.5700 
 16 C        1.2740     0.8760     0.3320 C.3   1 <1>  -0.1790 
 17 O       -6.1990    -0.9310     0.2690 O.3   1 <1>  -0.5600 
 18 C       -4.6540    -2.7860    -0.1810 C.ar  1 <1>  -0.1440 
 19 C       -7.2370    -1.7480    -0.1630 C.3   1 <1>   0.1200 
 20 C       -3.4140    -3.3440    -0.5140 C.ar  1 <1>   0.0820 
 21 C       -5.6900    -3.6590     0.1460 C.ar  1 <1>  -0.1440 
 22 C       -7.0630    -3.1150     0.4840 C.3   1 <1>  -0.0170 
 23 O       -2.3780    -2.5530    -0.8760 O.3   1 <1>  -0.3630 
 24 C       -3.2260    -4.7210    -0.5030 C.ar  1 <1>  -0.1500 
 25 C       -5.4940    -5.0310     0.1640 C.ar  1 <1>  -0.1500 
 26 C       -1.1520    -2.6870    -0.1900 C.3   1 <1>   0.0400 
 27 C       -4.2630    -5.5640    -0.1590 C.ar  1 <1>  -0.1500 
 28 H       -2.2870     2.8790     1.1300 H     1 <1>   0.0800 
 29 H       -5.8910     1.1620    -1.1870 H     1 <1>   0.0800 
 30 H       -4.7190     1.3420    -2.4590 H     1 <1>   0.0800 
 31 H       -3.4560     1.3640     1.5980 H     1 <1>   0.0800 
 32 H       -5.1450     1.2150     1.2150 H     1 <1>   0.0800 
 33 H       -2.2930     4.8210    -1.0470 H     1 <1>   0.0800 
 34 H       -2.3620     5.0940     0.6700 H     1 <1>   0.0800 
 35 H       -3.7110    -0.7850    -1.9090 H     1 <1>   0.0800 
 36 H       -5.3830    -1.0230    -2.2500 H     1 <1>   0.0800 
 37 H       -4.2050    -0.9620     1.8510 H     1 <1>   0.0800 
 38 H       -2.9600    -0.7690     0.6740 H     1 <1>   0.0800 
 39 H        1.3280     3.5310    -0.2030 H     1 <1>   0.0800 
 40 H        0.2950     3.4900    -1.6350 H     1 <1>   0.0800 
 41 H       -0.0190     5.1420     0.8550 H     1 <1>   0.0800 
 42 H       -0.1300     5.6910    -0.8070 H     1 <1>   0.0800 
 43 H        1.5180     0.9410    -0.7110 H     1 <1>   0.0800 
 44 H        1.3620    -0.1470     0.6450 H     1 <1>   0.0800 
 45 H        1.9560     1.4750     0.9050 H     1 <1>   0.0800 
 46 H       -8.1630    -1.2980     0.1460 H     1 <1>   0.0800 
 47 H       -7.2150    -1.8180    -1.2360 H     1 <1>   0.0800 
 48 H       -7.1680    -3.0250     1.5500 H     1 <1>   0.0800 
 49 H       -7.8280    -3.7770     0.1200 H     1 <1>   0.0800 
 50 H       -2.2740    -5.1360    -0.7740 H     1 <1>   0.1500 
 51 H       -6.3020    -5.6910     0.4270 H     1 <1>   0.1500 
 52 H       -0.5570    -1.8170    -0.4010 H     1 <1>   0.0800 
 53 H       -0.6480    -3.5710    -0.5350 H     1 <1>   0.0800 
 54 H       -1.3470    -2.7450     0.8670 H     1 <1>   0.0800 
 55 H       -4.1140    -6.6300    -0.1480 H     1 <1>   0.1500 
@<TRIPOS>BOND
  1   1   2  2   
  2   2   3  am  
  3   2   4  1   
  4   3   5  1   
  5   3   6  1   
  6   4   7  1   
  7   4   8  1   
  8   4  28  1   
  9   5   9  1   
 10   5  29  1   
 11   5  30  1   
 12   6  10  1   
 13   6  31  1   
 14   6  32  1   
 15   7  11  am  
 16   7  12  1   
 17   8  13  1   
 18   8  33  1   
 19   8  34  1   
 20   9  14  1   
 21   9  35  1   
 22   9  36  1   
 23  10  14  1   
 24  10  37  1   
 25  10  38  1   
 26  11  15  2   
 27  11  16  1   
 28  12  13  1   
 29  12  39  1   
 30  12  40  1   
 31  13  41  1   
 32  13  42  1   
 33  14  17  1   
 34  14  18  1   
 35  16  43  1   
 36  16  44  1   
 37  16  45  1   
 38  17  19  1   
 39  18  20  ar  
 40  18  21  ar  
 41  19  22  1   
 42  19  46  1   
 43  19  47  1   
 44  20  23  1   
 45  20  24  ar  
 46  21  22  1   
 47  21  25  ar  
 48  22  48  1   
 49  22  49  1   
 50  23  26  1   
 51  24  27  ar  
 52  24  50  1   
 53  25  27  ar  
 54  25  51  1   
 55  26  52  1   
 56  26  53  1   
 57  26  54  1   
 58  27  55  1   
@<TRIPOS>SUBSTRUCTURE
  1 ****  10 GROUP 4 **** **** 0

# MOE 2024.06 (io_trps.svl 2023.06)
