@<TRIPOS>MOLECULE
NONAME
52 54 1 0 0 
SMALL
USER_CHARGES


@<TRIPOS>ATOM
  1 O       -1.5000    -0.3750     0.5100 O.co2 1 <1>  -0.9000 
  2 C       -1.0540    -1.2630    -0.2260 C.2   1 <1>   0.9060 
  3 O        0.1320    -1.5930    -0.2660 O.co2 1 <1>  -0.9000 
  4 C       -2.0610    -2.0560    -1.0640 C.3   1 <1>   0.2370 
  5 N       -2.8910    -3.1110    -0.3390 N.4   1 <1>  -0.9590 
  6 C       -3.4610    -2.5840     0.9580 C.3   1 <1>   0.4230 
  7 C       -2.1560    -4.4000    -0.1890 C.3   1 <1>   0.3430 
  8 C       -2.5870    -2.7780     2.2380 C.3   1 <1>   0.1200 
  9 C       -4.8760    -3.1910     1.1390 C.3   1 <1>   0.1400 
 10 C       -2.9220    -5.4210     0.6880 C.3   1 <1>  -0.0800 
 11 O       -1.9750    -4.0350     2.4040 O.3   1 <1>  -0.5600 
 12 N       -5.1810    -4.3240     0.1790 N.am  1 <1>  -0.6600 
 13 C       -2.7330    -5.1760     2.1970 C.3   1 <1>   0.1200 
 14 C       -4.4140    -5.6050     0.3330 C.3   1 <1>   0.1400 
 15 C       -6.1020    -4.1360    -0.8270 C.2   1 <1>   0.5690 
 16 O       -6.3690    -3.0170    -1.1940 O.2   1 <1>  -0.5700 
 17 C       -6.7640    -5.2980    -1.5680 C.3   1 <1>   0.1810 
 18 O       -7.0910    -6.3590    -0.6840 O.3   1 <1>  -0.3630 
 19 C       -7.3690    -7.6090    -1.1410 C.ar  1 <1>   0.0830 
 20 C       -7.3550    -8.6650    -0.2270 C.ar  1 <1>  -0.1430 
 21 C       -7.6500    -7.8530    -2.4820 C.ar  1 <1>  -0.1500 
 22 C       -7.5850    -9.9630    -0.6770 C.ar  1 <1>  -0.1430 
 23 C       -7.0900    -8.4060     1.2570 C.3   1 <1>  -0.0970 
 24 C       -7.8870    -9.1410    -2.9170 C.ar  1 <1>  -0.1500 
 25 C       -7.8500   -10.1890    -2.0190 C.ar  1 <1>  -0.1500 
 26 C       -7.5600   -11.1610     0.2630 C.3   1 <1>  -0.0970 
 27 H       -1.5120    -2.5130    -1.8670 H     1 <1>   0.0800 
 28 H       -2.7230    -1.3260    -1.4920 H     1 <1>   0.0800 
 29 H       -3.7360    -3.3070    -0.8940 H     1 <1>   0.4500 
 30 H       -3.6000    -1.5190     0.8560 H     1 <1>   0.0800 
 31 H       -1.9910    -4.8220    -1.1660 H     1 <1>   0.0800 
 32 H       -1.1880    -4.2080     0.2500 H     1 <1>   0.0800 
 33 H       -3.1790    -2.5840     3.1150 H     1 <1>   0.0800 
 34 H       -1.7930    -2.0530     2.2410 H     1 <1>   0.0800 
 35 H       -5.5890    -2.3970     0.9970 H     1 <1>   0.0800 
 36 H       -5.0190    -3.5300     2.1480 H     1 <1>   0.0800 
 37 H       -2.4590    -6.3740     0.5050 H     1 <1>   0.0800 
 38 H       -2.1800    -5.9940     2.6280 H     1 <1>   0.0800 
 39 H       -3.6600    -5.0870     2.7360 H     1 <1>   0.0800 
 40 H       -4.8960    -6.2080     1.0850 H     1 <1>   0.0800 
 41 H       -4.4660    -6.1580    -0.5890 H     1 <1>   0.0800 
 42 H       -6.0880    -5.6670    -2.3160 H     1 <1>   0.0800 
 43 H       -7.6730    -4.9620    -2.0320 H     1 <1>   0.0800 
 44 H       -7.6980    -7.0600    -3.2030 H     1 <1>   0.1500 
 45 H       -7.7630    -8.9820     1.8640 H     1 <1>   0.0800 
 46 H       -7.2400    -7.3750     1.5180 H     1 <1>   0.0800 
 47 H       -6.0800    -8.6810     1.4990 H     1 <1>   0.0800 
 48 H       -8.1030    -9.3310    -3.9540 H     1 <1>   0.1500 
 49 H       -8.0330   -11.1880    -2.3740 H     1 <1>   0.1500 
 50 H       -7.5870   -12.0840    -0.2870 H     1 <1>   0.0800 
 51 H       -8.4140   -11.1320     0.9160 H     1 <1>   0.0800 
 52 H       -6.6630   -11.1540     0.8550 H     1 <1>   0.0800 
@<TRIPOS>BOND
  1   1   2  ar  
  2   2   3  ar  
  3   2   4  1   
  4   4   5  1   
  5   4  27  1   
  6   4  28  1   
  7   5   6  1   
  8   5   7  1   
  9   5  29  1   
 10   6   8  1   
 11   6   9  1   
 12   6  30  1   
 13   7  10  1   
 14   7  31  1   
 15   7  32  1   
 16   8  11  1   
 17   8  33  1   
 18   8  34  1   
 19   9  12  1   
 20   9  35  1   
 21   9  36  1   
 22  10  13  1   
 23  10  14  1   
 24  10  37  1   
 25  11  13  1   
 26  12  14  1   
 27  12  15  am  
 28  13  38  1   
 29  13  39  1   
 30  14  40  1   
 31  14  41  1   
 32  15  16  2   
 33  15  17  1   
 34  17  18  1   
 35  17  42  1   
 36  17  43  1   
 37  18  19  1   
 38  19  20  ar  
 39  19  21  ar  
 40  20  22  ar  
 41  20  23  1   
 42  21  24  ar  
 43  21  44  1   
 44  22  25  ar  
 45  22  26  1   
 46  23  45  1   
 47  23  46  1   
 48  23  47  1   
 49  24  25  ar  
 50  24  48  1   
 51  25  49  1   
 52  26  50  1   
 53  26  51  1   
 54  26  52  1   
@<TRIPOS>SUBSTRUCTURE
  1 ****  14 GROUP 4 **** **** 0

# MOE 2024.06 (io_trps.svl 2023.06)
