@<TRIPOS>MOLECULE
NONAME
57 59 1 0 0 
SMALL
USER_CHARGES


@<TRIPOS>ATOM
  1 O       -1.6740    -0.0760     0.9320 O.2   1 <1>  -0.5700 
  2 C       -1.6420     1.1270     0.9330 C.2   1 <1>   0.4950 
  3 C       -2.5370     2.0350     0.3070 C.2   1 <1>  -0.1240 
  4 C       -0.5590     1.9150     1.6340 C.3   1 <1>  -0.0990 
  5 C       -2.1670     3.3170     0.4890 C.2   1 <1>  -0.1670 
  6 C       -3.7640     1.5460    -0.4580 C.3   1 <1>   0.0390 
  7 C       -0.9080     3.3880     1.3390 C.3   1 <1>  -0.0220 
  8 C       -2.7620     4.5350     0.0110 C.ar  1 <1>   0.0280 
  9 C       -4.8140     0.9420     0.4690 C.2   1 <1>   0.5690 
 10 C       -3.2300     5.5040     0.8950 C.ar  1 <1>  -0.1500 
 11 C       -2.8860     4.7820    -1.3540 C.ar  1 <1>  -0.1500 
 12 O       -5.6230     1.7060     0.9460 O.2   1 <1>  -0.5700 
 13 N       -4.9010    -0.3980     0.7630 N.am  1 <1>  -0.6600 
 14 C       -3.8010     6.6760     0.4340 C.ar  1 <1>  -0.1500 
 15 C       -3.4570     5.9510    -1.8210 C.ar  1 <1>  -0.1500 
 16 C       -4.1110    -1.4860     0.1150 C.3   1 <1>   0.3200 
 17 C       -5.8510    -0.8580     1.8230 C.3   1 <1>   0.1400 
 18 C       -3.9160     6.9020    -0.9270 C.ar  1 <1>  -0.1500 
 19 C       -5.0910    -2.4620    -0.5030 C.2   1 <1>  -0.3320 
 20 C       -7.2780    -0.9640     1.2480 C.3   1 <1>   0.3430 
 21 N       -5.1040    -3.7870    -0.2610 N.pl3 1 <1>   0.0330 
 22 C       -6.1120    -2.2220    -1.3540 C.2   1 <1>   0.0770 
 23 N       -8.3420    -0.3920     2.1410 N.4   1 <1>  -0.9590 
 24 C       -6.1640    -4.2590    -0.9510 C.2   1 <1>   0.0060 
 25 N       -6.8030    -3.3460    -1.6050 N.2   1 <1>  -0.5650 
 26 C       -9.6880    -0.7570     1.6070 C.3   1 <1>   0.2630 
 27 C       -8.2080     1.0990     2.2320 C.3   1 <1>   0.2630 
 28 C       -6.5520    -5.7230    -0.9580 C.3   1 <1>  -0.0600 
 29 H        0.4020     1.6530     1.2310 H     1 <1>   0.0800 
 30 H       -0.5840     1.7110     2.6890 H     1 <1>   0.0800 
 31 H       -3.4690     0.8620    -1.2280 H     1 <1>   0.0800 
 32 H       -4.2240     2.3790    -0.9550 H     1 <1>   0.0800 
 33 H       -0.1150     3.8710     0.7940 H     1 <1>   0.0800 
 34 H       -1.0940     3.9270     2.2520 H     1 <1>   0.0800 
 35 H       -3.1500     5.3350     1.9530 H     1 <1>   0.1500 
 36 H       -2.5250     4.0500    -2.0540 H     1 <1>   0.1500 
 37 H       -4.1590     7.4130     1.1320 H     1 <1>   0.1500 
 38 H       -3.5430     6.1260    -2.8800 H     1 <1>   0.1500 
 39 H       -3.5080    -1.9750     0.8620 H     1 <1>   0.0800 
 40 H       -3.4490    -1.1160    -0.6450 H     1 <1>   0.0800 
 41 H       -5.8200    -0.1570     2.6380 H     1 <1>   0.0800 
 42 H       -5.5410    -1.8160     2.2020 H     1 <1>   0.0800 
 43 H       -4.3610     7.8130    -1.2870 H     1 <1>   0.1500 
 44 H       -7.4860    -2.0030     1.0450 H     1 <1>   0.0800 
 45 H       -7.2980    -0.4390     0.3070 H     1 <1>   0.0800 
 46 H       -4.4510    -4.3380     0.3060 H     1 <1>   0.2700 
 47 H       -6.4010    -1.2820    -1.7960 H     1 <1>   0.1500 
 48 H       -8.2370    -0.7950     3.0830 H     1 <1>   0.4500 
 49 H       -9.8220    -0.3470     0.6190 H     1 <1>   0.0800 
 50 H      -10.4630    -0.3710     2.2490 H     1 <1>   0.0800 
 51 H       -9.7910    -1.8290     1.5500 H     1 <1>   0.0800 
 52 H       -8.2540     1.5400     1.2490 H     1 <1>   0.0800 
 53 H       -7.2600     1.3690     2.6710 H     1 <1>   0.0800 
 54 H       -8.9960     1.5150     2.8370 H     1 <1>   0.0800 
 55 H       -5.7520    -6.3140    -1.3640 H     1 <1>   0.0800 
 56 H       -7.4250    -5.8650    -1.5710 H     1 <1>   0.0800 
 57 H       -6.7730    -6.0570     0.0390 H     1 <1>   0.0800 
@<TRIPOS>BOND
  1   1   2  2   
  2   2   3  1   
  3   2   4  1   
  4   3   5  2   
  5   3   6  1   
  6   4   7  1   
  7   4  29  1   
  8   4  30  1   
  9   5   7  1   
 10   5   8  1   
 11   6   9  1   
 12   6  31  1   
 13   6  32  1   
 14   7  33  1   
 15   7  34  1   
 16   8  10  ar  
 17   8  11  ar  
 18   9  12  2   
 19   9  13  am  
 20  10  14  ar  
 21  10  35  1   
 22  11  15  ar  
 23  11  36  1   
 24  13  16  1   
 25  13  17  1   
 26  14  18  ar  
 27  14  37  1   
 28  15  18  ar  
 29  15  38  1   
 30  16  19  1   
 31  16  39  1   
 32  16  40  1   
 33  17  20  1   
 34  17  41  1   
 35  17  42  1   
 36  18  43  1   
 37  19  21  1   
 38  19  22  2   
 39  20  23  1   
 40  20  44  1   
 41  20  45  1   
 42  21  24  1   
 43  21  46  1   
 44  22  25  1   
 45  22  47  1   
 46  23  26  1   
 47  23  27  1   
 48  23  48  1   
 49  24  25  2   
 50  24  28  1   
 51  26  49  1   
 52  26  50  1   
 53  26  51  1   
 54  27  52  1   
 55  27  53  1   
 56  27  54  1   
 57  28  55  1   
 58  28  56  1   
 59  28  57  1   
@<TRIPOS>SUBSTRUCTURE
  1 ****   9 GROUP 4 **** **** 0

# MOE 2024.06 (io_trps.svl 2023.06)
