@<TRIPOS>MOLECULE
NONAME
52 55 1 0 0 
SMALL
USER_CHARGES


@<TRIPOS>ATOM
  1 O        1.1670     0.3080    -2.3990 O.2   1 <1>  -0.5700 
  2 C        1.4710    -0.4490    -1.5070 C.2   1 <1>   0.5690 
  3 N        2.2920    -0.0180    -0.4840 N.am  1 <1>  -0.6600 
  4 C        0.9560    -1.8820    -1.6120 C.3   1 <1>   0.0820 
  5 C        2.9060    -0.8820     0.5760 C.3   1 <1>   0.1400 
  6 C        2.5370     1.4390    -0.3050 C.3   1 <1>   0.1400 
  7 C        0.2530    -2.3720    -0.3540 C.2   1 <1>  -0.1810 
  8 C        4.4310    -1.0560     0.4070 C.3   1 <1>   0.3430 
  9 C        3.7880     1.8700    -1.0740 C.3   1 <1>  -0.1600 
 10 C        0.5170    -3.6030     0.2890 C.ar  1 <1>   0.0000 
 11 C       -0.6950    -1.7270     0.3680 C.2   1 <1>  -0.3020 
 12 N        5.1790     0.2260     0.1720 N.4   1 <1>  -0.9590 
 13 C        4.8800     0.8060    -1.1720 C.3   1 <1>   0.3430 
 14 C       -0.2920    -3.6330     1.4210 C.ar  1 <1>  -0.1520 
 15 C        1.3670    -4.6840     0.0250 C.ar  1 <1>  -0.1500 
 16 N       -1.0430    -2.4860     1.4480 N.pl3 1 <1>   0.0330 
 17 C        6.6480     0.0560     0.3550 C.3   1 <1>   0.5230 
 18 C       -0.2510    -4.7110     2.3080 C.ar  1 <1>  -0.1500 
 19 C        1.4060    -5.7470     0.8980 C.ar  1 <1>  -0.1500 
 20 C        7.2450     1.3890     0.7660 C.2   1 <1>  -0.0400 
 21 C        0.6000    -5.7590     2.0420 C.ar  1 <1>  -0.1500 
 22 O        7.1210     2.4260    -0.0410 O.3   1 <1>  -0.2800 
 23 C        7.9210     1.7400     1.8830 C.2   1 <1>  -0.1500 
 24 C        7.7100     3.4550     0.5330 C.2   1 <1>  -0.0400 
 25 C        8.2250     3.0970     1.7280 C.2   1 <1>  -0.1500 
 26 C        7.7230     4.7860    -0.1860 C.3   1 <1>  -0.0600 
 27 H        1.7850    -2.5190    -1.8470 H     1 <1>   0.0800 
 28 H        0.2610    -1.9420    -2.4310 H     1 <1>   0.0800 
 29 H        2.4720    -1.8610     0.5760 H     1 <1>   0.0800 
 30 H        2.6970    -0.4570     1.5420 H     1 <1>   0.0800 
 31 H        2.6500     1.6600     0.7430 H     1 <1>   0.0800 
 32 H        1.6860     2.0020    -0.6560 H     1 <1>   0.0800 
 33 H        4.6050    -1.7260    -0.4180 H     1 <1>   0.0800 
 34 H        4.8070    -1.5350     1.2950 H     1 <1>   0.0800 
 35 H        4.1890     2.7670    -0.6350 H     1 <1>   0.0800 
 36 H        3.4900     2.1250    -2.0760 H     1 <1>   0.0800 
 37 H       -1.1460    -0.7670     0.1790 H     1 <1>   0.1500 
 38 H        4.8980     0.9310     0.8640 H     1 <1>   0.4500 
 39 H        5.7630     1.2610    -1.5920 H     1 <1>   0.0800 
 40 H        4.5550     0.0270    -1.8430 H     1 <1>   0.0800 
 41 H        1.9760    -4.6800    -0.8600 H     1 <1>   0.1500 
 42 H       -1.7520    -2.2590     2.1530 H     1 <1>   0.2700 
 43 H        7.1070    -0.2880    -0.5570 H     1 <1>   0.0800 
 44 H        6.8450    -0.6620     1.1330 H     1 <1>   0.0800 
 45 H       -0.8790    -4.7160     3.1810 H     1 <1>   0.1500 
 46 H        2.0520    -6.5860     0.7080 H     1 <1>   0.1500 
 47 H        0.6480    -6.6020     2.7090 H     1 <1>   0.1500 
 48 H        8.1970     1.1480     2.7390 H     1 <1>   0.1500 
 49 H        8.7650     3.7020     2.4360 H     1 <1>   0.1500 
 50 H        6.7170     5.1220    -0.3560 H     1 <1>   0.0800 
 51 H        8.2230     4.6850    -1.1320 H     1 <1>   0.0800 
 52 H        8.2410     5.5220     0.4030 H     1 <1>   0.0800 
@<TRIPOS>BOND
  1   1   2  2   
  2   2   3  am  
  3   2   4  1   
  4   3   5  1   
  5   3   6  1   
  6   4   7  1   
  7   4  27  1   
  8   4  28  1   
  9   5   8  1   
 10   5  29  1   
 11   5  30  1   
 12   6   9  1   
 13   6  31  1   
 14   6  32  1   
 15   7  10  1   
 16   7  11  2   
 17   8  12  1   
 18   8  33  1   
 19   8  34  1   
 20   9  13  1   
 21   9  35  1   
 22   9  36  1   
 23  10  14  ar  
 24  10  15  ar  
 25  11  16  1   
 26  11  37  1   
 27  12  13  1   
 28  12  17  1   
 29  12  38  1   
 30  13  39  1   
 31  13  40  1   
 32  14  16  1   
 33  14  18  ar  
 34  15  19  ar  
 35  15  41  1   
 36  16  42  1   
 37  17  20  1   
 38  17  43  1   
 39  17  44  1   
 40  18  21  ar  
 41  18  45  1   
 42  19  21  ar  
 43  19  46  1   
 44  20  22  1   
 45  20  23  2   
 46  21  47  1   
 47  22  24  1   
 48  23  25  1   
 49  23  48  1   
 50  24  25  2   
 51  24  26  1   
 52  25  49  1   
 53  26  50  1   
 54  26  51  1   
 55  26  52  1   
@<TRIPOS>SUBSTRUCTURE
  1 ****   5 GROUP 4 **** **** 0

# MOE 2024.06 (io_trps.svl 2023.06)
