@<TRIPOS>MOLECULE
NONAME
40 42 1 0 0 
SMALL
USER_CHARGES


@<TRIPOS>ATOM
  1 F       -1.0760    -0.5450     1.1590 F     1 <1>  -0.1900 
  2 C       -2.0800    -1.1230     0.5360 C.ar  1 <1>   0.1900 
  3 C       -3.4070    -0.7340     0.6920 C.ar  1 <1>   0.3920 
  4 C       -1.8000    -2.1670    -0.3070 C.ar  1 <1>   0.1600 
  5 O       -3.8490     0.2710     1.4840 O.3   1 <1>  -0.3630 
  6 N       -4.3650    -1.3580     0.0400 N.ar  1 <1>  -0.6200 
  7 N       -2.7520    -2.7980    -0.9620 N.ar  1 <1>  -0.6200 
  8 C       -3.0160     1.1570     2.1980 C.3   1 <1>   0.0400 
  9 C       -3.9850    -2.3450    -0.7520 C.ar  1 <1>   0.7200 
 10 N       -4.9960    -2.9450    -1.4080 N.pl3 1 <1>  -0.8690 
 11 C       -5.0190    -4.3920    -1.6680 C.3   1 <1>   0.3530 
 12 C       -6.3530    -4.9400    -1.1890 C.ar  1 <1>  -0.1430 
 13 C       -7.2760    -5.4470    -2.0900 C.ar  1 <1>  -0.1500 
 14 C       -6.6660    -4.9340     0.1610 C.ar  1 <1>  -0.1500 
 15 C       -8.4870    -5.9470    -1.6440 C.ar  1 <1>  -0.1500 
 16 C       -7.8780    -5.4320     0.6030 C.ar  1 <1>  -0.1500 
 17 C       -8.8100    -5.9530    -0.2910 C.ar  1 <1>   0.1170 
 18 N      -10.0370    -6.4780     0.1640 N.am  1 <1>  -0.4770 
 19 C      -11.2540    -6.4480    -0.4580 C.2   1 <1>   0.5690 
 20 C      -10.1200    -7.2180     1.4400 C.3   1 <1>   0.1400 
 21 O      -11.5240    -5.9150    -1.5060 O.2   1 <1>  -0.5700 
 22 C      -12.2940    -7.1890     0.3380 C.3   1 <1>  -0.0990 
 23 C      -11.4740    -7.9340     1.3980 C.3   1 <1>  -0.1600 
 24 H       -0.7830    -2.4880    -0.4440 H     1 <1>   0.1500 
 25 H       -3.6420     1.8810     2.6880 H     1 <1>   0.0800 
 26 H       -2.3570     1.6540     1.5080 H     1 <1>   0.0800 
 27 H       -2.4600     0.6020     2.9330 H     1 <1>   0.0800 
 28 H       -5.9030    -2.5870    -1.1100 H     1 <1>   0.4000 
 29 H       -4.2180    -4.8870    -1.1440 H     1 <1>   0.0800 
 30 H       -4.8930    -4.5630    -2.7230 H     1 <1>   0.0800 
 31 H       -7.0620    -5.4540    -3.1450 H     1 <1>   0.1500 
 32 H       -5.9620    -4.5330     0.8720 H     1 <1>   0.1500 
 33 H       -9.1900    -6.3370    -2.3570 H     1 <1>   0.1500 
 34 H       -8.0990    -5.4040     1.6530 H     1 <1>   0.1500 
 35 H      -10.0900    -6.5180     2.2570 H     1 <1>   0.0800 
 36 H       -9.3060    -7.9180     1.5250 H     1 <1>   0.0800 
 37 H      -12.8480    -7.8620    -0.2900 H     1 <1>   0.0800 
 38 H      -12.9580    -6.4750     0.7900 H     1 <1>   0.0800 
 39 H      -11.9550    -7.9360     2.3600 H     1 <1>   0.0800 
 40 H      -11.3190    -8.9530     1.0850 H     1 <1>   0.0800 
@<TRIPOS>BOND
  1   1   2  1   
  2   2   3  ar  
  3   2   4  ar  
  4   3   5  1   
  5   3   6  ar  
  6   4   7  ar  
  7   4  24  1   
  8   5   8  1   
  9   6   9  ar  
 10   7   9  ar  
 11   8  25  1   
 12   8  26  1   
 13   8  27  1   
 14   9  10  1   
 15  10  11  1   
 16  10  28  1   
 17  11  12  1   
 18  11  29  1   
 19  11  30  1   
 20  12  13  ar  
 21  12  14  ar  
 22  13  15  ar  
 23  13  31  1   
 24  14  16  ar  
 25  14  32  1   
 26  15  17  ar  
 27  15  33  1   
 28  16  17  ar  
 29  16  34  1   
 30  17  18  1   
 31  18  19  am  
 32  18  20  1   
 33  19  21  2   
 34  19  22  1   
 35  20  23  1   
 36  20  35  1   
 37  20  36  1   
 38  22  23  1   
 39  22  37  1   
 40  22  38  1   
 41  23  39  1   
 42  23  40  1   
@<TRIPOS>SUBSTRUCTURE
  1 ****  14 GROUP 4 **** **** 0

# MOE 2024.06 (io_trps.svl 2023.06)
