@<TRIPOS>MOLECULE
NONAME
53 55 1 0 0 
SMALL
USER_CHARGES


@<TRIPOS>ATOM
  1 O        1.8450     0.8890     1.6380 O.2   1 <1>  -0.5700 
  2 C        2.7040     1.4700     1.0090 C.2   1 <1>   0.7060 
  3 O        2.9080     2.7620     1.2600 O.3   1 <1>  -0.2320 
  4 C        3.5090     0.8410     0.0150 C.2   1 <1>  -0.1360 
  5 C        3.8390     3.4920     0.6090 C.ar  1 <1>   0.0820 
  6 C        4.4630     1.5110    -0.6770 C.2   1 <1>  -0.1670 
  7 C        4.6500     2.9080    -0.3780 C.ar  1 <1>   0.0280 
  8 C        3.9580     4.8290     0.9510 C.ar  1 <1>  -0.1500 
  9 C        5.3430     0.8640    -1.7500 C.3   1 <1>  -0.0220 
 10 C        5.5870     3.7380    -1.0030 C.ar  1 <1>  -0.1500 
 11 C        4.8950     5.6300     0.3150 C.ar  1 <1>   0.0830 
 12 C        5.0740    -0.6250    -2.0000 C.3   1 <1>  -0.2400 
 13 C        5.7060     5.0700    -0.6630 C.ar  1 <1>  -0.1500 
 14 O        5.0810     6.9440     0.5790 O.3   1 <1>  -0.3620 
 15 C        4.3260     7.6620     1.5510 C.3   1 <1>   0.2610 
 16 C        4.3230     9.1560     1.2090 C.2   1 <1>   0.5690 
 17 C        4.9460     7.3940     2.9310 C.3   1 <1>  -0.2400 
 18 O        3.5160     9.8690     1.7590 O.2   1 <1>  -0.5700 
 19 N        5.2490     9.6090     0.3080 N.am  1 <1>  -0.4940 
 20 C        5.6160    10.9030    -0.1400 C.2   1 <1>  -0.0880 
 21 N        4.8450    12.0250    -0.2270 N.pl3 1 <1>   0.3140 
 22 C        6.8460    11.2540    -0.5880 C.2   1 <1>  -0.1810 
 23 N        5.5530    13.0700    -0.7090 N.2   1 <1>  -0.7070 
 24 C        3.4110    12.1890     0.0370 C.3   1 <1>   0.0160 
 25 C        6.7410    12.6040    -0.9140 C.2   1 <1>   0.1080 
 26 C        8.0840    10.3810    -0.7080 C.3   1 <1>   0.0210 
 27 C        7.8540    13.4740    -1.4530 C.3   1 <1>  -0.0590 
 28 C        8.8570    10.3710     0.6120 C.3   1 <1>  -0.2400 
 29 H        3.2900    -0.1980    -0.1300 H     1 <1>   0.1500 
 30 H        3.3080     5.2060     1.7160 H     1 <1>   0.1500 
 31 H        6.3750     0.9740    -1.4630 H     1 <1>   0.0800 
 32 H        5.2000     1.3900    -2.6780 H     1 <1>   0.0800 
 33 H        6.2350     3.3450    -1.7650 H     1 <1>   0.1500 
 34 H        5.2460    -1.1950    -1.1040 H     1 <1>   0.0800 
 35 H        5.7360    -0.9900    -2.7650 H     1 <1>   0.0800 
 36 H        4.0620    -0.7760    -2.3300 H     1 <1>   0.0800 
 37 H        6.4320     5.6910    -1.1550 H     1 <1>   0.1500 
 38 H        3.3060     7.3260     1.5140 H     1 <1>   0.0800 
 39 H        5.9610     7.7470     2.9550 H     1 <1>   0.0800 
 40 H        4.9260     6.3460     3.1660 H     1 <1>   0.0800 
 41 H        4.3870     7.9200     3.6840 H     1 <1>   0.0800 
 42 H        5.8540     8.8610    -0.0370 H     1 <1>   0.3700 
 43 H        2.8850    11.3160    -0.2990 H     1 <1>   0.0800 
 44 H        3.0510    13.0520    -0.4900 H     1 <1>   0.0800 
 45 H        3.2630    12.3240     1.0910 H     1 <1>   0.0800 
 46 H        8.7140    10.7490    -1.4980 H     1 <1>   0.0800 
 47 H        7.7940     9.3780    -0.9630 H     1 <1>   0.0800 
 48 H        8.7540    13.3140    -0.8910 H     1 <1>   0.0800 
 49 H        7.5750    14.5090    -1.3740 H     1 <1>   0.0800 
 50 H        8.0280    13.2380    -2.4860 H     1 <1>   0.0800 
 51 H        9.1620    11.3700     0.8700 H     1 <1>   0.0800 
 52 H        9.7320     9.7520     0.5270 H     1 <1>   0.0800 
 53 H        8.2350     9.9890     1.4020 H     1 <1>   0.0800 
@<TRIPOS>BOND
  1   1   2  2   
  2   2   3  1   
  3   2   4  1   
  4   3   5  1   
  5   4   6  2   
  6   4  29  1   
  7   5   7  ar  
  8   5   8  ar  
  9   6   7  1   
 10   6   9  1   
 11   7  10  ar  
 12   8  11  ar  
 13   8  30  1   
 14   9  12  1   
 15   9  31  1   
 16   9  32  1   
 17  10  13  ar  
 18  10  33  1   
 19  11  13  ar  
 20  11  14  1   
 21  12  34  1   
 22  12  35  1   
 23  12  36  1   
 24  13  37  1   
 25  14  15  1   
 26  15  16  1   
 27  15  17  1   
 28  15  38  1   
 29  16  18  2   
 30  16  19  am  
 31  17  39  1   
 32  17  40  1   
 33  17  41  1   
 34  19  20  1   
 35  19  42  1   
 36  20  21  1   
 37  20  22  2   
 38  21  23  1   
 39  21  24  1   
 40  22  25  1   
 41  22  26  1   
 42  23  25  2   
 43  24  43  1   
 44  24  44  1   
 45  24  45  1   
 46  25  27  1   
 47  26  28  1   
 48  26  46  1   
 49  26  47  1   
 50  27  48  1   
 51  27  49  1   
 52  27  50  1   
 53  28  51  1   
 54  28  52  1   
 55  28  53  1   
@<TRIPOS>SUBSTRUCTURE
  1 ****  14 GROUP 4 **** **** 0

# MOE 2024.06 (io_trps.svl 2023.06)
