@<TRIPOS>MOLECULE
NONAME
52 54 1 0 0 
SMALL
USER_CHARGES


@<TRIPOS>ATOM
  1 O       -1.6650    -0.3400     3.1590 O.2   1 <1>  -0.5700 
  2 C       -1.7040     0.4500     2.2450 C.2   1 <1>   0.5690 
  3 N       -2.0340     0.0460     0.9790 N.am  1 <1>  -0.6600 
  4 C       -1.3980     1.9110     2.5570 C.3   1 <1>   0.0440 
  5 C       -2.0920     0.8900    -0.2430 C.3   1 <1>   0.1400 
  6 C       -2.2690    -1.3770     0.6260 C.3   1 <1>   0.1400 
  7 C       -0.3000     2.5130     1.6830 C.ar  1 <1>  -0.1440 
  8 C       -2.8710     0.0440    -1.2460 C.3   1 <1>   0.2000 
  9 C       -2.4570    -1.3880    -0.8960 C.3   1 <1>  -0.0800 
 10 C       -0.5030     3.7140     1.0220 C.ar  1 <1>  -0.1500 
 11 C        0.9120     1.8580     1.5340 C.ar  1 <1>  -0.1500 
 12 O       -4.2230     0.2140    -0.9850 O.3   1 <1>  -0.6800 
 13 C       -3.4020    -2.4950    -1.3990 C.3   1 <1>   0.0210 
 14 C        0.4870     4.2430     0.2130 C.ar  1 <1>  -0.1500 
 15 C        1.9000     2.3890     0.7250 C.ar  1 <1>  -0.1500 
 16 C       -2.8940    -3.8640    -0.9910 C.2   1 <1>   0.1080 
 17 C        1.6980     3.5860     0.0530 C.ar  1 <1>  -0.1430 
 18 N       -1.7790    -4.3600    -1.4310 N.2   1 <1>  -0.7070 
 19 C       -3.5410    -4.7230    -0.1110 C.2   1 <1>  -0.1500 
 20 C        2.7990     4.1540    -0.8400 C.3   1 <1>   0.0630 
 21 N       -1.6860    -5.5650    -0.8360 N.pl3 1 <1>   0.3000 
 22 C       -2.7410    -5.8070    -0.0300 C.2   1 <1>  -0.3320 
 23 C        3.2570     5.5280    -0.3410 C.3   1 <1>  -0.2400 
 24 C        2.3310     4.2310    -2.2970 C.3   1 <1>  -0.2400 
 25 C       -2.9220    -7.0770     0.7800 C.3   1 <1>  -0.0600 
 26 H       -2.3080     2.4690     2.4500 H     1 <1>   0.0800 
 27 H       -1.0930     1.9850     3.5840 H     1 <1>   0.0800 
 28 H       -2.5700     1.8370    -0.0630 H     1 <1>   0.0800 
 29 H       -1.0900     1.0540    -0.6020 H     1 <1>   0.0800 
 30 H       -1.4320    -1.9880     0.9210 H     1 <1>   0.0800 
 31 H       -3.1550    -1.7230     1.1300 H     1 <1>   0.0800 
 32 H       -2.6790     0.3110    -2.2710 H     1 <1>   0.0800 
 33 H       -1.4870    -1.5620    -1.3310 H     1 <1>   0.0800 
 34 H       -1.4320     4.2460     1.1290 H     1 <1>   0.1500 
 35 H        1.0900     0.9260     2.0440 H     1 <1>   0.1500 
 36 H       -4.3650     0.0990    -0.0230 H     1 <1>   0.4000 
 37 H       -3.4620    -2.4550    -2.4710 H     1 <1>   0.0800 
 38 H       -4.3920    -2.3570    -1.0050 H     1 <1>   0.0800 
 39 H        0.3080     5.1750    -0.2930 H     1 <1>   0.1500 
 40 H        2.8320     1.8610     0.6230 H     1 <1>   0.1500 
 41 H       -4.4770    -4.5370     0.3850 H     1 <1>   0.1500 
 42 H        3.6490     3.4930    -0.8030 H     1 <1>   0.0800 
 43 H       -0.8920    -6.1950    -1.0000 H     1 <1>   0.2700 
 44 H        2.4590     6.2460    -0.4050 H     1 <1>   0.0800 
 45 H        4.0850     5.8810    -0.9300 H     1 <1>   0.0800 
 46 H        3.5720     5.4570     0.6840 H     1 <1>   0.0800 
 47 H        1.5100     4.9160    -2.3990 H     1 <1>   0.0800 
 48 H        2.0110     3.2590    -2.6280 H     1 <1>   0.0800 
 49 H        3.1360     4.5600    -2.9290 H     1 <1>   0.0800 
 50 H       -3.8390    -7.0300     1.3410 H     1 <1>   0.0800 
 51 H       -2.1050    -7.1980     1.4690 H     1 <1>   0.0800 
 52 H       -2.9630    -7.9310     0.1280 H     1 <1>   0.0800 
@<TRIPOS>BOND
  1   1   2  2   
  2   2   3  am  
  3   2   4  1   
  4   3   5  1   
  5   3   6  1   
  6   4   7  1   
  7   4  26  1   
  8   4  27  1   
  9   5   8  1   
 10   5  28  1   
 11   5  29  1   
 12   6   9  1   
 13   6  30  1   
 14   6  31  1   
 15   7  10  ar  
 16   7  11  ar  
 17   8   9  1   
 18   8  12  1   
 19   8  32  1   
 20   9  13  1   
 21   9  33  1   
 22  10  14  ar  
 23  10  34  1   
 24  11  15  ar  
 25  11  35  1   
 26  12  36  1   
 27  13  16  1   
 28  13  37  1   
 29  13  38  1   
 30  14  17  ar  
 31  14  39  1   
 32  15  17  ar  
 33  15  40  1   
 34  16  18  2   
 35  16  19  1   
 36  17  20  1   
 37  18  21  1   
 38  19  22  2   
 39  19  41  1   
 40  20  23  1   
 41  20  24  1   
 42  20  42  1   
 43  21  22  1   
 44  21  43  1   
 45  22  25  1   
 46  23  44  1   
 47  23  45  1   
 48  23  46  1   
 49  24  47  1   
 50  24  48  1   
 51  24  49  1   
 52  25  50  1   
 53  25  51  1   
 54  25  52  1   
@<TRIPOS>SUBSTRUCTURE
  1 ****   3 GROUP 4 **** **** 0

# MOE 2024.06 (io_trps.svl 2023.06)
