@<TRIPOS>MOLECULE
NONAME
42 44 1 0 0 
SMALL
USER_CHARGES


@<TRIPOS>ATOM
  1 O        1.3740    -0.4140     1.6400 O.co2 1 <1>  -0.9000 
  2 C        1.3630     0.4750     0.7730 C.2   1 <1>   0.9060 
  3 O        0.5620     1.4070     0.8180 O.co2 1 <1>  -0.9000 
  4 C        2.3830     0.3880    -0.3770 C.3   1 <1>  -0.1060 
  5 C        3.7240    -0.1100     0.2110 C.3   1 <1>   0.4230 
  6 C        2.6420     1.7890    -1.0030 C.3   1 <1>  -0.1600 
  7 C        1.8500    -0.5870    -1.4690 C.3   1 <1>  -0.1600 
  8 N        3.5670    -1.5240     0.7000 N.4   1 <1>  -0.9590 
  9 C        4.2580     0.9000     1.2570 C.3   1 <1>   0.2090 
 10 C        3.2380     2.7890     0.0020 C.3   1 <1>   0.2090 
 11 C        2.7690    -1.8020    -1.6790 C.3   1 <1>  -0.1600 
 12 C        3.1410    -2.4880    -0.3570 C.3   1 <1>   0.3430 
 13 C        4.6770    -2.0400     1.5410 C.3   1 <1>   0.2630 
 14 N        4.4840     2.2180     0.5930 N.pl3 1 <1>  -0.8380 
 15 C        5.6950     2.4800    -0.0190 C.ar  1 <1>   0.4100 
 16 N        6.4040     1.4470    -0.4500 N.ar  1 <1>  -0.6200 
 17 C        6.1470     3.7670    -0.1800 C.ar  1 <1>  -0.1500 
 18 C        7.5450     1.7570    -1.0390 C.ar  1 <1>   0.4700 
 19 C        7.3520     3.9520    -0.8070 C.ar  1 <1>   0.4100 
 20 N        8.0700     2.9470    -1.2480 N.ar  1 <1>  -0.6200 
 21 N        7.8970     5.1770    -1.0090 N.pl3 1 <1>  -0.9000 
 22 H        4.4480    -0.1190    -0.5840 H     1 <1>   0.0800 
 23 H        1.7160     2.1940    -1.3730 H     1 <1>   0.0800 
 24 H        3.3160     1.7040    -1.8380 H     1 <1>   0.0800 
 25 H        0.8740    -0.9420    -1.1770 H     1 <1>   0.0800 
 26 H        1.7200    -0.0760    -2.4070 H     1 <1>   0.0800 
 27 H        2.7130    -1.4020     1.3100 H     1 <1>   0.4500 
 28 H        5.1920     0.5600     1.6660 H     1 <1>   0.0800 
 29 H        3.5590     1.0250     2.0660 H     1 <1>   0.0800 
 30 H        2.5300     2.9950     0.7890 H     1 <1>   0.0800 
 31 H        3.4500     3.7170    -0.4990 H     1 <1>   0.0800 
 32 H        3.6690    -1.4940    -2.1820 H     1 <1>   0.0800 
 33 H        2.2780    -2.5150    -2.3180 H     1 <1>   0.0800 
 34 H        3.9300    -3.1980    -0.5450 H     1 <1>   0.0800 
 35 H        2.2830    -3.0330     0.0050 H     1 <1>   0.0800 
 36 H        5.5930    -2.0620     0.9740 H     1 <1>   0.0800 
 37 H        4.4500    -3.0360     1.8830 H     1 <1>   0.0800 
 38 H        4.8140    -1.4090     2.4030 H     1 <1>   0.0800 
 39 H        5.5750     4.5970     0.1770 H     1 <1>   0.1500 
 40 H        8.1280     0.9250    -1.3980 H     1 <1>   0.1500 
 41 H        8.8580     5.1480    -1.3550 H     1 <1>   0.4000 
 42 H        7.7280     5.9040    -0.3150 H     1 <1>   0.4000 
@<TRIPOS>BOND
  1   1   2  ar  
  2   2   3  ar  
  3   2   4  1   
  4   4   5  1   
  5   4   6  1   
  6   4   7  1   
  7   5   8  1   
  8   5   9  1   
  9   5  22  1   
 10   6  10  1   
 11   6  23  1   
 12   6  24  1   
 13   7  11  1   
 14   7  25  1   
 15   7  26  1   
 16   8  12  1   
 17   8  13  1   
 18   8  27  1   
 19   9  14  1   
 20   9  28  1   
 21   9  29  1   
 22  10  14  1   
 23  10  30  1   
 24  10  31  1   
 25  11  12  1   
 26  11  32  1   
 27  11  33  1   
 28  12  34  1   
 29  12  35  1   
 30  13  36  1   
 31  13  37  1   
 32  13  38  1   
 33  14  15  1   
 34  15  16  ar  
 35  15  17  ar  
 36  16  18  ar  
 37  17  19  ar  
 38  17  39  1   
 39  18  20  ar  
 40  18  40  1   
 41  19  20  ar  
 42  19  21  1   
 43  21  41  1   
 44  21  42  1   
@<TRIPOS>SUBSTRUCTURE
  1 ****   5 GROUP 4 **** **** 0

# MOE 2024.06 (io_trps.svl 2023.06)
