@<TRIPOS>MOLECULE
NONAME
35 36 1 0 0 
SMALL
USER_CHARGES


@<TRIPOS>ATOM
  1 CL       0.4840     0.1450     1.8520 Cl    1 <1>  -0.1770 
  2 C        1.5060    -0.9660     0.9520 C.ar  1 <1>   0.1770 
  3 C        1.0940    -2.2530     0.6070 C.ar  1 <1>   0.4100 
  4 C        2.7630    -0.5680     0.5880 C.ar  1 <1>   0.1600 
  5 N        1.9250    -3.0560    -0.0390 N.ar  1 <1>  -0.6200 
  6 N       -0.1610    -2.7620     0.9000 N.pl3 1 <1>  -0.8380 
  7 N        3.5890    -1.3620    -0.0710 N.ar  1 <1>  -0.6200 
  8 C        3.1120    -2.5650    -0.3430 C.ar  1 <1>   0.4770 
  9 C       -0.3380    -4.1990     1.2520 C.3   1 <1>   0.2090 
 10 C       -1.3870    -2.0800     0.4060 C.3   1 <1>   0.2090 
 11 C        4.0410    -3.4930    -1.0880 C.3   1 <1>  -0.0960 
 12 C       -0.9240    -4.9880     0.0710 C.3   1 <1>  -0.0800 
 13 C       -1.9750    -2.8540    -0.7770 C.3   1 <1>  -0.1600 
 14 C       -2.2220    -4.3290    -0.4350 C.3   1 <1>  -0.1600 
 15 C       -1.1430    -6.4480     0.4900 C.3   1 <1>   0.1200 
 16 O       -1.6490    -7.1710    -0.5880 O.3   1 <1>  -0.5600 
 17 C       -1.8720    -8.5150    -0.3140 C.3   1 <1>   0.0400 
 18 H        3.1040     0.4200     0.8430 H     1 <1>   0.1500 
 19 H       -0.9990    -4.2650     2.0980 H     1 <1>   0.0800 
 20 H        0.6100    -4.6230     1.5390 H     1 <1>   0.0800 
 21 H       -1.1560    -1.0770     0.0900 H     1 <1>   0.0800 
 22 H       -2.1050    -2.0250     1.2060 H     1 <1>   0.0800 
 23 H        3.4750    -4.2310    -1.6270 H     1 <1>   0.0800 
 24 H        4.6860    -3.9860    -0.3870 H     1 <1>   0.0800 
 25 H        4.6360    -2.9340    -1.7850 H     1 <1>   0.0800 
 26 H       -0.1930    -4.9790    -0.7190 H     1 <1>   0.0800 
 27 H       -1.2890    -2.7880    -1.6040 H     1 <1>   0.0800 
 28 H       -2.8980    -2.3930    -1.0790 H     1 <1>   0.0800 
 29 H       -2.9840    -4.4010     0.3210 H     1 <1>   0.0800 
 30 H       -2.5730    -4.8450    -1.3120 H     1 <1>   0.0800 
 31 H       -1.8500    -6.5060     1.3000 H     1 <1>   0.0800 
 32 H       -0.2090    -6.8920     0.7890 H     1 <1>   0.0800 
 33 H       -2.2590    -8.9770    -1.2050 H     1 <1>   0.0800 
 34 H       -2.5920    -8.6010     0.4820 H     1 <1>   0.0800 
 35 H       -0.9420    -8.9820    -0.0380 H     1 <1>   0.0800 
@<TRIPOS>BOND
  1   1   2  1   
  2   2   3  ar  
  3   2   4  ar  
  4   3   5  ar  
  5   3   6  1   
  6   4   7  ar  
  7   4  18  1   
  8   5   8  ar  
  9   6   9  1   
 10   6  10  1   
 11   7   8  ar  
 12   8  11  1   
 13   9  12  1   
 14   9  19  1   
 15   9  20  1   
 16  10  13  1   
 17  10  21  1   
 18  10  22  1   
 19  11  23  1   
 20  11  24  1   
 21  11  25  1   
 22  12  14  1   
 23  12  15  1   
 24  12  26  1   
 25  13  14  1   
 26  13  27  1   
 27  13  28  1   
 28  14  29  1   
 29  14  30  1   
 30  15  16  1   
 31  15  31  1   
 32  15  32  1   
 33  16  17  1   
 34  17  33  1   
 35  17  34  1   
 36  17  35  1   
@<TRIPOS>SUBSTRUCTURE
  1 ****   6 GROUP 4 **** **** 0

# MOE 2024.06 (io_trps.svl 2023.06)
