@<TRIPOS>MOLECULE
NONAME
48 50 1 0 0 
SMALL
USER_CHARGES


@<TRIPOS>ATOM
  1 O        4.2750    -1.2550     1.2440 O.2   1 <1>  -0.5700 
  2 C        3.6320    -1.4980     0.2380 C.2   1 <1>   0.5440 
  3 N        4.0130    -0.8340    -0.9040 N.am  1 <1>  -0.6600 
  4 C        2.4790    -2.3800     0.2730 C.ar  1 <1>   0.0860 
  5 C        5.4690    -0.6700    -1.2160 C.3   1 <1>   0.1400 
  6 C        3.1040     0.1590    -1.5310 C.3   1 <1>   0.1400 
  7 C        1.9310    -2.9540    -0.8630 C.ar  1 <1>  -0.1500 
  8 C        1.8390    -2.7190     1.4590 C.ar  1 <1>  -0.1500 
  9 C        6.0570     0.6600    -0.7010 C.3   1 <1>   0.3430 
 10 C        2.8920     1.3480    -0.5820 C.3   1 <1>  -0.1600 
 11 C        0.8200    -3.7730    -0.7770 C.ar  1 <1>   0.3920 
 12 C        0.7360    -3.5500     1.4480 C.ar  1 <1>   0.1600 
 13 N        5.2100     1.2700     0.3720 N.4   1 <1>  -0.9590 
 14 C        4.1510     2.1410    -0.2070 C.3   1 <1>   0.3430 
 15 O        0.3470    -4.2790    -1.9340 O.3   1 <1>  -0.3630 
 16 N        0.2070    -4.0800     0.3600 N.ar  1 <1>  -0.6200 
 17 C        6.0460     1.9850     1.3810 C.3   1 <1>   0.5230 
 18 C       -0.7750    -5.1400    -1.9450 C.3   1 <1>   0.0400 
 19 C        6.6280     3.2670     0.8030 C.2   1 <1>  -0.0400 
 20 O        7.4380     3.2000    -0.2380 O.3   1 <1>  -0.2800 
 21 C        6.4550     4.5520     1.1810 C.2   1 <1>  -0.1500 
 22 C        7.8010     4.4280    -0.5450 C.2   1 <1>  -0.0400 
 23 C        7.2250     5.3140     0.2940 C.2   1 <1>  -0.1500 
 24 C        8.7460     4.6460    -1.7070 C.3   1 <1>  -0.0600 
 25 H        5.6260    -0.7490    -2.2780 H     1 <1>   0.0800 
 26 H        6.0120    -1.4790    -0.7580 H     1 <1>   0.0800 
 27 H        2.1540    -0.3050    -1.7380 H     1 <1>   0.0800 
 28 H        3.5150     0.4950    -2.4680 H     1 <1>   0.0800 
 29 H        2.3600    -2.7770    -1.8310 H     1 <1>   0.1500 
 30 H        2.2050    -2.3330     2.3940 H     1 <1>   0.1500 
 31 H        6.1580     1.3540    -1.5190 H     1 <1>   0.0800 
 32 H        7.0480     0.4680    -0.3250 H     1 <1>   0.0800 
 33 H        2.4050     1.0110     0.3160 H     1 <1>   0.0800 
 34 H        2.2080     2.0300    -1.0570 H     1 <1>   0.0800 
 35 H        0.2610    -3.7940     2.3840 H     1 <1>   0.1500 
 36 H        4.7540     0.4580     0.8400 H     1 <1>   0.4500 
 37 H        3.8720     2.8940     0.5120 H     1 <1>   0.0800 
 38 H        4.5390     2.6520    -1.0750 H     1 <1>   0.0800 
 39 H        6.8490     1.3460     1.7110 H     1 <1>   0.0800 
 40 H        5.4420     2.2310     2.2390 H     1 <1>   0.0800 
 41 H       -0.9750    -5.4240    -2.9630 H     1 <1>   0.0800 
 42 H       -1.6210    -4.6160    -1.5340 H     1 <1>   0.0800 
 43 H       -0.5510    -6.0110    -1.3550 H     1 <1>   0.0800 
 44 H        5.8680     4.9610     1.9860 H     1 <1>   0.1500 
 45 H        7.3210     6.3860     0.3100 H     1 <1>   0.1500 
 46 H        9.6720     4.1320    -1.5250 H     1 <1>   0.0800 
 47 H        8.9490     5.6940    -1.8290 H     1 <1>   0.0800 
 48 H        8.3080     4.2690    -2.6130 H     1 <1>   0.0800 
@<TRIPOS>BOND
  1   1   2  2   
  2   2   3  am  
  3   2   4  1   
  4   3   5  1   
  5   3   6  1   
  6   4   7  ar  
  7   4   8  ar  
  8   5   9  1   
  9   5  25  1   
 10   5  26  1   
 11   6  10  1   
 12   6  27  1   
 13   6  28  1   
 14   7  11  ar  
 15   7  29  1   
 16   8  12  ar  
 17   8  30  1   
 18   9  13  1   
 19   9  31  1   
 20   9  32  1   
 21  10  14  1   
 22  10  33  1   
 23  10  34  1   
 24  11  15  1   
 25  11  16  ar  
 26  12  16  ar  
 27  12  35  1   
 28  13  14  1   
 29  13  17  1   
 30  13  36  1   
 31  14  37  1   
 32  14  38  1   
 33  15  18  1   
 34  17  19  1   
 35  17  39  1   
 36  17  40  1   
 37  18  41  1   
 38  18  42  1   
 39  18  43  1   
 40  19  20  1   
 41  19  21  2   
 42  20  22  1   
 43  21  23  1   
 44  21  44  1   
 45  22  23  2   
 46  22  24  1   
 47  23  45  1   
 48  24  46  1   
 49  24  47  1   
 50  24  48  1   
@<TRIPOS>SUBSTRUCTURE
  1 ****   3 GROUP 4 **** **** 0

# MOE 2024.06 (io_trps.svl 2023.06)
