@<TRIPOS>MOLECULE
NONAME
37 38 1 0 0 
SMALL
USER_CHARGES


@<TRIPOS>ATOM
  1 O       -0.5130    -1.9850    -2.4820 O.2   1 <1>  -0.5700 
  2 C       -1.2310    -2.5100    -1.6660 C.2   1 <1>   0.5690 
  3 N       -0.9710    -2.6570    -0.3480 N.am  1 <1>  -0.6600 
  4 C       -2.5630    -3.1130    -2.0140 C.3   1 <1>  -0.0990 
  5 C       -2.0430    -3.3830     0.3580 C.3   1 <1>   0.1400 
  6 C        0.2480    -2.1970     0.3480 C.3   1 <1>   0.1400 
  7 C       -2.9050    -3.9650    -0.7760 C.3   1 <1>  -0.0800 
  8 C       -0.1030    -1.0550     1.2980 C.3   1 <1>  -0.2400 
  9 C       -2.5550    -5.4410    -1.0240 C.3   1 <1>   0.2090 
 10 N       -2.8630    -6.2700     0.1810 N.pl3 1 <1>  -0.8380 
 11 C       -4.1800    -6.4820     0.5530 C.ar  1 <1>   0.4100 
 12 C       -1.9050    -7.3890     0.3910 C.3   1 <1>   0.1290 
 13 N       -5.0960    -6.4660    -0.4050 N.ar  1 <1>  -0.6200 
 14 C       -4.4860    -6.7020     1.8930 C.ar  1 <1>  -0.1500 
 15 C       -6.3590    -6.6810    -0.0390 C.ar  1 <1>   0.3830 
 16 C       -5.7850    -6.9260     2.2790 C.ar  1 <1>  -0.1500 
 17 C       -7.3790    -6.6690    -1.0570 C.1   1 <1>   0.4840 
 18 C       -6.7340    -6.9130     1.2790 C.ar  1 <1>  -0.1500 
 19 N       -8.2230    -6.6660    -1.8280 N.1   1 <1>  -0.5570 
 20 H       -2.5000    -3.6880    -2.9200 H     1 <1>   0.0800 
 21 H       -3.2740    -2.3180    -2.1380 H     1 <1>   0.0800 
 22 H       -2.6160    -2.6890     0.9480 H     1 <1>   0.0800 
 23 H       -1.6340    -4.1480     0.9960 H     1 <1>   0.0800 
 24 H        0.9650    -1.8540    -0.3800 H     1 <1>   0.0800 
 25 H        0.6830    -3.0180     0.8910 H     1 <1>   0.0800 
 26 H       -3.9520    -3.8870    -0.5430 H     1 <1>   0.0800 
 27 H       -0.5530    -0.2470     0.7490 H     1 <1>   0.0800 
 28 H        0.7920    -0.6910     1.7690 H     1 <1>   0.0800 
 29 H       -0.7770    -1.3920     2.0640 H     1 <1>   0.0800 
 30 H       -1.5060    -5.5190    -1.2580 H     1 <1>   0.0800 
 31 H       -3.1090    -5.8140    -1.8690 H     1 <1>   0.0800 
 32 H       -0.9530    -6.9970     0.7060 H     1 <1>   0.0800 
 33 H       -1.7760    -7.9370    -0.5270 H     1 <1>   0.0800 
 34 H       -2.2680    -8.0660     1.1440 H     1 <1>   0.0800 
 35 H       -3.6920    -6.6880     2.6150 H     1 <1>   0.1500 
 36 H       -6.0480    -7.1000     3.3090 H     1 <1>   0.1500 
 37 H       -7.7680    -7.0830     1.5220 H     1 <1>   0.1500 
@<TRIPOS>BOND
  1   1   2  2   
  2   2   3  am  
  3   2   4  1   
  4   3   5  1   
  5   3   6  1   
  6   4   7  1   
  7   4  20  1   
  8   4  21  1   
  9   5   7  1   
 10   5  22  1   
 11   5  23  1   
 12   6   8  1   
 13   6  24  1   
 14   6  25  1   
 15   7   9  1   
 16   7  26  1   
 17   8  27  1   
 18   8  28  1   
 19   8  29  1   
 20   9  10  1   
 21   9  30  1   
 22   9  31  1   
 23  10  11  1   
 24  10  12  1   
 25  11  13  ar  
 26  11  14  ar  
 27  12  32  1   
 28  12  33  1   
 29  12  34  1   
 30  13  15  ar  
 31  14  16  ar  
 32  14  35  1   
 33  15  17  1   
 34  15  18  ar  
 35  16  18  ar  
 36  16  36  1   
 37  17  19  3   
 38  18  37  1   
@<TRIPOS>SUBSTRUCTURE
  1 ****   7 GROUP 4 **** **** 0

# MOE 2024.06 (io_trps.svl 2023.06)
