@<TRIPOS>MOLECULE
NONAME
37 39 1 0 0 
SMALL
USER_CHARGES


@<TRIPOS>ATOM
  1 S       -1.6240     0.3230    -1.1960 S.3   1 <1>  -0.0800 
  2 C       -0.1310     0.8600    -0.4650 C.2   1 <1>  -0.1100 
  3 C       -2.3180     1.9220    -1.0430 C.2   1 <1>  -0.1100 
  4 C       -0.1640     2.1770    -0.1430 C.2   1 <1>  -0.0860 
  5 C       -1.4390     2.7670    -0.4760 C.2   1 <1>  -0.1500 
  6 C        0.9220     2.9170     0.4650 C.2   1 <1>   0.7160 
  7 O        1.8460     2.3440     1.0090 O.2   1 <1>  -0.5700 
  8 N        1.0130     4.2840     0.3740 N.am  1 <1>  -0.6600 
  9 C        1.5830     5.0530     1.5420 C.3   1 <1>   0.2200 
 10 C        1.0170     4.9100    -0.9800 C.3   1 <1>   0.1400 
 11 C        1.1240     6.5200     1.5740 C.3   1 <1>   0.1200 
 12 C        3.1310     4.9760     1.5840 C.3   1 <1>   0.3430 
 13 C        2.1280     5.9580    -1.1860 C.3   1 <1>  -0.0800 
 14 O        1.9800     7.3180     0.8110 O.3   1 <1>  -0.5600 
 15 N        3.7190     4.5250     0.2770 N.4   1 <1>  -0.9590 
 16 C        1.7600     7.3130    -0.5580 C.3   1 <1>   0.1200 
 17 C        3.5710     5.5170    -0.8410 C.3   1 <1>   0.3430 
 18 C        5.1350     4.0940     0.4510 C.3   1 <1>   0.2630 
 19 H        0.6480     0.1280    -0.3400 H     1 <1>   0.1500 
 20 H       -3.3270     2.0570    -1.3930 H     1 <1>   0.1500 
 21 H       -1.6420     3.8020    -0.2650 H     1 <1>   0.1500 
 22 H        1.2090     4.5970     2.4430 H     1 <1>   0.0800 
 23 H        1.1340     4.1360    -1.7210 H     1 <1>   0.0800 
 24 H        0.0570     5.3680    -1.1520 H     1 <1>   0.0800 
 25 H        1.1870     6.8870     2.5840 H     1 <1>   0.0800 
 26 H        0.1060     6.6340     1.2390 H     1 <1>   0.0800 
 27 H        3.3980     4.2650     2.3490 H     1 <1>   0.0800 
 28 H        3.5390     5.9310     1.8710 H     1 <1>   0.0800 
 29 H        2.1340     6.1570    -2.2430 H     1 <1>   0.0800 
 30 H        3.1510     3.6870     0.0480 H     1 <1>   0.4500 
 31 H        0.7320     7.5780    -0.7480 H     1 <1>   0.0800 
 32 H        2.3820     8.0880    -0.9740 H     1 <1>   0.0800 
 33 H        4.1490     6.3980    -0.6110 H     1 <1>   0.0800 
 34 H        3.9980     5.0800    -1.7290 H     1 <1>   0.0800 
 35 H        5.7470     4.9310     0.7450 H     1 <1>   0.0800 
 36 H        5.5180     3.6890    -0.4710 H     1 <1>   0.0800 
 37 H        5.1990     3.3320     1.2110 H     1 <1>   0.0800 
@<TRIPOS>BOND
  1   1   2  1   
  2   1   3  1   
  3   2   4  2   
  4   2  19  1   
  5   3   5  2   
  6   3  20  1   
  7   4   5  1   
  8   4   6  1   
  9   5  21  1   
 10   6   7  2   
 11   6   8  am  
 12   8   9  1   
 13   8  10  1   
 14   9  11  1   
 15   9  12  1   
 16   9  22  1   
 17  10  13  1   
 18  10  23  1   
 19  10  24  1   
 20  11  14  1   
 21  11  25  1   
 22  11  26  1   
 23  12  15  1   
 24  12  27  1   
 25  12  28  1   
 26  13  16  1   
 27  13  17  1   
 28  13  29  1   
 29  14  16  1   
 30  15  17  1   
 31  15  18  1   
 32  15  30  1   
 33  16  31  1   
 34  16  32  1   
 35  17  33  1   
 36  17  34  1   
 37  18  35  1   
 38  18  36  1   
 39  18  37  1   
@<TRIPOS>SUBSTRUCTURE
  1 ****   8 GROUP 4 **** **** 0

# MOE 2024.06 (io_trps.svl 2023.06)
