@<TRIPOS>MOLECULE
NONAME
46 49 1 0 0 
SMALL
USER_CHARGES


@<TRIPOS>ATOM
  1 CL      -0.1390    -2.0990    -2.1430 Cl    1 <1>  -0.1770 
  2 C       -1.4690    -2.0450    -1.0090 C.ar  1 <1>   0.1770 
  3 C       -1.4550    -2.7850     0.1790 C.ar  1 <1>   0.0860 
  4 C       -2.5270    -1.2220    -1.3510 C.ar  1 <1>  -0.1500 
  5 C       -0.3780    -3.6730     0.5810 C.2   1 <1>   0.5440 
  6 C       -2.5670    -2.6370     1.0140 C.ar  1 <1>  -0.1500 
  7 C       -3.6140    -1.1050    -0.5050 C.ar  1 <1>  -0.1500 
  8 O       -0.1260    -3.8300     1.7600 O.2   1 <1>  -0.5700 
  9 N        0.3510    -4.3900    -0.3260 N.am  1 <1>  -0.7300 
 10 C       -3.6290    -1.8150     0.6820 C.ar  1 <1>  -0.1500 
 11 C        1.5450    -5.2010     0.0020 C.3   1 <1>   0.1400 
 12 C        1.1210    -6.5600     0.5860 C.3   1 <1>  -0.0800 
 13 C        0.3880    -7.4230    -0.4510 C.3   1 <1>   0.2000 
 14 C        2.2910    -7.4980     0.9540 C.3   1 <1>  -0.0800 
 15 O        1.4610    -8.0160    -1.0770 O.3   1 <1>  -0.5600 
 16 C       -0.2830    -8.6470     0.1960 C.3   1 <1>  -0.1600 
 17 C        2.0540    -8.6630    -0.0090 C.3   1 <1>   0.2800 
 18 C        3.7390    -7.0570     0.6800 C.3   1 <1>   0.3430 
 19 C        0.9170    -9.5680     0.4590 C.3   1 <1>  -0.1600 
 20 C        3.4370    -9.1800    -0.3960 C.3   1 <1>   0.3430 
 21 N        4.2490    -7.9410    -0.4050 N.4   1 <1>  -0.9590 
 22 C        5.7640    -8.0510    -0.4030 C.3   1 <1>   0.2370 
 23 C        6.4680    -6.7010    -0.5970 C.2   1 <1>   0.9060 
 24 O        5.7920    -5.7750    -1.0690 O.co2 1 <1>  -0.9000 
 25 O        7.6350    -6.5790    -0.2290 O.co2 1 <1>  -0.9000 
 26 H       -2.4970    -0.6720    -2.2750 H     1 <1>   0.1500 
 27 H       -2.5940    -3.1800     1.9440 H     1 <1>   0.1500 
 28 H       -4.4400    -0.4640    -0.7650 H     1 <1>   0.1500 
 29 H        0.2490    -4.1540    -1.3180 H     1 <1>   0.3700 
 30 H       -4.4700    -1.7270     1.3500 H     1 <1>   0.1500 
 31 H        2.1330    -5.3380    -0.8900 H     1 <1>   0.0800 
 32 H        2.1380    -4.6630     0.7220 H     1 <1>   0.0800 
 33 H        0.4940    -6.3880     1.4440 H     1 <1>   0.0800 
 34 H       -0.2310    -6.8850    -1.1490 H     1 <1>   0.0800 
 35 H        2.2150    -7.8170     1.9790 H     1 <1>   0.0800 
 36 H       -0.8110    -8.3790     1.0950 H     1 <1>   0.0800 
 37 H       -0.9710    -9.0980    -0.4980 H     1 <1>   0.0800 
 38 H        4.3310    -7.1940     1.5700 H     1 <1>   0.0800 
 39 H        3.8130    -6.0230     0.3810 H     1 <1>   0.0800 
 40 H        0.8640   -10.4520    -0.1510 H     1 <1>   0.0800 
 41 H        1.0100    -9.8440     1.4950 H     1 <1>   0.0800 
 42 H        3.4210    -9.6640    -1.3580 H     1 <1>   0.0800 
 43 H        3.8000    -9.8560     0.3590 H     1 <1>   0.0800 
 44 H        4.0320    -7.4050    -1.2660 H     1 <1>   0.4500 
 45 H        6.1090    -8.4640     0.5270 H     1 <1>   0.0800 
 46 H        6.0860    -8.6920    -1.2020 H     1 <1>   0.0800 
@<TRIPOS>BOND
  1   1   2  1   
  2   2   3  ar  
  3   2   4  ar  
  4   3   5  1   
  5   3   6  ar  
  6   4   7  ar  
  7   4  26  1   
  8   5   8  2   
  9   5   9  am  
 10   6  10  ar  
 11   6  27  1   
 12   7  10  ar  
 13   7  28  1   
 14   9  11  1   
 15   9  29  1   
 16  10  30  1   
 17  11  12  1   
 18  11  31  1   
 19  11  32  1   
 20  12  13  1   
 21  12  14  1   
 22  12  33  1   
 23  13  15  1   
 24  13  16  1   
 25  13  34  1   
 26  14  17  1   
 27  14  18  1   
 28  14  35  1   
 29  15  17  1   
 30  16  19  1   
 31  16  36  1   
 32  16  37  1   
 33  17  19  1   
 34  17  20  1   
 35  18  21  1   
 36  18  38  1   
 37  18  39  1   
 38  19  40  1   
 39  19  41  1   
 40  20  21  1   
 41  20  42  1   
 42  20  43  1   
 43  21  22  1   
 44  21  44  1   
 45  22  23  1   
 46  22  45  1   
 47  22  46  1   
 48  23  24  ar  
 49  23  25  ar  
@<TRIPOS>SUBSTRUCTURE
  1 ****  11 GROUP 4 **** **** 0

# MOE 2024.06 (io_trps.svl 2023.06)
