@<TRIPOS>MOLECULE
NONAME
28 28 1 0 0 
SMALL
USER_CHARGES


@<TRIPOS>ATOM
  1 O        0.1970     0.1170     1.1410 O.2   1 <1>  -0.5700 
  2 C        0.1290    -1.0290     0.7770 C.2   1 <1>   0.6590 
  3 O       -0.9680    -1.5400     0.2330 O.3   1 <1>  -0.4300 
  4 C        1.2910    -1.9700     0.9520 C.3   1 <1>  -0.0990 
  5 C       -2.1170    -0.7510     0.0070 C.3   1 <1>   0.0400 
  6 C        2.4480    -1.5460     0.0540 C.3   1 <1>   0.3440 
  7 O        2.0940    -1.6840    -1.2710 O.3   1 <1>  -0.6800 
  8 C        3.7360    -2.3280     0.3320 C.ar  1 <1>  -0.1440 
  9 C        4.0120    -3.6260    -0.1140 C.ar  1 <1>  -0.1440 
 10 C        4.6910    -1.6680     1.0970 C.ar  1 <1>  -0.1500 
 11 C        5.2260    -4.2150     0.2120 C.ar  1 <1>  -0.1500 
 12 C        3.0520    -4.4570    -0.9590 C.3   1 <1>  -0.0970 
 13 C        5.8950    -2.2660     1.4170 C.ar  1 <1>  -0.1500 
 14 C        6.1640    -3.5440     0.9720 C.ar  1 <1>  -0.1500 
 15 H        0.9880    -2.9760     0.7450 H     1 <1>   0.0800 
 16 H        1.6090    -1.9200     1.9760 H     1 <1>   0.0800 
 17 H       -2.8730    -1.3700    -0.4410 H     1 <1>   0.0800 
 18 H       -1.8570     0.0570    -0.6550 H     1 <1>   0.0800 
 19 H       -2.4630    -0.3630     0.9500 H     1 <1>   0.0800 
 20 H        2.6370    -0.4960     0.2080 H     1 <1>   0.0800 
 21 H        2.9120    -1.6570    -1.8050 H     1 <1>   0.4000 
 22 H        4.5050    -0.6710     1.4570 H     1 <1>   0.1500 
 23 H        5.4530    -5.2100    -0.1270 H     1 <1>   0.1500 
 24 H        2.0430    -4.3690    -0.6070 H     1 <1>   0.0800 
 25 H        3.3160    -5.4990    -0.9290 H     1 <1>   0.0800 
 26 H        3.0900    -4.1310    -1.9830 H     1 <1>   0.0800 
 27 H        6.6210    -1.7380     2.0110 H     1 <1>   0.1500 
 28 H        7.1000    -4.0160     1.2160 H     1 <1>   0.1500 
@<TRIPOS>BOND
  1   1   2  2   
  2   2   3  1   
  3   2   4  1   
  4   3   5  1   
  5   4   6  1   
  6   4  15  1   
  7   4  16  1   
  8   5  17  1   
  9   5  18  1   
 10   5  19  1   
 11   6   7  1   
 12   6   8  1   
 13   6  20  1   
 14   7  21  1   
 15   8   9  ar  
 16   8  10  ar  
 17   9  11  ar  
 18   9  12  1   
 19  10  13  ar  
 20  10  22  1   
 21  11  14  ar  
 22  11  23  1   
 23  12  24  1   
 24  12  25  1   
 25  12  26  1   
 26  13  14  ar  
 27  13  27  1   
 28  14  28  1   
@<TRIPOS>SUBSTRUCTURE
  1 ****   6 GROUP 4 **** **** 0

# MOE 2024.06 (io_trps.svl 2023.06)
