@<TRIPOS>MOLECULE
NONAME
40 43 1 0 0 
SMALL
USER_CHARGES


@<TRIPOS>ATOM
  1 S        0.0660    -0.1300     1.3020 S.3   1 <1>  -0.0800 
  2 C        0.1180    -1.7260     0.5520 C.ar  1 <1>   0.2970 
  3 C       -1.5640    -0.4160     1.9160 C.2   1 <1>  -0.1100 
  4 N        1.1590    -2.1790    -0.1110 N.ar  1 <1>  -0.5670 
  5 C       -1.0610    -2.3930     0.7670 C.ar  1 <1>   0.0000 
  6 C       -2.0000    -1.6360     1.5540 C.2   1 <1>  -0.1500 
  7 C        0.9710    -3.3990    -0.5760 C.ar  1 <1>   0.4770 
  8 C       -1.1310    -3.6660     0.2010 C.ar  1 <1>   0.4100 
  9 N       -0.1040    -4.1660    -0.4630 N.ar  1 <1>  -0.6200 
 10 C        2.1210    -4.0080    -1.3420 C.3   1 <1>  -0.0960 
 11 N       -2.2720    -4.4350     0.2960 N.pl3 1 <1>  -0.8380 
 12 C       -3.5090    -3.9730    -0.3870 C.3   1 <1>   0.2090 
 13 C       -2.2010    -5.9230     0.2430 C.3   1 <1>   0.2090 
 14 C       -4.1880    -5.2410    -0.9110 C.3   1 <1>   0.2000 
 15 C       -3.6250    -6.3810    -0.0690 C.3   1 <1>  -0.0800 
 16 O       -5.5680    -5.1890    -0.7700 O.3   1 <1>  -0.6800 
 17 C       -3.7090    -7.7420    -0.7810 C.3   1 <1>  -0.0170 
 18 C       -3.2060    -8.8720     0.1030 C.ar  1 <1>   0.1670 
 19 N       -1.8960    -9.0460     0.1550 N.ar  1 <1>  -0.6200 
 20 C       -4.1150    -9.6610     0.8080 C.ar  1 <1>   0.1600 
 21 C       -1.5580   -10.0480     0.9500 C.ar  1 <1>   0.1600 
 22 N       -3.7790   -10.6610     1.6050 N.ar  1 <1>  -0.6200 
 23 C       -2.4690   -10.8290     1.6510 C.ar  1 <1>   0.1600 
 24 H       -2.0160     0.3730     2.4930 H     1 <1>   0.1500 
 25 H       -2.9530    -2.0620     1.8090 H     1 <1>   0.1500 
 26 H        2.3330    -4.9860    -0.9550 H     1 <1>   0.0800 
 27 H        3.0010    -3.3980    -1.2530 H     1 <1>   0.0800 
 28 H        1.8530    -4.0890    -2.3790 H     1 <1>   0.0800 
 29 H       -4.1400    -3.4710     0.3250 H     1 <1>   0.0800 
 30 H       -3.2670    -3.3090    -1.1990 H     1 <1>   0.0800 
 31 H       -1.5310    -6.2350    -0.5410 H     1 <1>   0.0800 
 32 H       -1.8530    -6.3220     1.1810 H     1 <1>   0.0800 
 33 H       -3.9540    -5.3710    -1.9540 H     1 <1>   0.0800 
 34 H       -4.1520    -6.4300     0.8670 H     1 <1>   0.0800 
 35 H       -5.8090    -5.0780     0.1700 H     1 <1>   0.4000 
 36 H       -3.1280    -7.7200    -1.6860 H     1 <1>   0.0800 
 37 H       -4.7300    -7.9320    -1.0590 H     1 <1>   0.0800 
 38 H       -5.1660    -9.4540     0.7100 H     1 <1>   0.1500 
 39 H       -0.5090   -10.2620     1.0510 H     1 <1>   0.1500 
 40 H       -2.0960   -11.6230     2.2740 H     1 <1>   0.1500 
@<TRIPOS>BOND
  1   1   2  1   
  2   1   3  1   
  3   2   4  ar  
  4   2   5  ar  
  5   3   6  2   
  6   3  24  1   
  7   4   7  ar  
  8   5   6  1   
  9   5   8  ar  
 10   6  25  1   
 11   7   9  ar  
 12   7  10  1   
 13   8   9  ar  
 14   8  11  1   
 15  10  26  1   
 16  10  27  1   
 17  10  28  1   
 18  11  12  1   
 19  11  13  1   
 20  12  14  1   
 21  12  29  1   
 22  12  30  1   
 23  13  15  1   
 24  13  31  1   
 25  13  32  1   
 26  14  15  1   
 27  14  16  1   
 28  14  33  1   
 29  15  17  1   
 30  15  34  1   
 31  16  35  1   
 32  17  18  1   
 33  17  36  1   
 34  17  37  1   
 35  18  19  ar  
 36  18  20  ar  
 37  19  21  ar  
 38  20  22  ar  
 39  20  38  1   
 40  21  23  ar  
 41  21  39  1   
 42  22  23  ar  
 43  23  40  1   
@<TRIPOS>SUBSTRUCTURE
  1 ****  13 GROUP 4 **** **** 0

# MOE 2024.06 (io_trps.svl 2023.06)
