@<TRIPOS>MOLECULE
NONAME
42 44 1 0 0 
SMALL
USER_CHARGES


@<TRIPOS>ATOM
  1 F       -1.0150     0.1300    -0.6960 F     1 <1>  -0.3400 
  2 C       -1.8850     1.0980    -0.4320 C.3   1 <1>   1.1640 
  3 F       -2.7140     1.1470    -1.4660 F     1 <1>  -0.3400 
  4 F       -2.6010     0.6900     0.6060 F     1 <1>  -0.3400 
  5 C       -1.2120     2.4520    -0.1690 C.ar  1 <1>  -0.1440 
  6 C        0.1350     2.5800     0.1070 C.ar  1 <1>  -0.1500 
  7 C       -1.9320     3.6370    -0.1840 C.ar  1 <1>  -0.1500 
  8 C        0.6950     3.8310     0.3420 C.ar  1 <1>   0.4100 
  9 C       -1.2890     4.8360     0.0610 C.ar  1 <1>   0.1600 
 10 N        0.0030     4.9620     0.3180 N.ar  1 <1>  -0.6200 
 11 N        2.0410     3.9510     0.6070 N.pl3 1 <1>  -0.8380 
 12 C        2.5070     4.7510     1.8020 C.3   1 <1>   0.2090 
 13 C        3.0470     3.5610    -0.4300 C.3   1 <1>   0.2090 
 14 C        3.0680     6.1450     1.4190 C.3   1 <1>   0.4230 
 15 C        3.9160     4.7160    -0.9910 C.3   1 <1>  -0.0800 
 16 N        2.4810     6.5280     0.0850 N.4   1 <1>  -0.9590 
 17 C        4.6150     6.1710     1.5050 C.3   1 <1>   0.1200 
 18 C        5.2930     4.8340    -0.3160 C.3   1 <1>   0.1200 
 19 C        3.2530     6.0980    -1.1110 C.3   1 <1>   0.3430 
 20 C        2.1930     8.0180     0.0240 C.3   1 <1>   0.2370 
 21 O        5.1850     4.9710     1.0590 O.3   1 <1>  -0.5600 
 22 C        3.4270     8.9030     0.2180 C.2   1 <1>   0.9060 
 23 O        4.1520     9.1130    -0.7580 O.co2 1 <1>  -0.9000 
 24 O        3.7290     9.2200     1.3730 O.co2 1 <1>  -0.9000 
 25 H        0.7810     1.7210     0.1550 H     1 <1>   0.1500 
 26 H       -2.9910     3.6340    -0.3840 H     1 <1>   0.1500 
 27 H       -1.8720     5.7420     0.0450 H     1 <1>   0.1500 
 28 H        1.6710     4.9020     2.4630 H     1 <1>   0.0800 
 29 H        3.2360     4.1860     2.3550 H     1 <1>   0.0800 
 30 H        3.6880     2.8000    -0.0180 H     1 <1>   0.0800 
 31 H        2.5190     3.1140    -1.2560 H     1 <1>   0.0800 
 32 H        2.7160     6.8530     2.1500 H     1 <1>   0.0800 
 33 H        4.1520     4.4350    -2.0010 H     1 <1>   0.0800 
 34 H        1.5970     5.9740     0.0650 H     1 <1>   0.4500 
 35 H        4.8930     6.2730     2.5380 H     1 <1>   0.0800 
 36 H        5.0450     7.0020     0.9730 H     1 <1>   0.0800 
 37 H        5.8520     5.6700    -0.7030 H     1 <1>   0.0800 
 38 H        5.8640     3.9390    -0.4940 H     1 <1>   0.0800 
 39 H        2.5850     6.0890    -1.9560 H     1 <1>   0.0800 
 40 H        4.0200     6.8290    -1.3180 H     1 <1>   0.0800 
 41 H        1.7630     8.2690    -0.9280 H     1 <1>   0.0800 
 42 H        1.4920     8.2820     0.7940 H     1 <1>   0.0800 
@<TRIPOS>BOND
  1   1   2  1   
  2   2   3  1   
  3   2   4  1   
  4   2   5  1   
  5   5   6  ar  
  6   5   7  ar  
  7   6   8  ar  
  8   6  25  1   
  9   7   9  ar  
 10   7  26  1   
 11   8  10  ar  
 12   8  11  1   
 13   9  10  ar  
 14   9  27  1   
 15  11  12  1   
 16  11  13  1   
 17  12  14  1   
 18  12  28  1   
 19  12  29  1   
 20  13  15  1   
 21  13  30  1   
 22  13  31  1   
 23  14  16  1   
 24  14  17  1   
 25  14  32  1   
 26  15  18  1   
 27  15  19  1   
 28  15  33  1   
 29  16  19  1   
 30  16  20  1   
 31  16  34  1   
 32  17  21  1   
 33  17  35  1   
 34  17  36  1   
 35  18  21  1   
 36  18  37  1   
 37  18  38  1   
 38  19  39  1   
 39  19  40  1   
 40  20  22  1   
 41  20  41  1   
 42  20  42  1   
 43  22  23  ar  
 44  22  24  ar  
@<TRIPOS>SUBSTRUCTURE
  1 ****  11 GROUP 4 **** **** 0

# MOE 2024.06 (io_trps.svl 2023.06)
