@<TRIPOS>MOLECULE
NONAME
61 64 1 0 0 
SMALL
USER_CHARGES


@<TRIPOS>ATOM
  1 O        0.4190    -0.4030    -0.7100 O.2   1 <1>  -0.5700 
  2 C        0.1680    -1.5930    -0.7510 C.2   1 <1>   0.5440 
  3 N       -1.1330    -1.9910    -0.9910 N.am  1 <1>  -0.6600 
  4 C        1.2470    -2.5460    -0.5650 C.ar  1 <1>   0.0860 
  5 C       -1.5020    -3.3360    -1.5140 C.3   1 <1>   0.1400 
  6 C       -2.2670    -1.0330    -0.8850 C.3   1 <1>   0.1400 
  7 C        1.1500    -3.5950     0.3460 C.ar  1 <1>  -0.1500 
  8 C        2.4290    -2.4340    -1.2960 C.ar  1 <1>  -0.1500 
  9 C       -2.5960    -3.9470    -0.6350 C.3   1 <1>  -0.1600 
 10 C       -3.3720    -1.6360    -0.0130 C.3   1 <1>  -0.1600 
 11 C        2.1740    -4.5110     0.5130 C.ar  1 <1>   0.0830 
 12 C        3.4630    -3.3400    -1.1380 C.ar  1 <1>  -0.1500 
 13 C       -3.8230    -3.0160    -0.5290 C.3   1 <1>  -0.0190 
 14 O        1.9690    -5.4980     1.4200 O.3   1 <1>  -0.3630 
 15 C        3.3390    -4.3820    -0.2370 C.ar  1 <1>  -0.1500 
 16 C       -4.9390    -3.5940     0.3560 C.2   1 <1>   0.5690 
 17 C        2.9660    -6.4520     1.7070 C.3   1 <1>   0.0400 
 18 O       -4.6290    -4.4020     1.2010 O.2   1 <1>  -0.5700 
 19 N       -6.2470    -3.1920     0.2040 N.am  1 <1>  -0.6600 
 20 C       -7.3030    -3.6890     1.1390 C.3   1 <1>   0.1400 
 21 C       -6.7490    -2.2730    -0.8660 C.3   1 <1>   0.1400 
 22 C       -8.3660    -4.5140     0.3790 C.3   1 <1>   0.0000 
 23 C       -8.2650    -2.4130    -1.0880 C.3   1 <1>  -0.1600 
 24 C       -9.6090    -4.6940     1.2710 C.3   1 <1>   0.2000 
 25 C       -8.6920    -3.8880    -1.0150 C.3   1 <1>  -0.1600 
 26 C       -7.9330    -5.9770     0.1920 C.3   1 <1>  -0.1600 
 27 O      -10.4650    -3.6080     1.2200 O.3   1 <1>  -0.6800 
 28 C      -10.3110    -5.9610     0.7800 C.3   1 <1>  -0.1600 
 29 C       -9.2370    -6.7650     0.0290 C.3   1 <1>  -0.1600 
 30 H       -1.8660    -3.2260    -2.5210 H     1 <1>   0.0800 
 31 H       -0.6500    -3.9910    -1.5440 H     1 <1>   0.0800 
 32 H       -1.9380    -0.1050    -0.4480 H     1 <1>   0.0800 
 33 H       -2.6410    -0.8240    -1.8720 H     1 <1>   0.0800 
 34 H        0.2600    -3.6980     0.9390 H     1 <1>   0.1500 
 35 H        2.5300    -1.6190    -1.9920 H     1 <1>   0.1500 
 36 H       -2.8970    -4.8940    -1.0470 H     1 <1>   0.0800 
 37 H       -2.1900    -4.1340     0.3440 H     1 <1>   0.0800 
 38 H       -3.0060    -1.7310     0.9950 H     1 <1>   0.0800 
 39 H       -4.2070    -0.9600     0.0100 H     1 <1>   0.0800 
 40 H        4.3640    -3.2310    -1.7170 H     1 <1>   0.1500 
 41 H       -4.2030    -2.9010    -1.5240 H     1 <1>   0.0800 
 42 H        4.1520    -5.0740    -0.1330 H     1 <1>   0.1500 
 43 H        2.5870    -7.1140     2.4650 H     1 <1>   0.0800 
 44 H        3.8410    -5.9430     2.0720 H     1 <1>   0.0800 
 45 H        3.1860    -7.0080     0.8130 H     1 <1>   0.0800 
 46 H       -6.8770    -4.2750     1.9340 H     1 <1>   0.0800 
 47 H       -7.7740    -2.8360     1.5970 H     1 <1>   0.0800 
 48 H       -6.5150    -1.2550    -0.6040 H     1 <1>   0.0800 
 49 H       -6.2600    -2.5090    -1.7930 H     1 <1>   0.0800 
 50 H       -8.7930    -1.8410    -0.3450 H     1 <1>   0.0800 
 51 H       -8.5200    -2.0030    -2.0500 H     1 <1>   0.0800 
 52 H       -9.3100    -4.8300     2.2970 H     1 <1>   0.0800 
 53 H       -8.1480    -4.4100    -1.7820 H     1 <1>   0.0800 
 54 H       -9.7330    -3.9880    -1.2600 H     1 <1>   0.0800 
 55 H       -7.2610    -6.1160    -0.6370 H     1 <1>   0.0800 
 56 H       -7.4320    -6.3210     1.0810 H     1 <1>   0.0800 
 57 H      -10.7330    -3.4510     0.2960 H     1 <1>   0.4000 
 58 H      -10.6860    -6.5200     1.6190 H     1 <1>   0.0800 
 59 H      -11.1220    -5.7280     0.1130 H     1 <1>   0.0800 
 60 H       -9.1390    -7.7620     0.4220 H     1 <1>   0.0800 
 61 H       -9.4970    -6.8260    -1.0140 H     1 <1>   0.0800 
@<TRIPOS>BOND
  1   1   2  2   
  2   2   3  am  
  3   2   4  1   
  4   3   5  1   
  5   3   6  1   
  6   4   7  ar  
  7   4   8  ar  
  8   5   9  1   
  9   5  30  1   
 10   5  31  1   
 11   6  10  1   
 12   6  32  1   
 13   6  33  1   
 14   7  11  ar  
 15   7  34  1   
 16   8  12  ar  
 17   8  35  1   
 18   9  13  1   
 19   9  36  1   
 20   9  37  1   
 21  10  13  1   
 22  10  38  1   
 23  10  39  1   
 24  11  14  1   
 25  11  15  ar  
 26  12  15  ar  
 27  12  40  1   
 28  13  16  1   
 29  13  41  1   
 30  14  17  1   
 31  15  42  1   
 32  16  18  2   
 33  16  19  am  
 34  17  43  1   
 35  17  44  1   
 36  17  45  1   
 37  19  20  1   
 38  19  21  1   
 39  20  22  1   
 40  20  46  1   
 41  20  47  1   
 42  21  23  1   
 43  21  48  1   
 44  21  49  1   
 45  22  24  1   
 46  22  25  1   
 47  22  26  1   
 48  23  25  1   
 49  23  50  1   
 50  23  51  1   
 51  24  27  1   
 52  24  28  1   
 53  24  52  1   
 54  25  53  1   
 55  25  54  1   
 56  26  29  1   
 57  26  55  1   
 58  26  56  1   
 59  27  57  1   
 60  28  29  1   
 61  28  58  1   
 62  28  59  1   
 63  29  60  1   
 64  29  61  1   
@<TRIPOS>SUBSTRUCTURE
  1 ****  13 GROUP 4 **** **** 0

# MOE 2024.06 (io_trps.svl 2023.06)
