@<TRIPOS>MOLECULE
NONAME
55 58 1 0 0 
SMALL
USER_CHARGES


@<TRIPOS>ATOM
  1 CL      -0.0970    -0.3670     1.6240 Cl    1 <1>  -0.1770 
  2 C        0.3990    -2.0390     1.5900 C.ar  1 <1>   0.1770 
  3 C        1.6870    -2.3710     1.9750 C.ar  1 <1>  -0.1500 
  4 C       -0.5060    -3.0040     1.1800 C.ar  1 <1>  -0.1500 
  5 C        2.0810    -3.6990     1.9450 C.ar  1 <1>  -0.1500 
  6 C       -0.1130    -4.3330     1.1510 C.ar  1 <1>  -0.1500 
  7 C        1.1810    -4.6650     1.5250 C.ar  1 <1>   0.1020 
  8 S        1.7260    -6.3790     1.5000 S.3   1 <1>  -0.1580 
  9 C        0.9670    -7.1300     0.0530 C.2   1 <1>   0.1960 
 10 O        0.8470    -8.4400     0.0440 O.3   1 <1>  -0.2800 
 11 C        0.4980    -6.5690    -1.0810 C.2   1 <1>  -0.1500 
 12 C        0.2760    -8.7590    -1.1060 C.2   1 <1>  -0.0400 
 13 C        0.0380    -7.6500    -1.8460 C.2   1 <1>  -0.1500 
 14 C       -0.0050   -10.2230    -1.4060 C.3   1 <1>   0.2900 
 15 N       -1.0330   -10.7710    -0.4960 N.3   1 <1>  -0.8100 
 16 C       -1.0840   -12.2370    -0.5260 C.3   1 <1>   0.1100 
 17 C       -2.3500   -10.1510    -0.7170 C.3   1 <1>   0.1100 
 18 C       -2.0500   -12.7590     0.5650 C.3   1 <1>   0.4230 
 19 C       -3.3210   -10.6170     0.3720 C.3   1 <1>  -0.1600 
 20 N       -2.0280   -14.2730     0.7370 N.4   1 <1>  -0.9590 
 21 C       -3.4790   -12.1600     0.4270 C.3   1 <1>   0.0000 
 22 C       -3.2130   -14.8180     1.4770 C.3   1 <1>   0.3430 
 23 C       -1.8080   -15.0600    -0.5200 C.3   1 <1>   0.2630 
 24 C       -4.3200   -12.5360     1.6830 C.3   1 <1>  -0.1600 
 25 C       -4.1640   -12.6850    -0.8670 C.3   1 <1>   0.1200 
 26 C       -3.7950   -13.7760     2.4310 C.3   1 <1>  -0.1600 
 27 O       -5.3430   -12.0100    -1.1360 O.3   1 <1>  -0.6800 
 28 H        2.3650    -1.6000     2.2930 H     1 <1>   0.1500 
 29 H       -1.5020    -2.7160     0.8940 H     1 <1>   0.1500 
 30 H        3.0750    -3.9850     2.2410 H     1 <1>   0.1500 
 31 H       -0.8080    -5.0970     0.8530 H     1 <1>   0.1500 
 32 H        0.4760    -5.5340    -1.3660 H     1 <1>   0.1500 
 33 H       -0.4080    -7.5720    -2.8220 H     1 <1>   0.1500 
 34 H        0.9170   -10.7660    -1.2820 H     1 <1>   0.0800 
 35 H       -0.3260   -10.3280    -2.4280 H     1 <1>   0.0800 
 36 H       -1.3880   -12.5590    -1.5060 H     1 <1>   0.0800 
 37 H       -0.0970   -12.6150    -0.3230 H     1 <1>   0.0800 
 38 H       -2.2630    -9.0780    -0.6550 H     1 <1>   0.0800 
 39 H       -2.7260   -10.3980    -1.6960 H     1 <1>   0.0800 
 40 H       -1.6680   -12.3470     1.4840 H     1 <1>   0.0800 
 41 H       -2.9430   -10.2500     1.3110 H     1 <1>   0.0800 
 42 H       -4.2730   -10.1410     0.2140 H     1 <1>   0.0800 
 43 H       -1.2140   -14.4440     1.3440 H     1 <1>   0.4500 
 44 H       -3.9810   -15.1030     0.7760 H     1 <1>   0.0800 
 45 H       -2.9270   -15.7000     2.0300 H     1 <1>   0.0800 
 46 H       -2.6100   -14.8890    -1.2190 H     1 <1>   0.0800 
 47 H       -1.7660   -16.1150    -0.2970 H     1 <1>   0.0800 
 48 H       -0.8770   -14.7780    -0.9850 H     1 <1>   0.0800 
 49 H       -4.3360   -11.7200     2.3860 H     1 <1>   0.0800 
 50 H       -5.3450   -12.7050     1.4030 H     1 <1>   0.0800 
 51 H       -4.4060   -13.7290    -0.7880 H     1 <1>   0.0800 
 52 H       -3.5350   -12.5470    -1.7270 H     1 <1>   0.0800 
 53 H       -4.6020   -14.2180     2.9900 H     1 <1>   0.0800 
 54 H       -3.0400   -13.4880     3.1430 H     1 <1>   0.0800 
 55 H       -5.9840   -12.0790    -0.4020 H     1 <1>   0.4000 
@<TRIPOS>BOND
  1   1   2  1   
  2   2   3  ar  
  3   2   4  ar  
  4   3   5  ar  
  5   3  28  1   
  6   4   6  ar  
  7   4  29  1   
  8   5   7  ar  
  9   5  30  1   
 10   6   7  ar  
 11   6  31  1   
 12   7   8  1   
 13   8   9  1   
 14   9  10  1   
 15   9  11  2   
 16  10  12  1   
 17  11  13  1   
 18  11  32  1   
 19  12  13  2   
 20  12  14  1   
 21  13  33  1   
 22  14  15  1   
 23  14  34  1   
 24  14  35  1   
 25  15  16  1   
 26  15  17  1   
 27  16  18  1   
 28  16  36  1   
 29  16  37  1   
 30  17  19  1   
 31  17  38  1   
 32  17  39  1   
 33  18  20  1   
 34  18  21  1   
 35  18  40  1   
 36  19  21  1   
 37  19  41  1   
 38  19  42  1   
 39  20  22  1   
 40  20  23  1   
 41  20  43  1   
 42  21  24  1   
 43  21  25  1   
 44  22  26  1   
 45  22  44  1   
 46  22  45  1   
 47  23  46  1   
 48  23  47  1   
 49  23  48  1   
 50  24  26  1   
 51  24  49  1   
 52  24  50  1   
 53  25  27  1   
 54  25  51  1   
 55  25  52  1   
 56  26  53  1   
 57  26  54  1   
 58  27  55  1   
@<TRIPOS>SUBSTRUCTURE
  1 ****  10 GROUP 4 **** **** 0

# MOE 2024.06 (io_trps.svl 2023.06)
