@<TRIPOS>MOLECULE
NONAME
45 46 1 0 0 
SMALL
USER_CHARGES


@<TRIPOS>ATOM
  1 S        1.4500     1.4440     1.0660 S.o2  1 <1>   1.3330 
  2 O        1.3830     2.3360     2.2020 O.2   1 <1>  -0.6500 
  3 O        0.2330     0.8660     0.5420 O.2   1 <1>  -0.6500 
  4 N        2.4830     0.1640     1.4920 N.am  1 <1>  -0.8490 
  5 C        2.2960     2.2660    -0.2860 C.3   1 <1>  -0.0550 
  6 C        3.6620     0.5970     2.2520 C.3   1 <1>   0.1160 
  7 C        1.7730    -0.8790     2.2380 C.3   1 <1>   0.1160 
  8 C        2.4060     1.4370    -1.5860 C.3   1 <1>  -0.0800 
  9 C        2.9470     2.2040    -2.7880 C.3   1 <1>   0.2200 
 10 C        3.3480     0.2280    -1.4950 C.3   1 <1>   0.1200 
 11 N        4.0470     3.1000    -2.3670 N.am  1 <1>  -0.7300 
 12 C        3.5280     1.0670    -3.6150 C.3   1 <1>   0.1200 
 13 O        4.0900     0.2000    -2.6790 O.3   1 <1>  -0.5600 
 14 C        3.9450     4.4440    -2.2140 C.2   1 <1>   0.5690 
 15 O        2.9840     5.0580    -2.6090 O.2   1 <1>  -0.5700 
 16 C        5.0460     5.1720    -1.4680 C.3   1 <1>   0.0440 
 17 C        5.1190     4.6700    -0.0310 C.ar  1 <1>  -0.1440 
 18 C        6.1510     3.8440     0.3920 C.ar  1 <1>  -0.1500 
 19 C        4.1160     5.0210     0.8630 C.ar  1 <1>  -0.1500 
 20 C        6.1630     3.3710     1.6950 C.ar  1 <1>   0.0820 
 21 C        4.1340     4.5460     2.1630 C.ar  1 <1>  -0.1500 
 22 O        7.1440     2.5580     2.1100 O.3   1 <1>  -0.5330 
 23 C        5.1620     3.7220     2.5820 C.ar  1 <1>  -0.1500 
 24 H        1.7620     3.1690    -0.5120 H     1 <1>   0.0800 
 25 H        3.2740     2.5490     0.0430 H     1 <1>   0.0800 
 26 H        4.2990    -0.2460     2.4610 H     1 <1>   0.0800 
 27 H        3.3680     1.0530     3.1830 H     1 <1>   0.0800 
 28 H        4.2290     1.3090     1.6810 H     1 <1>   0.0800 
 29 H        2.4420    -1.6870     2.4780 H     1 <1>   0.0800 
 30 H        0.9680    -1.2750     1.6420 H     1 <1>   0.0800 
 31 H        1.3620    -0.4740     3.1480 H     1 <1>   0.0800 
 32 H        1.4260     1.0690    -1.8420 H     1 <1>   0.0800 
 33 H        2.1850     2.7530    -3.3170 H     1 <1>   0.0800 
 34 H        2.8010    -0.6950    -1.4020 H     1 <1>   0.0800 
 35 H        4.0450     0.3180    -0.6810 H     1 <1>   0.0800 
 36 H        4.8610     2.5980    -2.0050 H     1 <1>   0.3700 
 37 H        4.2820     1.3970    -4.3080 H     1 <1>   0.0800 
 38 H        2.7510     0.5360    -4.1370 H     1 <1>   0.0800 
 39 H        5.9780     5.0170    -1.9780 H     1 <1>   0.0800 
 40 H        4.8370     6.2270    -1.4730 H     1 <1>   0.0800 
 41 H        6.9360     3.5660    -0.2860 H     1 <1>   0.1500 
 42 H        3.3080     5.6600     0.5470 H     1 <1>   0.1500 
 43 H        3.3450     4.8150     2.8470 H     1 <1>   0.1500 
 44 H        7.8530     2.4370     1.4540 H     1 <1>   0.4500 
 45 H        5.1890     3.3520     3.5920 H     1 <1>   0.1500 
@<TRIPOS>BOND
  1   1   2  2   
  2   1   3  2   
  3   1   4  am  
  4   1   5  1   
  5   4   6  1   
  6   4   7  1   
  7   5   8  1   
  8   5  24  1   
  9   5  25  1   
 10   6  26  1   
 11   6  27  1   
 12   6  28  1   
 13   7  29  1   
 14   7  30  1   
 15   7  31  1   
 16   8   9  1   
 17   8  10  1   
 18   8  32  1   
 19   9  11  1   
 20   9  12  1   
 21   9  33  1   
 22  10  13  1   
 23  10  34  1   
 24  10  35  1   
 25  11  14  am  
 26  11  36  1   
 27  12  13  1   
 28  12  37  1   
 29  12  38  1   
 30  14  15  2   
 31  14  16  1   
 32  16  17  1   
 33  16  39  1   
 34  16  40  1   
 35  17  18  ar  
 36  17  19  ar  
 37  18  20  ar  
 38  18  41  1   
 39  19  21  ar  
 40  19  42  1   
 41  20  22  1   
 42  20  23  ar  
 43  21  23  ar  
 44  21  43  1   
 45  22  44  1   
 46  23  45  1   
@<TRIPOS>SUBSTRUCTURE
  1 ****   5 GROUP 4 **** **** 0

# MOE 2024.06 (io_trps.svl 2023.06)
