@<TRIPOS>MOLECULE
NONAME
48 51 1 0 0 
SMALL
USER_CHARGES


@<TRIPOS>ATOM
  1 F        0.0310    -0.1840     0.1570 F     1 <1>  -0.1370 
  2 C        1.3200    -0.4050     0.2040 C.2   1 <1>  -0.0150 
  3 N        1.8010    -1.6360     0.3830 N.pl3 1 <1>   0.3340 
  4 C        2.3320     0.4980     0.0890 C.2   1 <1>   0.1410 
  5 C        3.1660    -1.4350     0.3720 C.2   1 <1>   0.1420 
  6 C        1.2490    -2.9000     0.5550 C.2   1 <1>  -0.1810 
  7 N        3.5150    -0.1760     0.1990 N.2   1 <1>  -0.5650 
  8 C        2.2650     1.9310    -0.1130 C.2   1 <1>   0.7160 
  9 C        4.0060    -2.5660     0.5420 C.2   1 <1>  -0.1050 
 10 C        2.0560    -3.9810     0.7170 C.2   1 <1>  -0.1380 
 11 O        1.2110     2.5330    -0.2110 O.2   1 <1>  -0.5700 
 12 N        3.4650     2.5970    -0.1930 N.am  1 <1>  -0.4940 
 13 C        3.4680    -3.8060     0.7100 C.2   1 <1>  -0.1500 
 14 C        1.5040    -5.3820     0.9070 C.3   1 <1>  -0.1020 
 15 C        3.7560     3.9720    -0.3830 C.2   1 <1>  -0.0880 
 16 N        5.0020     4.5180    -0.4430 N.pl3 1 <1>   0.3140 
 17 C        2.8910     5.0010    -0.5410 C.2   1 <1>  -0.1500 
 18 N        4.9480     5.8580    -0.6330 N.2   1 <1>  -0.7070 
 19 C        6.3140     3.8250    -0.3260 C.3   1 <1>   0.1760 
 20 C        3.6810     6.1320    -0.6900 C.2   1 <1>   0.1390 
 21 C        7.0850     4.3660     0.8910 C.3   1 <1>  -0.1600 
 22 C        7.1220     4.0110    -1.6240 C.3   1 <1>  -0.1600 
 23 C        8.5090     3.8230     0.9530 C.3   1 <1>   0.3430 
 24 C        8.5450     3.4780    -1.4930 C.3   1 <1>   0.3430 
 25 N        9.2100     4.1250    -0.3270 N.4   1 <1>  -0.9590 
 26 C       10.6540     3.7450    -0.2530 C.3   1 <1>   0.2630 
 27 H        0.1750    -2.9520     0.5490 H     1 <1>   0.1500 
 28 H        5.0690    -2.4030     0.5320 H     1 <1>   0.1500 
 29 H        4.2350     1.9340    -0.0900 H     1 <1>   0.3700 
 30 H        4.0940    -4.6730     0.8400 H     1 <1>   0.1500 
 31 H        1.8310    -5.7810     1.8510 H     1 <1>   0.0800 
 32 H        1.8520    -6.0250     0.1180 H     1 <1>   0.0800 
 33 H        0.4290    -5.3740     0.8930 H     1 <1>   0.0800 
 34 H        1.8160     4.9760    -0.5520 H     1 <1>   0.1500 
 35 H        6.1300     2.7760    -0.1810 H     1 <1>   0.0800 
 36 H        3.2930     7.1260    -0.8360 H     1 <1>   0.1500 
 37 H        6.5650     4.0910     1.7920 H     1 <1>   0.0800 
 38 H        7.1300     5.4410     0.8560 H     1 <1>   0.0800 
 39 H        7.1700     5.0540    -1.8860 H     1 <1>   0.0800 
 40 H        6.6260     3.4960    -2.4280 H     1 <1>   0.0800 
 41 H        8.4890     2.7580     1.1190 H     1 <1>   0.0800 
 42 H        9.0310     4.2840     1.7780 H     1 <1>   0.0800 
 43 H        9.0910     3.6950    -2.3980 H     1 <1>   0.0800 
 44 H        8.5240     2.4080    -1.3580 H     1 <1>   0.0800 
 45 H        9.1520     5.1460    -0.4720 H     1 <1>   0.4500 
 46 H       10.7570     2.6820    -0.1010 H     1 <1>   0.0800 
 47 H       11.1350     4.2570     0.5650 H     1 <1>   0.0800 
 48 H       11.1600     4.0130    -1.1670 H     1 <1>   0.0800 
@<TRIPOS>BOND
  1   1   2  1   
  2   2   3  1   
  3   2   4  2   
  4   3   5  1   
  5   3   6  1   
  6   4   7  1   
  7   4   8  1   
  8   5   7  2   
  9   5   9  1   
 10   6  10  2   
 11   6  27  1   
 12   8  11  2   
 13   8  12  am  
 14   9  13  2   
 15   9  28  1   
 16  10  13  1   
 17  10  14  1   
 18  12  15  1   
 19  12  29  1   
 20  13  30  1   
 21  14  31  1   
 22  14  32  1   
 23  14  33  1   
 24  15  16  1   
 25  15  17  2   
 26  16  18  1   
 27  16  19  1   
 28  17  20  1   
 29  17  34  1   
 30  18  20  2   
 31  19  21  1   
 32  19  22  1   
 33  19  35  1   
 34  20  36  1   
 35  21  23  1   
 36  21  37  1   
 37  21  38  1   
 38  22  24  1   
 39  22  39  1   
 40  22  40  1   
 41  23  25  1   
 42  23  41  1   
 43  23  42  1   
 44  24  25  1   
 45  24  43  1   
 46  24  44  1   
 47  25  26  1   
 48  25  45  1   
 49  26  46  1   
 50  26  47  1   
 51  26  48  1   
@<TRIPOS>SUBSTRUCTURE
  1 ****  12 GROUP 4 **** **** 0

# MOE 2024.06 (io_trps.svl 2023.06)
