@<TRIPOS>MOLECULE
NONAME
44 46 1 0 0 
SMALL
USER_CHARGES


@<TRIPOS>ATOM
  1 F        0.2860    -0.6970     0.4620 F     1 <1>  -0.1900 
  2 C       -0.0090    -1.9700     0.4520 C.ar  1 <1>   0.1900 
  3 C       -1.1000    -2.3960    -0.2820 C.ar  1 <1>  -0.1500 
  4 C        0.7820    -2.8430     1.1740 C.ar  1 <1>  -0.1500 
  5 C       -1.4130    -3.7460    -0.2930 C.ar  1 <1>  -0.1500 
  6 C        0.4630    -4.1900     1.1570 C.ar  1 <1>  -0.1500 
  7 C       -0.6280    -4.6480     0.4300 C.ar  1 <1>   0.0830 
  8 O       -0.8650    -5.9830     0.4740 O.3   1 <1>  -0.3630 
  9 C       -1.9730    -6.5560    -0.1750 C.3   1 <1>   0.1200 
 10 C       -1.9470    -8.0580     0.1230 C.3   1 <1>   0.3430 
 11 N       -2.9650    -8.8370    -0.6680 N.4   1 <1>  -0.9590 
 12 C       -4.3720    -8.4920    -0.2980 C.3   1 <1>   0.3430 
 13 C       -2.8450   -10.2890    -0.3460 C.3   1 <1>   0.3430 
 14 C       -4.6970    -9.3360     0.9400 C.3   1 <1>   0.2000 
 15 C       -3.8510   -10.6050     0.7770 C.3   1 <1>  -0.0800 
 16 O       -4.2550    -8.6500     2.0640 O.3   1 <1>  -0.6800 
 17 C       -4.7180   -11.8380     0.4500 C.3   1 <1>  -0.0170 
 18 C       -3.8870   -13.1070     0.3110 C.ar  1 <1>   0.1670 
 19 N       -3.1200   -13.1890    -0.7660 N.ar  1 <1>  -0.6200 
 20 C       -3.9600   -14.1050     1.2820 C.ar  1 <1>   0.1600 
 21 C       -2.4490   -14.3300    -0.8110 C.ar  1 <1>   0.1600 
 22 N       -3.2790   -15.2360     1.2430 N.ar  1 <1>  -0.6200 
 23 C       -2.5240   -15.3200     0.1620 C.ar  1 <1>   0.1600 
 24 H       -1.6870    -1.6800    -0.8290 H     1 <1>   0.1500 
 25 H        1.6230    -2.4750     1.7330 H     1 <1>   0.1500 
 26 H       -2.2610    -4.0650    -0.8650 H     1 <1>   0.1500 
 27 H        1.0610    -4.8930     1.7110 H     1 <1>   0.1500 
 28 H       -2.8630    -6.0990     0.2200 H     1 <1>   0.0800 
 29 H       -1.8730    -6.3700    -1.2300 H     1 <1>   0.0800 
 30 H       -2.1160    -8.2020     1.1770 H     1 <1>   0.0800 
 31 H       -0.9620    -8.4270    -0.1120 H     1 <1>   0.0800 
 32 H       -2.7990    -8.6920    -1.6730 H     1 <1>   0.4500 
 33 H       -4.5030    -7.4420    -0.0960 H     1 <1>   0.0800 
 34 H       -5.0310    -8.7830    -1.0990 H     1 <1>   0.0800 
 35 H       -3.1000   -10.8650    -1.2220 H     1 <1>   0.0800 
 36 H       -1.8410   -10.5500    -0.0520 H     1 <1>   0.0800 
 37 H       -5.7540    -9.5130     1.0420 H     1 <1>   0.0800 
 38 H       -3.3050   -10.8130     1.6820 H     1 <1>   0.0800 
 39 H       -4.5740    -9.0690     2.8920 H     1 <1>   0.4000 
 40 H       -5.2580   -11.6830    -0.4690 H     1 <1>   0.0800 
 41 H       -5.4470   -11.9780     1.2300 H     1 <1>   0.0800 
 42 H       -4.6080   -13.9680     2.1300 H     1 <1>   0.1500 
 43 H       -1.8060   -14.4950    -1.6580 H     1 <1>   0.1500 
 44 H       -1.9390   -16.2140     0.0390 H     1 <1>   0.1500 
@<TRIPOS>BOND
  1   1   2  1   
  2   2   3  ar  
  3   2   4  ar  
  4   3   5  ar  
  5   3  24  1   
  6   4   6  ar  
  7   4  25  1   
  8   5   7  ar  
  9   5  26  1   
 10   6   7  ar  
 11   6  27  1   
 12   7   8  1   
 13   8   9  1   
 14   9  10  1   
 15   9  28  1   
 16   9  29  1   
 17  10  11  1   
 18  10  30  1   
 19  10  31  1   
 20  11  12  1   
 21  11  13  1   
 22  11  32  1   
 23  12  14  1   
 24  12  33  1   
 25  12  34  1   
 26  13  15  1   
 27  13  35  1   
 28  13  36  1   
 29  14  15  1   
 30  14  16  1   
 31  14  37  1   
 32  15  17  1   
 33  15  38  1   
 34  16  39  1   
 35  17  18  1   
 36  17  40  1   
 37  17  41  1   
 38  18  19  ar  
 39  18  20  ar  
 40  19  21  ar  
 41  20  22  ar  
 42  20  42  1   
 43  21  23  ar  
 44  21  43  1   
 45  22  23  ar  
 46  23  44  1   
@<TRIPOS>SUBSTRUCTURE
  1 ****  10 GROUP 4 **** **** 0

# MOE 2024.06 (io_trps.svl 2023.06)
