@<TRIPOS>MOLECULE
NONAME
54 56 1 0 0 
SMALL
USER_CHARGES


@<TRIPOS>ATOM
  1 O       -2.0330     0.1450     2.2830 O.2   1 <1>  -0.5700 
  2 C       -2.0200     0.7420     1.2250 C.2   1 <1>   0.5440 
  3 N       -2.0050     0.0370     0.0450 N.am  1 <1>  -0.6600 
  4 C       -2.0110     2.1900     1.2260 C.ar  1 <1>   0.0860 
  5 C       -1.7610    -1.4450     0.0220 C.3   1 <1>   0.3640 
  6 C       -2.4220     0.6570    -1.2490 C.3   1 <1>   0.1400 
  7 C       -0.9300     2.8940     0.7040 C.ar  1 <1>  -0.1500 
  8 C       -3.0790     2.9200     1.7430 C.ar  1 <1>  -0.1500 
  9 C       -0.2630    -1.7060    -0.2190 C.ar  1 <1>  -0.1430 
 10 C       -2.7210    -2.1490    -0.9790 C.3   1 <1>   0.2000 
 11 C       -2.2130    -0.2840    -2.4440 C.3   1 <1>   0.1200 
 12 C       -0.9060     4.2800     0.6620 C.ar  1 <1>   0.1170 
 13 C       -3.0730     4.3020     1.7150 C.ar  1 <1>  -0.1500 
 14 C        0.6290    -1.3610     0.7880 C.ar  1 <1>  -0.1500 
 15 C        0.2480    -2.2800    -1.3810 C.ar  1 <1>  -0.1500 
 16 O       -2.8210    -1.5340    -2.2520 O.3   1 <1>  -0.5600 
 17 C       -4.1480    -2.2480    -0.4190 C.3   1 <1>   0.1200 
 18 N        0.2180     4.9210     0.1230 N.am  1 <1>  -0.5470 
 19 C       -1.9940     4.9770     1.1750 C.ar  1 <1>  -0.1500 
 20 C        1.9890    -1.5690     0.6420 C.ar  1 <1>  -0.1500 
 21 C        1.6080    -2.4880    -1.5310 C.ar  1 <1>  -0.1500 
 22 O       -4.2030    -3.1870     0.6070 O.3   1 <1>  -0.6800 
 23 C        0.3270     6.1350    -0.4960 C.2   1 <1>   0.5690 
 24 C        2.4810    -2.1320    -0.5200 C.ar  1 <1>  -0.1500 
 25 O       -0.6090     6.8600    -0.7180 O.2   1 <1>  -0.5700 
 26 C        1.7100     6.5760    -0.9380 C.3   1 <1>  -0.0990 
 27 C        2.5960     6.9920     0.2480 C.3   1 <1>  -0.1600 
 28 C        3.9850     7.4340    -0.2230 C.3   1 <1>  -0.2400 
 29 H       -1.9810    -1.8520     0.9940 H     1 <1>   0.0800 
 30 H       -3.4630     0.9240    -1.1930 H     1 <1>   0.0800 
 31 H       -1.8580     1.5550    -1.4220 H     1 <1>   0.0800 
 32 H       -0.0970     2.3350     0.3190 H     1 <1>   0.1500 
 33 H       -3.9140     2.3910     2.1690 H     1 <1>   0.1500 
 34 H       -2.3720    -3.1500    -1.1530 H     1 <1>   0.0800 
 35 H       -1.1620    -0.4320    -2.6170 H     1 <1>   0.0800 
 36 H       -2.6370     0.1490    -3.3320 H     1 <1>   0.0800 
 37 H       -3.9070     4.8550     2.1140 H     1 <1>   0.1500 
 38 H        0.2630    -0.9270     1.7040 H     1 <1>   0.1500 
 39 H       -0.3980    -2.5740    -2.1880 H     1 <1>   0.1500 
 40 H       -4.8350    -2.5560    -1.1870 H     1 <1>   0.0800 
 41 H       -4.4600    -1.3000    -0.0150 H     1 <1>   0.0800 
 42 H        1.0860     4.3940     0.1860 H     1 <1>   0.3700 
 43 H       -1.9990     6.0530     1.1580 H     1 <1>   0.1500 
 44 H        2.6620    -1.2940     1.4360 H     1 <1>   0.1500 
 45 H        1.9870    -2.9300    -2.4360 H     1 <1>   0.1500 
 46 H       -4.1380    -4.0960     0.2550 H     1 <1>   0.4000 
 47 H        3.5390    -2.2950    -0.6360 H     1 <1>   0.1500 
 48 H        2.1730     5.7750    -1.4840 H     1 <1>   0.0800 
 49 H        1.6010     7.4090    -1.6100 H     1 <1>   0.0800 
 50 H        2.1240     7.8050     0.7730 H     1 <1>   0.0800 
 51 H        2.7000     6.1710     0.9360 H     1 <1>   0.0800 
 52 H        3.9060     8.2750    -0.8910 H     1 <1>   0.0800 
 53 H        4.4860     6.6310    -0.7350 H     1 <1>   0.0800 
 54 H        4.5830     7.7270     0.6210 H     1 <1>   0.0800 
@<TRIPOS>BOND
  1   1   2  2   
  2   2   3  am  
  3   2   4  1   
  4   3   5  1   
  5   3   6  1   
  6   4   7  ar  
  7   4   8  ar  
  8   5   9  1   
  9   5  10  1   
 10   5  29  1   
 11   6  11  1   
 12   6  30  1   
 13   6  31  1   
 14   7  12  ar  
 15   7  32  1   
 16   8  13  ar  
 17   8  33  1   
 18   9  14  ar  
 19   9  15  ar  
 20  10  16  1   
 21  10  17  1   
 22  10  34  1   
 23  11  16  1   
 24  11  35  1   
 25  11  36  1   
 26  12  18  1   
 27  12  19  ar  
 28  13  19  ar  
 29  13  37  1   
 30  14  20  ar  
 31  14  38  1   
 32  15  21  ar  
 33  15  39  1   
 34  17  22  1   
 35  17  40  1   
 36  17  41  1   
 37  18  23  am  
 38  18  42  1   
 39  19  43  1   
 40  20  24  ar  
 41  20  44  1   
 42  21  24  ar  
 43  21  45  1   
 44  22  46  1   
 45  23  25  2   
 46  23  26  1   
 47  24  47  1   
 48  26  27  1   
 49  26  48  1   
 50  26  49  1   
 51  27  28  1   
 52  27  50  1   
 53  27  51  1   
 54  28  52  1   
 55  28  53  1   
 56  28  54  1   
@<TRIPOS>SUBSTRUCTURE
  1 ****   7 GROUP 4 **** **** 0

# MOE 2024.06 (io_trps.svl 2023.06)
