@<TRIPOS>MOLECULE
NONAME
51 53 1 0 0 
SMALL
USER_CHARGES


@<TRIPOS>ATOM
  1 O       -0.0900     1.0980    -0.6780 O.2   1 <1>  -0.5700 
  2 C       -0.3550     2.2750    -0.7430 C.2   1 <1>   0.5690 
  3 N       -1.2420     2.9070     0.0910 N.am  1 <1>  -0.6600 
  4 C        0.3370     3.0950    -1.8270 C.3   1 <1>   0.1810 
  5 C       -1.5280     4.3740    -0.0700 C.3   1 <1>   0.3640 
  6 C       -1.9320     2.2620     1.2430 C.3   1 <1>   0.2200 
  7 O        0.5800     4.4100    -1.4010 O.3   1 <1>  -0.5600 
  8 C       -2.9850     4.5580    -0.5050 C.ar  1 <1>  -0.1440 
  9 C       -0.5930     5.1340    -1.0560 C.3   1 <1>   0.2610 
 10 C       -0.9100     1.8330     2.2940 C.3   1 <1>  -0.2400 
 11 C       -2.8100     1.0950     0.7890 C.3   1 <1>  -0.2400 
 12 C       -3.5390     3.7890    -1.5210 C.ar  1 <1>  -0.1500 
 13 C       -3.7740     5.5160     0.1150 C.ar  1 <1>  -0.1500 
 14 C       -0.2110     6.4970    -0.4620 C.2   1 <1>   0.5690 
 15 C       -4.8560     3.9720    -1.9060 C.ar  1 <1>  -0.1500 
 16 C       -5.0900     5.7010    -0.2690 C.ar  1 <1>  -0.1500 
 17 O       -1.0640     7.2050     0.0200 O.2   1 <1>  -0.5700 
 18 N        1.0950     6.8770    -0.4750 N.am  1 <1>  -0.7300 
 19 C       -5.6330     4.9290    -1.2790 C.ar  1 <1>  -0.1500 
 20 C        1.6450     8.1420     0.0680 C.3   1 <1>   0.1400 
 21 C        2.4090     7.8920     1.3800 C.3   1 <1>   0.0000 
 22 C        3.7940     7.2590     1.1760 C.3   1 <1>   0.2580 
 23 C        3.2490     9.1070     1.8080 C.3   1 <1>   0.2580 
 24 C        1.5730     7.2730     2.5180 C.3   1 <1>  -0.2400 
 25 O        4.3050     8.5780     1.0150 O.3   1 <1>  -0.5160 
 26 H       -0.2700     3.1210    -2.7140 H     1 <1>   0.0800 
 27 H        1.2840     2.6460    -2.0620 H     1 <1>   0.0800 
 28 H       -1.4100     4.8230     0.9010 H     1 <1>   0.0800 
 29 H       -2.5850     2.9870     1.7030 H     1 <1>   0.0800 
 30 H       -1.1260     5.3230    -1.9700 H     1 <1>   0.0800 
 31 H       -0.2720     1.0560     1.9120 H     1 <1>   0.0800 
 32 H       -1.4170     1.4540     3.1620 H     1 <1>   0.0800 
 33 H       -0.3080     2.6720     2.5910 H     1 <1>   0.0800 
 34 H       -2.2160     0.2910     0.3950 H     1 <1>   0.0800 
 35 H       -3.5070     1.4230     0.0400 H     1 <1>   0.0800 
 36 H       -3.3690     0.7170     1.6250 H     1 <1>   0.0800 
 37 H       -2.9520     3.0350    -2.0170 H     1 <1>   0.1500 
 38 H       -3.3670     6.1340     0.8980 H     1 <1>   0.1500 
 39 H       -5.2760     3.3690    -2.6920 H     1 <1>   0.1500 
 40 H       -5.6910     6.4490     0.2190 H     1 <1>   0.1500 
 41 H        1.7640     6.2090    -0.8750 H     1 <1>   0.3700 
 42 H       -6.6570     5.0730    -1.5770 H     1 <1>   0.1500 
 43 H        2.2970     8.5850    -0.6660 H     1 <1>   0.0800 
 44 H        0.8400     8.8340     0.2530 H     1 <1>   0.0800 
 45 H        3.9170     6.6940     0.2700 H     1 <1>   0.0000 
 46 H        4.2240     6.8040     2.0530 H     1 <1>   0.0000 
 47 H        3.5420     9.1220     2.8450 H     1 <1>   0.0000 
 48 H        2.9240    10.0550     1.4190 H     1 <1>   0.0000 
 49 H        1.2390     6.2890     2.2410 H     1 <1>   0.0800 
 50 H        0.7080     7.8840     2.7130 H     1 <1>   0.0800 
 51 H        2.1520     7.1940     3.4210 H     1 <1>   0.0800 
@<TRIPOS>BOND
  1   1   2  2   
  2   2   3  am  
  3   2   4  1   
  4   3   5  1   
  5   3   6  1   
  6   4   7  1   
  7   4  26  1   
  8   4  27  1   
  9   5   8  1   
 10   5   9  1   
 11   5  28  1   
 12   6  10  1   
 13   6  11  1   
 14   6  29  1   
 15   7   9  1   
 16   8  12  ar  
 17   8  13  ar  
 18   9  14  1   
 19   9  30  1   
 20  10  31  1   
 21  10  32  1   
 22  10  33  1   
 23  11  34  1   
 24  11  35  1   
 25  11  36  1   
 26  12  15  ar  
 27  12  37  1   
 28  13  16  ar  
 29  13  38  1   
 30  14  17  2   
 31  14  18  am  
 32  15  19  ar  
 33  15  39  1   
 34  16  19  ar  
 35  16  40  1   
 36  18  20  1   
 37  18  41  1   
 38  19  42  1   
 39  20  21  1   
 40  20  43  1   
 41  20  44  1   
 42  21  22  1   
 43  21  23  1   
 44  21  24  1   
 45  22  25  1   
 46  22  45  1   
 47  22  46  1   
 48  23  25  1   
 49  23  47  1   
 50  23  48  1   
 51  24  49  1   
 52  24  50  1   
 53  24  51  1   
@<TRIPOS>SUBSTRUCTURE
  1 ****   5 GROUP 4 **** **** 0

# MOE 2024.06 (io_trps.svl 2023.06)
