@<TRIPOS>MOLECULE
NONAME
65 68 1 0 0 
SMALL
USER_CHARGES


@<TRIPOS>ATOM
  1 F       -0.6520    -1.3070     1.3320 F     1 <1>  -0.3400 
  2 C       -0.6700    -0.8020     0.0920 C.3   1 <1>   0.3400 
  3 C        0.7830    -1.0260    -0.4710 C.3   1 <1>   0.2760 
  4 C       -1.1130     0.6850     0.3130 C.3   1 <1>   0.2000 
  5 C       -1.7400    -1.6490    -0.6770 C.3   1 <1>  -0.0800 
  6 C        1.0600    -2.5490    -0.4990 C.2   1 <1>  -0.2760 
  7 C        1.8380    -0.3260     0.4040 C.2   1 <1>  -0.2880 
  8 C        1.0250    -0.4990    -1.9010 C.3   1 <1>  -0.2400 
  9 O       -1.0030     1.4560    -0.8340 O.3   1 <1>  -0.6800 
 10 C       -2.5620     0.8380     0.8360 C.3   1 <1>  -0.1600 
 11 C       -3.1280    -1.4520    -0.0210 C.3   1 <1>  -0.0800 
 12 C       -1.3620    -3.1470    -0.7290 C.3   1 <1>  -0.1600 
 13 C        2.0980    -3.1140     0.1510 C.2   1 <1>  -0.1360 
 14 C        0.0470    -3.3710    -1.2870 C.3   1 <1>  -0.0220 
 15 C        2.8460    -0.9670     1.0240 C.2   1 <1>  -0.1360 
 16 C       -3.6170     0.0100     0.0450 C.3   1 <1>   0.0000 
 17 C       -4.3420    -2.2130    -0.5550 C.3   1 <1>  -0.1600 
 18 C        3.0520    -2.3840     0.9370 C.2   1 <1>   0.5410 
 19 C       -5.0250    -0.1790     0.7310 C.3   1 <1>   0.3410 
 20 C       -3.7680     0.6140    -1.3880 C.3   1 <1>  -0.2400 
 21 C       -5.5490    -1.5300     0.1320 C.3   1 <1>  -0.0800 
 22 O        3.9770    -2.9310     1.4910 O.2   1 <1>  -0.5700 
 23 O       -4.7930    -0.4500     2.0890 O.3   1 <1>  -0.6800 
 24 C       -6.0330     1.0060     0.6820 C.2   1 <1>   0.4480 
 25 C       -6.7490    -1.4490    -0.8290 C.3   1 <1>  -0.2400 
 26 O       -5.9710     1.9100    -0.1050 O.2   1 <1>  -0.5700 
 27 C       -7.1270     0.9810     1.7570 C.3   1 <1>   0.1810 
 28 O       -8.1120     1.9830     1.5460 O.3   1 <1>  -0.4300 
 29 C       -9.0630     1.8410     0.6350 C.2   1 <1>   0.6590 
 30 O       -9.2220     0.8090     0.0350 O.2   1 <1>  -0.5700 
 31 C       -9.9240     3.0730     0.4030 C.3   1 <1>  -0.0990 
 32 C      -11.0870     2.8640    -0.5830 C.3   1 <1>  -0.2400 
 33 H       -0.4430     1.1310     1.0270 H     1 <1>   0.0800 
 34 H       -1.7770    -1.3110    -1.6930 H     1 <1>   0.0800 
 35 H        1.7080     0.7400     0.4700 H     1 <1>   0.1500 
 36 H        1.9670    -0.8670    -2.2660 H     1 <1>   0.0800 
 37 H        1.0730     0.5730    -1.9160 H     1 <1>   0.0800 
 38 H        0.2560    -0.8100    -2.5810 H     1 <1>   0.0800 
 39 H       -1.8900     1.5740    -1.2280 H     1 <1>   0.4000 
 40 H       -2.5410     0.5110     1.8600 H     1 <1>   0.0800 
 41 H       -2.8400     1.8780     0.8610 H     1 <1>   0.0800 
 42 H       -3.0050    -1.8100     0.9870 H     1 <1>   0.0800 
 43 H       -1.4080    -3.5660     0.2620 H     1 <1>   0.0800 
 44 H       -2.0650    -3.6820    -1.3430 H     1 <1>   0.0800 
 45 H        2.2780    -4.1730     0.1310 H     1 <1>   0.1500 
 46 H        0.0780    -3.1050    -2.3280 H     1 <1>   0.0800 
 47 H        0.2890    -4.4180    -1.2190 H     1 <1>   0.0800 
 48 H        3.5700    -0.4510     1.6270 H     1 <1>   0.1500 
 49 H       -4.2970    -3.2600    -0.3100 H     1 <1>   0.0800 
 50 H       -4.3960    -2.1110    -1.6250 H     1 <1>   0.0800 
 51 H       -2.9460     0.4020    -2.0390 H     1 <1>   0.0800 
 52 H       -3.8640     1.6840    -1.3380 H     1 <1>   0.0800 
 53 H       -4.6440     0.2460    -1.8840 H     1 <1>   0.0800 
 54 H       -5.8670    -2.1660     0.9430 H     1 <1>   0.0800 
 55 H       -4.1160    -1.1490     2.1650 H     1 <1>   0.4000 
 56 H       -6.5900    -0.7400    -1.6190 H     1 <1>   0.0800 
 57 H       -7.6390    -1.1660    -0.2970 H     1 <1>   0.0800 
 58 H       -6.9350    -2.4120    -1.2710 H     1 <1>   0.0800 
 59 H       -6.6840     1.1720     2.7170 H     1 <1>   0.0800 
 60 H       -7.6100     0.0220     1.7860 H     1 <1>   0.0800 
 61 H      -10.3180     3.3880     1.3510 H     1 <1>   0.0800 
 62 H       -9.2850     3.8540     0.0340 H     1 <1>   0.0800 
 63 H      -11.7450     2.0920    -0.2250 H     1 <1>   0.0800 
 64 H      -10.7080     2.5710    -1.5470 H     1 <1>   0.0800 
 65 H      -11.6490     3.7750    -0.6960 H     1 <1>   0.0800 
@<TRIPOS>BOND
  1   1   2  1   
  2   2   3  1   
  3   2   4  1   
  4   2   5  1   
  5   3   6  1   
  6   3   7  1   
  7   3   8  1   
  8   4   9  1   
  9   4  10  1   
 10   4  33  1   
 11   5  11  1   
 12   5  12  1   
 13   5  34  1   
 14   6  13  2   
 15   6  14  1   
 16   7  15  2   
 17   7  35  1   
 18   8  36  1   
 19   8  37  1   
 20   8  38  1   
 21   9  39  1   
 22  10  16  1   
 23  10  40  1   
 24  10  41  1   
 25  11  16  1   
 26  11  17  1   
 27  11  42  1   
 28  12  14  1   
 29  12  43  1   
 30  12  44  1   
 31  13  18  1   
 32  13  45  1   
 33  14  46  1   
 34  14  47  1   
 35  15  18  1   
 36  15  48  1   
 37  16  19  1   
 38  16  20  1   
 39  17  21  1   
 40  17  49  1   
 41  17  50  1   
 42  18  22  2   
 43  19  21  1   
 44  19  23  1   
 45  19  24  1   
 46  20  51  1   
 47  20  52  1   
 48  20  53  1   
 49  21  25  1   
 50  21  54  1   
 51  23  55  1   
 52  24  26  2   
 53  24  27  1   
 54  25  56  1   
 55  25  57  1   
 56  25  58  1   
 57  27  28  1   
 58  27  59  1   
 59  27  60  1   
 60  28  29  1   
 61  29  30  2   
 62  29  31  1   
 63  31  32  1   
 64  31  61  1   
 65  31  62  1   
 66  32  63  1   
 67  32  64  1   
 68  32  65  1   
@<TRIPOS>SUBSTRUCTURE
  1 ****  16 GROUP 4 **** **** 0

# MOE 2024.06 (io_trps.svl 2023.06)
