@<TRIPOS>MOLECULE
NONAME
41 44 1 0 0 
SMALL
USER_CHARGES


@<TRIPOS>ATOM
  1 N       -0.1060    -0.1250    -0.0150 N.ar  1 <1>  -0.6200 
  2 C       -1.0640    -1.0120    -0.2100 C.ar  1 <1>   0.7710 
  3 C        1.1200    -0.5790     0.2120 C.ar  1 <1>   0.4100 
  4 N       -0.8700    -2.3500    -0.1970 N.ar  1 <1>  -0.1260 
  5 N       -2.2790    -0.5150    -0.4310 N.pl3 1 <1>  -0.9000 
  6 N        2.0920     0.3280     0.4150 N.pl3 1 <1>  -0.8690 
  7 C        1.4100    -1.9710     0.2430 C.ar  1 <1>   0.2270 
  8 C        0.3860    -2.8460     0.0330 C.ar  1 <1>   0.1560 
  9 C        2.0320     1.8020     0.3110 C.3   1 <1>   0.3900 
 10 N        2.5670    -2.6700     0.4500 N.2   1 <1>  -0.5650 
 11 N        0.8990    -4.0900     0.1080 N.pl3 1 <1>   0.0330 
 12 C        3.4480     2.3650     0.1800 C.2   1 <1>   0.1080 
 13 C        2.2230    -3.9070     0.3620 C.2   1 <1>   0.0370 
 14 N        4.5220     1.6590     0.4030 N.2   1 <1>  -0.7070 
 15 C        3.7580     3.6760    -0.1860 C.2   1 <1>  -0.1810 
 16 N        5.5410     2.5070     0.1820 N.pl3 1 <1>   0.3000 
 17 C        5.1050     3.7310    -0.1740 C.2   1 <1>  -0.3320 
 18 C        2.8080     4.8090    -0.5300 C.3   1 <1>   0.0210 
 19 C        6.0170     4.9000    -0.4900 C.3   1 <1>   0.0200 
 20 C        3.0730     6.0590     0.3200 C.3   1 <1>  -0.1600 
 21 C        5.6640     6.1340     0.3500 C.3   1 <1>  -0.1600 
 22 C        4.3520     6.8260    -0.0590 C.3   1 <1>  -0.1600 
 23 H       -1.6790    -2.9410    -0.3600 H     1 <1>   0.4570 
 24 H       -3.1610    -1.0000    -0.6040 H     1 <1>   0.4000 
 25 H       -2.3700     0.5070    -0.4280 H     1 <1>   0.4000 
 26 H        3.0770     0.0380     0.5430 H     1 <1>   0.4000 
 27 H        1.5710     2.2030     1.1960 H     1 <1>   0.0800 
 28 H        1.4490     2.0810    -0.5490 H     1 <1>   0.0800 
 29 H        0.4390    -5.0000     0.0040 H     1 <1>   0.2700 
 30 H        2.9050    -4.7360     0.4760 H     1 <1>   0.1500 
 31 H        6.5210     2.2190     0.2840 H     1 <1>   0.2700 
 32 H        1.7950     4.4920    -0.3620 H     1 <1>   0.0800 
 33 H        2.9050     5.0480    -1.5750 H     1 <1>   0.0800 
 34 H        5.9500     5.1350    -1.5380 H     1 <1>   0.0800 
 35 H        7.0360     4.6230    -0.2810 H     1 <1>   0.0800 
 36 H        3.1070     5.7830     1.3600 H     1 <1>   0.0800 
 37 H        2.2380     6.7260     0.1930 H     1 <1>   0.0800 
 38 H        6.4620     6.8470     0.2380 H     1 <1>   0.0800 
 39 H        5.6220     5.8590     1.3900 H     1 <1>   0.0800 
 40 H        4.3190     7.7790     0.4410 H     1 <1>   0.0800 
 41 H        4.3580     7.0270    -1.1170 H     1 <1>   0.0800 
@<TRIPOS>BOND
  1   1   2  ar  
  2   1   3  ar  
  3   2   4  ar  
  4   2   5  1   
  5   3   6  1   
  6   3   7  ar  
  7   4   8  ar  
  8   4  23  1   
  9   5  24  1   
 10   5  25  1   
 11   6   9  1   
 12   6  26  1   
 13   7   8  ar  
 14   7  10  1   
 15   8  11  1   
 16   9  12  1   
 17   9  27  1   
 18   9  28  1   
 19  10  13  2   
 20  11  13  1   
 21  11  29  1   
 22  12  14  2   
 23  12  15  1   
 24  13  30  1   
 25  14  16  1   
 26  15  17  2   
 27  15  18  1   
 28  16  17  1   
 29  16  31  1   
 30  17  19  1   
 31  18  20  1   
 32  18  32  1   
 33  18  33  1   
 34  19  21  1   
 35  19  34  1   
 36  19  35  1   
 37  20  22  1   
 38  20  36  1   
 39  20  37  1   
 40  21  22  1   
 41  21  38  1   
 42  21  39  1   
 43  22  40  1   
 44  22  41  1   
@<TRIPOS>SUBSTRUCTURE
  1 ****   9 GROUP 4 **** **** 0

# MOE 2024.06 (io_trps.svl 2023.06)
