@<TRIPOS>MOLECULE
NONAME
40 41 1 0 0 
SMALL
USER_CHARGES


@<TRIPOS>ATOM
  1 S       -0.0410    -0.0840     1.0900 S.3   1 <1>  -0.0800 
  2 C       -1.2100    -0.8490     0.0610 C.2   1 <1>   0.4420 
  3 C       -0.4160     1.4010     0.2870 C.2   1 <1>   0.1980 
  4 N       -1.7560    -0.0140    -0.7480 N.2   1 <1>  -0.3380 
  5 N       -1.3950    -2.2050     0.2360 N.am  1 <1>  -0.4940 
  6 N       -1.2990     1.2660    -0.6140 N.2   1 <1>  -0.3380 
  7 C        0.3050     2.6620     0.7070 C.3   1 <1>   0.0200 
  8 C       -2.2400    -3.0520    -0.4250 C.2   1 <1>   0.5690 
  9 C       -0.2240     3.8350    -0.1280 C.3   1 <1>   0.3430 
 10 O       -2.9800    -2.6930    -1.3040 O.2   1 <1>  -0.5700 
 11 C       -2.2320    -4.5250    -0.0140 C.3   1 <1>  -0.0190 
 12 N        0.3820     5.1540     0.2560 N.4   1 <1>  -0.9590 
 13 C       -1.8120    -5.4420    -1.1760 C.3   1 <1>  -0.1600 
 14 C       -3.6020    -4.9810     0.5150 C.3   1 <1>  -0.1600 
 15 C       -0.3780     6.2620    -0.4030 C.3   1 <1>   0.2630 
 16 C        1.8340     5.2460    -0.1070 C.3   1 <1>   0.2630 
 17 C       -1.9120    -6.9170    -0.7710 C.3   1 <1>   0.1200 
 18 C       -3.5970    -6.4830     0.8210 C.3   1 <1>   0.1200 
 19 O       -3.2010    -7.1880    -0.3150 O.3   1 <1>  -0.5600 
 20 H       -0.8220    -2.6260     0.9590 H     1 <1>   0.3700 
 21 H        1.3580     2.5230     0.5450 H     1 <1>   0.0800 
 22 H        0.1180     2.8350     1.7510 H     1 <1>   0.0800 
 23 H       -1.2940     3.8820     0.0040 H     1 <1>   0.0800 
 24 H       -0.0400     3.6360    -1.1720 H     1 <1>   0.0800 
 25 H       -1.5170    -4.6570     0.7780 H     1 <1>   0.0800 
 26 H        0.2860     5.2750     1.2770 H     1 <1>   0.4500 
 27 H       -0.8050    -5.2180    -1.4800 H     1 <1>   0.0800 
 28 H       -2.4550    -5.2750    -2.0250 H     1 <1>   0.0800 
 29 H       -4.3630    -4.7840    -0.2220 H     1 <1>   0.0800 
 30 H       -3.8580    -4.4320     1.4030 H     1 <1>   0.0800 
 31 H       -0.3120     6.1770    -1.4760 H     1 <1>   0.0800 
 32 H        0.0230     7.2190    -0.1090 H     1 <1>   0.0800 
 33 H       -1.4170     6.2250    -0.1190 H     1 <1>   0.0800 
 34 H        1.9650     5.1090    -1.1680 H     1 <1>   0.0800 
 35 H        2.4030     4.4920     0.4120 H     1 <1>   0.0800 
 36 H        2.2260     6.2130     0.1650 H     1 <1>   0.0800 
 37 H       -1.2130    -7.1600     0.0110 H     1 <1>   0.0800 
 38 H       -1.7250    -7.5530    -1.6190 H     1 <1>   0.0800 
 39 H       -4.5860    -6.8170     1.0840 H     1 <1>   0.0800 
 40 H       -2.9220    -6.7200     1.6250 H     1 <1>   0.0800 
@<TRIPOS>BOND
  1   1   2  1   
  2   1   3  1   
  3   2   4  2   
  4   2   5  1   
  5   3   6  2   
  6   3   7  1   
  7   4   6  1   
  8   5   8  am  
  9   5  20  1   
 10   7   9  1   
 11   7  21  1   
 12   7  22  1   
 13   8  10  2   
 14   8  11  1   
 15   9  12  1   
 16   9  23  1   
 17   9  24  1   
 18  11  13  1   
 19  11  14  1   
 20  11  25  1   
 21  12  15  1   
 22  12  16  1   
 23  12  26  1   
 24  13  17  1   
 25  13  27  1   
 26  13  28  1   
 27  14  18  1   
 28  14  29  1   
 29  14  30  1   
 30  15  31  1   
 31  15  32  1   
 32  15  33  1   
 33  16  34  1   
 34  16  35  1   
 35  16  36  1   
 36  17  19  1   
 37  17  37  1   
 38  17  38  1   
 39  18  19  1   
 40  18  39  1   
 41  18  40  1   
@<TRIPOS>SUBSTRUCTURE
  1 ****   2 GROUP 4 **** **** 0

# MOE 2024.06 (io_trps.svl 2023.06)
