@<TRIPOS>MOLECULE
NONAME
52 53 1 0 0 
SMALL
USER_CHARGES


@<TRIPOS>ATOM
  1 O       -1.7540     1.9810    -2.1170 O.2   1 <1>  -0.5700 
  2 C       -2.2140     1.8020    -1.0050 C.2   1 <1>   0.5440 
  3 N       -2.7560     0.5680    -0.7080 N.am  1 <1>  -0.6600 
  4 C       -2.2090     2.8920    -0.0620 C.ar  1 <1>   0.0860 
  5 C       -2.7150    -0.4880    -1.7800 C.3   1 <1>   0.3210 
  6 C       -3.0520     0.1230     0.6970 C.3   1 <1>   0.1400 
  7 C       -3.2070     3.8700    -0.0970 C.ar  1 <1>   0.0820 
  8 C       -1.2190     3.0170     0.9170 C.ar  1 <1>   0.0820 
  9 C       -3.5070    -1.7590    -1.4630 C.2   1 <1>   0.0460 
 10 C       -4.5650     0.0190     0.9670 C.3   1 <1>   0.3430 
 11 O       -4.2200     3.7710    -0.9800 O.3   1 <1>  -0.3630 
 12 C       -3.2130     4.9280     0.7990 C.ar  1 <1>  -0.1500 
 13 O       -0.2490     2.0910     1.0300 O.3   1 <1>  -0.3630 
 14 C       -1.2290     4.0690     1.8190 C.ar  1 <1>  -0.1500 
 15 N       -4.8530    -1.7980    -1.5750 N.2   1 <1>  -0.5650 
 16 C       -3.0250    -2.9660    -1.0780 C.2   1 <1>  -0.3320 
 17 N       -5.2990     1.1790     0.3740 N.4   1 <1>  -0.9590 
 18 C       -4.0440     4.4430    -2.2110 C.3   1 <1>   0.0400 
 19 C       -2.2220     5.0290     1.7580 C.ar  1 <1>  -0.1500 
 20 C        0.8760     2.2450     0.1910 C.3   1 <1>   0.0400 
 21 C       -5.1550    -3.0230    -1.2850 C.2   1 <1>   0.0360 
 22 N       -4.0880    -3.7840    -0.9710 N.pl3 1 <1>   0.0330 
 23 C       -1.6040    -3.4400    -0.8160 C.3   1 <1>  -0.0600 
 24 C       -5.5750     2.2560     1.3660 C.3   1 <1>   0.2630 
 25 C       -6.5340     0.7330    -0.3320 C.3   1 <1>   0.2630 
 26 H       -1.6880    -0.7480    -1.9600 H     1 <1>   0.0800 
 27 H       -3.1020    -0.0750    -2.6960 H     1 <1>   0.0800 
 28 H       -2.6240     0.8080     1.4050 H     1 <1>   0.0800 
 29 H       -2.5920    -0.8330     0.8780 H     1 <1>   0.0800 
 30 H       -4.7460    -0.0400     2.0270 H     1 <1>   0.0800 
 31 H       -4.9230    -0.8960     0.5310 H     1 <1>   0.0800 
 32 H       -3.9910     5.6700     0.7450 H     1 <1>   0.1500 
 33 H       -0.4550     4.1330     2.5650 H     1 <1>   0.1500 
 34 H       -4.6620     1.5520    -0.3590 H     1 <1>   0.4500 
 35 H       -4.9120     4.2700    -2.8210 H     1 <1>   0.0800 
 36 H       -3.1690     4.0560    -2.7040 H     1 <1>   0.0800 
 37 H       -3.9280     5.4960    -2.0230 H     1 <1>   0.0800 
 38 H       -2.2220     5.8520     2.4550 H     1 <1>   0.1500 
 39 H        1.5730     1.4560     0.4110 H     1 <1>   0.0800 
 40 H        1.3290     3.2010     0.3860 H     1 <1>   0.0800 
 41 H        0.5650     2.1830    -0.8370 H     1 <1>   0.0800 
 42 H       -6.1550    -3.4230    -1.2940 H     1 <1>   0.1500 
 43 H       -4.0900    -4.7800    -0.7270 H     1 <1>   0.2700 
 44 H       -0.9030    -2.6300    -0.9140 H     1 <1>   0.0800 
 45 H       -1.3340    -4.2080    -1.5190 H     1 <1>   0.0800 
 46 H       -1.5210    -3.8380     0.1800 H     1 <1>   0.0800 
 47 H       -6.2500     1.9030     2.1280 H     1 <1>   0.0800 
 48 H       -6.0190     3.1060     0.8720 H     1 <1>   0.0800 
 49 H       -4.6580     2.5760     1.8320 H     1 <1>   0.0800 
 50 H       -7.2150     0.2640     0.3590 H     1 <1>   0.0800 
 51 H       -6.2850     0.0250    -1.1050 H     1 <1>   0.0800 
 52 H       -7.0250     1.5750    -0.7910 H     1 <1>   0.0800 
@<TRIPOS>BOND
  1   1   2  2   
  2   2   3  am  
  3   2   4  1   
  4   3   5  1   
  5   3   6  1   
  6   4   7  ar  
  7   4   8  ar  
  8   5   9  1   
  9   5  26  1   
 10   5  27  1   
 11   6  10  1   
 12   6  28  1   
 13   6  29  1   
 14   7  11  1   
 15   7  12  ar  
 16   8  13  1   
 17   8  14  ar  
 18   9  15  1   
 19   9  16  2   
 20  10  17  1   
 21  10  30  1   
 22  10  31  1   
 23  11  18  1   
 24  12  19  ar  
 25  12  32  1   
 26  13  20  1   
 27  14  19  ar  
 28  14  33  1   
 29  15  21  2   
 30  16  22  1   
 31  16  23  1   
 32  17  24  1   
 33  17  25  1   
 34  17  34  1   
 35  18  35  1   
 36  18  36  1   
 37  18  37  1   
 38  19  38  1   
 39  20  39  1   
 40  20  40  1   
 41  20  41  1   
 42  21  22  1   
 43  21  42  1   
 44  22  43  1   
 45  23  44  1   
 46  23  45  1   
 47  23  46  1   
 48  24  47  1   
 49  24  48  1   
 50  24  49  1   
 51  25  50  1   
 52  25  51  1   
 53  25  52  1   
@<TRIPOS>SUBSTRUCTURE
  1 ****   3 GROUP 4 **** **** 0

# MOE 2024.06 (io_trps.svl 2023.06)
