@<TRIPOS>MOLECULE
NONAME
58 61 1 0 0 
SMALL
USER_CHARGES


@<TRIPOS>ATOM
  1 O        1.2590     3.1450    -2.4690 O.co2 1 <1>  -0.9000 
  2 C        0.3430     2.8780    -1.6840 C.2   1 <1>   0.9060 
  3 O       -0.8390     3.0380    -1.9980 O.co2 1 <1>  -0.9000 
  4 C        0.7110     2.5200    -0.2520 C.3   1 <1>  -0.1060 
  5 C       -0.5480     2.5540     0.6640 C.3   1 <1>   0.2000 
  6 C        1.6670     3.6260     0.2000 C.3   1 <1>   0.3430 
  7 C        1.4180     1.1320    -0.2950 C.3   1 <1>  -0.0650 
  8 O       -0.3360     1.8180     1.8170 O.3   1 <1>  -0.6800 
  9 C       -0.9570     3.9570     1.1470 C.3   1 <1>  -0.1600 
 10 N        1.0600     5.0060     0.1640 N.4   1 <1>  -0.9590 
 11 C        2.4180     0.8520     0.8430 C.3   1 <1>  -0.1950 
 12 C       -0.4320     5.0550     0.2340 C.3   1 <1>   0.3430 
 13 C        1.5150     5.7090    -1.0640 C.3   1 <1>   0.4860 
 14 C        3.8580     1.2320     0.7030 C.3   1 <1>  -0.2000 
 15 C        3.4520    -0.2130     0.6690 C.3   1 <1>  -0.2000 
 16 C        1.1620     7.1860    -0.9640 C.ar  1 <1>  -0.1440 
 17 C        1.5300     7.9640     0.1320 C.ar  1 <1>   0.0820 
 18 C        0.4530     7.7730    -2.0000 C.ar  1 <1>  -0.1500 
 19 O        2.2050     7.4220     1.1700 O.3   1 <1>  -0.3620 
 20 C        1.1830     9.3060     0.1860 C.ar  1 <1>  -0.1500 
 21 C        0.1140     9.1150    -1.9480 C.ar  1 <1>  -0.1500 
 22 C        3.5870     7.7120     1.2470 C.3   1 <1>   0.2640 
 23 C        0.4780     9.8820    -0.8550 C.ar  1 <1>  -0.1500 
 24 C        4.3310     6.6670     0.4330 C.ar  1 <1>  -0.1440 
 25 C        4.6990     5.4620     1.0130 C.ar  1 <1>  -0.1500 
 26 C        4.6310     6.9030    -0.9000 C.ar  1 <1>  -0.1500 
 27 C        5.3530     4.5000     0.2650 C.ar  1 <1>  -0.1500 
 28 C        5.2760     5.9360    -1.6510 C.ar  1 <1>  -0.1500 
 29 C        5.6350     4.7330    -1.0690 C.ar  1 <1>  -0.1500 
 30 H       -1.3780     2.0930     0.1510 H     1 <1>   0.0800 
 31 H        2.5500     3.6000    -0.4190 H     1 <1>   0.0800 
 32 H        1.9680     3.4060     1.2100 H     1 <1>   0.0800 
 33 H        0.6740     0.3560    -0.3210 H     1 <1>   0.0800 
 34 H        1.9630     1.0480    -1.2220 H     1 <1>   0.0800 
 35 H       -0.1790     0.8830     1.5830 H     1 <1>   0.4000 
 36 H       -2.0300     4.0110     1.1670 H     1 <1>   0.0800 
 37 H       -0.5950     4.1450     2.1430 H     1 <1>   0.0800 
 38 H        1.4500     5.5700     0.9320 H     1 <1>   0.4500 
 39 H        1.9900     0.9260     1.8270 H     1 <1>   0.1000 
 40 H       -0.7500     6.0210     0.5900 H     1 <1>   0.0800 
 41 H       -0.8480     4.9140    -0.7520 H     1 <1>   0.0800 
 42 H        2.5780     5.5920    -1.1810 H     1 <1>   0.0800 
 43 H        1.0390     5.2840    -1.9320 H     1 <1>   0.0800 
 44 H        4.2010     1.6800    -0.2150 H     1 <1>   0.1000 
 45 H        4.3890     1.5910     1.5670 H     1 <1>   0.1000 
 46 H        3.6960    -0.8400     1.5090 H     1 <1>   0.1000 
 47 H        3.5120    -0.7400    -0.2690 H     1 <1>   0.1000 
 48 H        0.1590     7.1880    -2.8570 H     1 <1>   0.1500 
 49 H        1.4570     9.8970     1.0420 H     1 <1>   0.1500 
 50 H       -0.4360     9.5610    -2.7590 H     1 <1>   0.1500 
 51 H        3.7690     8.7060     0.8760 H     1 <1>   0.0800 
 52 H        3.8770     7.6650     2.2820 H     1 <1>   0.0800 
 53 H        0.2110    10.9240    -0.8160 H     1 <1>   0.1500 
 54 H        4.4810     5.2680     2.0500 H     1 <1>   0.1500 
 55 H        4.3560     7.8350    -1.3640 H     1 <1>   0.1500 
 56 H        5.6490     3.5710     0.7190 H     1 <1>   0.1500 
 57 H        5.5000     6.1170    -2.6890 H     1 <1>   0.1500 
 58 H        6.1370     3.9820    -1.6550 H     1 <1>   0.1500 
@<TRIPOS>BOND
  1   1   2  ar  
  2   2   3  ar  
  3   2   4  1   
  4   4   5  1   
  5   4   6  1   
  6   4   7  1   
  7   5   8  1   
  8   5   9  1   
  9   5  30  1   
 10   6  10  1   
 11   6  31  1   
 12   6  32  1   
 13   7  11  1   
 14   7  33  1   
 15   7  34  1   
 16   8  35  1   
 17   9  12  1   
 18   9  36  1   
 19   9  37  1   
 20  10  12  1   
 21  10  13  1   
 22  10  38  1   
 23  11  14  1   
 24  11  15  1   
 25  11  39  1   
 26  12  40  1   
 27  12  41  1   
 28  13  16  1   
 29  13  42  1   
 30  13  43  1   
 31  14  15  1   
 32  14  44  1   
 33  14  45  1   
 34  15  46  1   
 35  15  47  1   
 36  16  17  ar  
 37  16  18  ar  
 38  17  19  1   
 39  17  20  ar  
 40  18  21  ar  
 41  18  48  1   
 42  19  22  1   
 43  20  23  ar  
 44  20  49  1   
 45  21  23  ar  
 46  21  50  1   
 47  22  24  1   
 48  22  51  1   
 49  22  52  1   
 50  23  53  1   
 51  24  25  ar  
 52  24  26  ar  
 53  25  27  ar  
 54  25  54  1   
 55  26  28  ar  
 56  26  55  1   
 57  27  29  ar  
 58  27  56  1   
 59  28  29  ar  
 60  28  57  1   
 61  29  58  1   
@<TRIPOS>SUBSTRUCTURE
  1 ****  10 GROUP 4 **** **** 0

# MOE 2024.06 (io_trps.svl 2023.06)
