@<TRIPOS>MOLECULE
NONAME
34 35 1 0 0 
SMALL
USER_CHARGES


@<TRIPOS>ATOM
  1 O        1.5150    -1.2240     1.6960 O.3   1 <1>  -0.0190 
  2 N        1.7390     0.0180     2.0000 N.2   1 <1>  -0.4100 
  3 C        1.5350    -1.2390     0.3870 C.2   1 <1>   0.2980 
  4 C        1.8800     0.6550     0.9040 C.2   1 <1>   0.3350 
  5 N        1.7460    -0.1130    -0.1720 N.2   1 <1>  -0.5650 
  6 C        1.3270    -2.5660    -0.3360 C.3   1 <1>   0.2900 
  7 C        2.1490     2.1540     0.8010 C.3   1 <1>   0.3010 
  8 N       -0.0150    -3.1640    -0.1240 N.3   1 <1>  -0.8100 
  9 O        3.4820     2.4080     0.4460 O.3   1 <1>  -0.5600 
 10 C       -0.0750    -4.5190    -0.7060 C.3   1 <1>   0.2900 
 11 C       -1.0790    -2.2900    -0.6540 C.3   1 <1>   0.0300 
 12 C        3.7910     3.7580     0.3190 C.3   1 <1>   0.0400 
 13 C       -1.3860    -5.2170    -0.3920 C.2   1 <1>  -0.0400 
 14 O       -2.3540    -5.2160    -1.2690 O.3   1 <1>  -0.0190 
 15 C       -1.8040    -5.9030     0.6830 C.2   1 <1>  -0.1500 
 16 N       -3.3980    -5.8650    -0.8400 N.2   1 <1>  -0.4100 
 17 C       -3.0960    -6.2880     0.3350 C.2   1 <1>   0.1080 
 18 C       -4.0260    -7.0940     1.2150 C.3   1 <1>  -0.0590 
 19 H        2.0780    -3.2480     0.0190 H     1 <1>   0.0800 
 20 H        1.4890    -2.4110    -1.3890 H     1 <1>   0.0800 
 21 H        1.9570     2.6180     1.7520 H     1 <1>   0.0800 
 22 H        1.5060     2.5790     0.0520 H     1 <1>   0.0800 
 23 H        0.7220    -5.1110    -0.2910 H     1 <1>   0.0800 
 24 H        0.0590    -4.4740    -1.7740 H     1 <1>   0.0800 
 25 H       -1.0210    -1.3130    -0.2050 H     1 <1>   0.0800 
 26 H       -2.0480    -2.6960    -0.4180 H     1 <1>   0.0800 
 27 H       -0.9930    -2.1890    -1.7220 H     1 <1>   0.0800 
 28 H        4.8300     3.8370     0.0480 H     1 <1>   0.0800 
 29 H        3.6240     4.2520     1.2600 H     1 <1>   0.0800 
 30 H        3.1820     4.1920    -0.4550 H     1 <1>   0.0800 
 31 H       -1.2930    -6.1150     1.6030 H     1 <1>   0.1500 
 32 H       -4.1660    -6.5910     2.1540 H     1 <1>   0.0800 
 33 H       -3.6080    -8.0680     1.3910 H     1 <1>   0.0800 
 34 H       -4.9810    -7.2060     0.7340 H     1 <1>   0.0800 
@<TRIPOS>BOND
  1   1   2  1   
  2   1   3  1   
  3   2   4  2   
  4   3   5  2   
  5   3   6  1   
  6   4   5  1   
  7   4   7  1   
  8   6   8  1   
  9   6  19  1   
 10   6  20  1   
 11   7   9  1   
 12   7  21  1   
 13   7  22  1   
 14   8  10  1   
 15   8  11  1   
 16   9  12  1   
 17  10  13  1   
 18  10  23  1   
 19  10  24  1   
 20  11  25  1   
 21  11  26  1   
 22  11  27  1   
 23  12  28  1   
 24  12  29  1   
 25  12  30  1   
 26  13  14  1   
 27  13  15  2   
 28  14  16  1   
 29  15  17  1   
 30  15  31  1   
 31  16  17  2   
 32  17  18  1   
 33  18  32  1   
 34  18  33  1   
 35  18  34  1   
@<TRIPOS>SUBSTRUCTURE
  1 ****   8 GROUP 4 **** **** 0

# MOE 2024.06 (io_trps.svl 2023.06)
