@<TRIPOS>MOLECULE
NONAME
46 48 1 0 0 
SMALL
USER_CHARGES


@<TRIPOS>ATOM
  1 S        1.6530     0.3810    -0.7290 S.3   1 <1>  -0.3320 
  2 C        1.3080    -1.3330    -0.3570 C.ar  1 <1>   0.4120 
  3 C        0.4320     1.3030     0.3030 C.3   1 <1>   0.2140 
  4 N        0.3390    -1.5620     0.5150 N.ar  1 <1>  -0.6200 
  5 C        2.0700    -2.2950    -0.9970 C.ar  1 <1>  -0.1500 
  6 C        0.6330     2.7930     0.0730 C.ar  1 <1>  -0.1440 
  7 C        0.1200    -2.8450     0.7600 C.ar  1 <1>   0.1600 
  8 C        1.8250    -3.6230    -0.7260 C.ar  1 <1>  -0.1500 
  9 C        1.7330     3.4410     0.6090 C.ar  1 <1>  -0.1500 
 10 C       -0.2780     3.5190    -0.6750 C.ar  1 <1>  -0.1500 
 11 C        0.8190    -3.8930     0.1800 C.ar  1 <1>  -0.1500 
 12 C        1.9150     4.7970     0.4050 C.ar  1 <1>  -0.1500 
 13 C       -0.0930     4.8750    -0.8740 C.ar  1 <1>  -0.1500 
 14 C        1.0020     5.5520    -0.3350 C.ar  1 <1>   0.0860 
 15 C        1.1700     6.9800    -0.5440 C.2   1 <1>   0.5440 
 16 O        0.6890     7.5330    -1.5130 O.2   1 <1>  -0.5700 
 17 N        1.8680     7.7430     0.3500 N.am  1 <1>  -0.7300 
 18 C        2.0310     9.2090     0.2520 C.3   1 <1>   0.2200 
 19 C        3.0450     9.5620    -0.8520 C.3   1 <1>   0.1400 
 20 C        2.4810     9.7390     1.6130 C.3   1 <1>  -0.1600 
 21 N        3.5820    10.9550    -0.7490 N.am  1 <1>  -0.6600 
 22 C        2.6250    11.2660     1.5490 C.3   1 <1>  -0.0990 
 23 C        3.4460    11.7470     0.3640 C.2   1 <1>   0.5690 
 24 C        4.3500    11.4080    -1.9410 C.3   1 <1>   0.0600 
 25 O        3.9510    12.8400     0.4490 O.2   1 <1>  -0.5700 
 26 H        0.6110     1.0340     1.3290 H     1 <1>   0.0800 
 27 H       -0.5490     0.9770     0.0040 H     1 <1>   0.0800 
 28 H        2.8350    -1.9970    -1.6900 H     1 <1>   0.1500 
 29 H       -0.6610    -3.0770     1.4650 H     1 <1>   0.1500 
 30 H        2.3890    -4.4100    -1.1980 H     1 <1>   0.1500 
 31 H        2.4560     2.8840     1.1810 H     1 <1>   0.1500 
 32 H       -1.1340     3.0320    -1.1090 H     1 <1>   0.1500 
 33 H        0.5750    -4.9090     0.4360 H     1 <1>   0.1500 
 34 H        2.7860     5.2690     0.8200 H     1 <1>   0.1500 
 35 H       -0.8070     5.4270    -1.4610 H     1 <1>   0.1500 
 36 H        2.1900     7.3210     1.2200 H     1 <1>   0.3700 
 37 H        1.0790     9.6450    -0.0060 H     1 <1>   0.0800 
 38 H        2.5660     9.4370    -1.8070 H     1 <1>   0.0800 
 39 H        3.8750     8.8800    -0.7960 H     1 <1>   0.0800 
 40 H        3.4340     9.3090     1.8710 H     1 <1>   0.0800 
 41 H        1.7600     9.4810     2.3700 H     1 <1>   0.0800 
 42 H        3.0840    11.6230     2.4530 H     1 <1>   0.0800 
 43 H        1.6530    11.7180     1.4740 H     1 <1>   0.0800 
 44 H        5.1960    10.7610    -2.0960 H     1 <1>   0.0800 
 45 H        4.7070    12.4150    -1.8080 H     1 <1>   0.0800 
 46 H        3.7180    11.3820    -2.8120 H     1 <1>   0.0800 
@<TRIPOS>BOND
  1   1   2  1   
  2   1   3  1   
  3   2   4  ar  
  4   2   5  ar  
  5   3   6  1   
  6   3  26  1   
  7   3  27  1   
  8   4   7  ar  
  9   5   8  ar  
 10   5  28  1   
 11   6   9  ar  
 12   6  10  ar  
 13   7  11  ar  
 14   7  29  1   
 15   8  11  ar  
 16   8  30  1   
 17   9  12  ar  
 18   9  31  1   
 19  10  13  ar  
 20  10  32  1   
 21  11  33  1   
 22  12  14  ar  
 23  12  34  1   
 24  13  14  ar  
 25  13  35  1   
 26  14  15  1   
 27  15  16  2   
 28  15  17  am  
 29  17  18  1   
 30  17  36  1   
 31  18  19  1   
 32  18  20  1   
 33  18  37  1   
 34  19  21  1   
 35  19  38  1   
 36  19  39  1   
 37  20  22  1   
 38  20  40  1   
 39  20  41  1   
 40  21  23  am  
 41  21  24  1   
 42  22  23  1   
 43  22  42  1   
 44  22  43  1   
 45  23  25  2   
 46  24  44  1   
 47  24  45  1   
 48  24  46  1   
@<TRIPOS>SUBSTRUCTURE
  1 ****  12 GROUP 4 **** **** 0

# MOE 2024.06 (io_trps.svl 2023.06)
