@<TRIPOS>MOLECULE
NONAME
46 49 1 0 0 
SMALL
USER_CHARGES


@<TRIPOS>ATOM
  1 CL      -0.1730    -0.4440     1.5490 Cl    1 <1>  -0.1770 
  2 C       -0.9840    -1.8580     0.9290 C.ar  1 <1>   0.1770 
  3 C       -1.9150    -2.5100     1.7130 C.ar  1 <1>  -0.1500 
  4 C       -0.6840    -2.3120    -0.3410 C.ar  1 <1>  -0.1500 
  5 C       -2.5530    -3.6320     1.2150 C.ar  1 <1>  -0.1500 
  6 C       -1.3300    -3.4340    -0.8280 C.ar  1 <1>  -0.1500 
  7 C       -2.2800    -4.1210    -0.0660 C.ar  1 <1>   0.0530 
  8 C       -2.9410    -5.2910    -0.5940 C.2   1 <1>   0.0870 
  9 O       -2.3910    -5.9820    -1.5650 O.3   1 <1>  -0.0190 
 10 C       -4.1130    -5.9070    -0.2980 C.2   1 <1>  -0.2330 
 11 N       -3.1110    -7.0130    -1.9280 N.2   1 <1>  -0.4100 
 12 C       -4.1520    -6.9910    -1.1730 C.2   1 <1>   0.3720 
 13 C       -5.1190    -5.5760     0.6510 C.2   1 <1>   1.0330 
 14 N       -5.1540    -7.9580    -1.2700 N.pl3 1 <1>  -0.8210 
 15 O       -6.1080    -4.9030     0.3200 O.co2 1 <1>  -0.9000 
 16 O       -5.0200    -5.9700     1.8260 O.co2 1 <1>  -0.9000 
 17 C       -6.4210    -7.4500    -1.8660 C.3   1 <1>   0.2090 
 18 C       -5.4540    -8.6780     0.0000 C.3   1 <1>   0.2090 
 19 C       -7.3550    -8.6250    -2.2070 C.3   1 <1>   0.1400 
 20 C       -6.3480    -9.8960    -0.2810 C.3   1 <1>   0.1400 
 21 N       -7.6020    -9.5170    -1.0210 N.am  1 <1>  -0.6600 
 22 C       -8.8760    -9.8970    -0.6740 C.2   1 <1>   0.5770 
 23 O       -9.8300    -9.5820    -1.3490 O.2   1 <1>  -0.5700 
 24 C       -9.1190   -10.7390     0.5800 C.3   1 <1>   0.0530 
 25 C       -8.7140   -12.2320     0.4410 C.3   1 <1>   0.0000 
 26 C      -10.5710   -11.2480     0.8210 C.3   1 <1>   0.0000 
 27 C       -9.9370   -12.5660     1.3340 C.3   1 <1>   0.0000 
 28 H       -2.1400    -2.1460     2.6990 H     1 <1>   0.1500 
 29 H        0.0440    -1.7910    -0.9360 H     1 <1>   0.1500 
 30 H       -3.2730    -4.1370     1.8370 H     1 <1>   0.1500 
 31 H       -1.1000    -3.7870    -1.8180 H     1 <1>   0.1500 
 32 H       -6.1980    -6.8930    -2.7590 H     1 <1>   0.0800 
 33 H       -6.9180    -6.7870    -1.1770 H     1 <1>   0.0800 
 34 H       -5.9650    -8.0280     0.6900 H     1 <1>   0.0800 
 35 H       -4.5330    -8.9940     0.4590 H     1 <1>   0.0800 
 36 H       -6.9050    -9.2060    -2.9920 H     1 <1>   0.0800 
 37 H       -8.2820    -8.2270    -2.5800 H     1 <1>   0.0800 
 38 H       -6.5770   -10.3660     0.6560 H     1 <1>   0.0800 
 39 H       -5.7910   -10.5960    -0.8780 H     1 <1>   0.0800 
 40 H       -8.7140   -10.2900     1.4710 H     1 <1>   0.0000 
 41 H       -7.7690   -12.4750     0.8920 H     1 <1>   0.0000 
 42 H       -8.8220   -12.6070    -0.5630 H     1 <1>   0.0000 
 43 H      -11.1400   -11.4020    -0.0800 H     1 <1>   0.0000 
 44 H      -11.1050   -10.7000     1.5770 H     1 <1>   0.0000 
 45 H       -9.7050   -12.5340     2.3850 H     1 <1>   0.0000 
 46 H      -10.4680   -13.4510     1.0340 H     1 <1>   0.0000 
@<TRIPOS>BOND
  1   1   2  1   
  2   2   3  ar  
  3   2   4  ar  
  4   3   5  ar  
  5   3  28  1   
  6   4   6  ar  
  7   4  29  1   
  8   5   7  ar  
  9   5  30  1   
 10   6   7  ar  
 11   6  31  1   
 12   7   8  1   
 13   8   9  1   
 14   8  10  2   
 15   9  11  1   
 16  10  12  1   
 17  10  13  1   
 18  11  12  2   
 19  12  14  1   
 20  13  15  ar  
 21  13  16  ar  
 22  14  17  1   
 23  14  18  1   
 24  17  19  1   
 25  17  32  1   
 26  17  33  1   
 27  18  20  1   
 28  18  34  1   
 29  18  35  1   
 30  19  21  1   
 31  19  36  1   
 32  19  37  1   
 33  20  21  1   
 34  20  38  1   
 35  20  39  1   
 36  21  22  am  
 37  22  23  2   
 38  22  24  1   
 39  24  25  1   
 40  24  26  1   
 41  24  40  1   
 42  25  27  1   
 43  25  41  1   
 44  25  42  1   
 45  26  27  1   
 46  26  43  1   
 47  26  44  1   
 48  27  45  1   
 49  27  46  1   
@<TRIPOS>SUBSTRUCTURE
  1 ****  10 GROUP 4 **** **** 0

# MOE 2024.06 (io_trps.svl 2023.06)
