@<TRIPOS>MOLECULE
NONAME
50 52 1 0 0 
SMALL
USER_CHARGES


@<TRIPOS>ATOM
  1 O       -1.3360    -0.5970    -2.4970 O.2   1 <1>  -0.5700 
  2 C       -1.8980    -0.9710    -1.4950 C.2   1 <1>   0.5690 
  3 N       -1.8930    -0.2390    -0.3440 N.am  1 <1>  -0.6600 
  4 C       -2.6180    -2.2990    -1.5480 C.3   1 <1>  -0.0190 
  5 C       -2.6690    -0.6600     0.8580 C.3   1 <1>   0.2200 
  6 C       -1.1660     1.0580    -0.2360 C.3   1 <1>   0.0600 
  7 C       -1.9920    -3.2960    -0.5550 C.3   1 <1>   0.1200 
  8 C       -4.1480    -2.1060    -1.5040 C.3   1 <1>   0.1400 
  9 C       -2.1210    -1.9830     1.4550 C.3   1 <1>   0.1200 
 10 C       -4.1880    -0.6280     0.5680 C.3   1 <1>   0.1400 
 11 O       -2.4510    -3.1540     0.7530 O.3   1 <1>  -0.5600 
 12 N       -4.7200    -1.8370    -0.1440 N.am  1 <1>  -0.6600 
 13 C       -5.5620    -2.6950     0.5250 C.2   1 <1>   0.5690 
 14 O       -6.0740    -2.3830     1.5770 O.2   1 <1>  -0.5700 
 15 C       -5.8770    -4.0740    -0.0480 C.3   1 <1>  -0.0990 
 16 C       -6.6610    -5.0000     0.9010 C.3   1 <1>  -0.1600 
 17 C       -6.9180    -6.3710     0.2610 C.3   1 <1>  -0.1600 
 18 C       -7.7010    -7.2930     1.2020 C.3   1 <1>  -0.0170 
 19 C       -7.9480    -8.6390     0.5400 C.ar  1 <1>  -0.1440 
 20 C       -7.0370    -9.6730     0.6940 C.ar  1 <1>  -0.1500 
 21 C       -9.0850    -8.8440    -0.2270 C.ar  1 <1>  -0.1500 
 22 C       -7.2600   -10.8980     0.0900 C.ar  1 <1>  -0.1500 
 23 C       -9.3090   -10.0690    -0.8320 C.ar  1 <1>  -0.1500 
 24 C       -8.3970   -11.0970    -0.6740 C.ar  1 <1>  -0.1500 
 25 H       -2.4040    -2.6940    -2.5250 H     1 <1>   0.0800 
 26 H       -2.5010     0.0900     1.6100 H     1 <1>   0.0800 
 27 H       -0.4640     1.0170     0.5780 H     1 <1>   0.0800 
 28 H       -1.8680     1.8560    -0.0630 H     1 <1>   0.0800 
 29 H       -0.6240     1.2710    -1.1420 H     1 <1>   0.0800 
 30 H       -0.9180    -3.2070    -0.5510 H     1 <1>   0.0800 
 31 H       -2.2440    -4.2970    -0.8560 H     1 <1>   0.0800 
 32 H       -4.6060    -2.9780    -1.9310 H     1 <1>   0.0800 
 33 H       -4.4080    -1.2810    -2.1460 H     1 <1>   0.0800 
 34 H       -2.5330    -2.1040     2.4410 H     1 <1>   0.0800 
 35 H       -1.0500    -1.9330     1.5460 H     1 <1>   0.0800 
 36 H       -4.4200     0.2500    -0.0090 H     1 <1>   0.0800 
 37 H       -4.6900    -0.5170     1.5120 H     1 <1>   0.0800 
 38 H       -6.4440    -3.9400    -0.9500 H     1 <1>   0.0800 
 39 H       -4.9460    -4.5510    -0.2920 H     1 <1>   0.0800 
 40 H       -6.0990    -5.1250     1.8120 H     1 <1>   0.0800 
 41 H       -7.5990    -4.5360     1.1530 H     1 <1>   0.0800 
 42 H       -5.9800    -6.8370     0.0140 H     1 <1>   0.0800 
 43 H       -7.4760    -6.2450    -0.6510 H     1 <1>   0.0800 
 44 H       -8.6430    -6.8390     1.4570 H     1 <1>   0.0800 
 45 H       -7.1500    -7.4350     2.1150 H     1 <1>   0.0800 
 46 H       -6.1500    -9.5260     1.2850 H     1 <1>   0.1500 
 47 H       -9.7980    -8.0500    -0.3560 H     1 <1>   0.1500 
 48 H       -6.5490   -11.6960     0.2140 H     1 <1>   0.1500 
 49 H      -10.1930   -10.2210    -1.4260 H     1 <1>   0.1500 
 50 H       -8.5700   -12.0490    -1.1440 H     1 <1>   0.1500 
@<TRIPOS>BOND
  1   1   2  2   
  2   2   3  am  
  3   2   4  1   
  4   3   5  1   
  5   3   6  1   
  6   4   7  1   
  7   4   8  1   
  8   4  25  1   
  9   5   9  1   
 10   5  10  1   
 11   5  26  1   
 12   6  27  1   
 13   6  28  1   
 14   6  29  1   
 15   7  11  1   
 16   7  30  1   
 17   7  31  1   
 18   8  12  1   
 19   8  32  1   
 20   8  33  1   
 21   9  11  1   
 22   9  34  1   
 23   9  35  1   
 24  10  12  1   
 25  10  36  1   
 26  10  37  1   
 27  12  13  am  
 28  13  14  2   
 29  13  15  1   
 30  15  16  1   
 31  15  38  1   
 32  15  39  1   
 33  16  17  1   
 34  16  40  1   
 35  16  41  1   
 36  17  18  1   
 37  17  42  1   
 38  17  43  1   
 39  18  19  1   
 40  18  44  1   
 41  18  45  1   
 42  19  20  ar  
 43  19  21  ar  
 44  20  22  ar  
 45  20  46  1   
 46  21  23  ar  
 47  21  47  1   
 48  22  24  ar  
 49  22  48  1   
 50  23  24  ar  
 51  23  49  1   
 52  24  50  1   
@<TRIPOS>SUBSTRUCTURE
  1 ****  15 GROUP 4 **** **** 0

# MOE 2024.06 (io_trps.svl 2023.06)
