@<TRIPOS>MOLECULE
NONAME
52 54 1 0 0 
SMALL
USER_CHARGES


@<TRIPOS>ATOM
  1 O        0.0280    -0.2700     0.8800 O.2   1 <1>  -0.5700 
  2 C        0.9140    -0.9780     0.4700 C.2   1 <1>   0.4230 
  3 C        1.9810    -0.4890    -0.3850 C.ar  1 <1>   0.0860 
  4 C        0.8850    -2.4300     0.9260 C.3   1 <1>   0.1810 
  5 C        1.9640     0.8350    -0.8330 C.ar  1 <1>  -0.1500 
  6 C        3.0640    -1.2750    -0.7980 C.ar  1 <1>  -0.1500 
  7 O        0.8020    -3.3060    -0.1860 O.3   1 <1>  -0.3620 
  8 C        2.9610     1.3500    -1.6400 C.ar  1 <1>  -0.1500 
  9 C        4.0650    -0.7680    -1.6060 C.ar  1 <1>  -0.1500 
 10 C        0.7160    -4.6470    -0.0290 C.ar  1 <1>   0.0830 
 11 C        4.0170     0.5470    -2.0290 C.ar  1 <1>  -0.1500 
 12 C        0.6900    -5.4050    -1.1870 C.ar  1 <1>  -0.1500 
 13 C        0.6530    -5.2840     1.2070 C.ar  1 <1>  -0.1500 
 14 C        0.5930    -6.7830    -1.1240 C.ar  1 <1>  -0.1500 
 15 C        0.5540    -6.6630     1.2700 C.ar  1 <1>  -0.1500 
 16 C        0.5140    -7.4200     0.1070 C.ar  1 <1>  -0.1430 
 17 C        0.3720    -8.9280     0.1760 C.3   1 <1>   0.4860 
 18 N       -1.0150    -9.2830    -0.2300 N.4   1 <1>  -0.9590 
 19 C       -1.1670   -10.7550    -0.4210 C.3   1 <1>   0.3430 
 20 C       -2.0330    -8.6990     0.7040 C.3   1 <1>   0.3430 
 21 C       -2.5010   -11.0820    -1.1120 C.3   1 <1>  -0.0800 
 22 C       -3.3660    -9.4570     0.6630 C.3   1 <1>  -0.1600 
 23 C       -3.6100   -10.0820    -0.7090 C.3   1 <1>   0.2000 
 24 C       -2.8560   -12.5580    -0.8680 C.3   1 <1>   0.1200 
 25 O       -4.8530   -10.6800    -0.7000 O.3   1 <1>  -0.6800 
 26 O       -1.7150   -13.3220    -1.0550 O.3   1 <1>  -0.6800 
 27 H        0.0170    -2.5880     1.5410 H     1 <1>   0.0800 
 28 H        1.7740    -2.6610     1.4820 H     1 <1>   0.0800 
 29 H        1.1480     1.4740    -0.5400 H     1 <1>   0.1500 
 30 H        3.1380    -2.3030    -0.4940 H     1 <1>   0.1500 
 31 H        2.9160     2.3750    -1.9670 H     1 <1>   0.1500 
 32 H        4.8850    -1.3960    -1.9090 H     1 <1>   0.1500 
 33 H        4.7960     0.9440    -2.6590 H     1 <1>   0.1500 
 34 H        0.7470    -4.9040    -2.1380 H     1 <1>   0.1500 
 35 H        0.6780    -4.7260     2.1240 H     1 <1>   0.1500 
 36 H        0.5840    -7.3420    -2.0450 H     1 <1>   0.1500 
 37 H        0.5090    -7.1340     2.2380 H     1 <1>   0.1500 
 38 H        0.5710    -9.2760     1.1770 H     1 <1>   0.0800 
 39 H        1.0850    -9.3840    -0.4930 H     1 <1>   0.0800 
 40 H       -1.1560    -8.8350    -1.1450 H     1 <1>   0.4500 
 41 H       -0.3600   -11.1520    -1.0170 H     1 <1>   0.0800 
 42 H       -1.1390   -11.2460     0.5390 H     1 <1>   0.0800 
 43 H       -1.6590    -8.7130     1.7160 H     1 <1>   0.0800 
 44 H       -2.2010    -7.6670     0.4350 H     1 <1>   0.0800 
 45 H       -2.3520   -10.9730    -2.1720 H     1 <1>   0.0800 
 46 H       -4.1590    -8.7710     0.9030 H     1 <1>   0.0800 
 47 H       -3.3490   -10.2240     1.4180 H     1 <1>   0.0800 
 48 H       -3.6560    -9.2980    -1.4480 H     1 <1>   0.0800 
 49 H       -3.6100   -12.8890    -1.5650 H     1 <1>   0.0800 
 50 H       -3.2020   -12.7200     0.1390 H     1 <1>   0.0800 
 51 H       -5.0240   -11.1670     0.1280 H     1 <1>   0.4000 
 52 H       -1.9370   -14.2780    -1.0800 H     1 <1>   0.4000 
@<TRIPOS>BOND
  1   1   2  2   
  2   2   3  1   
  3   2   4  1   
  4   3   5  ar  
  5   3   6  ar  
  6   4   7  1   
  7   4  27  1   
  8   4  28  1   
  9   5   8  ar  
 10   5  29  1   
 11   6   9  ar  
 12   6  30  1   
 13   7  10  1   
 14   8  11  ar  
 15   8  31  1   
 16   9  11  ar  
 17   9  32  1   
 18  10  12  ar  
 19  10  13  ar  
 20  11  33  1   
 21  12  14  ar  
 22  12  34  1   
 23  13  15  ar  
 24  13  35  1   
 25  14  16  ar  
 26  14  36  1   
 27  15  16  ar  
 28  15  37  1   
 29  16  17  1   
 30  17  18  1   
 31  17  38  1   
 32  17  39  1   
 33  18  19  1   
 34  18  20  1   
 35  18  40  1   
 36  19  21  1   
 37  19  41  1   
 38  19  42  1   
 39  20  22  1   
 40  20  43  1   
 41  20  44  1   
 42  21  23  1   
 43  21  24  1   
 44  21  45  1   
 45  22  23  1   
 46  22  46  1   
 47  22  47  1   
 48  23  25  1   
 49  23  48  1   
 50  24  26  1   
 51  24  49  1   
 52  24  50  1   
 53  25  51  1   
 54  26  52  1   
@<TRIPOS>SUBSTRUCTURE
  1 ****  12 GROUP 4 **** **** 0

# MOE 2024.06 (io_trps.svl 2023.06)
