@<TRIPOS>MOLECULE
NONAME
43 45 1 0 0 
SMALL
USER_CHARGES


@<TRIPOS>ATOM
  1 O       -0.4470     0.9900     1.4540 O.2   1 <1>  -0.5700 
  2 C       -0.1910     2.1290     1.1090 C.2   1 <1>   0.5440 
  3 N       -1.2210     3.0410     0.9850 N.am  1 <1>  -0.6600 
  4 C        1.1860     2.4860     0.8260 C.ar  1 <1>   0.0860 
  5 C       -2.6110     2.7240     1.4360 C.3   1 <1>   0.1400 
  6 C       -1.1000     4.3350     0.2600 C.3   1 <1>   0.1400 
  7 C        1.9160     1.8010    -0.1420 C.ar  1 <1>  -0.1500 
  8 C        1.8240     3.5220     1.5080 C.ar  1 <1>  -0.1500 
  9 C       -3.6050     2.6930     0.2500 C.3   1 <1>   0.0000 
 10 C       -2.0510     4.3430    -0.9400 C.3   1 <1>  -0.1600 
 11 C        3.2260     2.1380    -0.4380 C.ar  1 <1>  -0.1430 
 12 C        3.1310     3.8690     1.2210 C.ar  1 <1>  -0.1500 
 13 C       -5.0160     2.4090     0.8050 C.3   1 <1>   0.2000 
 14 C       -3.4990     4.0290    -0.5270 C.3   1 <1>  -0.1600 
 15 C       -3.3390     1.4670    -0.6470 C.3   1 <1>  -0.1600 
 16 C        3.8310     3.1790     0.2460 C.ar  1 <1>  -0.1500 
 17 C        4.0000     1.3790    -1.5000 C.3   1 <1>  -0.0970 
 18 O       -5.9800     2.7230    -0.1380 O.3   1 <1>  -0.6800 
 19 C       -5.0690     0.8970     1.0100 C.3   1 <1>  -0.1600 
 20 C       -4.0920     0.2910    -0.0080 C.3   1 <1>  -0.1600 
 21 H       -2.6250     1.7820     1.9570 H     1 <1>   0.0800 
 22 H       -2.9170     3.4800     2.1370 H     1 <1>   0.0800 
 23 H       -1.3510     5.1370     0.9320 H     1 <1>   0.0800 
 24 H       -0.0950     4.4920    -0.0900 H     1 <1>   0.0800 
 25 H        1.4350     0.9900    -0.6610 H     1 <1>   0.1500 
 26 H        1.2830     4.0530     2.2710 H     1 <1>   0.1500 
 27 H       -2.0150     5.3100    -1.4110 H     1 <1>   0.0800 
 28 H       -1.7100     3.6200    -1.6590 H     1 <1>   0.0800 
 29 H        3.6080     4.6720     1.7560 H     1 <1>   0.1500 
 30 H       -5.2380     2.9620     1.7020 H     1 <1>   0.0800 
 31 H       -4.1160     4.0030    -1.4080 H     1 <1>   0.0800 
 32 H       -3.8650     4.8250     0.0980 H     1 <1>   0.0800 
 33 H       -3.7380     1.6420    -1.6300 H     1 <1>   0.0800 
 34 H       -2.2890     1.2500    -0.7460 H     1 <1>   0.0800 
 35 H        4.8480     3.4530     0.0250 H     1 <1>   0.1500 
 36 H        4.9900     1.1540    -1.1460 H     1 <1>   0.0800 
 37 H        4.0760     1.9750    -2.3920 H     1 <1>   0.0800 
 38 H        3.5090     0.4540    -1.7430 H     1 <1>   0.0800 
 39 H       -5.8130     2.1930    -0.9400 H     1 <1>   0.4000 
 40 H       -4.7200     0.6690     2.0020 H     1 <1>   0.0800 
 41 H       -6.0670     0.5070     0.9070 H     1 <1>   0.0800 
 42 H       -3.3970    -0.3610     0.4950 H     1 <1>   0.0800 
 43 H       -4.6150    -0.2740    -0.7600 H     1 <1>   0.0800 
@<TRIPOS>BOND
  1   1   2  2   
  2   2   3  am  
  3   2   4  1   
  4   3   5  1   
  5   3   6  1   
  6   4   7  ar  
  7   4   8  ar  
  8   5   9  1   
  9   5  21  1   
 10   5  22  1   
 11   6  10  1   
 12   6  23  1   
 13   6  24  1   
 14   7  11  ar  
 15   7  25  1   
 16   8  12  ar  
 17   8  26  1   
 18   9  13  1   
 19   9  14  1   
 20   9  15  1   
 21  10  14  1   
 22  10  27  1   
 23  10  28  1   
 24  11  16  ar  
 25  11  17  1   
 26  12  16  ar  
 27  12  29  1   
 28  13  18  1   
 29  13  19  1   
 30  13  30  1   
 31  14  31  1   
 32  14  32  1   
 33  15  20  1   
 34  15  33  1   
 35  15  34  1   
 36  16  35  1   
 37  17  36  1   
 38  17  37  1   
 39  17  38  1   
 40  18  39  1   
 41  19  20  1   
 42  19  40  1   
 43  19  41  1   
 44  20  42  1   
 45  20  43  1   
@<TRIPOS>SUBSTRUCTURE
  1 ****   3 GROUP 4 **** **** 0

# MOE 2024.06 (io_trps.svl 2023.06)
