@<TRIPOS>MOLECULE
NONAME
42 43 1 0 0 
SMALL
USER_CHARGES


@<TRIPOS>ATOM
  1 O       -2.1470     0.3740    -2.0840 O.2   1 <1>  -0.5700 
  2 C       -1.9540     0.5830    -0.9120 C.2   1 <1>   0.5690 
  3 N       -1.8740    -0.4220    -0.0080 N.am  1 <1>  -0.7300 
  4 C       -1.7920     2.0050    -0.4390 C.3   1 <1>  -0.0990 
  5 C       -1.9530    -1.8650    -0.3370 C.3   1 <1>   0.2200 
  6 C       -0.3620     2.4680    -0.6950 C.3   1 <1>   0.1400 
  7 C       -3.3000    -2.4540     0.0600 C.3   1 <1>  -0.0800 
  8 C       -1.0260    -2.6370     0.5910 C.3   1 <1>   0.1200 
  9 N       -0.1820     3.8410    -0.1720 N.am  1 <1>  -0.7300 
 10 C       -3.1080    -2.7860     1.5440 C.3   1 <1>   0.1200 
 11 C       -4.5330    -1.5830    -0.2400 C.3   1 <1>  -0.0170 
 12 O       -1.7310    -2.7690     1.7880 O.3   1 <1>  -0.5600 
 13 C        0.1460     4.1270     1.1110 C.2   1 <1>   0.5690 
 14 C       -5.8160    -2.3240     0.1000 C.ar  1 <1>  -0.1440 
 15 O        0.2730     3.2720     1.9500 O.2   1 <1>  -0.5700 
 16 C        0.3460     5.5710     1.4900 C.3   1 <1>  -0.1790 
 17 C       -6.4830    -2.1300     1.2930 C.ar  1 <1>  -0.1500 
 18 C       -6.3800    -3.2350    -0.7710 C.ar  1 <1>  -0.1500 
 19 C       -7.6440    -2.8400     1.5520 C.ar  1 <1>   0.1600 
 20 C       -7.5460    -3.8920    -0.4150 C.ar  1 <1>   0.1600 
 21 N       -8.1900    -3.7180     0.7270 N.ar  1 <1>  -0.6200 
 22 H       -1.7070    -0.2260     0.9830 H     1 <1>   0.3700 
 23 H       -2.4820     2.6290    -0.9770 H     1 <1>   0.0800 
 24 H       -2.0130     2.0620     0.6110 H     1 <1>   0.0800 
 25 H       -1.7190    -2.0300    -1.3760 H     1 <1>   0.0800 
 26 H       -0.1470     2.4500    -1.7510 H     1 <1>   0.0800 
 27 H        0.3280     1.8050    -0.1980 H     1 <1>   0.0800 
 28 H       -3.4140    -3.3870    -0.4640 H     1 <1>   0.0800 
 29 H       -0.0940    -2.1290     0.7710 H     1 <1>   0.0800 
 30 H       -0.8380    -3.6250     0.2090 H     1 <1>   0.0800 
 31 H       -0.3050     4.5990    -0.8450 H     1 <1>   0.3700 
 32 H       -3.4960    -3.7600     1.7890 H     1 <1>   0.0800 
 33 H       -3.5580    -2.0440     2.1790 H     1 <1>   0.0800 
 34 H       -4.5390    -1.3210    -1.2850 H     1 <1>   0.0800 
 35 H       -4.4920    -0.6660     0.3210 H     1 <1>   0.0800 
 36 H        1.1280     5.9990     0.8920 H     1 <1>   0.0800 
 37 H        0.6230     5.6380     2.5260 H     1 <1>   0.0800 
 38 H       -0.5660     6.1160     1.3380 H     1 <1>   0.0800 
 39 H       -6.1130    -1.4350     2.0240 H     1 <1>   0.1500 
 40 H       -5.9240    -3.4380    -1.7220 H     1 <1>   0.1500 
 41 H       -8.1510    -2.6760     2.4880 H     1 <1>   0.1500 
 42 H       -7.9700    -4.5990    -1.1080 H     1 <1>   0.1500 
@<TRIPOS>BOND
  1   1   2  2   
  2   2   3  am  
  3   2   4  1   
  4   3   5  1   
  5   3  22  1   
  6   4   6  1   
  7   4  23  1   
  8   4  24  1   
  9   5   7  1   
 10   5   8  1   
 11   5  25  1   
 12   6   9  1   
 13   6  26  1   
 14   6  27  1   
 15   7  10  1   
 16   7  11  1   
 17   7  28  1   
 18   8  12  1   
 19   8  29  1   
 20   8  30  1   
 21   9  13  am  
 22   9  31  1   
 23  10  12  1   
 24  10  32  1   
 25  10  33  1   
 26  11  14  1   
 27  11  34  1   
 28  11  35  1   
 29  13  15  2   
 30  13  16  1   
 31  14  17  ar  
 32  14  18  ar  
 33  16  36  1   
 34  16  37  1   
 35  16  38  1   
 36  17  19  ar  
 37  17  39  1   
 38  18  20  ar  
 39  18  40  1   
 40  19  21  ar  
 41  19  41  1   
 42  20  21  ar  
 43  20  42  1   
@<TRIPOS>SUBSTRUCTURE
  1 ****   3 GROUP 4 **** **** 0

# MOE 2024.06 (io_trps.svl 2023.06)
