@<TRIPOS>MOLECULE
NONAME
56 59 1 0 0 
SMALL
USER_CHARGES


@<TRIPOS>ATOM
  1 O        1.4560    -0.2690     2.4150 O.3   1 <1>  -0.6800 
  2 C        1.1990    -0.4670     1.0600 C.3   1 <1>   0.2000 
  3 C        1.8910    -1.7440     0.5840 C.3   1 <1>  -0.0800 
  4 C        1.9440     0.6110     0.2690 C.3   1 <1>   0.3430 
  5 C        3.3570    -1.3320     0.4090 C.3   1 <1>   0.3430 
  6 C        1.7140    -2.9970     1.4680 C.3   1 <1>  -0.0170 
  7 N        3.3690     0.1490     0.2090 N.4   1 <1>  -0.9590 
  8 C        2.6260    -4.1190     0.9830 C.ar  1 <1>  -0.1440 
  9 C        4.1770     0.8270     1.2530 C.3   1 <1>   0.5240 
 10 C        2.3760    -4.8440    -0.2080 C.ar  1 <1>   0.0000 
 11 C        3.7460    -4.4410     1.6940 C.ar  1 <1>  -0.1500 
 12 C        4.3230     2.2680     0.8310 C.2   1 <1>  -0.1810 
 13 C        3.3430    -5.7970    -0.6110 C.ar  1 <1>   0.3100 
 14 C        1.2260    -4.6860    -1.0180 C.ar  1 <1>  -0.1500 
 15 C        4.6240    -5.4240     1.2210 C.ar  1 <1>   0.1600 
 16 C        5.0680     2.8250    -0.1530 C.2   1 <1>  -0.3320 
 17 C        3.6540     3.3320     1.4210 C.2   1 <1>   0.1390 
 18 N        4.4580    -6.0680     0.1110 N.ar  1 <1>  -0.6200 
 19 C        3.1470    -6.5010    -1.8100 C.ar  1 <1>  -0.1500 
 20 C        1.0630    -5.3930    -2.1780 C.ar  1 <1>  -0.1500 
 21 N        4.8170     4.1570    -0.1180 N.pl3 1 <1>   0.3140 
 22 C        6.0300     2.1710    -1.1360 C.3   1 <1>  -0.0600 
 23 N        3.9340     4.4570     0.8500 N.2   1 <1>  -0.7070 
 24 C        2.0370    -6.3070    -2.5850 C.ar  1 <1>  -0.1500 
 25 C        5.3930     5.2200    -0.9730 C.3   1 <1>   0.0960 
 26 C        6.6920     5.7700    -0.3650 C.3   1 <1>  -0.1600 
 27 C        7.3050     6.8580    -1.2530 C.3   1 <1>  -0.2400 
 28 H        0.7860    -0.7210     2.9720 H     1 <1>   0.4000 
 29 H        0.1350    -0.4470     0.8920 H     1 <1>   0.0800 
 30 H        1.5170    -1.9690    -0.3990 H     1 <1>   0.0800 
 31 H        1.8400     1.5790     0.7300 H     1 <1>   0.0800 
 32 H        1.5410     0.6550    -0.7290 H     1 <1>   0.0800 
 33 H        3.7980    -1.8490    -0.4300 H     1 <1>   0.0800 
 34 H        3.9060    -1.5870     1.3010 H     1 <1>   0.0800 
 35 H        0.6890    -3.3250     1.4610 H     1 <1>   0.0800 
 36 H        1.9640    -2.7700     2.4900 H     1 <1>   0.0800 
 37 H        3.7790     0.4230    -0.6930 H     1 <1>   0.4500 
 38 H        3.6930     0.7590     2.2140 H     1 <1>   0.0800 
 39 H        5.1540     0.3770     1.3200 H     1 <1>   0.0800 
 40 H        3.9920    -3.9590     2.6230 H     1 <1>   0.1500 
 41 H        0.4520    -4.0070    -0.7180 H     1 <1>   0.1500 
 42 H        5.4950    -5.6530     1.8120 H     1 <1>   0.1500 
 43 H        2.9740     3.2580     2.2550 H     1 <1>   0.1500 
 44 H        3.9040    -7.2070    -2.0980 H     1 <1>   0.1500 
 45 H        0.1850    -5.2640    -2.7890 H     1 <1>   0.1500 
 46 H        6.1150     1.1150    -0.9530 H     1 <1>   0.0800 
 47 H        7.0100     2.6050    -1.0360 H     1 <1>   0.0800 
 48 H        5.6920     2.3200    -2.1460 H     1 <1>   0.0800 
 49 H        1.9000    -6.8550    -3.5020 H     1 <1>   0.1500 
 50 H        5.5750     4.8200    -1.9520 H     1 <1>   0.0800 
 51 H        4.6680     6.0090    -1.0570 H     1 <1>   0.0800 
 52 H        6.4760     6.1860     0.6050 H     1 <1>   0.0800 
 53 H        7.4030     4.9720    -0.2430 H     1 <1>   0.0800 
 54 H        6.6200     7.6800    -1.3710 H     1 <1>   0.0800 
 55 H        7.5470     6.4650    -2.2250 H     1 <1>   0.0800 
 56 H        8.2080     7.2320    -0.8030 H     1 <1>   0.0800 
@<TRIPOS>BOND
  1   1   2  1   
  2   1  28  1   
  3   2   3  1   
  4   2   4  1   
  5   2  29  1   
  6   3   5  1   
  7   3   6  1   
  8   3  30  1   
  9   4   7  1   
 10   4  31  1   
 11   4  32  1   
 12   5   7  1   
 13   5  33  1   
 14   5  34  1   
 15   6   8  1   
 16   6  35  1   
 17   6  36  1   
 18   7   9  1   
 19   7  37  1   
 20   8  10  ar  
 21   8  11  ar  
 22   9  12  1   
 23   9  38  1   
 24   9  39  1   
 25  10  13  ar  
 26  10  14  ar  
 27  11  15  ar  
 28  11  40  1   
 29  12  16  2   
 30  12  17  1   
 31  13  18  ar  
 32  13  19  ar  
 33  14  20  ar  
 34  14  41  1   
 35  15  18  ar  
 36  15  42  1   
 37  16  21  1   
 38  16  22  1   
 39  17  23  2   
 40  17  43  1   
 41  19  24  ar  
 42  19  44  1   
 43  20  24  ar  
 44  20  45  1   
 45  21  23  1   
 46  21  25  1   
 47  22  46  1   
 48  22  47  1   
 49  22  48  1   
 50  24  49  1   
 51  25  26  1   
 52  25  50  1   
 53  25  51  1   
 54  26  27  1   
 55  26  52  1   
 56  26  53  1   
 57  27  54  1   
 58  27  55  1   
 59  27  56  1   
@<TRIPOS>SUBSTRUCTURE
  1 ****   5 GROUP 4 **** **** 0

# MOE 2024.06 (io_trps.svl 2023.06)
