@<TRIPOS>MOLECULE
NONAME
57 60 1 0 0 
SMALL
USER_CHARGES


@<TRIPOS>ATOM
  1 O       -0.1380     0.4540    -1.0430 O.2   1 <1>  -0.5700 
  2 C       -0.1310     1.6080    -0.6850 C.2   1 <1>   0.5690 
  3 N       -1.2550     2.2420    -0.2270 N.am  1 <1>  -0.6600 
  4 C        1.1870     2.3790    -0.7840 C.3   1 <1>   0.1810 
  5 C       -1.2210     3.6720     0.2260 C.3   1 <1>   0.3640 
  6 C       -2.5490     1.5230    -0.0390 C.3   1 <1>   0.0600 
  7 O        1.2360     3.5200     0.0420 O.3   1 <1>  -0.5600 
  8 C       -2.3820     4.4370    -0.4290 C.ar  1 <1>  -0.1430 
  9 C        0.1230     4.3820    -0.0980 C.3   1 <1>   0.2610 
 10 C       -3.3720     5.0910     0.3070 C.ar  1 <1>  -0.1430 
 11 C       -2.4480     4.4700    -1.8190 C.ar  1 <1>  -0.1500 
 12 C        0.3310     5.6310     0.7660 C.2   1 <1>   0.5690 
 13 C       -4.3760     5.7800    -0.3580 C.ar  1 <1>  -0.1500 
 14 C       -3.4170     5.0800     1.8310 C.3   1 <1>  -0.0960 
 15 C       -3.4540     5.1560    -2.4720 C.ar  1 <1>  -0.1500 
 16 O       -0.1350     5.6930     1.8810 O.2   1 <1>  -0.5700 
 17 N        1.0900     6.6620     0.2870 N.am  1 <1>  -0.5100 
 18 C       -4.4190     5.8180    -1.7390 C.ar  1 <1>  -0.1500 
 19 C        2.3940     6.5640    -0.4450 C.3   1 <1>   0.2250 
 20 C        1.6110     7.8080     1.1020 C.3   1 <1>   0.2250 
 21 C        3.0480     7.3550     0.7260 C.3   1 <1>   0.4720 
 22 N        3.9790     8.4640     0.3190 N.4   1 <1>  -0.9280 
 23 C        5.2230     7.9210    -0.3040 C.3   1 <1>   0.3430 
 24 C        4.2950     9.3450     1.4830 C.3   1 <1>   0.3430 
 25 C        6.0900     9.0750    -0.8120 C.3   1 <1>  -0.1600 
 26 C        5.1420    10.5300     1.0160 C.3   1 <1>  -0.1600 
 27 C        6.4220    10.0700     0.3070 C.3   1 <1>  -0.1600 
 28 H        1.3410     2.6860    -1.8020 H     1 <1>   0.0800 
 29 H        1.9930     1.7310    -0.4930 H     1 <1>   0.0800 
 30 H       -1.3380     3.6590     1.2930 H     1 <1>   0.0800 
 31 H       -2.9110     1.6740     0.9630 H     1 <1>   0.0800 
 32 H       -2.4260     0.4660    -0.2030 H     1 <1>   0.0800 
 33 H       -3.2800     1.8940    -0.7370 H     1 <1>   0.0800 
 34 H        0.1040     4.7020    -1.1230 H     1 <1>   0.0800 
 35 H       -1.7170     3.9480    -2.4100 H     1 <1>   0.1500 
 36 H       -5.1390     6.2960     0.1980 H     1 <1>   0.1500 
 37 H       -4.3590     5.4530     2.1890 H     1 <1>   0.0800 
 38 H       -2.6420     5.7060     2.2320 H     1 <1>   0.0800 
 39 H       -3.2990     4.0820     2.2090 H     1 <1>   0.0800 
 40 H       -3.4900     5.1730    -3.5470 H     1 <1>   0.1500 
 41 H       -5.2040     6.3560    -2.2400 H     1 <1>   0.1500 
 42 H        2.7450     5.5520    -0.5300 H     1 <1>   0.0000 
 43 H        2.3550     7.1050    -1.3740 H     1 <1>   0.0000 
 44 H        1.3200     8.7500     0.6690 H     1 <1>   0.0000 
 45 H        1.3890     7.7100     2.1490 H     1 <1>   0.0000 
 46 H        3.4870     6.7110     1.4670 H     1 <1>   0.0000 
 47 H        3.5050     9.0440    -0.3850 H     1 <1>   0.4500 
 48 H        5.7770     7.3500     0.4240 H     1 <1>   0.0800 
 49 H        4.9760     7.2710    -1.1290 H     1 <1>   0.0800 
 50 H        3.3860     9.7110     1.9330 H     1 <1>   0.0800 
 51 H        4.8410     8.7850     2.2270 H     1 <1>   0.0800 
 52 H        7.0060     8.6760    -1.2140 H     1 <1>   0.0800 
 53 H        5.5830     9.5800    -1.6150 H     1 <1>   0.0800 
 54 H        4.5590    11.1510     0.3580 H     1 <1>   0.0800 
 55 H        5.4060    11.1310     1.8700 H     1 <1>   0.0800 
 56 H        6.9410    10.9220    -0.1020 H     1 <1>   0.0800 
 57 H        7.0790     9.6010     1.0210 H     1 <1>   0.0800 
@<TRIPOS>BOND
  1   1   2  2   
  2   2   3  am  
  3   2   4  1   
  4   3   5  1   
  5   3   6  1   
  6   4   7  1   
  7   4  28  1   
  8   4  29  1   
  9   5   8  1   
 10   5   9  1   
 11   5  30  1   
 12   6  31  1   
 13   6  32  1   
 14   6  33  1   
 15   7   9  1   
 16   8  10  ar  
 17   8  11  ar  
 18   9  12  1   
 19   9  34  1   
 20  10  13  ar  
 21  10  14  1   
 22  11  15  ar  
 23  11  35  1   
 24  12  16  2   
 25  12  17  am  
 26  13  18  ar  
 27  13  36  1   
 28  14  37  1   
 29  14  38  1   
 30  14  39  1   
 31  15  18  ar  
 32  15  40  1   
 33  17  19  1   
 34  17  20  1   
 35  18  41  1   
 36  19  21  1   
 37  19  42  1   
 38  19  43  1   
 39  20  21  1   
 40  20  44  1   
 41  20  45  1   
 42  21  22  1   
 43  21  46  1   
 44  22  23  1   
 45  22  24  1   
 46  22  47  1   
 47  23  25  1   
 48  23  48  1   
 49  23  49  1   
 50  24  26  1   
 51  24  50  1   
 52  24  51  1   
 53  25  27  1   
 54  25  52  1   
 55  25  53  1   
 56  26  27  1   
 57  26  54  1   
 58  26  55  1   
 59  27  56  1   
 60  27  57  1   
@<TRIPOS>SUBSTRUCTURE
  1 ****  12 GROUP 4 **** **** 0

# MOE 2024.06 (io_trps.svl 2023.06)
