@<TRIPOS>MOLECULE
NONAME
50 53 1 0 0 
SMALL
USER_CHARGES


@<TRIPOS>ATOM
  1 O       -0.5430     1.6630    -1.4940 O.3   1 <1>  -0.2800 
  2 C       -0.0450     1.7920    -0.2800 C.2   1 <1>  -0.0400 
  3 C       -1.7860     1.2410    -1.3740 C.2   1 <1>  -0.0100 
  4 C       -0.9660     1.4490     0.6460 C.2   1 <1>  -0.1500 
  5 C        1.3890     2.2640    -0.1110 C.3   1 <1>   0.0200 
  6 C       -2.1120     1.0890    -0.0730 C.2   1 <1>  -0.1500 
  7 C        1.5470     3.7880    -0.3080 C.3   1 <1>  -0.0800 
  8 C        1.1910     4.2350    -1.7400 C.3   1 <1>   0.1200 
  9 C        2.9740     4.2220     0.0520 C.3   1 <1>   0.2090 
 10 O       -0.1690     4.4470    -1.8120 O.3   1 <1>  -0.6800 
 11 N        3.0500     5.7090     0.0630 N.pl3 1 <1>  -0.8690 
 12 C        4.1560     6.4670     0.0660 C.ar  1 <1>   0.4610 
 13 N        4.0350     7.7940     0.0240 N.ar  1 <1>  -0.1790 
 14 C        5.4680     5.9350     0.1130 C.ar  1 <1>  -0.1500 
 15 C        5.1030     8.6730     0.0170 C.ar  1 <1>   0.3610 
 16 C        6.5710     6.7340     0.1110 C.ar  1 <1>  -0.1430 
 17 C        6.4140     8.1540     0.0610 C.ar  1 <1>   0.0000 
 18 C        4.8850    10.0560    -0.0320 C.ar  1 <1>  -0.1500 
 19 C        7.9650     6.1200     0.1630 C.3   1 <1>  -0.0970 
 20 C        7.4860     9.0650     0.0530 C.ar  1 <1>  -0.1500 
 21 C        5.9580    10.9090    -0.0390 C.ar  1 <1>  -0.1430 
 22 C        7.2450    10.4140     0.0030 C.ar  1 <1>  -0.1430 
 23 C        5.9590    12.4190    -0.0860 C.3   1 <1>  -0.0170 
 24 C        8.2570    11.5350    -0.0100 C.3   1 <1>  -0.0170 
 25 C        7.4080    12.7860     0.2720 C.3   1 <1>  -0.1600 
 26 H       -2.3670     1.0720    -2.2640 H     1 <1>   0.1500 
 27 H       -0.8790     1.4390     1.7190 H     1 <1>   0.1500 
 28 H        2.0140     1.7270    -0.8030 H     1 <1>   0.0800 
 29 H        1.7030     2.0030     0.8830 H     1 <1>   0.0800 
 30 H       -3.0420     0.7610     0.3550 H     1 <1>   0.1500 
 31 H        0.8840     4.2750     0.3860 H     1 <1>   0.0800 
 32 H        1.4610     3.4890    -2.4700 H     1 <1>   0.0800 
 33 H        1.6640     5.1630    -2.0060 H     1 <1>   0.0800 
 34 H        3.6720     3.8180    -0.6630 H     1 <1>   0.0800 
 35 H        3.2310     3.8520     1.0320 H     1 <1>   0.0800 
 36 H       -0.6350     3.5850    -1.6890 H     1 <1>   0.4000 
 37 H        2.1040     6.1130     0.0530 H     1 <1>   0.4000 
 38 H        3.1010     8.1880    -0.0140 H     1 <1>   0.4570 
 39 H        5.5730     4.8670     0.1550 H     1 <1>   0.1500 
 40 H        3.8890    10.4580    -0.0650 H     1 <1>   0.1500 
 41 H        7.9170     5.0460     0.1990 H     1 <1>   0.0800 
 42 H        8.4900     6.4600     1.0390 H     1 <1>   0.0800 
 43 H        8.5280     6.3990    -0.7110 H     1 <1>   0.0800 
 44 H        8.5020     8.7150     0.0850 H     1 <1>   0.1500 
 45 H        5.2610    12.8460     0.6140 H     1 <1>   0.0800 
 46 H        5.7250    12.7500    -1.0830 H     1 <1>   0.0800 
 47 H        8.7100    11.5990    -0.9840 H     1 <1>   0.0800 
 48 H        9.0180    11.3970     0.7380 H     1 <1>   0.0800 
 49 H        7.4600    13.0080     1.3240 H     1 <1>   0.0800 
 50 H        7.7560    13.6400    -0.2820 H     1 <1>   0.0800 
@<TRIPOS>BOND
  1   1   2  1   
  2   1   3  1   
  3   2   4  2   
  4   2   5  1   
  5   3   6  2   
  6   3  26  1   
  7   4   6  1   
  8   4  27  1   
  9   5   7  1   
 10   5  28  1   
 11   5  29  1   
 12   6  30  1   
 13   7   8  1   
 14   7   9  1   
 15   7  31  1   
 16   8  10  1   
 17   8  32  1   
 18   8  33  1   
 19   9  11  1   
 20   9  34  1   
 21   9  35  1   
 22  10  36  1   
 23  11  12  1   
 24  11  37  1   
 25  12  13  ar  
 26  12  14  ar  
 27  13  15  ar  
 28  13  38  1   
 29  14  16  ar  
 30  14  39  1   
 31  15  17  ar  
 32  15  18  ar  
 33  16  17  ar  
 34  16  19  1   
 35  17  20  ar  
 36  18  21  ar  
 37  18  40  1   
 38  19  41  1   
 39  19  42  1   
 40  19  43  1   
 41  20  22  ar  
 42  20  44  1   
 43  21  22  ar  
 44  21  23  1   
 45  22  24  1   
 46  23  25  1   
 47  23  45  1   
 48  23  46  1   
 49  24  25  1   
 50  24  47  1   
 51  24  48  1   
 52  25  49  1   
 53  25  50  1   
@<TRIPOS>SUBSTRUCTURE
  1 ****  12 GROUP 4 **** **** 0

# MOE 2024.06 (io_trps.svl 2023.06)
