@<TRIPOS>MOLECULE
NONAME
41 42 1 0 0 
SMALL
USER_CHARGES


@<TRIPOS>ATOM
  1 O       -0.1730    -0.0530     0.7450 O.3   1 <1>  -0.6800 
  2 C       -1.4390     0.4070     0.4130 C.3   1 <1>   0.2800 
  3 C       -2.9200     0.9030     0.0820 C.3   1 <1>   0.0580 
  4 C       -1.1800     1.5720     1.4410 C.3   1 <1>  -0.1600 
  5 C       -1.5060    -0.8580    -0.5310 C.3   1 <1>  -0.2400 
  6 C       -4.0290    -0.1060     0.4140 C.2   1 <1>  -0.2880 
  7 C       -3.3220     2.2010     0.7830 C.3   1 <1>   0.0580 
  8 C       -1.9890     2.8070     1.0850 C.3   1 <1>  -0.1600 
  9 C       -5.2960    -0.0410    -0.0240 C.2   1 <1>  -0.2760 
 10 C       -4.2980     3.0610    -0.0350 C.2   1 <1>  -0.2760 
 11 C       -6.3890    -1.0700     0.3280 C.3   1 <1>   0.4180 
 12 C       -5.7450     1.1250    -0.9130 C.3   1 <1>  -0.0220 
 13 C       -4.0040     4.2420    -0.5940 C.2   1 <1>  -0.3000 
 14 C       -5.7010     2.4630    -0.1580 C.3   1 <1>  -0.0220 
 15 O       -5.8630    -2.0270     1.1600 O.3   1 <1>  -0.6800 
 16 C       -6.8770    -1.8260    -0.9050 C.3   1 <1>  -0.2400 
 17 C       -7.5420    -0.4400     1.1050 C.3   1 <1>  -0.2400 
 18 H       -0.1400    -1.0100     0.5730 H     1 <1>   0.4000 
 19 H       -2.9470     1.1370    -0.9690 H     1 <1>   0.0800 
 20 H       -1.4740     1.2340     2.4210 H     1 <1>   0.0800 
 21 H       -0.1620     1.9400     1.5120 H     1 <1>   0.0800 
 22 H       -2.3160    -0.8810    -1.2400 H     1 <1>   0.0800 
 23 H       -1.6250    -1.7590     0.0510 H     1 <1>   0.0800 
 24 H       -0.6460    -0.9540    -1.1820 H     1 <1>   0.0800 
 25 H       -3.6880    -0.8870     1.0720 H     1 <1>   0.1500 
 26 H       -3.7840     1.9660     1.7280 H     1 <1>   0.0800 
 27 H       -1.5590     3.2650     0.2120 H     1 <1>   0.0800 
 28 H       -2.0400     3.5170     1.8920 H     1 <1>   0.0800 
 29 H       -5.1180     1.1850    -1.7840 H     1 <1>   0.0800 
 30 H       -6.7460     0.9730    -1.2680 H     1 <1>   0.0800 
 31 H       -3.0490     4.7330    -0.5430 H     1 <1>   0.1500 
 32 H       -4.7070     4.8300    -1.1580 H     1 <1>   0.1500 
 33 H       -6.1230     2.3350     0.8230 H     1 <1>   0.0800 
 34 H       -6.3290     3.1610    -0.6830 H     1 <1>   0.0800 
 35 H       -6.5590    -2.6640     1.3860 H     1 <1>   0.4000 
 36 H       -7.3770    -1.1640    -1.5860 H     1 <1>   0.0800 
 37 H       -7.5670    -2.6030    -0.6300 H     1 <1>   0.0800 
 38 H       -6.0370    -2.2600    -1.4170 H     1 <1>   0.0800 
 39 H       -8.0600     0.2790     0.4990 H     1 <1>   0.0800 
 40 H       -7.1560     0.0670     1.9720 H     1 <1>   0.0800 
 41 H       -8.2500    -1.1860     1.4140 H     1 <1>   0.0800 
@<TRIPOS>BOND
  1   1   2  1   
  2   1  18  1   
  3   2   3  1   
  4   2   4  1   
  5   2   5  1   
  6   3   6  1   
  7   3   7  1   
  8   3  19  1   
  9   4   8  1   
 10   4  20  1   
 11   4  21  1   
 12   5  22  1   
 13   5  23  1   
 14   5  24  1   
 15   6   9  2   
 16   6  25  1   
 17   7   8  1   
 18   7  10  1   
 19   7  26  1   
 20   8  27  1   
 21   8  28  1   
 22   9  11  1   
 23   9  12  1   
 24  10  13  2   
 25  10  14  1   
 26  11  15  1   
 27  11  16  1   
 28  11  17  1   
 29  12  14  1   
 30  12  29  1   
 31  12  30  1   
 32  13  31  1   
 33  13  32  1   
 34  14  33  1   
 35  14  34  1   
 36  15  35  1   
 37  16  36  1   
 38  16  37  1   
 39  16  38  1   
 40  17  39  1   
 41  17  40  1   
 42  17  41  1   
@<TRIPOS>SUBSTRUCTURE
  1 ****   6 GROUP 4 **** **** 0

# MOE 2024.06 (io_trps.svl 2023.06)
