@<TRIPOS>MOLECULE
NONAME
44 45 1 0 0 
SMALL
USER_CHARGES


@<TRIPOS>ATOM
  1 S        0.4930    -0.9540    -1.6590 S.3   1 <1>  -0.3320 
  2 C        0.0390     0.7870    -1.8390 C.ar  1 <1>   0.1020 
  3 C       -0.9310    -1.9160    -2.3750 C.3   1 <1>   0.1310 
  4 C        0.3810     1.6710    -0.8170 C.ar  1 <1>   0.1170 
  5 C       -0.6420     1.2120    -2.9670 C.ar  1 <1>  -0.1500 
  6 C       -1.5240    -2.8620    -1.3360 C.2   1 <1>   0.5690 
  7 N        1.1190     1.2320     0.2950 N.am  1 <1>  -0.5470 
  8 C       -0.0200     2.9960    -0.9380 C.ar  1 <1>  -0.1500 
  9 C       -1.0240     2.5390    -3.0710 C.ar  1 <1>  -0.1500 
 10 O       -1.3030    -4.0440    -1.4820 O.2   1 <1>  -0.5700 
 11 N       -2.3120    -2.4170    -0.3030 N.am  1 <1>  -0.6600 
 12 C        0.9120     1.5100     1.6110 C.2   1 <1>   0.5690 
 13 C       -0.7180     3.4270    -2.0530 C.ar  1 <1>  -0.1500 
 14 C       -2.8370    -3.3860     0.7070 C.3   1 <1>   0.3200 
 15 C       -2.8250    -1.0200    -0.1430 C.3   1 <1>   0.1400 
 16 O       -0.0350     2.1410     2.0090 O.2   1 <1>  -0.5700 
 17 C        1.8930     0.9500     2.6090 C.3   1 <1>  -0.1790 
 18 C       -4.0690    -4.0980     0.1770 C.2   1 <1>   0.0060 
 19 C       -2.0580    -0.2850     0.9570 C.3   1 <1>   0.1200 
 20 N       -5.2590    -4.0110     0.6830 N.2   1 <1>  -0.5650 
 21 N       -3.9980    -4.9080    -0.8990 N.pl3 1 <1>   0.0330 
 22 O       -2.3820     1.0600     0.9080 O.3   1 <1>  -0.6800 
 23 C       -6.0030    -4.8080    -0.1100 C.2   1 <1>   0.0770 
 24 C       -5.2490    -5.3640    -1.0830 C.2   1 <1>  -0.3020 
 25 H       -0.5370    -2.4770    -3.2020 H     1 <1>   0.0800 
 26 H       -1.6740    -1.2310    -2.7300 H     1 <1>   0.0800 
 27 H       -0.8700     0.5320    -3.7660 H     1 <1>   0.1500 
 28 H        1.7910     0.4930     0.0850 H     1 <1>   0.3700 
 29 H        0.2150     3.6940    -0.1530 H     1 <1>   0.1500 
 30 H       -1.5580     2.8830    -3.9400 H     1 <1>   0.1500 
 31 H       -1.0220     4.4570    -2.1280 H     1 <1>   0.1500 
 32 H       -3.0910    -2.8730     1.6180 H     1 <1>   0.0800 
 33 H       -2.0790    -4.1140     0.9400 H     1 <1>   0.0800 
 34 H       -3.8720    -1.0510     0.1100 H     1 <1>   0.0800 
 35 H       -2.7230    -0.4730    -1.0610 H     1 <1>   0.0800 
 36 H        2.8910     1.2430     2.3440 H     1 <1>   0.0800 
 37 H        1.8230    -0.1210     2.6260 H     1 <1>   0.0800 
 38 H        1.6690     1.3300     3.5890 H     1 <1>   0.0800 
 39 H       -1.0010    -0.3790     0.7940 H     1 <1>   0.0800 
 40 H       -2.3140    -0.6560     1.9330 H     1 <1>   0.0800 
 41 H       -3.1400    -5.0880    -1.4400 H     1 <1>   0.2700 
 42 H       -1.6760     1.5960     1.3540 H     1 <1>   0.4000 
 43 H       -7.0580    -4.9400     0.0640 H     1 <1>   0.1500 
 44 H       -5.5250    -6.0390    -1.8730 H     1 <1>   0.1500 
@<TRIPOS>BOND
  1   1   2  1   
  2   1   3  1   
  3   2   4  ar  
  4   2   5  ar  
  5   3   6  1   
  6   3  25  1   
  7   3  26  1   
  8   4   7  1   
  9   4   8  ar  
 10   5   9  ar  
 11   5  27  1   
 12   6  10  2   
 13   6  11  am  
 14   7  12  am  
 15   7  28  1   
 16   8  13  ar  
 17   8  29  1   
 18   9  13  ar  
 19   9  30  1   
 20  11  14  1   
 21  11  15  1   
 22  12  16  2   
 23  12  17  1   
 24  13  31  1   
 25  14  18  1   
 26  14  32  1   
 27  14  33  1   
 28  15  19  1   
 29  15  34  1   
 30  15  35  1   
 31  17  36  1   
 32  17  37  1   
 33  17  38  1   
 34  18  20  2   
 35  18  21  1   
 36  19  22  1   
 37  19  39  1   
 38  19  40  1   
 39  20  23  1   
 40  21  24  1   
 41  21  41  1   
 42  22  42  1   
 43  23  24  2   
 44  23  43  1   
 45  24  44  1   
@<TRIPOS>SUBSTRUCTURE
  1 ****  15 GROUP 4 **** **** 0

# MOE 2024.06 (io_trps.svl 2023.06)
