@<TRIPOS>MOLECULE
NONAME
49 53 1 0 0 
SMALL
USER_CHARGES


@<TRIPOS>ATOM
  1 O       -0.5610     0.2590     0.6610 O.2   1 <1>  -0.5700 
  2 C       -1.5930     0.8580     0.4110 C.2   1 <1>   0.7160 
  3 N       -2.7900     0.1880     0.5690 N.am  1 <1>  -0.6600 
  4 C       -1.5480     2.2340    -0.0480 C.2   1 <1>  -0.0860 
  5 C       -2.8190    -1.1140     1.2960 C.3   1 <1>   0.1400 
  6 C       -4.0390     0.6170    -0.1260 C.3   1 <1>   0.1400 
  7 C       -0.7300     2.8330    -0.9780 C.2   1 <1>  -0.3320 
  8 C       -2.3850     3.2690     0.4200 C.2   1 <1>  -0.1500 
  9 C       -4.2490    -1.5030     1.6700 C.3   1 <1>  -0.1600 
 10 C       -4.7560    -0.6110    -0.6780 C.3   1 <1>  -0.1600 
 11 N       -1.0350     4.1470    -1.0900 N.pl3 1 <1>   0.0330 
 12 C        0.3790     2.1980    -1.8000 C.3   1 <1>  -0.0600 
 13 C       -2.0520     4.4090    -0.2320 C.2   1 <1>  -0.3020 
 14 C       -5.1870    -1.5620     0.4520 C.3   1 <1>   0.4600 
 15 O       -6.4430    -1.1390     0.9360 O.3   1 <1>  -0.5600 
 16 C       -5.2960    -2.9960    -0.0610 C.2   1 <1>  -0.3320 
 17 C       -7.6050    -1.5570     0.2570 C.3   1 <1>   0.1200 
 18 N       -4.2680    -3.7760    -0.5150 N.pl3 1 <1>   0.0330 
 19 C       -6.4450    -3.6960    -0.1270 C.2   1 <1>  -0.1810 
 20 C       -7.7570    -3.0860     0.2980 C.3   1 <1>   0.0210 
 21 C       -4.7860    -4.9980    -0.8690 C.ar  1 <1>  -0.1520 
 22 C       -6.1580    -4.9810    -0.6320 C.ar  1 <1>   0.0000 
 23 C       -4.1620    -6.1370    -1.3830 C.ar  1 <1>  -0.1500 
 24 C       -6.9220    -6.1180    -0.9110 C.ar  1 <1>  -0.1500 
 25 C       -4.9260    -7.2490    -1.6540 C.ar  1 <1>  -0.1500 
 26 C       -6.3070    -7.2390    -1.4180 C.ar  1 <1>  -0.1500 
 27 H       -2.2220    -1.0340     2.1900 H     1 <1>   0.0800 
 28 H       -2.3790    -1.8710     0.6710 H     1 <1>   0.0800 
 29 H       -3.8040     1.2850    -0.9380 H     1 <1>   0.0800 
 30 H       -4.6780     1.1350     0.5700 H     1 <1>   0.0800 
 31 H       -3.1430     3.1420     1.1740 H     1 <1>   0.1500 
 32 H       -4.6120    -0.7720     2.3700 H     1 <1>   0.0800 
 33 H       -4.2460    -2.4540     2.1700 H     1 <1>   0.0800 
 34 H       -4.0780    -1.1150    -1.3420 H     1 <1>   0.0800 
 35 H       -5.6030    -0.3110    -1.2630 H     1 <1>   0.0800 
 36 H       -0.5750     4.8270    -1.7050 H     1 <1>   0.2700 
 37 H        0.4440     1.1430    -1.6020 H     1 <1>   0.0800 
 38 H        1.3250     2.6450    -1.5500 H     1 <1>   0.0800 
 39 H        0.1910     2.3360    -2.8490 H     1 <1>   0.0800 
 40 H       -2.4780     5.3920    -0.1280 H     1 <1>   0.1500 
 41 H       -7.5480    -1.2190    -0.7620 H     1 <1>   0.0800 
 42 H       -8.4480    -1.0870     0.7310 H     1 <1>   0.0800 
 43 H       -3.2810    -3.5110    -0.5900 H     1 <1>   0.2700 
 44 H       -8.5420    -3.3910    -0.3690 H     1 <1>   0.0800 
 45 H       -8.0030    -3.4060     1.2940 H     1 <1>   0.0800 
 46 H       -3.1020    -6.1370    -1.5620 H     1 <1>   0.1500 
 47 H       -7.9790    -6.0960    -0.7240 H     1 <1>   0.1500 
 48 H       -4.4700    -8.1380    -2.0510 H     1 <1>   0.1500 
 49 H       -6.8810    -8.1220    -1.6370 H     1 <1>   0.1500 
@<TRIPOS>BOND
  1   1   2  2   
  2   2   3  am  
  3   2   4  1   
  4   3   5  1   
  5   3   6  1   
  6   4   7  2   
  7   4   8  1   
  8   5   9  1   
  9   5  27  1   
 10   5  28  1   
 11   6  10  1   
 12   6  29  1   
 13   6  30  1   
 14   7  11  1   
 15   7  12  1   
 16   8  13  2   
 17   8  31  1   
 18   9  14  1   
 19   9  32  1   
 20   9  33  1   
 21  10  14  1   
 22  10  34  1   
 23  10  35  1   
 24  11  13  1   
 25  11  36  1   
 26  12  37  1   
 27  12  38  1   
 28  12  39  1   
 29  13  40  1   
 30  14  15  1   
 31  14  16  1   
 32  15  17  1   
 33  16  18  1   
 34  16  19  2   
 35  17  20  1   
 36  17  41  1   
 37  17  42  1   
 38  18  21  1   
 39  18  43  1   
 40  19  20  1   
 41  19  22  1   
 42  20  44  1   
 43  20  45  1   
 44  21  22  ar  
 45  21  23  ar  
 46  22  24  ar  
 47  23  25  ar  
 48  23  46  1   
 49  24  26  ar  
 50  24  47  1   
 51  25  26  ar  
 52  25  48  1   
 53  26  49  1   
@<TRIPOS>SUBSTRUCTURE
  1 ****  10 GROUP 4 **** **** 0

# MOE 2024.06 (io_trps.svl 2023.06)
