@<TRIPOS>MOLECULE
NONAME
52 54 1 0 0 
SMALL
USER_CHARGES


@<TRIPOS>ATOM
  1 O        0.6770     0.5030    -2.6460 O.2   1 <1>  -0.5700 
  2 C        1.1400    -0.0650    -1.6860 C.2   1 <1>   0.5690 
  3 N        1.6140     0.5920    -0.5790 N.am  1 <1>  -0.5470 
  4 C        1.2680    -1.5950    -1.7230 C.3   1 <1>   0.1710 
  5 C        1.6080     1.9520    -0.2350 C.ar  1 <1>   0.1170 
  6 N        0.1930    -2.3730    -1.0390 N.3   1 <1>  -0.8100 
  7 C        0.7360     2.8760    -0.8030 C.ar  1 <1>  -0.1500 
  8 C        2.5000     2.3980     0.7350 C.ar  1 <1>  -0.1500 
  9 C        0.3110    -3.8160    -1.3660 C.3   1 <1>   0.1100 
 10 C        0.0250    -2.0970     0.3890 C.3   1 <1>   0.1100 
 11 C        0.7580     4.2040    -0.4170 C.ar  1 <1>  -0.1500 
 12 C        2.5250     3.7250     1.1250 C.ar  1 <1>  -0.1500 
 13 C       -0.5850    -4.7600    -0.5130 C.3   1 <1>   0.0000 
 14 C       -1.2880    -2.7150     0.8920 C.3   1 <1>  -0.1600 
 15 C        1.6530     4.6310     0.5480 C.ar  1 <1>  -0.1500 
 16 C       -1.7530    -3.9040     0.0380 C.3   1 <1>   0.2000 
 17 C       -1.1970    -5.8420    -1.4390 C.3   1 <1>   0.1200 
 18 C        0.2020    -5.4230     0.6640 C.3   1 <1>  -0.0170 
 19 O       -2.6370    -4.6660     0.7900 O.3   1 <1>  -0.6800 
 20 O       -0.2230    -6.4640    -2.2110 O.3   1 <1>  -0.6800 
 21 C        1.3480    -6.3560     0.2800 C.ar  1 <1>  -0.1440 
 22 C        2.6330    -5.8650     0.1000 C.ar  1 <1>  -0.1500 
 23 C        1.1180    -7.7160     0.1290 C.ar  1 <1>  -0.1500 
 24 C        3.6670    -6.7150    -0.2520 C.ar  1 <1>  -0.1500 
 25 C        2.1500    -8.5670    -0.2250 C.ar  1 <1>  -0.1500 
 26 C        3.4250    -8.0670    -0.4190 C.ar  1 <1>  -0.1500 
 27 H        2.0460    -0.0110     0.1160 H     1 <1>   0.3700 
 28 H        2.2210    -1.8690    -1.3100 H     1 <1>   0.0800 
 29 H        1.2770    -1.8760    -2.7610 H     1 <1>   0.0800 
 30 H        0.0300     2.5630    -1.5500 H     1 <1>   0.1500 
 31 H        3.1850     1.7060     1.1890 H     1 <1>   0.1500 
 32 H        0.0320    -3.9190    -2.4020 H     1 <1>   0.0800 
 33 H        1.3370    -4.1250    -1.2990 H     1 <1>   0.0800 
 34 H        0.8650    -2.4920     0.9330 H     1 <1>   0.0800 
 35 H       -0.0240    -1.0360     0.5640 H     1 <1>   0.0800 
 36 H        0.0780     4.9050    -0.8700 H     1 <1>   0.1500 
 37 H        3.2220     4.0550     1.8750 H     1 <1>   0.1500 
 38 H       -2.0540    -1.9600     0.8570 H     1 <1>   0.0800 
 39 H       -1.1560    -3.0010     1.9190 H     1 <1>   0.0800 
 40 H        1.6700     5.6650     0.8480 H     1 <1>   0.1500 
 41 H       -2.3090    -3.5170    -0.8020 H     1 <1>   0.0800 
 42 H       -1.9030    -5.3980    -2.1190 H     1 <1>   0.0800 
 43 H       -1.7070    -6.5960    -0.8640 H     1 <1>   0.0800 
 44 H        0.6040    -4.6670     1.3110 H     1 <1>   0.0800 
 45 H       -0.4830    -5.9950     1.2640 H     1 <1>   0.0800 
 46 H       -2.2720    -4.8330     1.6780 H     1 <1>   0.4000 
 47 H        0.4960    -6.8080    -1.6320 H     1 <1>   0.4000 
 48 H        2.8400    -4.8190     0.2360 H     1 <1>   0.1500 
 49 H        0.1330    -8.1240     0.2820 H     1 <1>   0.1500 
 50 H        4.6600    -6.3270    -0.3960 H     1 <1>   0.1500 
 51 H        1.9620    -9.6200    -0.3480 H     1 <1>   0.1500 
 52 H        4.2280    -8.7290    -0.6940 H     1 <1>   0.1500 
@<TRIPOS>BOND
  1   1   2  2   
  2   2   3  am  
  3   2   4  1   
  4   3   5  1   
  5   3  27  1   
  6   4   6  1   
  7   4  28  1   
  8   4  29  1   
  9   5   7  ar  
 10   5   8  ar  
 11   6   9  1   
 12   6  10  1   
 13   7  11  ar  
 14   7  30  1   
 15   8  12  ar  
 16   8  31  1   
 17   9  13  1   
 18   9  32  1   
 19   9  33  1   
 20  10  14  1   
 21  10  34  1   
 22  10  35  1   
 23  11  15  ar  
 24  11  36  1   
 25  12  15  ar  
 26  12  37  1   
 27  13  16  1   
 28  13  17  1   
 29  13  18  1   
 30  14  16  1   
 31  14  38  1   
 32  14  39  1   
 33  15  40  1   
 34  16  19  1   
 35  16  41  1   
 36  17  20  1   
 37  17  42  1   
 38  17  43  1   
 39  18  21  1   
 40  18  44  1   
 41  18  45  1   
 42  19  46  1   
 43  20  47  1   
 44  21  22  ar  
 45  21  23  ar  
 46  22  24  ar  
 47  22  48  1   
 48  23  25  ar  
 49  23  49  1   
 50  24  26  ar  
 51  24  50  1   
 52  25  26  ar  
 53  25  51  1   
 54  26  52  1   
@<TRIPOS>SUBSTRUCTURE
  1 ****   6 GROUP 4 **** **** 0

# MOE 2024.06 (io_trps.svl 2023.06)
