@<TRIPOS>MOLECULE
NONAME
55 58 1 0 0 
SMALL
USER_CHARGES


@<TRIPOS>ATOM
  1 O       -1.0560     0.4570    -0.4140 O.3   1 <1>  -0.5600 
  2 C       -2.0170     0.1390     0.5520 C.3   1 <1>   0.3800 
  3 C       -0.2280     1.5320    -0.0910 C.3   1 <1>   0.1200 
  4 C       -2.7250    -1.1470     0.1300 C.2   1 <1>  -0.0400 
  5 C       -2.9770     1.3310     0.7030 C.3   1 <1>  -0.1600 
  6 C       -1.0690     2.8080     0.0360 C.3   1 <1>  -0.1600 
  7 O       -2.0350    -2.2740     0.1160 O.3   1 <1>  -0.2800 
  8 C       -3.9990    -1.3840    -0.2590 C.2   1 <1>  -0.1500 
  9 C       -2.2120     2.6170     1.0390 C.3   1 <1>  -0.1600 
 10 C       -2.8320    -3.2400    -0.2900 C.2   1 <1>  -0.0400 
 11 C       -4.0710    -2.7540    -0.5360 C.2   1 <1>  -0.1500 
 12 C       -2.2310    -4.6280    -0.4050 C.3   1 <1>   0.5230 
 13 N       -3.2920    -5.6720    -0.3360 N.4   1 <1>  -0.9590 
 14 C       -3.9930    -5.7070     0.9750 C.3   1 <1>   0.3430 
 15 C       -2.8250    -7.0150    -0.7830 C.3   1 <1>   0.3430 
 16 C       -5.2820    -6.5310     0.8620 C.3   1 <1>  -0.1600 
 17 C       -3.9060    -8.0840    -0.5680 C.3   1 <1>  -0.1600 
 18 C       -5.3040    -7.4890    -0.3410 C.3   1 <1>   0.4240 
 19 O       -5.5900    -6.7180    -1.4570 O.3   1 <1>  -0.6800 
 20 C       -6.4120    -8.5600    -0.2220 C.ar  1 <1>   0.1670 
 21 N       -7.4290    -8.4770    -1.0800 N.ar  1 <1>  -0.6200 
 22 C       -6.3220    -9.5500     0.7500 C.ar  1 <1>  -0.1500 
 23 C       -8.3690    -9.4020    -0.9630 C.ar  1 <1>   0.1600 
 24 C       -7.3100   -10.5050     0.8570 C.ar  1 <1>  -0.1500 
 25 C       -8.3630   -10.4250    -0.0270 C.ar  1 <1>  -0.1440 
 26 C       -9.4870   -11.4460     0.0340 C.3   1 <1>  -0.0970 
 27 H       -1.5060    -0.0400     1.4820 H     1 <1>   0.0800 
 28 H        0.4970     1.6360    -0.8800 H     1 <1>   0.0800 
 29 H        0.2860     1.3080     0.8290 H     1 <1>   0.0800 
 30 H       -3.6930     1.1200     1.4760 H     1 <1>   0.0800 
 31 H       -3.5120     1.4640    -0.2210 H     1 <1>   0.0800 
 32 H       -1.4700     3.0530    -0.9330 H     1 <1>   0.0800 
 33 H       -0.4410     3.6250     0.3470 H     1 <1>   0.0800 
 34 H       -4.8130    -0.6880    -0.3580 H     1 <1>   0.1500 
 35 H       -1.8050     2.5420     2.0340 H     1 <1>   0.0800 
 36 H       -2.8760     3.4640     1.0110 H     1 <1>   0.0800 
 37 H       -4.9580    -3.2550    -0.8830 H     1 <1>   0.1500 
 38 H       -1.5280    -4.7720     0.3980 H     1 <1>   0.0800 
 39 H       -1.6970    -4.6950    -1.3390 H     1 <1>   0.0800 
 40 H       -4.0260    -5.4140    -1.0230 H     1 <1>   0.4500 
 41 H       -4.2380    -4.7070     1.2990 H     1 <1>   0.0800 
 42 H       -3.3450    -6.1480     1.7140 H     1 <1>   0.0800 
 43 H       -1.9310    -7.2980    -0.2510 H     1 <1>   0.0800 
 44 H       -2.5880    -6.9700    -1.8350 H     1 <1>   0.0800 
 45 H       -6.1340    -5.8760     0.8100 H     1 <1>   0.0800 
 46 H       -5.3870    -7.0920     1.7730 H     1 <1>   0.0800 
 47 H       -3.6290    -8.6760     0.2830 H     1 <1>   0.0800 
 48 H       -3.9300    -8.7490    -1.4130 H     1 <1>   0.0800 
 49 H       -6.4520    -7.0900    -1.7840 H     1 <1>   0.4000 
 50 H       -5.4910    -9.5890     1.4290 H     1 <1>   0.1500 
 51 H       -9.1930    -9.3420    -1.6540 H     1 <1>   0.1500 
 52 H       -7.2600   -11.2820     1.6010 H     1 <1>   0.1500 
 53 H      -10.3340   -11.1210    -0.5430 H     1 <1>   0.0800 
 54 H       -9.8050   -11.5870     1.0520 H     1 <1>   0.0800 
 55 H       -9.1460   -12.3880    -0.3560 H     1 <1>   0.0800 
@<TRIPOS>BOND
  1   1   2  1   
  2   1   3  1   
  3   2   4  1   
  4   2   5  1   
  5   2  27  1   
  6   3   6  1   
  7   3  28  1   
  8   3  29  1   
  9   4   7  1   
 10   4   8  2   
 11   5   9  1   
 12   5  30  1   
 13   5  31  1   
 14   6   9  1   
 15   6  32  1   
 16   6  33  1   
 17   7  10  1   
 18   8  11  1   
 19   8  34  1   
 20   9  35  1   
 21   9  36  1   
 22  10  11  2   
 23  10  12  1   
 24  11  37  1   
 25  12  13  1   
 26  12  38  1   
 27  12  39  1   
 28  13  14  1   
 29  13  15  1   
 30  13  40  1   
 31  14  16  1   
 32  14  41  1   
 33  14  42  1   
 34  15  17  1   
 35  15  43  1   
 36  15  44  1   
 37  16  18  1   
 38  16  45  1   
 39  16  46  1   
 40  17  18  1   
 41  17  47  1   
 42  17  48  1   
 43  18  19  1   
 44  18  20  1   
 45  19  49  1   
 46  20  21  ar  
 47  20  22  ar  
 48  21  23  ar  
 49  22  24  ar  
 50  22  50  1   
 51  23  25  ar  
 52  23  51  1   
 53  24  25  ar  
 54  24  52  1   
 55  25  26  1   
 56  26  53  1   
 57  26  54  1   
 58  26  55  1   
@<TRIPOS>SUBSTRUCTURE
  1 ****  13 GROUP 4 **** **** 0

# MOE 2024.06 (io_trps.svl 2023.06)
