@<TRIPOS>MOLECULE
NONAME
61 64 1 0 0 
SMALL
USER_CHARGES


@<TRIPOS>ATOM
  1 O        0.2130    -0.0750     1.0770 O.2   1 <1>  -0.5700 
  2 C        1.1030    -0.6850     0.5130 C.2   1 <1>   0.5440 
  3 N        0.7970    -1.8540    -0.1550 N.am  1 <1>  -0.6600 
  4 C        2.4630    -0.1790     0.5620 C.ar  1 <1>   0.0860 
  5 C        1.7520    -2.5670    -1.0470 C.3   1 <1>   0.1400 
  6 C       -0.5170    -2.5310     0.0130 C.3   1 <1>   0.1400 
  7 C        2.8680     0.9660    -0.1340 C.ar  1 <1>  -0.1440 
  8 C        3.4170    -0.8580     1.3180 C.ar  1 <1>  -0.1500 
  9 C        1.9970    -3.9750    -0.5030 C.3   1 <1>  -0.1600 
 10 C       -0.2930    -3.9450     0.5580 C.3   1 <1>  -0.1600 
 11 C        4.1850     1.3930    -0.0710 C.ar  1 <1>  -0.1500 
 12 C        1.8670     1.7540    -0.9680 C.3   1 <1>  -0.0970 
 13 C        4.7300    -0.4300     1.3790 C.ar  1 <1>  -0.1500 
 14 C        0.6760    -4.7530    -0.3260 C.3   1 <1>  -0.0190 
 15 C        5.1150     0.6990     0.6810 C.ar  1 <1>  -0.1500 
 16 C        0.9020    -6.1560     0.2550 C.2   1 <1>   0.5690 
 17 O        1.7490    -6.2810     1.1080 O.2   1 <1>  -0.5700 
 18 N        0.1580    -7.2260    -0.1740 N.am  1 <1>  -0.6600 
 19 C        0.4110    -8.5950     0.4050 C.3   1 <1>   0.3640 
 20 C       -1.0050    -7.1180    -1.1140 C.3   1 <1>   0.1400 
 21 C        1.2960    -9.4580    -0.5110 C.ar  1 <1>  -0.1430 
 22 C       -0.9130    -9.3450     0.7630 C.3   1 <1>   0.2000 
 23 C       -1.8070    -8.4230    -1.2200 C.3   1 <1>   0.1200 
 24 C        1.8590   -10.6070     0.0320 C.ar  1 <1>  -0.1500 
 25 C        1.5730    -9.1540    -1.8400 C.ar  1 <1>  -0.1500 
 26 O       -2.0540    -8.9030     0.0600 O.3   1 <1>  -0.5600 
 27 C       -1.2410    -9.2180     2.2550 C.3   1 <1>   0.1200 
 28 C        2.6560   -11.4400    -0.7320 C.ar  1 <1>  -0.1500 
 29 C        2.3700    -9.9860    -2.6070 C.ar  1 <1>  -0.1500 
 30 O       -0.3650    -9.9990     3.0060 O.3   1 <1>  -0.6800 
 31 C        2.9110   -11.1320    -2.0550 C.ar  1 <1>  -0.1500 
 32 H        1.3270    -2.6240    -2.0350 H     1 <1>   0.0800 
 33 H        2.6850    -2.0370    -1.1220 H     1 <1>   0.0800 
 34 H       -1.1460    -1.9820     0.6940 H     1 <1>   0.0800 
 35 H       -1.0150    -2.5720    -0.9400 H     1 <1>   0.0800 
 36 H        3.1160    -1.7360     1.8650 H     1 <1>   0.1500 
 37 H        2.6440    -4.5110    -1.1750 H     1 <1>   0.0800 
 38 H        2.5070    -3.8950     0.4420 H     1 <1>   0.0800 
 39 H        0.1070    -3.8710     1.5550 H     1 <1>   0.0800 
 40 H       -1.2390    -4.4510     0.6260 H     1 <1>   0.0800 
 41 H        4.4960     2.2740    -0.6050 H     1 <1>   0.1500 
 42 H        2.3440     2.5660    -1.4870 H     1 <1>   0.0800 
 43 H        1.1020     2.1620    -0.3290 H     1 <1>   0.0800 
 44 H        1.4010     1.1120    -1.6940 H     1 <1>   0.0800 
 45 H        5.4490    -0.9730     1.9680 H     1 <1>   0.1500 
 46 H        0.2440    -4.8460    -1.3040 H     1 <1>   0.0800 
 47 H        6.1360     1.0380     0.7250 H     1 <1>   0.1500 
 48 H        0.9680    -8.4870     1.3210 H     1 <1>   0.0800 
 49 H       -1.6690    -6.3460    -0.7660 H     1 <1>   0.0800 
 50 H       -0.6550    -6.8420    -2.0930 H     1 <1>   0.0800 
 51 H       -0.8050   -10.3890     0.5320 H     1 <1>   0.0800 
 52 H       -1.2740    -9.1720    -1.7810 H     1 <1>   0.0800 
 53 H       -2.7540    -8.2430    -1.6970 H     1 <1>   0.0800 
 54 H        1.6810   -10.8580     1.0640 H     1 <1>   0.1500 
 55 H        1.1830    -8.2660    -2.2970 H     1 <1>   0.1500 
 56 H       -2.2430    -9.5560     2.4560 H     1 <1>   0.0800 
 57 H       -1.1330    -8.1960     2.5740 H     1 <1>   0.0800 
 58 H        3.0820   -12.3260    -0.2950 H     1 <1>   0.1500 
 59 H        2.5740    -9.7390    -3.6340 H     1 <1>   0.1500 
 60 H       -0.6380   -10.9370     2.9900 H     1 <1>   0.4000 
 61 H        3.5310   -11.7780    -2.6510 H     1 <1>   0.1500 
@<TRIPOS>BOND
  1   1   2  2   
  2   2   3  am  
  3   2   4  1   
  4   3   5  1   
  5   3   6  1   
  6   4   7  ar  
  7   4   8  ar  
  8   5   9  1   
  9   5  32  1   
 10   5  33  1   
 11   6  10  1   
 12   6  34  1   
 13   6  35  1   
 14   7  11  ar  
 15   7  12  1   
 16   8  13  ar  
 17   8  36  1   
 18   9  14  1   
 19   9  37  1   
 20   9  38  1   
 21  10  14  1   
 22  10  39  1   
 23  10  40  1   
 24  11  15  ar  
 25  11  41  1   
 26  12  42  1   
 27  12  43  1   
 28  12  44  1   
 29  13  15  ar  
 30  13  45  1   
 31  14  16  1   
 32  14  46  1   
 33  15  47  1   
 34  16  17  2   
 35  16  18  am  
 36  18  19  1   
 37  18  20  1   
 38  19  21  1   
 39  19  22  1   
 40  19  48  1   
 41  20  23  1   
 42  20  49  1   
 43  20  50  1   
 44  21  24  ar  
 45  21  25  ar  
 46  22  26  1   
 47  22  27  1   
 48  22  51  1   
 49  23  26  1   
 50  23  52  1   
 51  23  53  1   
 52  24  28  ar  
 53  24  54  1   
 54  25  29  ar  
 55  25  55  1   
 56  27  30  1   
 57  27  56  1   
 58  27  57  1   
 59  28  31  ar  
 60  28  58  1   
 61  29  31  ar  
 62  29  59  1   
 63  30  60  1   
 64  31  61  1   
@<TRIPOS>SUBSTRUCTURE
  1 ****  14 GROUP 4 **** **** 0

# MOE 2024.06 (io_trps.svl 2023.06)
