@<TRIPOS>MOLECULE
NONAME
37 40 1 0 0 
SMALL
USER_CHARGES


@<TRIPOS>ATOM
  1 O        0.9440     0.2100     1.6960 O.3   1 <1>  -0.0190 
  2 N        1.9140     1.0850     1.6770 N.2   1 <1>  -0.4100 
  3 C        1.2160    -0.5800     0.6880 C.2   1 <1>   0.3930 
  4 C        2.6760     0.7750     0.6980 C.2   1 <1>   0.5990 
  5 N        2.2670    -0.2970     0.0350 N.2   1 <1>  -0.5650 
  6 C        0.2700    -1.7350     0.4020 C.3   1 <1>  -0.0150 
  7 N        3.8260     1.4680     0.3180 N.pl3 1 <1>  -0.8210 
  8 C        0.0920    -2.2800    -0.9830 C.3   1 <1>  -0.2000 
  9 C       -1.0120    -1.4980    -0.3370 C.3   1 <1>  -0.2000 
 10 C        4.4280     2.3760     1.3370 C.3   1 <1>   0.3530 
 11 C        4.8000     0.7800    -0.5800 C.3   1 <1>   0.1290 
 12 C        5.3240     3.4290     0.6910 C.ar  1 <1>  -0.1440 
 13 C        4.7720     4.4220    -0.1540 C.ar  1 <1>   0.0000 
 14 C        6.6730     3.4110     0.9400 C.ar  1 <1>  -0.1500 
 15 C        5.6200     5.3880    -0.7240 C.ar  1 <1>   0.0000 
 16 C        3.4100     4.5430    -0.4970 C.ar  1 <1>  -0.1500 
 17 C        7.5170     4.3670     0.3700 C.ar  1 <1>  -0.1500 
 18 C        5.0450     6.3740    -1.5590 C.ar  1 <1>   0.1600 
 19 C        6.9990     5.3350    -0.4440 C.ar  1 <1>  -0.1500 
 20 C        2.9790     5.5420    -1.3200 C.ar  1 <1>   0.1600 
 21 N        3.7850     6.4730    -1.8600 N.ar  1 <1>  -0.6200 
 22 H        0.2510    -2.4420     1.2120 H     1 <1>   0.1000 
 23 H       -0.0220    -3.3420    -1.1080 H     1 <1>   0.1000 
 24 H        0.6480    -1.8270    -1.7880 H     1 <1>   0.1000 
 25 H       -1.2230    -0.5080    -0.7040 H     1 <1>   0.1000 
 26 H       -1.8980    -2.0180    -0.0140 H     1 <1>   0.1000 
 27 H        4.9930     1.7850     2.0380 H     1 <1>   0.0800 
 28 H        3.6550     2.8840     1.8880 H     1 <1>   0.0800 
 29 H        4.2830     0.2840    -1.3830 H     1 <1>   0.0800 
 30 H        5.3620     0.0510    -0.0230 H     1 <1>   0.0800 
 31 H        5.4770     1.4930    -1.0180 H     1 <1>   0.0800 
 32 H        7.1110     2.6630     1.5790 H     1 <1>   0.1500 
 33 H        2.7030     3.8330    -0.1110 H     1 <1>   0.1500 
 34 H        8.5720     4.3300     0.5820 H     1 <1>   0.1500 
 35 H        5.7140     7.1030    -1.9800 H     1 <1>   0.1500 
 36 H        7.6440     6.0750    -0.8850 H     1 <1>   0.1500 
 37 H        1.9350     5.6170    -1.5730 H     1 <1>   0.1500 
@<TRIPOS>BOND
  1   1   2  1   
  2   1   3  1   
  3   2   4  2   
  4   3   5  2   
  5   3   6  1   
  6   4   5  1   
  7   4   7  1   
  8   6   8  1   
  9   6   9  1   
 10   6  22  1   
 11   7  10  1   
 12   7  11  1   
 13   8   9  1   
 14   8  23  1   
 15   8  24  1   
 16   9  25  1   
 17   9  26  1   
 18  10  12  1   
 19  10  27  1   
 20  10  28  1   
 21  11  29  1   
 22  11  30  1   
 23  11  31  1   
 24  12  13  ar  
 25  12  14  ar  
 26  13  15  ar  
 27  13  16  ar  
 28  14  17  ar  
 29  14  32  1   
 30  15  18  ar  
 31  15  19  ar  
 32  16  20  ar  
 33  16  33  1   
 34  17  19  ar  
 35  17  34  1   
 36  18  21  ar  
 37  18  35  1   
 38  19  36  1   
 39  20  21  ar  
 40  20  37  1   
@<TRIPOS>SUBSTRUCTURE
  1 ****   7 GROUP 4 **** **** 0

# MOE 2024.06 (io_trps.svl 2023.06)
