@<TRIPOS>MOLECULE
NONAME
47 48 1 0 0 
SMALL
USER_CHARGES


@<TRIPOS>ATOM
  1 S        1.4930     2.1890     1.2290 S.3   1 <1>  -0.3320 
  2 C        2.7360     1.3730     0.2370 C.ar  1 <1>   0.7220 
  3 C        0.0840     2.4980     0.0720 C.3   1 <1>  -0.0100 
  4 N        3.8060     1.0020     0.9020 N.ar  1 <1>  -0.6200 
  5 N        2.4540     1.2520    -1.0500 N.ar  1 <1>  -0.6200 
  6 C        4.7240     0.3850     0.1860 C.ar  1 <1>   0.4100 
  7 C        3.4160     0.6920    -1.7510 C.ar  1 <1>   0.1600 
  8 N        5.7910    -0.1580     0.8740 N.pl3 1 <1>  -0.8380 
  9 C        4.6050     0.2920    -1.1940 C.ar  1 <1>  -0.1790 
 10 C        6.2920     0.3950     2.1640 C.3   1 <1>   0.2090 
 11 C        6.1950    -1.5670     0.5630 C.3   1 <1>   0.1290 
 12 C        5.6800    -0.1200    -2.0320 C.2   1 <1>   0.9790 
 13 C        7.4280     1.4050     1.9330 C.3   1 <1>  -0.0800 
 14 O        6.7460     0.5290    -2.0230 O.co2 1 <1>  -0.9000 
 15 O        5.5500    -1.0620    -2.8190 O.co2 1 <1>  -0.9000 
 16 C        6.9630     2.5750     1.0450 C.3   1 <1>   0.3430 
 17 C        8.7300     0.7380     1.4410 C.3   1 <1>  -0.1600 
 18 N        7.5040     2.5010    -0.3460 N.4   1 <1>  -0.9590 
 19 C        9.6360     1.7790     0.7810 C.3   1 <1>  -0.1600 
 20 C        8.9820     2.3780    -0.4700 C.3   1 <1>   0.3430 
 21 C        6.9960     3.5760    -1.2460 C.3   1 <1>   0.3430 
 22 C        5.4940     3.4720    -1.5360 C.3   1 <1>   0.1200 
 23 O        5.0400     4.7080    -1.9740 O.3   1 <1>  -0.6800 
 24 H       -0.7030     2.9680     0.6320 H     1 <1>   0.0800 
 25 H       -0.2340     1.5480    -0.3190 H     1 <1>   0.0800 
 26 H        0.4370     3.1390    -0.7150 H     1 <1>   0.0800 
 27 H        3.2700     0.5640    -2.8130 H     1 <1>   0.1500 
 28 H        6.6430    -0.4050     2.7930 H     1 <1>   0.0800 
 29 H        5.4880     0.8760     2.6940 H     1 <1>   0.0800 
 30 H        5.4160    -2.0640     0.0090 H     1 <1>   0.0800 
 31 H        6.3700    -2.1240     1.4670 H     1 <1>   0.0800 
 32 H        7.0870    -1.5710    -0.0380 H     1 <1>   0.0800 
 33 H        7.6360     1.8340     2.8970 H     1 <1>   0.0800 
 34 H        7.2910     3.4980     1.4920 H     1 <1>   0.0800 
 35 H        5.8860     2.5850     1.0220 H     1 <1>   0.0800 
 36 H        8.5090    -0.0190     0.7090 H     1 <1>   0.0800 
 37 H        9.2360     0.2630     2.2640 H     1 <1>   0.0800 
 38 H        7.1470     1.5980    -0.7660 H     1 <1>   0.4500 
 39 H       10.5690     1.3240     0.4970 H     1 <1>   0.0800 
 40 H        9.8600     2.5660     1.4790 H     1 <1>   0.0800 
 41 H        9.4200     3.3420    -0.6680 H     1 <1>   0.0800 
 42 H        9.1900     1.7380    -1.3150 H     1 <1>   0.0800 
 43 H        7.5150     3.5220    -2.1890 H     1 <1>   0.0800 
 44 H        7.1960     4.5340    -0.7980 H     1 <1>   0.0800 
 45 H        4.9330     3.2130    -0.6570 H     1 <1>   0.0800 
 46 H        5.3180     2.7520    -2.3160 H     1 <1>   0.0800 
 47 H        4.0950     4.6520    -2.2280 H     1 <1>   0.4000 
@<TRIPOS>BOND
  1   1   2  1   
  2   1   3  1   
  3   2   4  ar  
  4   2   5  ar  
  5   3  24  1   
  6   3  25  1   
  7   3  26  1   
  8   4   6  ar  
  9   5   7  ar  
 10   6   8  1   
 11   6   9  ar  
 12   7   9  ar  
 13   7  27  1   
 14   8  10  1   
 15   8  11  1   
 16   9  12  1   
 17  10  13  1   
 18  10  28  1   
 19  10  29  1   
 20  11  30  1   
 21  11  31  1   
 22  11  32  1   
 23  12  14  ar  
 24  12  15  ar  
 25  13  16  1   
 26  13  17  1   
 27  13  33  1   
 28  16  18  1   
 29  16  34  1   
 30  16  35  1   
 31  17  19  1   
 32  17  36  1   
 33  17  37  1   
 34  18  20  1   
 35  18  21  1   
 36  18  38  1   
 37  19  20  1   
 38  19  39  1   
 39  19  40  1   
 40  20  41  1   
 41  20  42  1   
 42  21  22  1   
 43  21  43  1   
 44  21  44  1   
 45  22  23  1   
 46  22  45  1   
 47  22  46  1   
 48  23  47  1   
@<TRIPOS>SUBSTRUCTURE
  1 ****   6 GROUP 4 **** **** 0

# MOE 2024.06 (io_trps.svl 2023.06)
