@<TRIPOS>MOLECULE
NONAME
49 51 1 0 0 
SMALL
USER_CHARGES


@<TRIPOS>ATOM
  1 O       -0.2830     0.1940    -0.9630 O.2   1 <1>  -0.5700 
  2 C       -1.2820     0.7840    -0.6260 C.2   1 <1>   0.5690 
  3 N       -2.4330     0.1150    -0.3210 N.am  1 <1>  -0.6600 
  4 C       -1.2620     2.3020    -0.5440 C.3   1 <1>  -0.0990 
  5 C       -3.7420     0.7180     0.0370 C.3   1 <1>   0.1400 
  6 C       -2.5220    -1.3650    -0.3360 C.3   1 <1>   0.1400 
  7 C        0.1420     2.9110    -0.6750 C.3   1 <1>  -0.0160 
  8 C       -4.7210    -0.4560     0.0480 C.3   1 <1>   0.2000 
  9 C       -3.8650    -1.6910     0.3180 C.3   1 <1>  -0.0800 
 10 C        0.0730     4.4260    -0.5140 C.ar  1 <1>  -0.1440 
 11 O       -5.6810    -0.3110     1.0350 O.3   1 <1>  -0.6800 
 12 C       -4.4970    -2.9950    -0.1900 C.3   1 <1>   0.0210 
 13 C        0.2370     5.0580     0.7170 C.ar  1 <1>  -0.1440 
 14 C       -0.1710     5.1900    -1.6450 C.ar  1 <1>  -0.1500 
 15 C       -3.5520    -4.1660     0.0010 C.2   1 <1>   0.1080 
 16 C        0.1520     6.4410     0.7880 C.ar  1 <1>  -0.1500 
 17 C        0.5140     4.2810     1.9970 C.3   1 <1>  -0.0970 
 18 C       -0.2550     6.5680    -1.5650 C.ar  1 <1>  -0.1500 
 19 N       -3.0790    -4.5060     1.1600 N.2   1 <1>  -0.7070 
 20 C       -3.0820    -4.9850    -1.0200 C.2   1 <1>  -0.1500 
 21 C       -0.0930     7.1950    -0.3450 C.ar  1 <1>  -0.1500 
 22 N       -2.2850    -5.5630     0.9060 N.pl3 1 <1>   0.3000 
 23 C       -2.2690    -5.8710    -0.4080 C.2   1 <1>  -0.3320 
 24 C       -1.4650    -7.0110    -1.0070 C.3   1 <1>  -0.0600 
 25 H       -1.8860     2.6920    -1.3260 H     1 <1>   0.0800 
 26 H       -1.6790     2.6000     0.3980 H     1 <1>   0.0800 
 27 H       -3.6710     1.1640     1.0140 H     1 <1>   0.0800 
 28 H       -4.0350     1.4520    -0.6920 H     1 <1>   0.0800 
 29 H       -2.4930    -1.7060    -1.3570 H     1 <1>   0.0800 
 30 H       -1.7030    -1.8060     0.2080 H     1 <1>   0.0800 
 31 H        0.5480     2.6680    -1.6420 H     1 <1>   0.0800 
 32 H        0.8000     2.4770     0.0550 H     1 <1>   0.0800 
 33 H       -5.2180    -0.5210    -0.9040 H     1 <1>   0.0800 
 34 H       -3.6820    -1.7790     1.3760 H     1 <1>   0.0800 
 35 H       -5.2810    -0.4400     1.9180 H     1 <1>   0.4000 
 36 H       -4.7460    -2.9050    -1.2310 H     1 <1>   0.0800 
 37 H       -5.4020    -3.1920     0.3560 H     1 <1>   0.0800 
 38 H       -0.2980     4.7130    -2.6010 H     1 <1>   0.1500 
 39 H        0.2790     6.9440     1.7300 H     1 <1>   0.1500 
 40 H        0.4900     4.9280     2.8540 H     1 <1>   0.0800 
 41 H        1.4870     3.8260     1.9440 H     1 <1>   0.0800 
 42 H       -0.2250     3.5140     2.1370 H     1 <1>   0.0800 
 43 H       -0.4450     7.1490    -2.4500 H     1 <1>   0.1500 
 44 H       -3.3270    -4.9050    -2.0640 H     1 <1>   0.1500 
 45 H       -0.1570     8.2660    -0.2760 H     1 <1>   0.1500 
 46 H       -1.7680    -6.0490     1.6480 H     1 <1>   0.2700 
 47 H       -1.6190    -7.0520    -2.0710 H     1 <1>   0.0800 
 48 H       -1.7730    -7.9490    -0.5800 H     1 <1>   0.0800 
 49 H       -0.4170    -6.8650    -0.8190 H     1 <1>   0.0800 
@<TRIPOS>BOND
  1   1   2  2   
  2   2   3  am  
  3   2   4  1   
  4   3   5  1   
  5   3   6  1   
  6   4   7  1   
  7   4  25  1   
  8   4  26  1   
  9   5   8  1   
 10   5  27  1   
 11   5  28  1   
 12   6   9  1   
 13   6  29  1   
 14   6  30  1   
 15   7  10  1   
 16   7  31  1   
 17   7  32  1   
 18   8   9  1   
 19   8  11  1   
 20   8  33  1   
 21   9  12  1   
 22   9  34  1   
 23  10  13  ar  
 24  10  14  ar  
 25  11  35  1   
 26  12  15  1   
 27  12  36  1   
 28  12  37  1   
 29  13  16  ar  
 30  13  17  1   
 31  14  18  ar  
 32  14  38  1   
 33  15  19  2   
 34  15  20  1   
 35  16  21  ar  
 36  16  39  1   
 37  17  40  1   
 38  17  41  1   
 39  17  42  1   
 40  18  21  ar  
 41  18  43  1   
 42  19  22  1   
 43  20  23  2   
 44  20  44  1   
 45  21  45  1   
 46  22  23  1   
 47  22  46  1   
 48  23  24  1   
 49  24  47  1   
 50  24  48  1   
 51  24  49  1   
@<TRIPOS>SUBSTRUCTURE
  1 ****   3 GROUP 4 **** **** 0

# MOE 2024.06 (io_trps.svl 2023.06)
