@<TRIPOS>MOLECULE
NONAME
54 56 1 0 0 
SMALL
USER_CHARGES


@<TRIPOS>ATOM
  1 O        0.3010    -0.2540    -1.2700 O.2   1 <1>  -0.5700 
  2 C        1.1420     0.3650    -0.6390 C.2   1 <1>   0.5440 
  3 N        0.7740     1.5520    -0.0460 N.am  1 <1>  -0.6600 
  4 C        2.4860    -0.1460    -0.5270 C.ar  1 <1>   0.0860 
  5 C        1.5150     2.1970     1.0610 C.3   1 <1>   0.1400 
  6 C       -0.6020     2.0860    -0.1420 C.3   1 <1>   0.1400 
  7 C        2.7260    -1.4440    -0.0390 C.ar  1 <1>   0.4100 
  8 C        3.5820     0.6210    -0.8970 C.ar  1 <1>  -0.1500 
  9 C        0.4540     2.9580     1.8460 C.3   1 <1>  -0.1600 
 10 C       -0.6330     3.2680     0.8210 C.3   1 <1>  -0.1600 
 11 N        3.9420    -1.9700     0.1000 N.ar  1 <1>  -0.6200 
 12 N        1.6820    -2.2510     0.3380 N.pl3 1 <1>  -0.8690 
 13 C        4.8370     0.0750    -0.7560 C.ar  1 <1>  -0.1500 
 14 C        4.9580    -1.2090    -0.2560 C.ar  1 <1>   0.1600 
 15 C        1.7620    -3.7210     0.3060 C.3   1 <1>   0.3530 
 16 C        0.3720    -4.2760     0.0370 C.ar  1 <1>  -0.1430 
 17 C       -0.2140    -5.1660     0.9270 C.ar  1 <1>  -0.1500 
 18 C       -0.3240    -3.9010    -1.1050 C.ar  1 <1>  -0.1500 
 19 C       -1.4750    -5.6830     0.6810 C.ar  1 <1>   0.0830 
 20 C       -1.5920    -4.4000    -1.3490 C.ar  1 <1>  -0.1500 
 21 O       -1.9700    -6.5780     1.5710 O.3   1 <1>  -0.3620 
 22 C       -2.1830    -5.2760    -0.4550 C.ar  1 <1>   0.0830 
 23 C       -2.1370    -7.8970     1.1000 C.3   1 <1>   0.0400 
 24 O       -3.4420    -5.7040    -0.7290 O.3   1 <1>  -0.3630 
 25 C       -4.4700    -5.2960     0.1470 C.3   1 <1>   0.2000 
 26 C       -5.6310    -6.2720    -0.0280 C.3   1 <1>  -0.2400 
 27 C       -4.8820    -3.8670    -0.2110 C.3   1 <1>  -0.2400 
 28 H        2.2370     2.8820     0.6500 H     1 <1>   0.0800 
 29 H        2.0120     1.4670     1.6790 H     1 <1>   0.0800 
 30 H       -1.2980     1.3250     0.1690 H     1 <1>   0.0800 
 31 H       -0.8250     2.3850    -1.1520 H     1 <1>   0.0800 
 32 H        3.4440     1.6150    -1.2880 H     1 <1>   0.1500 
 33 H        0.8530     3.8460     2.3040 H     1 <1>   0.0800 
 34 H        0.0590     2.3140     2.6130 H     1 <1>   0.0800 
 35 H       -1.6020     3.3890     1.2720 H     1 <1>   0.0800 
 36 H       -0.3840     4.1640     0.2800 H     1 <1>   0.0800 
 37 H        0.7540    -1.9240     0.0340 H     1 <1>   0.4000 
 38 H        5.7150     0.6330    -1.0290 H     1 <1>   0.1500 
 39 H        5.9430    -1.6300    -0.1460 H     1 <1>   0.1500 
 40 H        2.1420    -4.0740     1.2490 H     1 <1>   0.0800 
 41 H        2.4340    -4.0370    -0.4750 H     1 <1>   0.0800 
 42 H        0.3030    -5.4710     1.8180 H     1 <1>   0.1500 
 43 H        0.1190    -3.2120    -1.8060 H     1 <1>   0.1500 
 44 H       -2.1320    -4.1020    -2.2300 H     1 <1>   0.1500 
 45 H       -2.4650    -8.5090     1.9200 H     1 <1>   0.0800 
 46 H       -1.1920    -8.2520     0.7270 H     1 <1>   0.0800 
 47 H       -2.8730    -7.9070     0.3170 H     1 <1>   0.0800 
 48 H       -4.1070    -5.3380     1.1600 H     1 <1>   0.0800 
 49 H       -5.9820    -6.2570    -1.0440 H     1 <1>   0.0800 
 50 H       -6.4420    -5.9970     0.6220 H     1 <1>   0.0800 
 51 H       -5.3150    -7.2660     0.2270 H     1 <1>   0.0800 
 52 H       -5.1990    -3.8150    -1.2370 H     1 <1>   0.0800 
 53 H       -4.0570    -3.1950    -0.0570 H     1 <1>   0.0800 
 54 H       -5.6930    -3.5510     0.4190 H     1 <1>   0.0800 
@<TRIPOS>BOND
  1   1   2  2   
  2   2   3  am  
  3   2   4  1   
  4   3   5  1   
  5   3   6  1   
  6   4   7  ar  
  7   4   8  ar  
  8   5   9  1   
  9   5  28  1   
 10   5  29  1   
 11   6  10  1   
 12   6  30  1   
 13   6  31  1   
 14   7  11  ar  
 15   7  12  1   
 16   8  13  ar  
 17   8  32  1   
 18   9  10  1   
 19   9  33  1   
 20   9  34  1   
 21  10  35  1   
 22  10  36  1   
 23  11  14  ar  
 24  12  15  1   
 25  12  37  1   
 26  13  14  ar  
 27  13  38  1   
 28  14  39  1   
 29  15  16  1   
 30  15  40  1   
 31  15  41  1   
 32  16  17  ar  
 33  16  18  ar  
 34  17  19  ar  
 35  17  42  1   
 36  18  20  ar  
 37  18  43  1   
 38  19  21  1   
 39  19  22  ar  
 40  20  22  ar  
 41  20  44  1   
 42  21  23  1   
 43  22  24  1   
 44  23  45  1   
 45  23  46  1   
 46  23  47  1   
 47  24  25  1   
 48  25  26  1   
 49  25  27  1   
 50  25  48  1   
 51  26  49  1   
 52  26  50  1   
 53  26  51  1   
 54  27  52  1   
 55  27  53  1   
 56  27  54  1   
@<TRIPOS>SUBSTRUCTURE
  1 ****  12 GROUP 4 **** **** 0

# MOE 2024.06 (io_trps.svl 2023.06)
