@<TRIPOS>MOLECULE
NONAME
20 19 1 0 0 
SMALL
USER_CHARGES


@<TRIPOS>ATOM
  1 F        5.9700     2.5250    -1.0550 F     1 <1>  -0.3400 
  2 C        6.5930     2.0450     0.0110 C.3   1 <1>   1.0200 
  3 F        7.8030     2.5810     0.0250 F     1 <1>  -0.3400 
  4 F        5.9490     2.5160     1.0690 F     1 <1>  -0.3400 
  5 C        6.6420     0.5090     0.0050 C.3   1 <1>  -0.1600 
  6 C        5.2530    -0.1680    -0.0110 C.3   1 <1>  -0.1600 
  7 C        5.3700    -1.7000    -0.0160 C.3   1 <1>  -0.1600 
  8 C        3.9860    -2.3520    -0.0320 C.3   1 <1>   0.3430 
  9 N        4.1370    -3.8240    -0.0360 N.4   1 <1>  -0.8530 
 10 H        7.1870     0.2000     0.8780 H     1 <1>   0.0800 
 11 H        7.2040     0.2070    -0.8600 H     1 <1>   0.0800 
 12 H        4.7130     0.1580    -0.8860 H     1 <1>   0.0800 
 13 H        4.6960     0.1510     0.8560 H     1 <1>   0.0800 
 14 H        5.9080    -2.0100     0.8640 H     1 <1>   0.0800 
 15 H        5.9250    -2.0030    -0.8880 H     1 <1>   0.0800 
 16 H        3.4470    -2.0330    -0.9110 H     1 <1>   0.0800 
 17 H        3.4290    -2.0390     0.8380 H     1 <1>   0.0800 
 18 H        4.6590    -4.1370    -0.8630 H     1 <1>   0.4500 
 19 H        3.2210    -4.2890    -0.0470 H     1 <1>   0.4500 
 20 H        4.6430    -4.1430     0.7980 H     1 <1>   0.4500 
@<TRIPOS>BOND
  1   1   2  1   
  2   2   3  1   
  3   2   4  1   
  4   2   5  1   
  5   5   6  1   
  6   5  10  1   
  7   5  11  1   
  8   6   7  1   
  9   6  12  1   
 10   6  13  1   
 11   7   8  1   
 12   7  14  1   
 13   7  15  1   
 14   8   9  1   
 15   8  16  1   
 16   8  17  1   
 17   9  18  1   
 18   9  19  1   
 19   9  20  1   
@<TRIPOS>SUBSTRUCTURE
  1 ****   6 GROUP 4 **** **** 0

# MOE 2024.06 (io_trps.svl 2023.06)
