@<TRIPOS>MOLECULE
NONAME
48 50 1 0 0 
SMALL
USER_CHARGES


@<TRIPOS>ATOM
  1 O       -0.6940    -0.3790    -0.1910 O.2   1 <1>  -0.5700 
  2 C       -0.5100    -1.5690    -0.0260 C.2   1 <1>   0.5440 
  3 N        0.7580    -1.9950     0.2650 N.am  1 <1>  -0.7300 
  4 C       -1.6100    -2.5030    -0.1170 C.ar  1 <1>   0.0860 
  5 C        1.9470    -1.1260     0.3530 C.3   1 <1>   0.1400 
  6 C       -2.9270    -2.0580    -0.0060 C.ar  1 <1>   0.1600 
  7 C       -1.4340    -3.8700    -0.3210 C.ar  1 <1>  -0.1500 
  8 C        3.1470    -1.8860    -0.1980 C.3   1 <1>  -0.2400 
  9 N       -4.0130    -2.8100    -0.0580 N.ar  1 <1>  -0.6200 
 10 C       -2.5520    -4.6660    -0.3790 C.ar  1 <1>  -0.1500 
 11 C       -3.8220    -4.1110    -0.2370 C.ar  1 <1>   0.4100 
 12 N       -4.9360    -4.9160    -0.2780 N.pl3 1 <1>  -0.8380 
 13 C       -5.0940    -5.9650     0.7670 C.3   1 <1>   0.3530 
 14 C       -6.1730    -4.4340    -0.9660 C.3   1 <1>   0.2090 
 15 C       -5.9860    -7.0910     0.2690 C.ar  1 <1>  -0.1430 
 16 C       -7.2360    -3.9000     0.0080 C.3   1 <1>  -0.1600 
 17 C       -7.3550    -7.0280     0.4880 C.ar  1 <1>   0.0820 
 18 C       -5.4540    -8.1730    -0.4140 C.ar  1 <1>  -0.1500 
 19 C       -8.3480    -4.9010     0.3690 C.3   1 <1>   0.1200 
 20 O       -7.8530    -5.9590     1.1570 O.3   1 <1>  -0.3630 
 21 C       -8.2000    -8.0430     0.0340 C.ar  1 <1>   0.0820 
 22 C       -6.2810    -9.1860    -0.8670 C.ar  1 <1>  -0.1500 
 23 O       -9.5380    -7.9240     0.2730 O.3   1 <1>  -0.3620 
 24 C       -7.6470    -9.1250    -0.6450 C.ar  1 <1>  -0.1500 
 25 C      -10.4280    -8.9850     0.0060 C.3   1 <1>   0.0400 
 26 H        0.9110    -2.9660     0.5340 H     1 <1>   0.3700 
 27 H        2.1150    -0.8530     1.3810 H     1 <1>   0.0800 
 28 H        1.7870    -0.2250    -0.2180 H     1 <1>   0.0800 
 29 H       -3.0840    -1.0020     0.1380 H     1 <1>   0.1500 
 30 H       -0.4540    -4.2930    -0.4410 H     1 <1>   0.1500 
 31 H        3.3340    -2.7710     0.3830 H     1 <1>   0.0800 
 32 H        4.0200    -1.2590    -0.1530 H     1 <1>   0.0800 
 33 H        2.9760    -2.1550    -1.2250 H     1 <1>   0.0800 
 34 H       -2.4690    -5.7220    -0.5460 H     1 <1>   0.1500 
 35 H       -5.5070    -5.5190     1.6550 H     1 <1>   0.0800 
 36 H       -4.1320    -6.3650     1.0310 H     1 <1>   0.0800 
 37 H       -6.5810    -5.2250    -1.5720 H     1 <1>   0.0800 
 38 H       -5.8970    -3.6390    -1.6380 H     1 <1>   0.0800 
 39 H       -7.7160    -3.0720    -0.4790 H     1 <1>   0.0800 
 40 H       -6.7720    -3.5090     0.8960 H     1 <1>   0.0800 
 41 H       -4.3960    -8.2240    -0.6000 H     1 <1>   0.1500 
 42 H       -8.8100    -5.3120    -0.5130 H     1 <1>   0.0800 
 43 H       -9.1050    -4.4080     0.9520 H     1 <1>   0.0800 
 44 H       -5.8600   -10.0230    -1.3960 H     1 <1>   0.1500 
 45 H       -8.2590    -9.9260    -1.0120 H     1 <1>   0.1500 
 46 H      -11.4060    -8.6910     0.3420 H     1 <1>   0.0800 
 47 H      -10.1030    -9.8570     0.5470 H     1 <1>   0.0800 
 48 H      -10.4450    -9.1700    -1.0530 H     1 <1>   0.0800 
@<TRIPOS>BOND
  1   1   2  2   
  2   2   3  am  
  3   2   4  1   
  4   3   5  1   
  5   3  26  1   
  6   4   6  ar  
  7   4   7  ar  
  8   5   8  1   
  9   5  27  1   
 10   5  28  1   
 11   6   9  ar  
 12   6  29  1   
 13   7  10  ar  
 14   7  30  1   
 15   8  31  1   
 16   8  32  1   
 17   8  33  1   
 18   9  11  ar  
 19  10  11  ar  
 20  10  34  1   
 21  11  12  1   
 22  12  13  1   
 23  12  14  1   
 24  13  15  1   
 25  13  35  1   
 26  13  36  1   
 27  14  16  1   
 28  14  37  1   
 29  14  38  1   
 30  15  17  ar  
 31  15  18  ar  
 32  16  19  1   
 33  16  39  1   
 34  16  40  1   
 35  17  20  1   
 36  17  21  ar  
 37  18  22  ar  
 38  18  41  1   
 39  19  20  1   
 40  19  42  1   
 41  19  43  1   
 42  21  23  1   
 43  21  24  ar  
 44  22  24  ar  
 45  22  44  1   
 46  23  25  1   
 47  24  45  1   
 48  25  46  1   
 49  25  47  1   
 50  25  48  1   
@<TRIPOS>SUBSTRUCTURE
  1 ****  12 GROUP 4 **** **** 0

# MOE 2024.06 (io_trps.svl 2023.06)
