@<TRIPOS>MOLECULE
NONAME
42 44 1 0 0 
SMALL
USER_CHARGES


@<TRIPOS>ATOM
  1 O        0.5140     0.6350     0.4260 O.2   1 <1>  -0.5700 
  2 C        1.6880     0.3950     0.2930 C.2   1 <1>   0.5690 
  3 N        2.7110     1.3020     0.2200 N.am  1 <1>  -0.4770 
  4 C        2.1970    -1.0170     0.1880 C.3   1 <1>  -0.0990 
  5 C        2.6280     2.7050     0.2240 C.ar  1 <1>   0.1170 
  6 C        4.0090     0.6090     0.0850 C.3   1 <1>   0.1400 
  7 C        3.6540    -0.8430    -0.2540 C.3   1 <1>  -0.1600 
  8 C        3.6200     3.4850     0.8120 C.ar  1 <1>  -0.1500 
  9 C        1.5550     3.3700    -0.3630 C.ar  1 <1>  -0.1500 
 10 C        3.5490     4.8650     0.8020 C.ar  1 <1>  -0.1500 
 11 C        1.4840     4.7490    -0.3720 C.ar  1 <1>  -0.1500 
 12 C        2.4820     5.5380     0.1990 C.ar  1 <1>   0.0860 
 13 C        2.4040     6.9850     0.1610 C.2   1 <1>   0.5440 
 14 O        1.3270     7.5450     0.1770 O.2   1 <1>  -0.5700 
 15 N        3.5600     7.7210     0.0640 N.am  1 <1>  -0.4940 
 16 C        3.7560     9.1000     0.1980 C.2   1 <1>   0.2040 
 17 O        2.8480     9.8940     0.7160 O.3   1 <1>  -0.0190 
 18 C        4.8280     9.8570    -0.1120 C.2   1 <1>  -0.1810 
 19 N        3.2600    11.1350     0.7710 N.2   1 <1>  -0.4100 
 20 C        4.4450    11.1390     0.2780 C.2   1 <1>   0.1080 
 21 C        6.1480     9.4410    -0.7400 C.3   1 <1>   0.0210 
 22 C        5.2830    12.3940     0.1510 C.3   1 <1>  -0.0590 
 23 C        7.2010     9.1840     0.3400 C.3   1 <1>  -0.2400 
 24 H        1.6230    -1.5780    -0.5260 H     1 <1>   0.0800 
 25 H        2.1350    -1.4800     1.1560 H     1 <1>   0.0800 
 26 H        4.5350     0.6560     1.0240 H     1 <1>   0.0800 
 27 H        4.6030     1.0600    -0.6920 H     1 <1>   0.0800 
 28 H        3.7270    -0.9790    -1.3190 H     1 <1>   0.0800 
 29 H        4.3140    -1.5400     0.2310 H     1 <1>   0.0800 
 30 H        4.4520     3.0080     1.2960 H     1 <1>   0.1500 
 31 H        0.7640     2.7990    -0.8170 H     1 <1>   0.1500 
 32 H        4.3270     5.4290     1.2850 H     1 <1>   0.1500 
 33 H        0.6360     5.2330    -0.8280 H     1 <1>   0.1500 
 34 H        4.3940     7.1920    -0.1670 H     1 <1>   0.3700 
 35 H        6.4890    10.2110    -1.4090 H     1 <1>   0.0800 
 36 H        6.0040     8.5470    -1.3200 H     1 <1>   0.0800 
 37 H        6.1840    12.2930     0.7270 H     1 <1>   0.0800 
 38 H        4.7310    13.2400     0.5180 H     1 <1>   0.0800 
 39 H        5.5340    12.5640    -0.8790 H     1 <1>   0.0800 
 40 H        7.3750    10.0770     0.9130 H     1 <1>   0.0800 
 41 H        8.1290     8.8800    -0.1130 H     1 <1>   0.0800 
 42 H        6.8710     8.4080     1.0070 H     1 <1>   0.0800 
@<TRIPOS>BOND
  1   1   2  2   
  2   2   3  am  
  3   2   4  1   
  4   3   5  1   
  5   3   6  1   
  6   4   7  1   
  7   4  24  1   
  8   4  25  1   
  9   5   8  ar  
 10   5   9  ar  
 11   6   7  1   
 12   6  26  1   
 13   6  27  1   
 14   7  28  1   
 15   7  29  1   
 16   8  10  ar  
 17   8  30  1   
 18   9  11  ar  
 19   9  31  1   
 20  10  12  ar  
 21  10  32  1   
 22  11  12  ar  
 23  11  33  1   
 24  12  13  1   
 25  13  14  2   
 26  13  15  am  
 27  15  16  1   
 28  15  34  1   
 29  16  17  1   
 30  16  18  2   
 31  17  19  1   
 32  18  20  1   
 33  18  21  1   
 34  19  20  2   
 35  20  22  1   
 36  21  23  1   
 37  21  35  1   
 38  21  36  1   
 39  22  37  1   
 40  22  38  1   
 41  22  39  1   
 42  23  40  1   
 43  23  41  1   
 44  23  42  1   
@<TRIPOS>SUBSTRUCTURE
  1 ****  12 GROUP 4 **** **** 0

# MOE 2024.06 (io_trps.svl 2023.06)
