@<TRIPOS>MOLECULE
NONAME
44 46 1 0 0 
SMALL
USER_CHARGES


@<TRIPOS>ATOM
  1 CL       1.6610    -1.9770    -1.1730 Cl    1 <1>  -0.1240 
  2 C        0.5290    -2.9180    -0.2410 C.2   1 <1>   0.1640 
  3 S       -0.8680    -3.5360    -1.0980 S.3   1 <1>  -0.0800 
  4 C        0.5220    -3.2700     1.0560 C.2   1 <1>  -0.1500 
  5 C       -1.4630    -4.2930     0.3800 C.2   1 <1>  -0.1400 
  6 C       -0.6220    -4.0590     1.4080 C.2   1 <1>  -0.1500 
  7 C       -2.7650    -5.0600     0.2980 C.3   1 <1>   0.5230 
  8 N       -3.8200    -4.0940    -0.1360 N.4   1 <1>  -0.9590 
  9 C       -4.4580    -4.5370    -1.4250 C.3   1 <1>   0.3430 
 10 C       -4.8020    -3.8270     0.9730 C.3   1 <1>   0.3430 
 11 C       -5.4760    -5.6970    -1.3000 C.3   1 <1>   0.2000 
 12 C       -6.1720    -4.4970     0.7450 C.3   1 <1>  -0.1600 
 13 O       -4.9160    -6.8470    -1.8240 O.3   1 <1>  -0.6800 
 14 C       -6.0180    -5.9220     0.1430 C.3   1 <1>  -0.1060 
 15 C       -5.0410    -6.7260     1.0230 C.2   1 <1>   0.9060 
 16 C       -7.3590    -6.6930     0.1350 C.3   1 <1>  -0.0160 
 17 O       -4.9060    -6.4130     2.2070 O.co2 1 <1>  -0.9000 
 18 O       -4.2650    -7.5360     0.5030 O.co2 1 <1>  -0.9000 
 19 C       -8.4860    -6.0040    -0.6290 C.ar  1 <1>  -0.1440 
 20 C       -9.3120    -5.0880     0.0050 C.ar  1 <1>  -0.1500 
 21 C       -8.7080    -6.3020    -1.9660 C.ar  1 <1>  -0.1500 
 22 C      -10.3310    -4.4620    -0.6920 C.ar  1 <1>  -0.1500 
 23 C       -9.7260    -5.6780    -2.6650 C.ar  1 <1>  -0.1500 
 24 C      -10.5370    -4.7550    -2.0290 C.ar  1 <1>  -0.1500 
 25 H        1.2750    -3.0080     1.7780 H     1 <1>   0.1500 
 26 H       -0.7520    -4.4140     2.4190 H     1 <1>   0.1500 
 27 H       -2.9970    -5.4770     1.2660 H     1 <1>   0.0800 
 28 H       -2.6790    -5.8760    -0.4030 H     1 <1>   0.0800 
 29 H       -3.2920    -3.2330    -0.3150 H     1 <1>   0.4500 
 30 H       -4.9930    -3.6960    -1.8310 H     1 <1>   0.0800 
 31 H       -3.7020    -4.8150    -2.1410 H     1 <1>   0.0800 
 32 H       -4.3940    -4.1930     1.9040 H     1 <1>   0.0800 
 33 H       -4.9510    -2.7660     1.0830 H     1 <1>   0.0800 
 34 H       -6.2860    -5.4440    -1.9590 H     1 <1>   0.0800 
 35 H       -6.6740    -4.5570     1.6960 H     1 <1>   0.0800 
 36 H       -6.7740    -3.8760     0.1060 H     1 <1>   0.0800 
 37 H       -4.5490    -7.3740    -1.0430 H     1 <1>   0.4000 
 38 H       -7.1950    -7.6700    -0.2870 H     1 <1>   0.0800 
 39 H       -7.6770    -6.8520     1.1520 H     1 <1>   0.0800 
 40 H       -9.1660    -4.8610     1.0460 H     1 <1>   0.1500 
 41 H       -8.0850    -7.0250    -2.4670 H     1 <1>   0.1500 
 42 H      -10.9670    -3.7510    -0.1940 H     1 <1>   0.1500 
 43 H       -9.8890    -5.9140    -3.7020 H     1 <1>   0.1500 
 44 H      -11.3290    -4.2700    -2.5710 H     1 <1>   0.1500 
@<TRIPOS>BOND
  1   1   2  1   
  2   2   3  1   
  3   2   4  2   
  4   3   5  1   
  5   4   6  1   
  6   4  25  1   
  7   5   6  2   
  8   5   7  1   
  9   6  26  1   
 10   7   8  1   
 11   7  27  1   
 12   7  28  1   
 13   8   9  1   
 14   8  10  1   
 15   8  29  1   
 16   9  11  1   
 17   9  30  1   
 18   9  31  1   
 19  10  12  1   
 20  10  32  1   
 21  10  33  1   
 22  11  13  1   
 23  11  14  1   
 24  11  34  1   
 25  12  14  1   
 26  12  35  1   
 27  12  36  1   
 28  13  37  1   
 29  14  15  1   
 30  14  16  1   
 31  15  17  ar  
 32  15  18  ar  
 33  16  19  1   
 34  16  38  1   
 35  16  39  1   
 36  19  20  ar  
 37  19  21  ar  
 38  20  22  ar  
 39  20  40  1   
 40  21  23  ar  
 41  21  41  1   
 42  22  24  ar  
 43  22  42  1   
 44  23  24  ar  
 45  23  43  1   
 46  24  44  1   
@<TRIPOS>SUBSTRUCTURE
  1 ****   9 GROUP 4 **** **** 0

# MOE 2024.06 (io_trps.svl 2023.06)
