@<TRIPOS>MOLECULE
NONAME
57 59 1 0 0 
SMALL
USER_CHARGES


@<TRIPOS>ATOM
  1 O        0.2240     0.8940     0.0810 O.2   1 <1>  -0.5700 
  2 C        0.1830     2.0910    -0.0490 C.2   1 <1>   0.5690 
  3 N       -0.5920     2.8460     0.7600 N.am  1 <1>  -0.7300 
  4 C        0.9890     2.7730    -1.1570 C.3   1 <1>   0.1810 
  5 C       -0.7270     4.3180     0.6340 C.3   1 <1>   0.3640 
  6 O        1.1910     4.1460    -0.9090 O.3   1 <1>  -0.5600 
  7 C       -2.2090     4.6810     0.6190 C.ar  1 <1>  -0.1440 
  8 C        0.0060     4.8740    -0.6140 C.3   1 <1>   0.2610 
  9 C       -3.1300     3.9410    -0.1120 C.ar  1 <1>  -0.1500 
 10 C       -2.6520     5.7800     1.3430 C.ar  1 <1>  -0.1500 
 11 C        0.2700     6.3760    -0.4220 C.2   1 <1>   0.5690 
 12 C       -4.4700     4.2900    -0.1130 C.ar  1 <1>  -0.1500 
 13 C       -3.9910     6.1290     1.3420 C.ar  1 <1>  -0.1500 
 14 O       -0.4900     7.1270    -0.9910 O.2   1 <1>  -0.5700 
 15 N        1.2840     6.8770     0.3730 N.am  1 <1>  -0.6600 
 16 C       -4.9010     5.3830     0.6150 C.ar  1 <1>  -0.1500 
 17 C        1.4360     8.3560     0.5380 C.3   1 <1>   0.1400 
 18 C        2.2620     6.0510     1.1430 C.3   1 <1>   0.1400 
 19 C        2.0680     8.9980    -0.7030 C.3   1 <1>  -0.0220 
 20 C        3.6130     6.0010     0.4250 C.3   1 <1>  -0.1600 
 21 C        2.3350    10.4810    -0.4750 C.2   1 <1>  -0.2760 
 22 C        4.5630     5.0050     1.1000 C.3   1 <1>  -0.2400 
 23 C        3.5590    10.9660    -0.2450 C.2   1 <1>  -0.2880 
 24 C        1.0970    11.3710    -0.5510 C.3   1 <1>  -0.0220 
 25 C        3.8760    12.4400    -0.0480 C.3   1 <1>  -0.0220 
 26 C        1.3680    12.7730     0.0150 C.3   1 <1>  -0.1600 
 27 C        2.7050    13.3280    -0.4920 C.3   1 <1>  -0.1600 
 28 H       -1.1700     2.3820     1.4620 H     1 <1>   0.3700 
 29 H        0.4750     2.6680    -2.0940 H     1 <1>   0.0800 
 30 H        1.9550     2.3080    -1.2350 H     1 <1>   0.0800 
 31 H       -0.2860     4.7570     1.5120 H     1 <1>   0.0800 
 32 H       -0.6420     4.7710    -1.4650 H     1 <1>   0.0800 
 33 H       -2.8150     3.0870    -0.6860 H     1 <1>   0.1500 
 34 H       -1.9590     6.3790     1.9080 H     1 <1>   0.1500 
 35 H       -5.1760     3.7100    -0.6800 H     1 <1>   0.1500 
 36 H       -4.3250     6.9840     1.9040 H     1 <1>   0.1500 
 37 H       -5.9430     5.6550     0.6140 H     1 <1>   0.1500 
 38 H        0.4660     8.7880     0.7110 H     1 <1>   0.0800 
 39 H        2.0480     8.5700     1.3970 H     1 <1>   0.0800 
 40 H        2.3890     6.4680     2.1270 H     1 <1>   0.0800 
 41 H        1.8960     5.0500     1.2660 H     1 <1>   0.0800 
 42 H        2.9960     8.5060    -0.9220 H     1 <1>   0.0800 
 43 H        1.4210     8.8770    -1.5540 H     1 <1>   0.0800 
 44 H        3.4620     5.7030    -0.5980 H     1 <1>   0.0800 
 45 H        4.0670     6.9760     0.4380 H     1 <1>   0.0800 
 46 H        4.1450     4.0140     1.0750 H     1 <1>   0.0800 
 47 H        4.7400     5.2850     2.1240 H     1 <1>   0.0800 
 48 H        5.5060     4.9900     0.5820 H     1 <1>   0.0800 
 49 H        4.4340    10.3420    -0.1800 H     1 <1>   0.1500 
 50 H        0.7950    11.4500    -1.5810 H     1 <1>   0.0800 
 51 H        0.2810    10.9350    -0.0030 H     1 <1>   0.0800 
 52 H        4.0910    12.6120     0.9920 H     1 <1>   0.0800 
 53 H        4.7500    12.7010    -0.6190 H     1 <1>   0.0800 
 54 H        0.5650    13.4340    -0.2630 H     1 <1>   0.0800 
 55 H        1.3970    12.7180     1.0900 H     1 <1>   0.0800 
 56 H        2.8530    14.3290    -0.1260 H     1 <1>   0.0800 
 57 H        2.6810    13.3660    -1.5670 H     1 <1>   0.0800 
@<TRIPOS>BOND
  1   1   2  2   
  2   2   3  am  
  3   2   4  1   
  4   3   5  1   
  5   3  28  1   
  6   4   6  1   
  7   4  29  1   
  8   4  30  1   
  9   5   7  1   
 10   5   8  1   
 11   5  31  1   
 12   6   8  1   
 13   7   9  ar  
 14   7  10  ar  
 15   8  11  1   
 16   8  32  1   
 17   9  12  ar  
 18   9  33  1   
 19  10  13  ar  
 20  10  34  1   
 21  11  14  2   
 22  11  15  am  
 23  12  16  ar  
 24  12  35  1   
 25  13  16  ar  
 26  13  36  1   
 27  15  17  1   
 28  15  18  1   
 29  16  37  1   
 30  17  19  1   
 31  17  38  1   
 32  17  39  1   
 33  18  20  1   
 34  18  40  1   
 35  18  41  1   
 36  19  21  1   
 37  19  42  1   
 38  19  43  1   
 39  20  22  1   
 40  20  44  1   
 41  20  45  1   
 42  21  23  2   
 43  21  24  1   
 44  22  46  1   
 45  22  47  1   
 46  22  48  1   
 47  23  25  1   
 48  23  49  1   
 49  24  26  1   
 50  24  50  1   
 51  24  51  1   
 52  25  27  1   
 53  25  52  1   
 54  25  53  1   
 55  26  27  1   
 56  26  54  1   
 57  26  55  1   
 58  27  56  1   
 59  27  57  1   
@<TRIPOS>SUBSTRUCTURE
  1 ****  11 GROUP 4 **** **** 0

# MOE 2024.06 (io_trps.svl 2023.06)
