@<TRIPOS>MOLECULE
NONAME
56 59 1 0 0 
SMALL
USER_CHARGES


@<TRIPOS>ATOM
  1 O       -0.7350     0.4620     0.6080 O.2   1 <1>  -0.5700 
  2 C       -1.7350     1.0700     0.2580 C.2   1 <1>   0.5440 
  3 N       -2.9510     0.4490     0.4890 N.am  1 <1>  -0.6600 
  4 C       -1.5800     2.3990    -0.3510 C.ar  1 <1>   0.3960 
  5 C       -4.2940     1.0320     0.2540 C.3   1 <1>   0.1400 
  6 C       -3.0470    -0.9010     1.0860 C.3   1 <1>   0.1400 
  7 N       -2.4950     2.9060    -1.1750 N.ar  1 <1>  -0.6200 
  8 C       -0.4440     3.1400    -0.0690 C.ar  1 <1>  -0.1500 
  9 C       -5.2920     0.0330     0.8520 C.3   1 <1>  -0.0800 
 10 C       -4.5240    -1.2930     1.0220 C.3   1 <1>  -0.0800 
 11 C       -2.2470     4.1040    -1.6500 C.ar  1 <1>   0.7200 
 12 C       -0.2870     4.3800    -0.6410 C.ar  1 <1>   0.1660 
 13 C       -6.6520    -0.0780     0.1090 C.3   1 <1>   0.4240 
 14 C       -4.8250    -2.2900    -0.1100 C.3   1 <1>  -0.1600 
 15 N       -1.1960     4.8720    -1.4450 N.ar  1 <1>  -0.6200 
 16 N       -3.1730     4.6020    -2.4690 N.pl3 1 <1>  -0.9000 
 17 C        0.9520     5.2340    -0.3640 C.3   1 <1>   0.0630 
 18 O       -6.4480     0.0080    -1.2580 O.3   1 <1>  -0.6800 
 19 C       -7.6090     1.0480     0.5530 C.ar  1 <1>  -0.1440 
 20 C       -7.2450    -1.4840     0.3190 C.3   1 <1>  -0.1600 
 21 C       -6.3290    -2.6220    -0.1930 C.3   1 <1>  -0.1600 
 22 C        2.2310     4.5360    -0.8460 C.3   1 <1>  -0.2400 
 23 C        1.0610     5.5960     1.1230 C.3   1 <1>  -0.2400 
 24 C       -8.2080     1.0030     1.8100 C.ar  1 <1>  -0.1500 
 25 C       -7.8920     2.1420    -0.2610 C.ar  1 <1>  -0.1500 
 26 C       -9.0660     2.0040     2.2320 C.ar  1 <1>  -0.1500 
 27 C       -8.7480     3.1450     0.1580 C.ar  1 <1>  -0.1500 
 28 C       -9.3390     3.0770     1.4050 C.ar  1 <1>  -0.1500 
 29 H       -4.3820     1.9940     0.7300 H     1 <1>   0.0800 
 30 H       -4.4260     1.1570    -0.8050 H     1 <1>   0.0800 
 31 H       -2.4210    -1.5940     0.5500 H     1 <1>   0.0800 
 32 H       -2.7170    -0.8490     2.1090 H     1 <1>   0.0800 
 33 H        0.3030     2.7400     0.5890 H     1 <1>   0.1500 
 34 H       -5.5000     0.3800     1.8480 H     1 <1>   0.0800 
 35 H       -4.7980    -1.7600     1.9530 H     1 <1>   0.0800 
 36 H       -4.4890    -1.8680    -1.0430 H     1 <1>   0.0800 
 37 H       -4.2670    -3.1980     0.0440 H     1 <1>   0.0800 
 38 H       -3.8040     3.9250    -2.8870 H     1 <1>   0.4000 
 39 H       -2.8640     5.3700    -3.0570 H     1 <1>   0.4000 
 40 H        0.8520     6.1530    -0.9180 H     1 <1>   0.0800 
 41 H       -5.9190    -0.7640    -1.5230 H     1 <1>   0.4000 
 42 H       -7.4000    -1.6370     1.3710 H     1 <1>   0.0800 
 43 H       -8.2110    -1.5420    -0.1510 H     1 <1>   0.0800 
 44 H       -6.5320    -3.5060     0.3870 H     1 <1>   0.0800 
 45 H       -6.5770    -2.8530    -1.2160 H     1 <1>   0.0800 
 46 H        2.4070     3.6290    -0.2960 H     1 <1>   0.0800 
 47 H        3.0790     5.1850    -0.7190 H     1 <1>   0.0800 
 48 H        2.1420     4.2930    -1.8900 H     1 <1>   0.0800 
 49 H        1.2090     4.7170     1.7250 H     1 <1>   0.0800 
 50 H        0.1600     6.0870     1.4450 H     1 <1>   0.0800 
 51 H        1.8880     6.2650     1.2820 H     1 <1>   0.0800 
 52 H       -8.0120     0.1880     2.4820 H     1 <1>   0.1500 
 53 H       -7.4470     2.2250    -1.2370 H     1 <1>   0.1500 
 54 H       -9.5220     1.9480     3.2050 H     1 <1>   0.1500 
 55 H       -8.9530     3.9790    -0.4900 H     1 <1>   0.1500 
 56 H      -10.0070     3.8550     1.7310 H     1 <1>   0.1500 
@<TRIPOS>BOND
  1   1   2  2   
  2   2   3  am  
  3   2   4  1   
  4   3   5  1   
  5   3   6  1   
  6   4   7  ar  
  7   4   8  ar  
  8   5   9  1   
  9   5  29  1   
 10   5  30  1   
 11   6  10  1   
 12   6  31  1   
 13   6  32  1   
 14   7  11  ar  
 15   8  12  ar  
 16   8  33  1   
 17   9  10  1   
 18   9  13  1   
 19   9  34  1   
 20  10  14  1   
 21  10  35  1   
 22  11  15  ar  
 23  11  16  1   
 24  12  15  ar  
 25  12  17  1   
 26  13  18  1   
 27  13  19  1   
 28  13  20  1   
 29  14  21  1   
 30  14  36  1   
 31  14  37  1   
 32  16  38  1   
 33  16  39  1   
 34  17  22  1   
 35  17  23  1   
 36  17  40  1   
 37  18  41  1   
 38  19  24  ar  
 39  19  25  ar  
 40  20  21  1   
 41  20  42  1   
 42  20  43  1   
 43  21  44  1   
 44  21  45  1   
 45  22  46  1   
 46  22  47  1   
 47  22  48  1   
 48  23  49  1   
 49  23  50  1   
 50  23  51  1   
 51  24  26  ar  
 52  24  52  1   
 53  25  27  ar  
 54  25  53  1   
 55  26  28  ar  
 56  26  54  1   
 57  27  28  ar  
 58  27  55  1   
 59  28  56  1   
@<TRIPOS>SUBSTRUCTURE
  1 ****   5 GROUP 4 **** **** 0

# MOE 2024.06 (io_trps.svl 2023.06)
