@<TRIPOS>MOLECULE
NONAME
55 58 1 0 0 
SMALL
USER_CHARGES


@<TRIPOS>ATOM
  1 O       -2.0240     2.1830    -2.7860 O.2   1 <1>  -0.5700 
  2 C       -2.3580     2.1980    -1.6230 C.2   1 <1>   0.5690 
  3 N       -3.5730     1.6990    -1.2160 N.am  1 <1>  -0.6600 
  4 C       -1.3540     2.7690    -0.6270 C.3   1 <1>   0.0440 
  5 C       -4.0970     1.7190     0.1770 C.3   1 <1>   0.1400 
  6 C       -4.4000     0.8600    -2.1220 C.3   1 <1>   0.1400 
  7 C       -0.8540     1.7210     0.3650 C.ar  1 <1>  -0.1440 
  8 C       -4.0650     0.2980     0.7420 C.3   1 <1>  -0.1600 
  9 C       -4.3500    -0.5830    -1.6150 C.3   1 <1>  -0.1600 
 10 C       -0.8420     1.9850     1.7270 C.ar  1 <1>  -0.1500 
 11 C       -0.4220     0.4840    -0.0900 C.ar  1 <1>  -0.1500 
 12 C       -4.8200    -0.6990    -0.1550 C.3   1 <1>   0.4240 
 13 C       -0.4190     1.0170     2.6230 C.ar  1 <1>  -0.1500 
 14 C       -0.0020    -0.4850     0.8050 C.ar  1 <1>  -0.1500 
 15 O       -6.1770    -0.3200    -0.1750 O.3   1 <1>  -0.5600 
 16 C       -4.6310    -2.1460     0.3490 C.ar  1 <1>  -0.1430 
 17 C       -0.0030    -0.2190     2.1620 C.ar  1 <1>  -0.1500 
 18 C       -6.9930    -0.7840     0.8550 C.3   1 <1>   0.1200 
 19 C       -5.7080    -2.9110     0.7740 C.ar  1 <1>  -0.1430 
 20 C       -3.3630    -2.7110     0.3970 C.ar  1 <1>  -0.1500 
 21 C       -7.0970    -2.3040     0.7570 C.3   1 <1>  -0.0170 
 22 C       -5.5200    -4.2120     1.2110 C.ar  1 <1>  -0.1500 
 23 C       -3.1520    -4.0030     0.8460 C.ar  1 <1>   0.0830 
 24 C       -4.2500    -4.7820     1.2450 C.ar  1 <1>   0.0830 
 25 O       -1.8470    -4.4010     0.8490 O.3   1 <1>  -0.3630 
 26 O       -4.0650    -6.0760     1.6420 O.3   1 <1>  -0.3620 
 27 C       -1.3650    -5.3210     1.8020 C.3   1 <1>   0.0400 
 28 C       -5.1420    -6.9780     1.7700 C.3   1 <1>   0.0400 
 29 H       -1.8090     3.5960    -0.1160 H     1 <1>   0.0800 
 30 H       -0.5110     3.1530    -1.1710 H     1 <1>   0.0800 
 31 H       -5.1110     2.0820     0.1640 H     1 <1>   0.0800 
 32 H       -3.5200     2.3760     0.8020 H     1 <1>   0.0800 
 33 H       -4.0290     0.9040    -3.1320 H     1 <1>   0.0800 
 34 H       -5.4140     1.2220    -2.1220 H     1 <1>   0.0800 
 35 H       -4.4730     0.2860     1.7340 H     1 <1>   0.0800 
 36 H       -3.0390    -0.0040     0.8280 H     1 <1>   0.0800 
 37 H       -3.3390    -0.9310    -1.7070 H     1 <1>   0.0800 
 38 H       -4.9650    -1.2100    -2.2330 H     1 <1>   0.0800 
 39 H       -1.1620     2.9410     2.1000 H     1 <1>   0.1500 
 40 H       -0.4180     0.2650    -1.1450 H     1 <1>   0.1500 
 41 H       -0.4140     1.2250     3.6780 H     1 <1>   0.1500 
 42 H        0.3220    -1.4460     0.4440 H     1 <1>   0.1500 
 43 H        0.3210    -0.9740     2.8570 H     1 <1>   0.1500 
 44 H       -7.9620    -0.3320     0.7370 H     1 <1>   0.0800 
 45 H       -6.5760    -0.4850     1.8000 H     1 <1>   0.0800 
 46 H       -2.5030    -2.1460     0.0870 H     1 <1>   0.1500 
 47 H       -7.5990    -2.5710    -0.1560 H     1 <1>   0.0800 
 48 H       -7.6750    -2.6720     1.5840 H     1 <1>   0.0800 
 49 H       -6.3800    -4.7690     1.5250 H     1 <1>   0.1500 
 50 H       -0.2970    -5.2180     1.8570 H     1 <1>   0.0800 
 51 H       -1.6190    -6.3150     1.4830 H     1 <1>   0.0800 
 52 H       -1.8080    -5.1010     2.7580 H     1 <1>   0.0800 
 53 H       -4.7370    -7.9550     1.9660 H     1 <1>   0.0800 
 54 H       -5.6990    -6.9920     0.8500 H     1 <1>   0.0800 
 55 H       -5.7600    -6.6700     2.5940 H     1 <1>   0.0800 
@<TRIPOS>BOND
  1   1   2  2   
  2   2   3  am  
  3   2   4  1   
  4   3   5  1   
  5   3   6  1   
  6   4   7  1   
  7   4  29  1   
  8   4  30  1   
  9   5   8  1   
 10   5  31  1   
 11   5  32  1   
 12   6   9  1   
 13   6  33  1   
 14   6  34  1   
 15   7  10  ar  
 16   7  11  ar  
 17   8  12  1   
 18   8  35  1   
 19   8  36  1   
 20   9  12  1   
 21   9  37  1   
 22   9  38  1   
 23  10  13  ar  
 24  10  39  1   
 25  11  14  ar  
 26  11  40  1   
 27  12  15  1   
 28  12  16  1   
 29  13  17  ar  
 30  13  41  1   
 31  14  17  ar  
 32  14  42  1   
 33  15  18  1   
 34  16  19  ar  
 35  16  20  ar  
 36  17  43  1   
 37  18  21  1   
 38  18  44  1   
 39  18  45  1   
 40  19  21  1   
 41  19  22  ar  
 42  20  23  ar  
 43  20  46  1   
 44  21  47  1   
 45  21  48  1   
 46  22  24  ar  
 47  22  49  1   
 48  23  24  ar  
 49  23  25  1   
 50  24  26  1   
 51  25  27  1   
 52  26  28  1   
 53  27  50  1   
 54  27  51  1   
 55  27  52  1   
 56  28  53  1   
 57  28  54  1   
 58  28  55  1   
@<TRIPOS>SUBSTRUCTURE
  1 ****  20 GROUP 4 **** **** 0

# MOE 2024.06 (io_trps.svl 2023.06)
