@<TRIPOS>MOLECULE
NONAME
45 47 1 0 0 
SMALL
USER_CHARGES


@<TRIPOS>ATOM
  1 S       -0.1560     0.0350    -1.1600 S.o2  1 <1>   1.3330 
  2 O        0.4840     0.2390    -2.4400 O.2   1 <1>  -0.6500 
  3 O       -1.0360    -1.0960    -0.9690 O.2   1 <1>  -0.6500 
  4 N        1.0550    -0.0550     0.0290 N.am  1 <1>  -0.8490 
  5 C       -1.0400     1.5400    -0.7430 C.3   1 <1>  -0.0550 
  6 C        0.6050    -0.6840     1.2760 C.3   1 <1>   0.1160 
  7 C        2.2690    -0.7180    -0.4550 C.3   1 <1>   0.1160 
  8 C       -0.2380     2.8380    -0.9890 C.3   1 <1>  -0.0800 
  9 C       -1.0500     4.1200    -0.8010 C.3   1 <1>   0.2000 
 10 C        0.9800     3.0270    -0.0740 C.3   1 <1>   0.1400 
 11 O       -1.7840     4.0230     0.3720 O.3   1 <1>  -0.6800 
 12 C        0.0150     5.1960    -0.6040 C.3   1 <1>   0.1400 
 13 N        1.1180     4.4980     0.1090 N.am  1 <1>  -0.6600 
 14 C        2.3160     5.0860     0.4550 C.2   1 <1>   0.5440 
 15 O        3.2960     4.3690     0.5670 O.2   1 <1>  -0.5700 
 16 C        2.4470     6.5190     0.6480 C.ar  1 <1>   0.0860 
 17 C        3.5530     7.2110     0.1220 C.ar  1 <1>  -0.1520 
 18 C        1.5210     7.2830     1.3450 C.ar  1 <1>  -0.1500 
 19 N        4.6410     6.7230    -0.5500 N.pl3 1 <1>   0.0330 
 20 C        3.6920     8.5900     0.2370 C.ar  1 <1>   0.0000 
 21 C        1.6500     8.6690     1.4760 C.ar  1 <1>  -0.1500 
 22 C        5.4500     7.7760    -0.8760 C.2   1 <1>  -0.3020 
 23 C        2.7240     9.3260     0.9210 C.ar  1 <1>  -0.1500 
 24 C        4.8990     8.9240    -0.4150 C.2   1 <1>  -0.1500 
 25 H       -1.9270     1.5820    -1.3440 H     1 <1>   0.0800 
 26 H       -1.3530     1.4940     0.2810 H     1 <1>   0.0800 
 27 H        1.3790    -0.6220     2.0210 H     1 <1>   0.0800 
 28 H        0.3610    -1.7200     1.1080 H     1 <1>   0.0800 
 29 H       -0.2700    -0.1810     1.6520 H     1 <1>   0.0800 
 30 H        3.0170    -0.7390     0.3190 H     1 <1>   0.0800 
 31 H        2.6740    -0.1790    -1.2960 H     1 <1>   0.0800 
 32 H        2.0480    -1.7260    -0.7640 H     1 <1>   0.0800 
 33 H        0.1220     2.8290    -2.0030 H     1 <1>   0.0800 
 34 H       -1.7230     4.3290    -1.6150 H     1 <1>   0.0800 
 35 H        1.8670     2.6060    -0.5180 H     1 <1>   0.0800 
 36 H        0.8190     2.5720     0.8880 H     1 <1>   0.0800 
 37 H       -1.1610     4.0210     1.1280 H     1 <1>   0.4000 
 38 H       -0.3750     6.0310    -0.0520 H     1 <1>   0.0800 
 39 H        0.3760     5.5350    -1.5600 H     1 <1>   0.0800 
 40 H        0.6780     6.8000     1.8050 H     1 <1>   0.1500 
 41 H        4.8140     5.7200    -0.7030 H     1 <1>   0.2700 
 42 H        0.9020     9.2200     2.0190 H     1 <1>   0.1500 
 43 H        6.3720     7.6390    -1.4140 H     1 <1>   0.1500 
 44 H        2.8380    10.3920     1.0100 H     1 <1>   0.1500 
 45 H        5.2810     9.9270    -0.5020 H     1 <1>   0.1500 
@<TRIPOS>BOND
  1   1   2  2   
  2   1   3  2   
  3   1   4  am  
  4   1   5  1   
  5   4   6  1   
  6   4   7  1   
  7   5   8  1   
  8   5  25  1   
  9   5  26  1   
 10   6  27  1   
 11   6  28  1   
 12   6  29  1   
 13   7  30  1   
 14   7  31  1   
 15   7  32  1   
 16   8   9  1   
 17   8  10  1   
 18   8  33  1   
 19   9  11  1   
 20   9  12  1   
 21   9  34  1   
 22  10  13  1   
 23  10  35  1   
 24  10  36  1   
 25  11  37  1   
 26  12  13  1   
 27  12  38  1   
 28  12  39  1   
 29  13  14  am  
 30  14  15  2   
 31  14  16  1   
 32  16  17  ar  
 33  16  18  ar  
 34  17  19  1   
 35  17  20  ar  
 36  18  21  ar  
 37  18  40  1   
 38  19  22  1   
 39  19  41  1   
 40  20  23  ar  
 41  20  24  1   
 42  21  23  ar  
 43  21  42  1   
 44  22  24  2   
 45  22  43  1   
 46  23  44  1   
 47  24  45  1   
@<TRIPOS>SUBSTRUCTURE
  1 ****  13 GROUP 4 **** **** 0

# MOE 2024.06 (io_trps.svl 2023.06)
