@<TRIPOS>MOLECULE
NONAME
40 42 1 0 0 
SMALL
USER_CHARGES


@<TRIPOS>ATOM
  1 O        1.1070    -0.6210    -2.0180 O.3   1 <1>  -0.6800 
  2 C        2.4050    -0.5190    -1.5300 C.3   1 <1>   0.2000 
  3 C        2.6390    -1.5290    -0.4130 C.3   1 <1>  -0.0800 
  4 C        2.6510     0.8290    -0.8620 C.3   1 <1>   0.2090 
  5 C        3.7710    -0.9010     0.4050 C.3   1 <1>   0.2090 
  6 C        2.9530    -2.9460    -0.9210 C.3   1 <1>  -0.0170 
  7 N        3.7040     0.5640     0.1590 N.pl3 1 <1>  -0.8380 
  8 C        3.1650    -3.9190     0.2280 C.ar  1 <1>   0.1660 
  9 C        4.9090     1.2090     0.0000 C.ar  1 <1>   0.4100 
 10 N        4.3890    -3.9890     0.7260 N.ar  1 <1>  -0.6200 
 11 C        2.0970    -4.6770     0.7040 C.ar  1 <1>   0.1600 
 12 N        5.5330     1.0350    -1.1490 N.ar  1 <1>  -0.6200 
 13 C        5.4490     1.9950     1.0070 C.ar  1 <1>  -0.1440 
 14 C        4.4740    -4.8610     1.7170 C.ar  1 <1>   0.1600 
 15 N        2.1790    -5.5480     1.6970 N.ar  1 <1>  -0.6200 
 16 C        6.6900     1.6520    -1.2710 C.ar  1 <1>   0.4770 
 17 C        6.6600     2.5830     0.7510 C.ar  1 <1>   0.1600 
 18 C        4.7290     2.1960     2.3340 C.3   1 <1>  -0.0970 
 19 C        3.4050    -5.6140     2.1870 C.ar  1 <1>   0.1600 
 20 N        7.3010     2.4220    -0.3900 N.ar  1 <1>  -0.6200 
 21 C        7.4010     1.4490    -2.5870 C.3   1 <1>  -0.0970 
 22 H        1.0130    -1.4140    -2.5780 H     1 <1>   0.4000 
 23 H        3.1030    -0.6470    -2.3400 H     1 <1>   0.0800 
 24 H        1.7680    -1.5550     0.2190 H     1 <1>   0.0800 
 25 H        1.7610     1.1690    -0.3630 H     1 <1>   0.0800 
 26 H        2.9730     1.5640    -1.5790 H     1 <1>   0.0800 
 27 H        4.7280    -1.2790     0.0800 H     1 <1>   0.0800 
 28 H        3.6540    -1.1130     1.4540 H     1 <1>   0.0800 
 29 H        3.8390    -2.9270    -1.5330 H     1 <1>   0.0800 
 30 H        2.1420    -3.2940    -1.5340 H     1 <1>   0.0800 
 31 H        1.1310    -4.5590     0.2460 H     1 <1>   0.1500 
 32 H        5.4360    -4.9850     2.1810 H     1 <1>   0.1500 
 33 H        7.1280     3.2050     1.4940 H     1 <1>   0.1500 
 34 H        5.2730     2.8660     2.9750 H     1 <1>   0.0800 
 35 H        4.6190     1.2500     2.8320 H     1 <1>   0.0800 
 36 H        3.7500     2.6040     2.1560 H     1 <1>   0.0800 
 37 H        3.5730    -6.2980     3.0000 H     1 <1>   0.1500 
 38 H        8.3290     1.9900    -2.6030 H     1 <1>   0.0800 
 39 H        6.7770     1.7970    -3.3880 H     1 <1>   0.0800 
 40 H        7.6030     0.4030    -2.7240 H     1 <1>   0.0800 
@<TRIPOS>BOND
  1   1   2  1   
  2   1  22  1   
  3   2   3  1   
  4   2   4  1   
  5   2  23  1   
  6   3   5  1   
  7   3   6  1   
  8   3  24  1   
  9   4   7  1   
 10   4  25  1   
 11   4  26  1   
 12   5   7  1   
 13   5  27  1   
 14   5  28  1   
 15   6   8  1   
 16   6  29  1   
 17   6  30  1   
 18   7   9  1   
 19   8  10  ar  
 20   8  11  ar  
 21   9  12  ar  
 22   9  13  ar  
 23  10  14  ar  
 24  11  15  ar  
 25  11  31  1   
 26  12  16  ar  
 27  13  17  ar  
 28  13  18  1   
 29  14  19  ar  
 30  14  32  1   
 31  15  19  ar  
 32  16  20  ar  
 33  16  21  1   
 34  17  20  ar  
 35  17  33  1   
 36  18  34  1   
 37  18  35  1   
 38  18  36  1   
 39  19  37  1   
 40  21  38  1   
 41  21  39  1   
 42  21  40  1   
@<TRIPOS>SUBSTRUCTURE
  1 ****   5 GROUP 4 **** **** 0

# MOE 2024.06 (io_trps.svl 2023.06)
