@<TRIPOS>MOLECULE
F1900-3877
23 24 1 0 0 
SMALL
USER_CHARGES


@<TRIPOS>ATOM
  1 F       -0.3900    -0.2870    -0.1750 F     1 <1>  -0.1900 
  2 C       -1.5420    -0.9080    -0.1690 C.ar  1 <1>   0.1900 
  3 C       -1.9300    -1.6710    -1.2420 C.ar  1 <1>   0.1600 
  4 C       -2.3810    -0.8140     0.9150 C.ar  1 <1>   0.1600 
  5 N       -3.0870    -2.3010    -1.2460 N.ar  1 <1>  -0.6200 
  6 N       -3.5430    -1.4330     0.9320 N.ar  1 <1>  -0.6200 
  7 C       -3.8560    -2.1260    -0.1680 C.ar  1 <1>   0.7370 
  8 N       -5.0710    -2.7660    -0.1650 N.am  1 <1>  -0.4770 
  9 C       -6.0900    -2.3970    -1.0100 C.2   1 <1>   0.5690 
 10 C       -5.3030    -3.7850     0.8950 C.3   1 <1>   0.1400 
 11 O       -6.0340    -1.4220    -1.7220 O.2   1 <1>  -0.5700 
 12 C       -7.3580    -3.2640    -1.0880 C.3   1 <1>   0.1710 
 13 C       -6.3570    -4.8250     0.4820 C.3   1 <1>   0.1100 
 14 N       -7.5980    -4.1630     0.0730 N.3   1 <1>  -0.9000 
 15 H       -1.2850    -1.7640    -2.0980 H     1 <1>   0.1500 
 16 H       -2.0910    -0.2260     1.7680 H     1 <1>   0.1500 
 17 H       -5.6330    -3.2830     1.7890 H     1 <1>   0.0800 
 18 H       -4.3770    -4.2860     1.1160 H     1 <1>   0.0800 
 19 H       -7.2840    -3.8580    -1.9820 H     1 <1>   0.0800 
 20 H       -8.2050    -2.6100    -1.2000 H     1 <1>   0.0800 
 21 H       -6.5600    -5.4730     1.3180 H     1 <1>   0.0800 
 22 H       -5.9740    -5.4280    -0.3250 H     1 <1>   0.0800 
 23 H       -8.3030    -4.8660    -0.1870 H     1 <1>   0.3600 
@<TRIPOS>BOND
  1   1   2  1   
  2   2   3  ar  
  3   2   4  ar  
  4   3   5  ar  
  5   3  15  1   
  6   4   6  ar  
  7   4  16  1   
  8   5   7  ar  
  9   6   7  ar  
 10   7   8  1   
 11   8   9  am  
 12   8  10  1   
 13   9  11  2   
 14   9  12  1   
 15  10  13  1   
 16  10  17  1   
 17  10  18  1   
 18  12  14  1   
 19  12  19  1   
 20  12  20  1   
 21  13  14  1   
 22  13  21  1   
 23  13  22  1   
 24  14  23  1   
@<TRIPOS>SUBSTRUCTURE
  1 ****   7 GROUP 4 **** **** 0

# MOE 2024.06 (io_trps.svl 2023.06)
