@<TRIPOS>MOLECULE
NONAME
47 47 1 0 0 
SMALL
USER_CHARGES


@<TRIPOS>ATOM
  1 O       -1.3270    -2.1320    -1.6610 O.2   1 <1>  -0.5700 
  2 C       -1.9320    -1.1410    -1.3450 C.2   1 <1>   0.4230 
  3 C       -3.2390    -1.2130    -0.7520 C.ar  1 <1>   0.0860 
  4 C       -1.2790     0.1880    -1.6690 C.3   1 <1>  -0.1790 
  5 C       -3.7320    -0.4250     0.2880 C.ar  1 <1>   0.1660 
  6 C       -4.1280    -2.1630    -1.2310 C.ar  1 <1>   0.1600 
  7 N       -4.9590    -0.5420     0.7310 N.ar  1 <1>  -0.6200 
  8 C       -2.8860     0.6080     1.0140 C.3   1 <1>  -0.0960 
  9 N       -5.3550    -2.3110    -0.7910 N.ar  1 <1>  -0.6200 
 10 C       -5.7120    -1.4640     0.1640 C.ar  1 <1>   0.7200 
 11 N       -6.9570    -1.5590     0.6600 N.pl3 1 <1>  -0.8690 
 12 C       -8.1390    -2.1990     0.0230 C.3   1 <1>   0.2090 
 13 C       -8.3030    -3.6660     0.4740 C.3   1 <1>   0.3430 
 14 N       -7.1040    -4.5020     0.1130 N.4   1 <1>  -0.9590 
 15 C       -7.4570    -5.2630    -1.1250 C.3   1 <1>   0.4230 
 16 C       -6.5180    -5.2390     1.2860 C.3   1 <1>   0.4230 
 17 C       -8.1070    -6.6110    -0.8080 C.3   1 <1>  -0.2400 
 18 C       -6.2830    -5.3930    -2.0920 C.3   1 <1>  -0.2400 
 19 C       -6.2350    -4.2860     2.4540 C.3   1 <1>  -0.2400 
 20 C       -5.1890    -5.9020     0.9190 C.3   1 <1>  -0.2400 
 21 H       -2.0120     0.9700    -1.7420 H     1 <1>   0.0800 
 22 H       -0.7710     0.1120    -2.6140 H     1 <1>   0.0800 
 23 H       -0.5550     0.4350    -0.9160 H     1 <1>   0.0800 
 24 H       -3.7890    -2.8210    -2.0160 H     1 <1>   0.1500 
 25 H       -1.8720     0.2710     1.1210 H     1 <1>   0.0800 
 26 H       -3.2780     0.7780     2.0020 H     1 <1>   0.0800 
 27 H       -2.9040     1.5420     0.4820 H     1 <1>   0.0800 
 28 H       -7.1510    -0.8230     1.3440 H     1 <1>   0.4000 
 29 H       -8.0420    -2.1560    -1.0490 H     1 <1>   0.0800 
 30 H       -9.0210    -1.6450     0.2920 H     1 <1>   0.0800 
 31 H       -9.1850    -4.0750     0.0110 H     1 <1>   0.0800 
 32 H       -8.4770    -3.6770     1.5340 H     1 <1>   0.0800 
 33 H       -6.3810    -3.8050    -0.1580 H     1 <1>   0.4500 
 34 H       -8.1950    -4.6840    -1.6560 H     1 <1>   0.0800 
 35 H       -7.2080    -5.9970     1.6190 H     1 <1>   0.0800 
 36 H       -7.4060    -7.3090    -0.3930 H     1 <1>   0.0800 
 37 H       -8.4870    -7.0410    -1.7180 H     1 <1>   0.0800 
 38 H       -8.9350    -6.4880    -0.1340 H     1 <1>   0.0800 
 39 H       -5.5040    -6.0320    -1.7300 H     1 <1>   0.0800 
 40 H       -5.8760    -4.4280    -2.3250 H     1 <1>   0.0800 
 41 H       -6.6370    -5.8200    -3.0140 H     1 <1>   0.0800 
 42 H       -5.5700    -3.4970     2.1530 H     1 <1>   0.0800 
 43 H       -5.7560    -4.8250     3.2520 H     1 <1>   0.0800 
 44 H       -7.1270    -3.8640     2.8730 H     1 <1>   0.0800 
 45 H       -4.5320    -5.2030     0.4320 H     1 <1>   0.0800 
 46 H       -5.3380    -6.7640     0.3000 H     1 <1>   0.0800 
 47 H       -4.6950    -6.2570     1.8060 H     1 <1>   0.0800 
@<TRIPOS>BOND
  1   1   2  2   
  2   2   3  1   
  3   2   4  1   
  4   3   5  ar  
  5   3   6  ar  
  6   4  21  1   
  7   4  22  1   
  8   4  23  1   
  9   5   7  ar  
 10   5   8  1   
 11   6   9  ar  
 12   6  24  1   
 13   7  10  ar  
 14   8  25  1   
 15   8  26  1   
 16   8  27  1   
 17   9  10  ar  
 18  10  11  1   
 19  11  12  1   
 20  11  28  1   
 21  12  13  1   
 22  12  29  1   
 23  12  30  1   
 24  13  14  1   
 25  13  31  1   
 26  13  32  1   
 27  14  15  1   
 28  14  16  1   
 29  14  33  1   
 30  15  17  1   
 31  15  18  1   
 32  15  34  1   
 33  16  19  1   
 34  16  20  1   
 35  16  35  1   
 36  17  36  1   
 37  17  37  1   
 38  17  38  1   
 39  18  39  1   
 40  18  40  1   
 41  18  41  1   
 42  19  42  1   
 43  19  43  1   
 44  19  44  1   
 45  20  45  1   
 46  20  46  1   
 47  20  47  1   
@<TRIPOS>SUBSTRUCTURE
  1 ****   9 GROUP 4 **** **** 0

# MOE 2024.06 (io_trps.svl 2023.06)
