@<TRIPOS>MOLECULE
NONAME
54 57 1 0 0 
SMALL
USER_CHARGES


@<TRIPOS>ATOM
  1 O       -2.5210    -3.9460    -0.0410 O.co2 1 <1>  -0.9000 
  2 C       -1.3240    -3.8000     0.2710 C.2   1 <1>   1.0330 
  3 O       -1.0200    -4.0680     1.4450 O.co2 1 <1>  -0.9000 
  4 C       -0.3170    -3.5690    -0.7170 C.2   1 <1>  -0.2330 
  5 C       -0.3940    -4.0570    -2.0200 C.2   1 <1>   0.3720 
  6 C        0.9160    -2.9980    -0.6690 C.2   1 <1>   0.0870 
  7 N        0.6850    -3.8370    -2.6780 N.2   1 <1>  -0.4100 
  8 N       -1.4950    -4.7390    -2.5160 N.pl3 1 <1>  -0.8520 
  9 O        1.4610    -3.1860    -1.8520 O.3   1 <1>  -0.0190 
 10 C        1.6600    -2.3090     0.3600 C.ar  1 <1>   0.0530 
 11 C       -1.3610    -5.9980    -3.2880 C.3   1 <1>   0.2090 
 12 C        3.0510    -2.2110     0.2930 C.ar  1 <1>  -0.1500 
 13 C        1.0340    -1.7080     1.4530 C.ar  1 <1>  -0.1500 
 14 C       -0.5660    -7.1330    -2.5940 C.3   1 <1>  -0.1600 
 15 C        3.7810    -1.5530     1.2670 C.ar  1 <1>  -0.1500 
 16 C        1.7560    -1.0500     2.4310 C.ar  1 <1>  -0.1500 
 17 C       -0.5140    -7.1420    -1.0500 C.3   1 <1>  -0.0800 
 18 C        3.1340    -0.9710     2.3410 C.ar  1 <1>  -0.1500 
 19 C       -1.8680    -6.9880    -0.3150 C.3   1 <1>   0.4230 
 20 C        0.3010    -8.3050    -0.4640 C.3   1 <1>  -0.1600 
 21 N       -1.7610    -7.3280     1.1310 N.4   1 <1>  -0.9590 
 22 C       -3.0710    -7.7860    -0.8310 C.3   1 <1>  -0.1600 
 23 C        0.5730    -8.0370     1.0370 C.3   1 <1>  -0.1600 
 24 C       -0.4150    -7.0480     1.6830 C.3   1 <1>   0.3430 
 25 C       -2.8360    -6.5850     1.8330 C.3   1 <1>   0.3430 
 26 C       -4.3430    -7.2860    -0.1180 C.3   1 <1>  -0.1600 
 27 C       -4.1690    -7.2220     1.4140 C.3   1 <1>  -0.1600 
 28 H       -2.2790    -4.6730    -1.8380 H     1 <1>   0.4000 
 29 H       -2.3530    -6.3460    -3.5190 H     1 <1>   0.0800 
 30 H       -0.8880    -5.7670    -4.2280 H     1 <1>   0.0800 
 31 H        3.5700    -2.6590    -0.5350 H     1 <1>   0.1500 
 32 H       -0.0360    -1.7580     1.5440 H     1 <1>   0.1500 
 33 H       -0.9420    -8.0740    -2.9510 H     1 <1>   0.0800 
 34 H        0.4470    -7.0590    -2.9500 H     1 <1>   0.0800 
 35 H        4.8530    -1.4950     1.1890 H     1 <1>   0.1500 
 36 H        1.2420    -0.6020     3.2640 H     1 <1>   0.1500 
 37 H        0.0520    -6.2640    -0.8010 H     1 <1>   0.0800 
 38 H        3.6970    -0.4590     3.1020 H     1 <1>   0.1500 
 39 H       -2.1370    -5.9580    -0.4070 H     1 <1>   0.0800 
 40 H       -0.2480    -9.2230    -0.5830 H     1 <1>   0.0800 
 41 H        1.2380    -8.4080    -0.9850 H     1 <1>   0.0800 
 42 H       -1.9430    -8.3260     1.2210 H     1 <1>   0.4500 
 43 H       -3.1970    -7.6360    -1.8850 H     1 <1>   0.0800 
 44 H       -2.9210    -8.8370    -0.6640 H     1 <1>   0.0800 
 45 H        1.5600    -7.6200     1.1480 H     1 <1>   0.0800 
 46 H        0.5620    -8.9660     1.5790 H     1 <1>   0.0800 
 47 H       -0.1260    -6.0380     1.4420 H     1 <1>   0.0800 
 48 H       -0.4090    -7.1530     2.7550 H     1 <1>   0.0800 
 49 H       -2.7090    -6.6530     2.9000 H     1 <1>   0.0800 
 50 H       -2.8130    -5.5420     1.5550 H     1 <1>   0.0800 
 51 H       -4.5590    -6.2900    -0.4710 H     1 <1>   0.0800 
 52 H       -5.1840    -7.9100    -0.3710 H     1 <1>   0.0800 
 53 H       -4.2280    -8.2130     1.8290 H     1 <1>   0.0800 
 54 H       -4.9740    -6.6470     1.8390 H     1 <1>   0.0800 
@<TRIPOS>BOND
  1   1   2  ar  
  2   2   3  ar  
  3   2   4  1   
  4   4   5  1   
  5   4   6  2   
  6   5   7  2   
  7   5   8  1   
  8   6   9  1   
  9   6  10  1   
 10   7   9  1   
 11   8  11  1   
 12   8  28  1   
 13  10  12  ar  
 14  10  13  ar  
 15  11  14  1   
 16  11  29  1   
 17  11  30  1   
 18  12  15  ar  
 19  12  31  1   
 20  13  16  ar  
 21  13  32  1   
 22  14  17  1   
 23  14  33  1   
 24  14  34  1   
 25  15  18  ar  
 26  15  35  1   
 27  16  18  ar  
 28  16  36  1   
 29  17  19  1   
 30  17  20  1   
 31  17  37  1   
 32  18  38  1   
 33  19  21  1   
 34  19  22  1   
 35  19  39  1   
 36  20  23  1   
 37  20  40  1   
 38  20  41  1   
 39  21  24  1   
 40  21  25  1   
 41  21  42  1   
 42  22  26  1   
 43  22  43  1   
 44  22  44  1   
 45  23  24  1   
 46  23  45  1   
 47  23  46  1   
 48  24  47  1   
 49  24  48  1   
 50  25  27  1   
 51  25  49  1   
 52  25  50  1   
 53  26  27  1   
 54  26  51  1   
 55  26  52  1   
 56  27  53  1   
 57  27  54  1   
@<TRIPOS>SUBSTRUCTURE
  1 ****   4 GROUP 4 **** **** 0

# MOE 2024.06 (io_trps.svl 2023.06)
