@<TRIPOS>MOLECULE
NONAME
44 45 1 0 0 
SMALL
USER_CHARGES


@<TRIPOS>ATOM
  1 S       -0.3720     1.7550    -1.2750 S.o2  1 <1>   1.3330 
  2 O       -0.9740     0.5370    -1.7680 O.2   1 <1>  -0.6500 
  3 O       -0.5450     2.9720    -2.0370 O.2   1 <1>  -0.6500 
  4 N        1.2940     1.4560    -1.1670 N.am  1 <1>  -0.8490 
  5 C       -0.9870     2.0320     0.3990 C.3   1 <1>  -0.0550 
  6 C        1.6270     0.1740    -0.5360 C.3   1 <1>   0.1160 
  7 C        1.9340     1.5200    -2.4830 C.3   1 <1>   0.1160 
  8 C       -0.4320     3.1890     1.2710 C.3   1 <1>  -0.0800 
  9 C       -0.3130     4.5430     0.5620 C.3   1 <1>   0.2000 
 10 C        0.9710     2.9250     1.8240 C.3   1 <1>   0.1400 
 11 O       -0.5090     5.5280     1.5170 O.3   1 <1>  -0.6800 
 12 C        1.1410     4.6270     0.0870 C.3   1 <1>   0.1400 
 13 N        1.8940     3.6870     0.9590 N.am  1 <1>  -0.6600 
 14 C        3.1930     3.2910     0.7740 C.2   1 <1>   0.5690 
 15 O        3.6860     2.4240     1.4580 O.2   1 <1>  -0.5700 
 16 C        4.0560     3.9160    -0.3140 C.3   1 <1>   0.0440 
 17 C        4.2290     5.4240    -0.1640 C.ar  1 <1>  -0.1440 
 18 C        3.9510     6.2740    -1.2250 C.ar  1 <1>  -0.1500 
 19 C        4.6640     5.9610     1.0420 C.ar  1 <1>  -0.1500 
 20 C        4.1070     7.6350    -1.0480 C.ar  1 <1>   0.1900 
 21 C        4.8140     7.3310     1.2000 C.ar  1 <1>  -0.1500 
 22 F        3.8400     8.4330    -2.0470 F     1 <1>  -0.1900 
 23 C        4.5330     8.1830     0.1460 C.ar  1 <1>  -0.1500 
 24 H       -2.0430     2.1990     0.3090 H     1 <1>   0.0800 
 25 H       -0.8810     1.1200     0.9530 H     1 <1>   0.0800 
 26 H        2.6940     0.0910    -0.4140 H     1 <1>   0.0800 
 27 H        1.2750    -0.6480    -1.1380 H     1 <1>   0.0800 
 28 H        1.1760     0.1050     0.4380 H     1 <1>   0.0800 
 29 H        2.9930     1.3500    -2.3920 H     1 <1>   0.0800 
 30 H        1.7830     2.4930    -2.9200 H     1 <1>   0.0800 
 31 H        1.5120     0.7790    -3.1420 H     1 <1>   0.0800 
 32 H       -1.1100     3.2770     2.1030 H     1 <1>   0.0800 
 33 H       -1.0310     4.6960    -0.2260 H     1 <1>   0.0800 
 34 H        1.2200     1.8780     1.8290 H     1 <1>   0.0800 
 35 H        1.0530     3.3050     2.8280 H     1 <1>   0.0800 
 36 H        0.2590     5.5460     2.1220 H     1 <1>   0.4000 
 37 H        1.5200     5.6310     0.1710 H     1 <1>   0.0800 
 38 H        1.2210     4.3060    -0.9360 H     1 <1>   0.0800 
 39 H        5.0270     3.4550    -0.2870 H     1 <1>   0.0800 
 40 H        3.6160     3.6830    -1.2640 H     1 <1>   0.0800 
 41 H        3.6170     5.9010    -2.1760 H     1 <1>   0.1500 
 42 H        4.8860     5.3090     1.8710 H     1 <1>   0.1500 
 43 H        5.1500     7.7300     2.1420 H     1 <1>   0.1500 
 44 H        4.6400     9.2480     0.2440 H     1 <1>   0.1500 
@<TRIPOS>BOND
  1   1   2  2   
  2   1   3  2   
  3   1   4  am  
  4   1   5  1   
  5   4   6  1   
  6   4   7  1   
  7   5   8  1   
  8   5  24  1   
  9   5  25  1   
 10   6  26  1   
 11   6  27  1   
 12   6  28  1   
 13   7  29  1   
 14   7  30  1   
 15   7  31  1   
 16   8   9  1   
 17   8  10  1   
 18   8  32  1   
 19   9  11  1   
 20   9  12  1   
 21   9  33  1   
 22  10  13  1   
 23  10  34  1   
 24  10  35  1   
 25  11  36  1   
 26  12  13  1   
 27  12  37  1   
 28  12  38  1   
 29  13  14  am  
 30  14  15  2   
 31  14  16  1   
 32  16  17  1   
 33  16  39  1   
 34  16  40  1   
 35  17  18  ar  
 36  17  19  ar  
 37  18  20  ar  
 38  18  41  1   
 39  19  21  ar  
 40  19  42  1   
 41  20  22  1   
 42  20  23  ar  
 43  21  23  ar  
 44  21  43  1   
 45  23  44  1   
@<TRIPOS>SUBSTRUCTURE
  1 ****  12 GROUP 4 **** **** 0

# MOE 2024.06 (io_trps.svl 2023.06)
