@<TRIPOS>MOLECULE
NONAME
53 55 1 0 0 
SMALL
USER_CHARGES


@<TRIPOS>ATOM
  1 O       -1.2720    -0.6220     1.7670 O.2   1 <1>  -0.5700 
  2 C       -1.5880     0.3910     1.1920 C.2   1 <1>   0.5690 
  3 N       -2.2970     0.3410     0.0070 N.am  1 <1>  -0.6600 
  4 C       -1.1300     1.6810     1.8650 C.3   1 <1>   0.1570 
  5 C       -2.4150    -1.0010    -0.6680 C.3   1 <1>   0.3210 
  6 C       -2.5790     1.5380    -0.8660 C.3   1 <1>   0.1400 
  7 N       -0.3200     2.5380     0.9710 N.pl3 1 <1>   0.0480 
  8 C       -3.6050    -1.8170    -0.1590 C.2   1 <1>   0.0460 
  9 C       -3.9590     1.5430    -1.5550 C.3   1 <1>   0.3430 
 10 C       -0.6300     3.8250     0.6470 C.ar  1 <1>  -0.1520 
 11 C        0.6620     2.1720     0.0960 C.2   1 <1>   0.0060 
 12 N       -4.8720    -1.5410    -0.5420 N.2   1 <1>  -0.5650 
 13 C       -3.5840    -2.8890     0.6700 C.2   1 <1>  -0.3320 
 14 N       -5.0910     1.2820    -0.6140 N.4   1 <1>  -0.9590 
 15 C        0.1680     4.1360    -0.4380 C.ar  1 <1>   0.2270 
 16 C       -1.5270     4.7640     1.1690 C.ar  1 <1>  -0.1500 
 17 N        0.9600     3.0810    -0.7620 N.2   1 <1>  -0.5650 
 18 C        1.3560     0.8220     0.1170 C.3   1 <1>  -0.0600 
 19 C       -5.5820    -2.4460     0.0520 C.2   1 <1>   0.0360 
 20 N       -4.8580    -3.2930     0.8090 N.pl3 1 <1>   0.0330 
 21 C       -2.4350    -3.6010     1.3680 C.3   1 <1>  -0.0600 
 22 C       -6.3850     1.1870    -1.3470 C.3   1 <1>   0.2630 
 23 C       -5.1780     2.2240     0.5380 C.3   1 <1>   0.2630 
 24 C        0.0770     5.3890    -1.0400 C.ar  1 <1>  -0.1500 
 25 C       -1.6110     6.0010     0.5680 C.ar  1 <1>  -0.1500 
 26 C       -0.8120     6.3130    -0.5380 C.ar  1 <1>  -0.1500 
 27 H       -0.5330     1.4370     2.7230 H     1 <1>   0.0800 
 28 H       -1.9920     2.2220     2.2000 H     1 <1>   0.0800 
 29 H       -1.5130    -1.5620    -0.5020 H     1 <1>   0.0800 
 30 H       -2.5090    -0.8790    -1.7320 H     1 <1>   0.0800 
 31 H       -1.8110     1.6080    -1.6190 H     1 <1>   0.0800 
 32 H       -2.5310     2.4360    -0.2860 H     1 <1>   0.0800 
 33 H       -3.9590     0.7860    -2.3220 H     1 <1>   0.0800 
 34 H       -4.1020     2.4950    -2.0380 H     1 <1>   0.0800 
 35 H       -4.9030     0.3190    -0.2410 H     1 <1>   0.4500 
 36 H       -2.1280     4.5340     2.0300 H     1 <1>   0.1500 
 37 H        1.5820     0.5300     1.1260 H     1 <1>   0.0800 
 38 H        2.2790     0.8840    -0.4320 H     1 <1>   0.0800 
 39 H        0.7390     0.0740    -0.3430 H     1 <1>   0.0800 
 40 H       -6.6520    -2.5420    -0.0330 H     1 <1>   0.1500 
 41 H       -5.2030    -4.0840     1.3630 H     1 <1>   0.2700 
 42 H       -1.4880    -3.1820     1.0830 H     1 <1>   0.0800 
 43 H       -2.4320    -4.6460     1.1110 H     1 <1>   0.0800 
 44 H       -2.5350    -3.5050     2.4350 H     1 <1>   0.0800 
 45 H       -6.6280     2.1290    -1.8110 H     1 <1>   0.0800 
 46 H       -7.1770     0.9170    -0.6680 H     1 <1>   0.0800 
 47 H       -6.3210     0.4260    -2.1100 H     1 <1>   0.0800 
 48 H       -5.3310     3.2320     0.1870 H     1 <1>   0.0800 
 49 H       -4.2700     2.1880     1.1170 H     1 <1>   0.0800 
 50 H       -6.0000     1.9500     1.1790 H     1 <1>   0.0800 
 51 H        0.7100     5.6030    -1.8820 H     1 <1>   0.1500 
 52 H       -2.2870     6.7480     0.9480 H     1 <1>   0.1500 
 53 H       -0.8920     7.2880    -0.9890 H     1 <1>   0.1500 
@<TRIPOS>BOND
  1   1   2  2   
  2   2   3  am  
  3   2   4  1   
  4   3   5  1   
  5   3   6  1   
  6   4   7  1   
  7   4  27  1   
  8   4  28  1   
  9   5   8  1   
 10   5  29  1   
 11   5  30  1   
 12   6   9  1   
 13   6  31  1   
 14   6  32  1   
 15   7  10  1   
 16   7  11  1   
 17   8  12  1   
 18   8  13  2   
 19   9  14  1   
 20   9  33  1   
 21   9  34  1   
 22  10  15  ar  
 23  10  16  ar  
 24  11  17  2   
 25  11  18  1   
 26  12  19  2   
 27  13  20  1   
 28  13  21  1   
 29  14  22  1   
 30  14  23  1   
 31  14  35  1   
 32  15  17  1   
 33  15  24  ar  
 34  16  25  ar  
 35  16  36  1   
 36  18  37  1   
 37  18  38  1   
 38  18  39  1   
 39  19  20  1   
 40  19  40  1   
 41  20  41  1   
 42  21  42  1   
 43  21  43  1   
 44  21  44  1   
 45  22  45  1   
 46  22  46  1   
 47  22  47  1   
 48  23  48  1   
 49  23  49  1   
 50  23  50  1   
 51  24  26  ar  
 52  24  51  1   
 53  25  26  ar  
 54  25  52  1   
 55  26  53  1   
@<TRIPOS>SUBSTRUCTURE
  1 ****   3 GROUP 4 **** **** 0

# MOE 2024.06 (io_trps.svl 2023.06)
