@<TRIPOS>MOLECULE
NONAME
47 48 1 0 0 
SMALL
USER_CHARGES


@<TRIPOS>ATOM
  1 O       -0.0840     1.0300    -1.1410 O.co2 1 <1>  -0.9000 
  2 C       -0.5710     1.3810    -0.0650 C.2   1 <1>   0.9060 
  3 O       -0.8360     0.6160     0.8610 O.co2 1 <1>  -0.9000 
  4 C       -0.8730     2.8300     0.1320 C.3   1 <1>  -0.1860 
  5 C       -2.3570     2.9970     0.4620 C.3   1 <1>   0.2000 
  6 C       -0.5180     3.5850    -1.1330 C.3   1 <1>   0.3430 
  7 O       -2.4530     2.9600     1.8310 O.3   1 <1>  -0.6800 
  8 C       -2.9300     4.3320    -0.0210 C.3   1 <1>  -0.1600 
  9 N       -0.7310     5.0660    -0.9460 N.4   1 <1>  -0.9590 
 10 C       -1.8420     5.3970     0.0200 C.3   1 <1>   0.3430 
 11 C        0.5670     5.6760    -0.5140 C.3   1 <1>   0.3430 
 12 C        0.5480     7.2060    -0.5430 C.3   1 <1>   0.1200 
 13 O        1.8350     7.6450    -0.1860 O.3   1 <1>  -0.3630 
 14 C        2.1610     8.9630    -0.1190 C.ar  1 <1>   0.0820 
 15 C        3.4610     9.3020     0.2620 C.ar  1 <1>  -0.1430 
 16 C        1.2410     9.9680    -0.4190 C.ar  1 <1>  -0.1500 
 17 C        3.8080    10.6450     0.3330 C.ar  1 <1>  -0.1500 
 18 C        4.5140     8.2390     0.6030 C.3   1 <1>   0.0630 
 19 C        1.6070    11.2980    -0.3410 C.ar  1 <1>  -0.1500 
 20 C        2.8920    11.6370     0.0350 C.ar  1 <1>  -0.1500 
 21 C        4.9980     8.3870     2.0500 C.3   1 <1>  -0.2400 
 22 C        5.6950     8.3060    -0.3710 C.3   1 <1>  -0.2400 
 23 H       -0.2470     3.1770     0.9320 H     1 <1>   0.0800 
 24 H       -2.9430     2.1780     0.0710 H     1 <1>   0.0800 
 25 H       -1.1460     3.2150    -1.9290 H     1 <1>   0.0800 
 26 H        0.5040     3.3710    -1.4060 H     1 <1>   0.0800 
 27 H       -2.1000     2.0800     2.1160 H     1 <1>   0.4000 
 28 H       -3.2940     4.2310    -1.0280 H     1 <1>   0.0800 
 29 H       -3.7620     4.6170     0.5990 H     1 <1>   0.0800 
 30 H       -0.9780     5.4320    -1.8730 H     1 <1>   0.4500 
 31 H       -1.4510     5.4270     1.0260 H     1 <1>   0.0800 
 32 H       -2.2610     6.3630    -0.2100 H     1 <1>   0.0800 
 33 H        0.8010     5.3470     0.4860 H     1 <1>   0.0800 
 34 H        1.3520     5.3370    -1.1700 H     1 <1>   0.0800 
 35 H       -0.1480     7.6020     0.1740 H     1 <1>   0.0800 
 36 H        0.3360     7.5670    -1.5340 H     1 <1>   0.0800 
 37 H        0.2350     9.7470    -0.7150 H     1 <1>   0.1500 
 38 H        4.8030    10.9330     0.6230 H     1 <1>   0.1500 
 39 H        4.0890     7.2550     0.5140 H     1 <1>   0.0800 
 40 H        0.8960    12.0730    -0.5720 H     1 <1>   0.1500 
 41 H        3.1810    12.6720     0.0960 H     1 <1>   0.1500 
 42 H        5.5090     9.3220     2.1940 H     1 <1>   0.0800 
 43 H        5.6710     7.5880     2.3020 H     1 <1>   0.0800 
 44 H        4.1570     8.3510     2.7210 H     1 <1>   0.0800 
 45 H        6.2150     9.2430    -0.2830 H     1 <1>   0.0800 
 46 H        5.3400     8.2060    -1.3810 H     1 <1>   0.0800 
 47 H        6.3890     7.5100    -0.1710 H     1 <1>   0.0800 
@<TRIPOS>BOND
  1   1   2  ar  
  2   2   3  ar  
  3   2   4  1   
  4   4   5  1   
  5   4   6  1   
  6   4  23  1   
  7   5   7  1   
  8   5   8  1   
  9   5  24  1   
 10   6   9  1   
 11   6  25  1   
 12   6  26  1   
 13   7  27  1   
 14   8  10  1   
 15   8  28  1   
 16   8  29  1   
 17   9  10  1   
 18   9  11  1   
 19   9  30  1   
 20  10  31  1   
 21  10  32  1   
 22  11  12  1   
 23  11  33  1   
 24  11  34  1   
 25  12  13  1   
 26  12  35  1   
 27  12  36  1   
 28  13  14  1   
 29  14  15  ar  
 30  14  16  ar  
 31  15  17  ar  
 32  15  18  1   
 33  16  19  ar  
 34  16  37  1   
 35  17  20  ar  
 36  17  38  1   
 37  18  21  1   
 38  18  22  1   
 39  18  39  1   
 40  19  20  ar  
 41  19  40  1   
 42  20  41  1   
 43  21  42  1   
 44  21  43  1   
 45  21  44  1   
 46  22  45  1   
 47  22  46  1   
 48  22  47  1   
@<TRIPOS>SUBSTRUCTURE
  1 ****  11 GROUP 4 **** **** 0

# MOE 2024.06 (io_trps.svl 2023.06)
