@<TRIPOS>MOLECULE
NONAME
50 53 1 0 0 
SMALL
USER_CHARGES


@<TRIPOS>ATOM
  1 O       -4.3860     0.5280    -2.1210 O.2   1 <1>  -0.5700 
  2 C       -3.8510    -0.1880    -1.3140 C.2   1 <1>   0.5690 
  3 N       -3.1920     0.3040    -0.2240 N.am  1 <1>  -0.6600 
  4 C       -3.9670    -1.6760    -1.5250 C.3   1 <1>  -0.0190 
  5 C       -2.5860    -0.5710     0.8190 C.3   1 <1>   0.2200 
  6 C       -2.9960     1.7760    -0.0350 C.3   1 <1>   0.0600 
  7 C       -2.5910    -2.3560    -1.6790 C.3   1 <1>   0.1200 
  8 C       -4.9110    -2.2550    -0.4660 C.3   1 <1>   0.3430 
  9 C       -1.4630    -1.4520     0.2210 C.3   1 <1>   0.1200 
 10 C       -3.6820    -1.3650     1.5820 C.3   1 <1>   0.3430 
 11 O       -1.9520    -2.5820    -0.4530 O.3   1 <1>  -0.5600 
 12 N       -4.2530    -2.5510     0.8500 N.4   1 <1>  -0.9590 
 13 C       -5.0920    -3.4070     1.7230 C.3   1 <1>   0.5240 
 14 C       -5.2160    -4.7670     1.0760 C.2   1 <1>  -0.1810 
 15 C       -6.2760    -5.1860     0.2680 C.2   1 <1>   0.2350 
 16 C       -4.3600    -5.8100     1.1160 C.2   1 <1>  -0.3020 
 17 N       -6.0640    -6.3940    -0.1760 N.2   1 <1>  -0.7070 
 18 C       -7.4280    -4.3840    -0.0760 C.ar  1 <1>   0.0540 
 19 N       -4.8990    -6.7830     0.3570 N.pl3 1 <1>   0.3140 
 20 C       -8.2610    -3.8420     0.9010 C.ar  1 <1>  -0.1500 
 21 C       -7.7170    -4.1020    -1.4090 C.ar  1 <1>  -0.1500 
 22 C       -4.3350    -8.1140     0.1010 C.3   1 <1>   0.0160 
 23 C       -9.3130    -3.0110     0.5620 C.ar  1 <1>  -0.1500 
 24 C       -8.7670    -3.2720    -1.7540 C.ar  1 <1>  -0.1500 
 25 C       -9.5620    -2.7180    -0.7670 C.ar  1 <1>  -0.1500 
 26 H       -4.4670    -1.7950    -2.4700 H     1 <1>   0.0800 
 27 H       -2.1160     0.0770     1.5390 H     1 <1>   0.0800 
 28 H       -3.4600     2.0970     0.8810 H     1 <1>   0.0800 
 29 H       -3.4350     2.3310    -0.8480 H     1 <1>   0.0800 
 30 H       -1.9450     2.0060    -0.0020 H     1 <1>   0.0800 
 31 H       -1.9400    -1.7700    -2.3090 H     1 <1>   0.0800 
 32 H       -2.7200    -3.3190    -2.1430 H     1 <1>   0.0800 
 33 H       -5.3030    -3.1740    -0.8690 H     1 <1>   0.0800 
 34 H       -5.7440    -1.5840    -0.3230 H     1 <1>   0.0800 
 35 H       -0.8390    -1.8180     1.0180 H     1 <1>   0.0800 
 36 H       -0.8420    -0.8820    -0.4490 H     1 <1>   0.0800 
 37 H       -4.4740    -0.6840     1.8460 H     1 <1>   0.0800 
 38 H       -3.2400    -1.7180     2.4980 H     1 <1>   0.0800 
 39 H       -3.4270    -3.1230     0.5790 H     1 <1>   0.4500 
 40 H       -4.6220    -3.5240     2.6850 H     1 <1>   0.0800 
 41 H       -6.0630    -2.9630     1.8640 H     1 <1>   0.0800 
 42 H       -3.4170    -5.9290     1.6190 H     1 <1>   0.1500 
 43 H       -8.0930    -4.0850     1.9350 H     1 <1>   0.1500 
 44 H       -7.1110    -4.5490    -2.1790 H     1 <1>   0.1500 
 45 H       -4.1260    -8.5980     1.0360 H     1 <1>   0.0800 
 46 H       -3.4320    -8.0130    -0.4710 H     1 <1>   0.0800 
 47 H       -5.0470    -8.6980    -0.4530 H     1 <1>   0.0800 
 48 H       -9.9480    -2.5970     1.3270 H     1 <1>   0.1500 
 49 H       -8.9730    -3.0620    -2.7910 H     1 <1>   0.1500 
 50 H      -10.3820    -2.0720    -1.0350 H     1 <1>   0.1500 
@<TRIPOS>BOND
  1   1   2  2   
  2   2   3  am  
  3   2   4  1   
  4   3   5  1   
  5   3   6  1   
  6   4   7  1   
  7   4   8  1   
  8   4  26  1   
  9   5   9  1   
 10   5  10  1   
 11   5  27  1   
 12   6  28  1   
 13   6  29  1   
 14   6  30  1   
 15   7  11  1   
 16   7  31  1   
 17   7  32  1   
 18   8  12  1   
 19   8  33  1   
 20   8  34  1   
 21   9  11  1   
 22   9  35  1   
 23   9  36  1   
 24  10  12  1   
 25  10  37  1   
 26  10  38  1   
 27  12  13  1   
 28  12  39  1   
 29  13  14  1   
 30  13  40  1   
 31  13  41  1   
 32  14  15  1   
 33  14  16  2   
 34  15  17  2   
 35  15  18  1   
 36  16  19  1   
 37  16  42  1   
 38  17  19  1   
 39  18  20  ar  
 40  18  21  ar  
 41  19  22  1   
 42  20  23  ar  
 43  20  43  1   
 44  21  24  ar  
 45  21  44  1   
 46  22  45  1   
 47  22  46  1   
 48  22  47  1   
 49  23  25  ar  
 50  23  48  1   
 51  24  25  ar  
 52  24  49  1   
 53  25  50  1   
@<TRIPOS>SUBSTRUCTURE
  1 ****   8 GROUP 4 **** **** 0

# MOE 2024.06 (io_trps.svl 2023.06)
