@<TRIPOS>MOLECULE
NONAME
46 48 1 0 0 
SMALL
USER_CHARGES


@<TRIPOS>ATOM
  1 F       -0.8540    -0.6480     0.7490 F     1 <1>  -0.1900 
  2 C       -1.2070    -1.8460     0.3560 C.ar  1 <1>   0.1900 
  3 C       -0.3090    -2.7140    -0.2770 C.ar  1 <1>   0.0820 
  4 C       -2.5150    -2.2140     0.6030 C.ar  1 <1>  -0.1500 
  5 O        1.0000    -2.4660    -0.5750 O.3   1 <1>  -0.3630 
  6 C       -0.7790    -3.9630    -0.6490 C.ar  1 <1>  -0.1500 
  7 C       -2.9470    -3.4700     0.2200 C.ar  1 <1>  -0.1500 
  8 C        1.6110    -1.2130    -0.3650 C.3   1 <1>   0.0400 
  9 C       -2.0940    -4.3730    -0.4160 C.ar  1 <1>   0.0530 
 10 C       -2.5290    -5.6940    -0.8050 C.2   1 <1>   0.0870 
 11 O       -1.6720    -6.6880    -0.7350 O.3   1 <1>  -0.0190 
 12 C       -3.7050    -6.2200    -1.2470 C.2   1 <1>  -0.2330 
 13 N       -2.1890    -7.8350    -1.0870 N.2   1 <1>  -0.4100 
 14 C       -3.4060    -7.5720    -1.4040 C.2   1 <1>   0.3720 
 15 C       -4.9890    -5.6440    -1.5210 C.2   1 <1>   1.0330 
 16 N       -4.3170    -8.5220    -1.8360 N.pl3 1 <1>  -0.8520 
 17 O       -5.1360    -4.4160    -1.6200 O.co2 1 <1>  -0.9000 
 18 O       -5.9960    -6.3690    -1.6470 O.co2 1 <1>  -0.9000 
 19 C       -4.5670    -9.6210    -0.8930 C.3   1 <1>   0.2090 
 20 C       -6.0790    -9.8250    -0.7880 C.3   1 <1>  -0.1600 
 21 C       -6.4700   -10.9300     0.2090 C.3   1 <1>  -0.0800 
 22 C       -5.9540   -12.3140    -0.2300 C.3   1 <1>   0.1200 
 23 C       -7.9970   -10.9680     0.3780 C.3   1 <1>  -0.1600 
 24 O       -6.3830   -13.2920     0.6700 O.3   1 <1>  -0.5600 
 25 C       -8.4020   -12.1570     1.2570 C.3   1 <1>  -0.1600 
 26 C       -7.7650   -13.4530     0.7430 C.3   1 <1>   0.1200 
 27 H       -3.1890    -1.5300     1.0840 H     1 <1>   0.1500 
 28 H       -0.1020    -4.6400    -1.1380 H     1 <1>   0.1500 
 29 H       -3.9680    -3.7560     0.4110 H     1 <1>   0.1500 
 30 H        2.6190    -1.2670    -0.7360 H     1 <1>   0.0800 
 31 H        1.6230    -1.0010     0.6890 H     1 <1>   0.0800 
 32 H        1.0630    -0.4610    -0.9050 H     1 <1>   0.0800 
 33 H       -5.2080    -7.9940    -1.9700 H     1 <1>   0.4000 
 34 H       -4.1600    -9.3790     0.0760 H     1 <1>   0.0800 
 35 H       -4.0800   -10.5060    -1.2620 H     1 <1>   0.0800 
 36 H       -6.4690   -10.0590    -1.7630 H     1 <1>   0.0800 
 37 H       -6.5190    -8.8950    -0.4680 H     1 <1>   0.0800 
 38 H       -6.0260   -10.6990     1.1630 H     1 <1>   0.0800 
 39 H       -4.8780   -12.3380    -0.2350 H     1 <1>   0.0800 
 40 H       -6.3140   -12.5700    -1.2120 H     1 <1>   0.0800 
 41 H       -8.4630   -11.0690    -0.5880 H     1 <1>   0.0800 
 42 H       -8.3430   -10.0500     0.8200 H     1 <1>   0.0800 
 43 H       -9.4720   -12.2590     1.2650 H     1 <1>   0.0800 
 44 H       -8.0770   -11.9910     2.2690 H     1 <1>   0.0800 
 45 H       -7.9660   -14.2660     1.4190 H     1 <1>   0.0800 
 46 H       -8.1340   -13.7100    -0.2350 H     1 <1>   0.0800 
@<TRIPOS>BOND
  1   1   2  1   
  2   2   3  ar  
  3   2   4  ar  
  4   3   5  1   
  5   3   6  ar  
  6   4   7  ar  
  7   4  27  1   
  8   5   8  1   
  9   6   9  ar  
 10   6  28  1   
 11   7   9  ar  
 12   7  29  1   
 13   8  30  1   
 14   8  31  1   
 15   8  32  1   
 16   9  10  1   
 17  10  11  1   
 18  10  12  2   
 19  11  13  1   
 20  12  14  1   
 21  12  15  1   
 22  13  14  2   
 23  14  16  1   
 24  15  17  ar  
 25  15  18  ar  
 26  16  19  1   
 27  16  33  1   
 28  19  20  1   
 29  19  34  1   
 30  19  35  1   
 31  20  21  1   
 32  20  36  1   
 33  20  37  1   
 34  21  22  1   
 35  21  23  1   
 36  21  38  1   
 37  22  24  1   
 38  22  39  1   
 39  22  40  1   
 40  23  25  1   
 41  23  41  1   
 42  23  42  1   
 43  24  26  1   
 44  25  26  1   
 45  25  43  1   
 46  25  44  1   
 47  26  45  1   
 48  26  46  1   
@<TRIPOS>SUBSTRUCTURE
  1 ****  12 GROUP 4 **** **** 0

# MOE 2024.06 (io_trps.svl 2023.06)
