@<TRIPOS>MOLECULE
NONAME
35 37 1 0 0 
SMALL
USER_CHARGES


@<TRIPOS>ATOM
  1 O       -0.5500     0.1890    -0.7890 O.2   1 <1>  -0.5700 
  2 C       -1.5090     0.7660    -0.3120 C.2   1 <1>   0.5440 
  3 N       -2.5250     0.0450     0.2510 N.am  1 <1>  -0.6600 
  4 C       -1.5480     2.2070    -0.3430 C.ar  1 <1>   0.0860 
  5 C       -3.7980     0.6130     0.7810 C.3   1 <1>   0.2350 
  6 C       -2.6500    -1.4370     0.1390 C.3   1 <1>   0.2350 
  7 C       -0.9430     2.9700     0.6450 C.ar  1 <1>   0.1660 
  8 C       -2.1870     2.9160    -1.3510 C.ar  1 <1>   0.1660 
  9 C       -4.8570    -0.4240     0.4630 C.3   1 <1>  -0.2420 
 10 C       -4.1460    -1.7020     0.0830 C.3   1 <1>  -0.2420 
 11 N       -0.9590     4.2860     0.6350 N.ar  1 <1>  -0.6200 
 12 C       -0.2250     2.3090     1.8090 C.3   1 <1>  -0.0970 
 13 N       -2.2160     4.2320    -1.3810 N.ar  1 <1>  -0.6200 
 14 C       -2.9120     2.2100    -2.4860 C.3   1 <1>  -0.0970 
 15 C       -6.1210    -0.1520     1.2810 C.2   1 <1>   0.9470 
 16 C       -5.0050    -0.9860    -0.9290 C.3   1 <1>  -0.2000 
 17 C       -4.4530    -3.1640     0.4180 C.2   1 <1>   0.9470 
 18 C       -1.5970     4.8380    -0.3820 C.ar  1 <1>   0.4700 
 19 O       -7.1960     0.0410     0.6950 O.co2 1 <1>  -0.9000 
 20 O       -6.0110     0.0530     2.4970 O.co2 1 <1>  -0.9000 
 21 O       -5.0370    -3.8710    -0.4150 O.co2 1 <1>  -0.9000 
 22 O       -3.9730    -3.6560     1.4490 O.co2 1 <1>  -0.9000 
 23 H       -3.7120     0.7370     1.8470 H     1 <1>   0.0800 
 24 H       -4.0480     1.5540     0.3260 H     1 <1>   0.0800 
 25 H       -2.1610    -1.8100    -0.7440 H     1 <1>   0.0800 
 26 H       -2.2220    -1.8970     1.0130 H     1 <1>   0.0800 
 27 H        0.5790     1.6960     1.4420 H     1 <1>   0.0800 
 28 H       -0.9120     1.6920     2.3600 H     1 <1>   0.0800 
 29 H        0.1830     3.0490     2.4730 H     1 <1>   0.0800 
 30 H       -2.4600     1.2610    -2.7130 H     1 <1>   0.0800 
 31 H       -2.8840     2.8140    -3.3740 H     1 <1>   0.0800 
 32 H       -3.9380     2.0480    -2.2110 H     1 <1>   0.0800 
 33 H       -4.5390    -0.4960    -1.7610 H     1 <1>   0.1000 
 34 H       -5.9480    -1.4380    -1.1910 H     1 <1>   0.1000 
 35 H       -1.6170     5.9150    -0.3990 H     1 <1>   0.1500 
@<TRIPOS>BOND
  1   1   2  2   
  2   2   3  am  
  3   2   4  1   
  4   3   5  1   
  5   3   6  1   
  6   4   7  ar  
  7   4   8  ar  
  8   5   9  1   
  9   5  23  1   
 10   5  24  1   
 11   6  10  1   
 12   6  25  1   
 13   6  26  1   
 14   7  11  ar  
 15   7  12  1   
 16   8  13  ar  
 17   8  14  1   
 18   9  10  1   
 19   9  15  1   
 20   9  16  1   
 21  10  16  1   
 22  10  17  1   
 23  11  18  ar  
 24  12  27  1   
 25  12  28  1   
 26  12  29  1   
 27  13  18  ar  
 28  14  30  1   
 29  14  31  1   
 30  14  32  1   
 31  15  19  ar  
 32  15  20  ar  
 33  16  33  1   
 34  16  34  1   
 35  17  21  ar  
 36  17  22  ar  
 37  18  35  1   
@<TRIPOS>SUBSTRUCTURE
  1 ****   3 GROUP 4 **** **** 0

# MOE 2024.06 (io_trps.svl 2023.06)
