@<TRIPOS>MOLECULE
NONAME
54 56 1 0 0 
SMALL
USER_CHARGES


@<TRIPOS>ATOM
  1 O       -0.2880     1.0600     1.7010 O.2   1 <1>  -0.5700 
  2 C       -0.1420     2.1310     1.1410 C.2   1 <1>   0.6900 
  3 N       -1.1800     3.0170     1.0280 N.am  1 <1>  -0.6600 
  4 N        1.0580     2.4410     0.5940 N.am  1 <1>  -0.7300 
  5 C       -2.5830     2.6060     1.3200 C.3   1 <1>   0.1400 
  6 C       -1.0740     4.4100     0.5220 C.3   1 <1>   0.1400 
  7 C        2.2460     1.5640     0.6020 C.3   1 <1>   0.1400 
  8 C       -3.4250     2.6480     0.0310 C.3   1 <1>   0.0000 
  9 C       -1.8690     4.5390    -0.7810 C.3   1 <1>  -0.1600 
 10 C        3.5350     2.3990     0.5470 C.3   1 <1>  -0.0800 
 11 C       -4.8750     2.2250     0.3280 C.3   1 <1>   0.2000 
 12 C       -3.3250     4.0630    -0.6090 C.3   1 <1>  -0.1600 
 13 C       -2.9970     1.5620    -0.9730 C.3   1 <1>  -0.1600 
 14 C        3.6330     3.2310    -0.7490 C.3   1 <1>  -0.1600 
 15 C        4.7590     1.4740     0.6810 C.3   1 <1>  -0.1600 
 16 O       -5.6270     3.2770     0.8570 O.3   1 <1>  -0.5600 
 17 C       -5.4440     1.7430    -1.0090 C.3   1 <1>  -0.1600 
 18 C       -4.2350     1.2730    -1.8310 C.3   1 <1>  -0.1600 
 19 C        4.9510     4.0150    -0.8190 C.3   1 <1>  -0.1600 
 20 C        6.0740     2.2620     0.6150 C.3   1 <1>  -0.1600 
 21 C       -6.8400     2.9020     1.4300 C.3   1 <1>   0.0400 
 22 C        6.1610     3.0840    -0.6760 C.3   1 <1>  -0.1600 
 23 H        1.0890     3.2360    -0.0340 H     1 <1>   0.3700 
 24 H       -2.6080     1.6170     1.7450 H     1 <1>   0.0800 
 25 H       -3.0020     3.2830     2.0450 H     1 <1>   0.0800 
 26 H       -1.4850     5.0760     1.2620 H     1 <1>   0.0800 
 27 H       -0.0480     4.6910     0.3630 H     1 <1>   0.0800 
 28 H        2.2370     0.9690     1.5000 H     1 <1>   0.0800 
 29 H        2.1970     0.8980    -0.2420 H     1 <1>   0.0800 
 30 H       -1.8680     5.5670    -1.0950 H     1 <1>   0.0800 
 31 H       -1.3790     3.9690    -1.5490 H     1 <1>   0.0800 
 32 H        3.5320     3.0680     1.3910 H     1 <1>   0.0800 
 33 H       -4.8670     1.4110     1.0330 H     1 <1>   0.0800 
 34 H       -3.8280     4.0850    -1.5590 H     1 <1>   0.0800 
 35 H       -3.8240     4.7700     0.0310 H     1 <1>   0.0800 
 36 H       -2.1510     1.8450    -1.5710 H     1 <1>   0.0800 
 37 H       -2.7330     0.6660    -0.4350 H     1 <1>   0.0800 
 38 H        3.5690     2.5750    -1.6010 H     1 <1>   0.0800 
 39 H        2.8180     3.9280    -0.8070 H     1 <1>   0.0800 
 40 H        4.7120     0.9460     1.6190 H     1 <1>   0.0800 
 41 H        4.7470     0.7440    -0.1090 H     1 <1>   0.0800 
 42 H       -6.1430     0.9400    -0.8600 H     1 <1>   0.0800 
 43 H       -5.9280     2.5580    -1.5180 H     1 <1>   0.0800 
 44 H       -4.2990     0.2240    -2.0640 H     1 <1>   0.0800 
 45 H       -4.1830     1.8310    -2.7500 H     1 <1>   0.0800 
 46 H        5.0100     4.5390    -1.7570 H     1 <1>   0.0800 
 47 H        4.9720     4.7470    -0.0290 H     1 <1>   0.0800 
 48 H        6.1380     2.9220     1.4640 H     1 <1>   0.0800 
 49 H        6.9050     1.5800     0.6650 H     1 <1>   0.0800 
 50 H       -7.3110     3.7870     1.8190 H     1 <1>   0.0800 
 51 H       -6.6550     2.2080     2.2310 H     1 <1>   0.0800 
 52 H       -7.4700     2.4580     0.6790 H     1 <1>   0.0800 
 53 H        7.0660     3.6670    -0.6720 H     1 <1>   0.0800 
 54 H        6.2010     2.4180    -1.5210 H     1 <1>   0.0800 
@<TRIPOS>BOND
  1   1   2  2   
  2   2   3  am  
  3   2   4  am  
  4   3   5  1   
  5   3   6  1   
  6   4   7  1   
  7   4  23  1   
  8   5   8  1   
  9   5  24  1   
 10   5  25  1   
 11   6   9  1   
 12   6  26  1   
 13   6  27  1   
 14   7  10  1   
 15   7  28  1   
 16   7  29  1   
 17   8  11  1   
 18   8  12  1   
 19   8  13  1   
 20   9  12  1   
 21   9  30  1   
 22   9  31  1   
 23  10  14  1   
 24  10  15  1   
 25  10  32  1   
 26  11  16  1   
 27  11  17  1   
 28  11  33  1   
 29  12  34  1   
 30  12  35  1   
 31  13  18  1   
 32  13  36  1   
 33  13  37  1   
 34  14  19  1   
 35  14  38  1   
 36  14  39  1   
 37  15  20  1   
 38  15  40  1   
 39  15  41  1   
 40  16  21  1   
 41  17  18  1   
 42  17  42  1   
 43  17  43  1   
 44  18  44  1   
 45  18  45  1   
 46  19  22  1   
 47  19  46  1   
 48  19  47  1   
 49  20  22  1   
 50  20  48  1   
 51  20  49  1   
 52  21  50  1   
 53  21  51  1   
 54  21  52  1   
 55  22  53  1   
 56  22  54  1   
@<TRIPOS>SUBSTRUCTURE
  1 ****   3 GROUP 4 **** **** 0

# MOE 2024.06 (io_trps.svl 2023.06)
