@<TRIPOS>MOLECULE
NONAME
55 57 1 0 0 
SMALL
USER_CHARGES


@<TRIPOS>ATOM
  1 O        2.6380     0.1350     0.8820 O.2   1 <1>  -0.5700 
  2 C        2.5670    -0.3550    -0.2190 C.2   1 <1>   0.5690 
  3 N        2.6620     0.4480    -1.3300 N.am  1 <1>  -0.6600 
  4 C        2.4430    -1.8730    -0.3290 C.3   1 <1>  -0.0190 
  5 C        3.1770     0.0100    -2.6680 C.3   1 <1>   0.1400 
  6 C        2.4100     1.9150    -1.2110 C.3   1 <1>   0.1400 
  7 C        1.4500    -2.4080     0.7130 C.3   1 <1>   0.1100 
  8 C        3.8090    -2.5690    -0.1650 C.3   1 <1>  -0.1600 
  9 C        4.7190     0.0910    -2.7320 C.3   1 <1>   0.3430 
 10 C        3.6960     2.6820    -0.8740 C.3   1 <1>  -0.1600 
 11 N        1.3030    -3.8670     0.5680 N.3   1 <1>  -0.8100 
 12 C        3.6360    -4.0940    -0.1770 C.3   1 <1>  -0.1600 
 13 N        5.2810     0.9790    -1.6630 N.4   1 <1>  -0.9590 
 14 C        4.8750     2.4040    -1.8080 C.3   1 <1>   0.3430 
 15 C        2.5820    -4.5460     0.8390 C.3   1 <1>   0.1100 
 16 C        0.2370    -4.3760     1.4850 C.3   1 <1>   0.1710 
 17 C        6.7620     0.8130    -1.4590 C.3   1 <1>   0.5240 
 18 C       -0.2490    -5.7960     1.1700 C.2   1 <1>   0.5690 
 19 C        7.2170     1.3200    -0.0900 C.2   1 <1>   0.3350 
 20 O       -0.7260    -6.4840     2.0370 O.2   1 <1>  -0.5700 
 21 N       -0.1390    -6.2600    -0.0900 N.am  1 <1>  -0.8000 
 22 N        7.5160     0.5620     0.8850 N.2   1 <1>  -0.4100 
 23 N        7.3120     2.6140     0.1920 N.2   1 <1>  -0.5650 
 24 O        7.8390     1.3320     1.8810 O.3   1 <1>  -0.0190 
 25 C        7.6970     2.5440     1.4040 C.2   1 <1>   0.2980 
 26 C        7.9930     3.7190     2.3090 C.3   1 <1>  -0.0600 
 27 H        2.0280    -2.1210    -1.2870 H     1 <1>   0.0800 
 28 H        2.7590     0.6410    -3.4340 H     1 <1>   0.0800 
 29 H        2.8630    -0.9930    -2.8950 H     1 <1>   0.0800 
 30 H        1.6840     2.0890    -0.4330 H     1 <1>   0.0800 
 31 H        1.9850     2.2860    -2.1290 H     1 <1>   0.0800 
 32 H        0.4950    -1.9320     0.5620 H     1 <1>   0.0800 
 33 H        1.7900    -2.1700     1.7080 H     1 <1>   0.0800 
 34 H        4.2430    -2.2740     0.7770 H     1 <1>   0.0800 
 35 H        4.4810    -2.2780    -0.9500 H     1 <1>   0.0800 
 36 H        5.0240     0.4330    -3.7080 H     1 <1>   0.0800 
 37 H        5.1080    -0.9060    -2.6030 H     1 <1>   0.0800 
 38 H        3.9820     2.4730     0.1420 H     1 <1>   0.0800 
 39 H        3.4740     3.7330    -0.9170 H     1 <1>   0.0800 
 40 H        4.5740    -4.5690     0.0540 H     1 <1>   0.0800 
 41 H        3.3330    -4.4240    -1.1560 H     1 <1>   0.0800 
 42 H        4.8220     0.6810    -0.7830 H     1 <1>   0.4500 
 43 H        5.6910     3.0540    -1.5330 H     1 <1>   0.0800 
 44 H        4.6030     2.6200    -2.8280 H     1 <1>   0.0800 
 45 H        2.4560    -5.6130     0.7630 H     1 <1>   0.0800 
 46 H        2.9150    -4.3170     1.8380 H     1 <1>   0.0800 
 47 H       -0.6230    -3.7350     1.4180 H     1 <1>   0.0800 
 48 H        0.5850    -4.3480     2.5030 H     1 <1>   0.0800 
 49 H        7.3050     1.3390    -2.2250 H     1 <1>   0.0800 
 50 H        7.0200    -0.2300    -1.5190 H     1 <1>   0.0800 
 51 H       -0.4410    -7.2010    -0.3360 H     1 <1>   0.3700 
 52 H        0.3240    -5.6900    -0.8010 H     1 <1>   0.3700 
 53 H        7.8350     4.6410     1.7810 H     1 <1>   0.0800 
 54 H        9.0150     3.6750     2.6380 H     1 <1>   0.0800 
 55 H        7.3450     3.6900     3.1650 H     1 <1>   0.0800 
@<TRIPOS>BOND
  1   1   2  2   
  2   2   3  am  
  3   2   4  1   
  4   3   5  1   
  5   3   6  1   
  6   4   7  1   
  7   4   8  1   
  8   4  27  1   
  9   5   9  1   
 10   5  28  1   
 11   5  29  1   
 12   6  10  1   
 13   6  30  1   
 14   6  31  1   
 15   7  11  1   
 16   7  32  1   
 17   7  33  1   
 18   8  12  1   
 19   8  34  1   
 20   8  35  1   
 21   9  13  1   
 22   9  36  1   
 23   9  37  1   
 24  10  14  1   
 25  10  38  1   
 26  10  39  1   
 27  11  15  1   
 28  11  16  1   
 29  12  15  1   
 30  12  40  1   
 31  12  41  1   
 32  13  14  1   
 33  13  17  1   
 34  13  42  1   
 35  14  43  1   
 36  14  44  1   
 37  15  45  1   
 38  15  46  1   
 39  16  18  1   
 40  16  47  1   
 41  16  48  1   
 42  17  19  1   
 43  17  49  1   
 44  17  50  1   
 45  18  20  2   
 46  18  21  am  
 47  19  22  2   
 48  19  23  1   
 49  21  51  1   
 50  21  52  1   
 51  22  24  1   
 52  23  25  2   
 53  24  25  1   
 54  25  26  1   
 55  26  53  1   
 56  26  54  1   
 57  26  55  1   
@<TRIPOS>SUBSTRUCTURE
  1 ****   2 GROUP 4 **** **** 0

# MOE 2024.06 (io_trps.svl 2023.06)
