@<TRIPOS>MOLECULE
NONAME
46 48 1 0 0 
SMALL
USER_CHARGES


@<TRIPOS>ATOM
  1 S        0.5270     0.1100     2.0380 S.o2  1 <1>   1.4470 
  2 O       -0.0160     1.2400     2.7590 O.2   1 <1>  -0.6500 
  3 O        1.3170    -0.8660     2.7580 O.2   1 <1>  -0.6500 
  4 N        1.5460     0.7280     0.8320 N.am  1 <1>  -0.8490 
  5 C       -0.7930    -0.7120     1.1020 C.ar  1 <1>  -0.0090 
  6 C        2.3370     1.8760     1.3190 C.3   1 <1>   0.1960 
  7 C        2.3330    -0.3170     0.1640 C.3   1 <1>   0.1960 
  8 C       -1.4190    -1.8490     1.6020 C.ar  1 <1>  -0.1500 
  9 C       -1.2220    -0.2250    -0.1290 C.ar  1 <1>  -0.1500 
 10 C        3.2910     2.5210     0.2860 C.3   1 <1>   0.2200 
 11 C        2.9000     0.0860    -1.2140 C.3   1 <1>  -0.0190 
 12 C       -2.4290    -2.4880     0.9010 C.ar  1 <1>  -0.1500 
 13 C       -2.2280    -0.8570    -0.8380 C.ar  1 <1>  -0.1500 
 14 N        2.6470     2.5690    -1.0680 N.am  1 <1>  -0.6600 
 15 C        4.6880     1.8430     0.3010 C.3   1 <1>   0.1200 
 16 C        2.3790     1.4110    -1.7510 C.2   1 <1>   0.5690 
 17 C        4.4380     0.0380    -1.2530 C.3   1 <1>   0.1200 
 18 C       -2.8380    -1.9920    -0.3320 C.ar  1 <1>   0.0830 
 19 C        2.2170     3.9040    -1.5610 C.3   1 <1>   0.0600 
 20 O        5.0460     1.2480    -0.9120 O.3   1 <1>  -0.5600 
 21 O        1.7390     1.3940    -2.7780 O.2   1 <1>  -0.5700 
 22 O       -3.8130    -2.5530    -1.0870 O.3   1 <1>  -0.3630 
 23 C       -4.5120    -3.6980    -0.6590 C.3   1 <1>   0.1200 
 24 C       -5.5340    -4.0570    -1.7320 C.3   1 <1>  -0.2400 
 25 H        1.6500     2.6460     1.6250 H     1 <1>   0.0800 
 26 H        2.8910     1.5880     2.1980 H     1 <1>   0.0800 
 27 H        3.1210    -0.6460     0.8220 H     1 <1>   0.0800 
 28 H        1.6940    -1.1690     0.0010 H     1 <1>   0.0800 
 29 H       -1.1090    -2.2420     2.5570 H     1 <1>   0.1500 
 30 H       -0.7640     0.6590    -0.5430 H     1 <1>   0.1500 
 31 H        3.4510     3.5310     0.6190 H     1 <1>   0.0800 
 32 H        2.5720    -0.6770    -1.8950 H     1 <1>   0.0800 
 33 H       -2.8800    -3.3630     1.3290 H     1 <1>   0.1500 
 34 H       -2.5460    -0.4720    -1.7910 H     1 <1>   0.1500 
 35 H        4.7690     1.1070     1.0810 H     1 <1>   0.0800 
 36 H        5.4280     2.5980     0.4970 H     1 <1>   0.0800 
 37 H        4.7520    -0.1770    -2.2600 H     1 <1>   0.0800 
 38 H        4.8280    -0.7330    -0.6120 H     1 <1>   0.0800 
 39 H        3.0670     4.5600    -1.6190 H     1 <1>   0.0800 
 40 H        1.4840     4.3200    -0.8920 H     1 <1>   0.0800 
 41 H        1.7810     3.8210    -2.5420 H     1 <1>   0.0800 
 42 H       -3.8040    -4.4980    -0.5250 H     1 <1>   0.0800 
 43 H       -5.0010    -3.4700     0.2720 H     1 <1>   0.0800 
 44 H       -5.0360    -4.2650    -2.6630 H     1 <1>   0.0800 
 45 H       -6.2260    -3.2460    -1.8700 H     1 <1>   0.0800 
 46 H       -6.0850    -4.9310    -1.4350 H     1 <1>   0.0800 
@<TRIPOS>BOND
  1   1   2  2   
  2   1   3  2   
  3   1   4  am  
  4   1   5  1   
  5   4   6  1   
  6   4   7  1   
  7   5   8  ar  
  8   5   9  ar  
  9   6  10  1   
 10   6  25  1   
 11   6  26  1   
 12   7  11  1   
 13   7  27  1   
 14   7  28  1   
 15   8  12  ar  
 16   8  29  1   
 17   9  13  ar  
 18   9  30  1   
 19  10  14  1   
 20  10  15  1   
 21  10  31  1   
 22  11  16  1   
 23  11  17  1   
 24  11  32  1   
 25  12  18  ar  
 26  12  33  1   
 27  13  18  ar  
 28  13  34  1   
 29  14  16  am  
 30  14  19  1   
 31  15  20  1   
 32  15  35  1   
 33  15  36  1   
 34  16  21  2   
 35  17  20  1   
 36  17  37  1   
 37  17  38  1   
 38  18  22  1   
 39  19  39  1   
 40  19  40  1   
 41  19  41  1   
 42  22  23  1   
 43  23  24  1   
 44  23  42  1   
 45  23  43  1   
 46  24  44  1   
 47  24  45  1   
 48  24  46  1   
@<TRIPOS>SUBSTRUCTURE
  1 ****   4 GROUP 4 **** **** 0

# MOE 2024.06 (io_trps.svl 2023.06)
