@<TRIPOS>MOLECULE
NONAME
46 48 1 0 0 
SMALL
USER_CHARGES


@<TRIPOS>ATOM
  1 O       -1.4200     0.4900     2.9900 O.2   1 <1>  -0.5700 
  2 C       -1.8110     1.0720     2.0040 C.2   1 <1>   0.5690 
  3 N       -2.4820     0.4020     1.0140 N.am  1 <1>  -0.6600 
  4 C       -1.5680     2.5770     1.9180 C.3   1 <1>   0.1810 
  5 C       -2.9590     0.9760    -0.2700 C.3   1 <1>   0.1400 
  6 C       -2.6760    -1.0670     1.0290 C.3   1 <1>   0.1400 
  7 O       -0.9070     2.9300     0.7120 O.3   1 <1>  -0.3620 
  8 C       -3.8350    -0.1210    -0.8710 C.3   1 <1>   0.2000 
  9 C       -3.1810    -1.4170    -0.3770 C.3   1 <1>  -0.0800 
 10 C       -0.6640     4.2260     0.3850 C.ar  1 <1>   0.0830 
 11 O       -5.1060    -0.0060    -0.3260 O.3   1 <1>  -0.6800 
 12 C       -4.0870    -2.6610    -0.4240 C.3   1 <1>   0.0200 
 13 C       -0.0640     4.4780    -0.8460 C.ar  1 <1>  -0.1430 
 14 C       -0.9920     5.2910     1.2230 C.ar  1 <1>  -0.1500 
 15 C       -3.3580    -3.9440    -0.0610 C.2   1 <1>  -0.0400 
 16 C        0.1930     5.7860    -1.2280 C.ar  1 <1>  -0.1500 
 17 C        0.3150     3.3350    -1.7760 C.3   1 <1>  -0.0970 
 18 C       -0.7300     6.5910     0.8310 C.ar  1 <1>  -0.1500 
 19 O       -4.0520    -5.0440     0.0650 O.3   1 <1>  -0.0190 
 20 C       -2.0710    -4.2460     0.1760 C.2   1 <1>  -0.1500 
 21 C       -0.1390     6.8390    -0.3940 C.ar  1 <1>  -0.1500 
 22 N       -3.3020    -6.0610     0.3770 N.2   1 <1>  -0.4100 
 23 C       -2.1030    -5.6100     0.4520 C.2   1 <1>   0.1080 
 24 C       -0.8960    -6.4550     0.7940 C.3   1 <1>  -0.0590 
 25 H       -0.9490     2.8870     2.7410 H     1 <1>   0.0800 
 26 H       -2.5110     3.0880     1.9530 H     1 <1>   0.0800 
 27 H       -3.5040     1.8940    -0.1280 H     1 <1>   0.0800 
 28 H       -2.1110     1.1570    -0.9070 H     1 <1>   0.0800 
 29 H       -1.7520    -1.5680     1.2610 H     1 <1>   0.0800 
 30 H       -3.4090    -1.3160     1.7780 H     1 <1>   0.0800 
 31 H       -3.9150    -0.0600    -1.9430 H     1 <1>   0.0800 
 32 H       -2.3210    -1.5980    -0.9970 H     1 <1>   0.0800 
 33 H       -5.0250     0.0900     0.6440 H     1 <1>   0.4000 
 34 H       -4.4930    -2.7700    -1.4150 H     1 <1>   0.0800 
 35 H       -4.9150    -2.5400     0.2530 H     1 <1>   0.0800 
 36 H       -1.4470     5.1340     2.1810 H     1 <1>   0.1500 
 37 H        0.6550     5.9930    -2.1770 H     1 <1>   0.1500 
 38 H        0.8650     3.6940    -2.6280 H     1 <1>   0.0800 
 39 H       -0.5720     2.8390    -2.1230 H     1 <1>   0.0800 
 40 H        0.9280     2.6250    -1.2510 H     1 <1>   0.0800 
 41 H       -0.9840     7.4120     1.4790 H     1 <1>   0.1500 
 42 H       -1.1940    -3.6270     0.1680 H     1 <1>   0.1500 
 43 H        0.0650     7.8510    -0.6990 H     1 <1>   0.1500 
 44 H       -0.4230    -6.0730     1.6800 H     1 <1>   0.0800 
 45 H       -0.1950    -6.4370    -0.0200 H     1 <1>   0.0800 
 46 H       -1.1980    -7.4710     0.9710 H     1 <1>   0.0800 
@<TRIPOS>BOND
  1   1   2  2   
  2   2   3  am  
  3   2   4  1   
  4   3   5  1   
  5   3   6  1   
  6   4   7  1   
  7   4  25  1   
  8   4  26  1   
  9   5   8  1   
 10   5  27  1   
 11   5  28  1   
 12   6   9  1   
 13   6  29  1   
 14   6  30  1   
 15   7  10  1   
 16   8   9  1   
 17   8  11  1   
 18   8  31  1   
 19   9  12  1   
 20   9  32  1   
 21  10  13  ar  
 22  10  14  ar  
 23  11  33  1   
 24  12  15  1   
 25  12  34  1   
 26  12  35  1   
 27  13  16  ar  
 28  13  17  1   
 29  14  18  ar  
 30  14  36  1   
 31  15  19  1   
 32  15  20  2   
 33  16  21  ar  
 34  16  37  1   
 35  17  38  1   
 36  17  39  1   
 37  17  40  1   
 38  18  21  ar  
 39  18  41  1   
 40  19  22  1   
 41  20  23  1   
 42  20  42  1   
 43  21  43  1   
 44  22  23  2   
 45  23  24  1   
 46  24  44  1   
 47  24  45  1   
 48  24  46  1   
@<TRIPOS>SUBSTRUCTURE
  1 ****   3 GROUP 4 **** **** 0

# MOE 2024.06 (io_trps.svl 2023.06)
