@<TRIPOS>MOLECULE
NONAME
59 61 1 0 0 
SMALL
USER_CHARGES


@<TRIPOS>ATOM
  1 O       -1.2360    -0.2370    -1.3740 O.2   1 <1>  -0.5700 
  2 C       -1.5210    -1.2520    -0.7740 C.2   1 <1>   0.7800 
  3 O       -0.5710    -2.0610    -0.3010 O.3   1 <1>  -0.4300 
  4 N       -2.8290    -1.6180    -0.5490 N.am  1 <1>  -0.6600 
  5 C        0.8280    -1.8940    -0.4030 C.3   1 <1>   0.2800 
  6 C       -3.9440    -0.7770    -1.0560 C.3   1 <1>   0.1400 
  7 C       -3.1940    -2.8620     0.1780 C.3   1 <1>   0.1400 
  8 C        1.2590    -1.9100    -1.8740 C.3   1 <1>  -0.2400 
  9 C        1.4280    -3.1060     0.3100 C.3   1 <1>  -0.2400 
 10 C        1.2640    -0.6150     0.3220 C.3   1 <1>  -0.2400 
 11 C       -4.8910    -0.4450     0.0980 C.3   1 <1>  -0.1600 
 12 C       -4.1440    -2.5170     1.3290 C.3   1 <1>  -0.1600 
 13 C       -5.3520    -1.6930     0.8690 C.3   1 <1>   0.5030 
 14 N       -6.2080    -2.5160     0.0050 N.4   1 <1>  -0.9060 
 15 C       -6.2770    -1.3160     2.0320 C.3   1 <1>  -0.1600 
 16 C       -7.5730    -1.9440     0.0610 C.3   1 <1>   0.4230 
 17 C       -7.7090    -1.4650     1.5050 C.3   1 <1>  -0.1600 
 18 C       -8.6650    -2.9340    -0.3790 C.3   1 <1>   0.1200 
 19 O       -9.8830    -2.2830    -0.2670 O.3   1 <1>  -0.5600 
 20 C      -11.0030    -3.0340    -0.6270 C.3   1 <1>   0.2630 
 21 C      -12.2300    -2.1600    -0.4430 C.ar  1 <1>  -0.1430 
 22 C      -12.7760    -1.4790    -1.5210 C.ar  1 <1>  -0.1500 
 23 C      -12.8160    -2.0350     0.8080 C.ar  1 <1>  -0.1500 
 24 C      -13.8970    -0.6850    -1.3510 C.ar  1 <1>  -0.1500 
 25 C      -13.9370    -1.2410     0.9790 C.ar  1 <1>  -0.1500 
 26 C      -14.4790    -0.5660    -0.1010 C.ar  1 <1>  -0.1500 
 27 H       -4.4550    -1.3050    -1.8420 H     1 <1>   0.0800 
 28 H       -3.5680     0.1420    -1.4770 H     1 <1>   0.0800 
 29 H       -2.3200    -3.3480     0.5790 H     1 <1>   0.0800 
 30 H       -3.6560    -3.5480    -0.5110 H     1 <1>   0.0800 
 31 H        0.8770    -2.7850    -2.3680 H     1 <1>   0.0800 
 32 H        2.3310    -1.9220    -1.9410 H     1 <1>   0.0800 
 33 H        0.9140    -1.0330    -2.3910 H     1 <1>   0.0800 
 34 H        1.1140    -4.0150    -0.1700 H     1 <1>   0.0800 
 35 H        1.1180    -3.1260     1.3390 H     1 <1>   0.0800 
 36 H        2.5020    -3.0620     0.2820 H     1 <1>   0.0800 
 37 H        0.9190     0.2620    -0.1940 H     1 <1>   0.0800 
 38 H        2.3370    -0.5650     0.3610 H     1 <1>   0.0800 
 39 H        0.8870    -0.6060     1.3280 H     1 <1>   0.0800 
 40 H       -5.7280     0.1200    -0.2710 H     1 <1>   0.0800 
 41 H       -4.3570     0.2030     0.7730 H     1 <1>   0.0800 
 42 H       -3.5870    -1.9460     2.0520 H     1 <1>   0.0800 
 43 H       -4.4600    -3.4200     1.8200 H     1 <1>   0.0800 
 44 H       -6.2250    -3.4630     0.3900 H     1 <1>   0.4500 
 45 H       -5.8350    -2.5430    -0.9470 H     1 <1>   0.4500 
 46 H       -6.0880    -0.3150     2.3810 H     1 <1>   0.0800 
 47 H       -6.1310    -1.9820     2.8660 H     1 <1>   0.0800 
 48 H       -7.6140    -1.0850    -0.5890 H     1 <1>   0.0800 
 49 H       -8.2460    -0.5320     1.5300 H     1 <1>   0.0800 
 50 H       -8.2560    -2.1800     2.0960 H     1 <1>   0.0800 
 51 H       -8.6840    -3.8010     0.2580 H     1 <1>   0.0800 
 52 H       -8.5290    -3.2200    -1.4080 H     1 <1>   0.0800 
 53 H      -11.0640    -3.9020     0.0070 H     1 <1>   0.0800 
 54 H      -10.9070    -3.3390    -1.6550 H     1 <1>   0.0800 
 55 H      -12.3320    -1.5600    -2.4970 H     1 <1>   0.1500 
 56 H      -12.4010    -2.5510     1.6550 H     1 <1>   0.1500 
 57 H      -14.3160    -0.1590    -2.1900 H     1 <1>   0.1500 
 58 H      -14.3880    -1.1470     1.9510 H     1 <1>   0.1500 
 59 H      -15.3500     0.0510     0.0310 H     1 <1>   0.1500 
@<TRIPOS>BOND
  1   1   2  2   
  2   2   3  1   
  3   2   4  am  
  4   3   5  1   
  5   4   6  1   
  6   4   7  1   
  7   5   8  1   
  8   5   9  1   
  9   5  10  1   
 10   6  11  1   
 11   6  27  1   
 12   6  28  1   
 13   7  12  1   
 14   7  29  1   
 15   7  30  1   
 16   8  31  1   
 17   8  32  1   
 18   8  33  1   
 19   9  34  1   
 20   9  35  1   
 21   9  36  1   
 22  10  37  1   
 23  10  38  1   
 24  10  39  1   
 25  11  13  1   
 26  11  40  1   
 27  11  41  1   
 28  12  13  1   
 29  12  42  1   
 30  12  43  1   
 31  13  14  1   
 32  13  15  1   
 33  14  16  1   
 34  14  44  1   
 35  14  45  1   
 36  15  17  1   
 37  15  46  1   
 38  15  47  1   
 39  16  17  1   
 40  16  18  1   
 41  16  48  1   
 42  17  49  1   
 43  17  50  1   
 44  18  19  1   
 45  18  51  1   
 46  18  52  1   
 47  19  20  1   
 48  20  21  1   
 49  20  53  1   
 50  20  54  1   
 51  21  22  ar  
 52  21  23  ar  
 53  22  24  ar  
 54  22  55  1   
 55  23  25  ar  
 56  23  56  1   
 57  24  26  ar  
 58  24  57  1   
 59  25  26  ar  
 60  25  58  1   
 61  26  59  1   
@<TRIPOS>SUBSTRUCTURE
  1 ****  14 GROUP 4 **** **** 0

# MOE 2024.06 (io_trps.svl 2023.06)
