@<TRIPOS>MOLECULE
NONAME
49 53 1 0 0 
SMALL
USER_CHARGES


@<TRIPOS>ATOM
  1 O        1.2210    -0.2960     2.3470 O.2   1 <1>  -0.5700 
  2 C        1.7780    -0.7750     1.3730 C.2   1 <1>   0.5440 
  3 N        2.6250     0.0330     0.6430 N.am  1 <1>  -0.6600 
  4 C        1.4890    -2.1550     0.9900 C.ar  1 <1>   0.3960 
  5 C        2.4970     1.5290     0.8170 C.3   1 <1>   0.5450 
  6 C        3.8600    -0.5450     0.0000 C.3   1 <1>   0.1400 
  7 N        2.4010    -3.0980     1.2070 N.ar  1 <1>  -0.6200 
  8 C        0.2680    -2.4720     0.4000 C.ar  1 <1>  -0.1440 
  9 C        1.1710     1.9670     0.1910 C.ar  1 <1>  -0.1440 
 10 C        3.6680     2.2850     0.1760 C.2   1 <1>   0.0460 
 11 C        4.4470     0.2960    -1.1470 C.3   1 <1>   0.0200 
 12 C        2.0640    -4.3090     0.8350 C.ar  1 <1>   0.7200 
 13 C        0.0420    -3.7930     0.0740 C.ar  1 <1>   0.1660 
 14 C       -0.7850    -1.3870     0.1420 C.3   1 <1>  -0.0170 
 15 C        0.0660     2.1910     1.0000 C.ar  1 <1>   0.1600 
 16 C        1.0280     2.1330    -1.1750 C.ar  1 <1>  -0.1500 
 17 N        3.9720     3.5830     0.3940 N.2   1 <1>  -0.5650 
 18 C        4.5240     1.7380    -0.7060 C.2   1 <1>  -0.3320 
 19 N        0.9410    -4.7210     0.2870 N.ar  1 <1>  -0.6200 
 20 N        2.9740    -5.2570     1.0580 N.pl3 1 <1>  -0.9000 
 21 C       -1.2580    -4.2600    -0.5640 C.3   1 <1>  -0.0170 
 22 C       -1.8910    -1.8400    -0.8170 C.3   1 <1>  -0.1600 
 23 N       -1.1350     2.5520     0.5690 N.ar  1 <1>  -0.6200 
 24 C       -0.2110     2.5160    -1.6410 C.ar  1 <1>  -0.1500 
 25 C        4.9990     3.7880    -0.3680 C.2   1 <1>   0.0360 
 26 N        5.3870     2.7010    -1.0710 N.pl3 1 <1>   0.0330 
 27 C       -2.3930    -3.2350    -0.4400 C.3   1 <1>  -0.1600 
 28 C       -1.2420     2.7100    -0.7390 C.ar  1 <1>   0.1600 
 29 H        2.5020     1.7620     1.8680 H     1 <1>   0.0800 
 30 H        3.6550    -1.5290    -0.3820 H     1 <1>   0.0800 
 31 H        4.6100    -0.6440     0.7660 H     1 <1>   0.0800 
 32 H        3.8250     0.2100    -2.0190 H     1 <1>   0.0800 
 33 H        5.4270    -0.0760    -1.3890 H     1 <1>   0.0800 
 34 H       -0.3240    -0.5060    -0.2700 H     1 <1>   0.0800 
 35 H       -1.2280    -1.1100     1.0840 H     1 <1>   0.0800 
 36 H        0.1700     2.0580     2.0650 H     1 <1>   0.1500 
 37 H        1.8510     1.9760    -1.8500 H     1 <1>   0.1500 
 38 H        2.6120    -6.2070     1.0360 H     1 <1>   0.4000 
 39 H        3.6500    -5.0490     1.7870 H     1 <1>   0.4000 
 40 H       -1.5660    -5.1850    -0.1080 H     1 <1>   0.0800 
 41 H       -1.0650    -4.4570    -1.6040 H     1 <1>   0.0800 
 42 H       -1.5070    -1.8560    -1.8230 H     1 <1>   0.0800 
 43 H       -2.7020    -1.1330    -0.7830 H     1 <1>   0.0800 
 44 H       -0.3770     2.6670    -2.6910 H     1 <1>   0.1500 
 45 H        5.5100     4.7320    -0.4480 H     1 <1>   0.1500 
 46 H        6.1700     2.6390    -1.7280 H     1 <1>   0.2700 
 47 H       -2.7540    -3.2230     0.5740 H     1 <1>   0.0800 
 48 H       -3.2090    -3.5210    -1.0810 H     1 <1>   0.0800 
 49 H       -2.2050     3.0120    -1.1130 H     1 <1>   0.1500 
@<TRIPOS>BOND
  1   1   2  2   
  2   2   3  am  
  3   2   4  1   
  4   3   5  1   
  5   3   6  1   
  6   4   7  ar  
  7   4   8  ar  
  8   5   9  1   
  9   5  10  1   
 10   5  29  1   
 11   6  11  1   
 12   6  30  1   
 13   6  31  1   
 14   7  12  ar  
 15   8  13  ar  
 16   8  14  1   
 17   9  15  ar  
 18   9  16  ar  
 19  10  17  1   
 20  10  18  2   
 21  11  18  1   
 22  11  32  1   
 23  11  33  1   
 24  12  19  ar  
 25  12  20  1   
 26  13  19  ar  
 27  13  21  1   
 28  14  22  1   
 29  14  34  1   
 30  14  35  1   
 31  15  23  ar  
 32  15  36  1   
 33  16  24  ar  
 34  16  37  1   
 35  17  25  2   
 36  18  26  1   
 37  20  38  1   
 38  20  39  1   
 39  21  27  1   
 40  21  40  1   
 41  21  41  1   
 42  22  27  1   
 43  22  42  1   
 44  22  43  1   
 45  23  28  ar  
 46  24  28  ar  
 47  24  44  1   
 48  25  26  1   
 49  25  45  1   
 50  26  46  1   
 51  27  47  1   
 52  27  48  1   
 53  28  49  1   
@<TRIPOS>SUBSTRUCTURE
  1 ****   3 GROUP 4 **** **** 0

# MOE 2024.06 (io_trps.svl 2023.06)
