@<TRIPOS>MOLECULE
NONAME
50 51 1 0 0 
SMALL
USER_CHARGES


@<TRIPOS>ATOM
  1 S       -1.1070    -0.1230    -1.1160 S.3   1 <1>  -0.0800 
  2 C       -1.0190     1.3200    -0.1430 C.2   1 <1>  -0.1400 
  3 C       -0.8300    -1.0740     0.3250 C.2   1 <1>   0.1980 
  4 C       -0.8060     0.9680     1.1350 C.2   1 <1>   0.0460 
  5 C       -1.1810     2.6490    -0.8380 C.3   1 <1>   0.5230 
  6 N       -0.6930    -0.3850     1.3830 N.2   1 <1>  -0.5650 
  7 C       -0.7820    -2.5770     0.1760 C.3   1 <1>  -0.0600 
  8 C       -0.6680     1.8780     2.3390 C.3   1 <1>  -0.0590 
  9 N        0.1600     3.2650    -1.0220 N.4   1 <1>  -0.9590 
 10 C        0.2300     4.7170    -1.3910 C.3   1 <1>   0.4230 
 11 C        1.1030     2.4050    -1.7920 C.3   1 <1>   0.4860 
 12 C        1.0200     5.4470    -0.2790 C.3   1 <1>   0.1200 
 13 C       -1.1520     5.3560    -1.5730 C.3   1 <1>  -0.2400 
 14 C        2.5130     2.9270    -1.6050 C.ar  1 <1>  -0.1430 
 15 O        0.7620     4.8310     0.9570 O.3   1 <1>  -0.5600 
 16 C        3.1200     2.8320    -0.3620 C.ar  1 <1>  -0.1500 
 17 C        3.1990     3.5180    -2.6560 C.ar  1 <1>  -0.1500 
 18 C        1.5820     5.2870     1.9890 C.3   1 <1>   0.0400 
 19 C        4.3880     3.3450    -0.1530 C.ar  1 <1>   0.0820 
 20 C        4.4730     4.0220    -2.4560 C.ar  1 <1>  -0.1500 
 21 O        4.8850     3.2350     1.1020 O.3   1 <1>  -0.3630 
 22 C        5.0680     3.9420    -1.2090 C.ar  1 <1>  -0.1500 
 23 C        6.2270     3.5650     1.3890 C.3   1 <1>   0.0400 
 24 H       -1.7890     3.2840    -0.2160 H     1 <1>   0.0800 
 25 H       -1.6760     2.5170    -1.7860 H     1 <1>   0.0800 
 26 H        0.0120    -2.8540    -0.4920 H     1 <1>   0.0800 
 27 H       -1.7170    -2.9360    -0.2120 H     1 <1>   0.0800 
 28 H       -0.6060    -3.0300     1.1350 H     1 <1>   0.0800 
 29 H       -0.8110     2.9080     2.0720 H     1 <1>   0.0800 
 30 H        0.3100     1.7600     2.7710 H     1 <1>   0.0800 
 31 H       -1.4010     1.6080     3.0770 H     1 <1>   0.0800 
 32 H        0.5480     3.2990    -0.0610 H     1 <1>   0.4500 
 33 H        0.7670     4.8310    -2.3180 H     1 <1>   0.0800 
 34 H        0.8410     2.4050    -2.8370 H     1 <1>   0.0800 
 35 H        1.0670     1.3900    -1.4310 H     1 <1>   0.0800 
 36 H        0.7430     6.4860    -0.2200 H     1 <1>   0.0800 
 37 H        2.0750     5.3860    -0.4840 H     1 <1>   0.0800 
 38 H       -1.7070     5.3600    -0.6510 H     1 <1>   0.0800 
 39 H       -1.7100     4.8610    -2.3470 H     1 <1>   0.0800 
 40 H       -1.0280     6.3800    -1.8770 H     1 <1>   0.0800 
 41 H        2.6220     2.3640     0.4710 H     1 <1>   0.1500 
 42 H        2.7590     3.5920    -3.6360 H     1 <1>   0.1500 
 43 H        1.3010     4.7810     2.8960 H     1 <1>   0.0800 
 44 H        1.4470     6.3490     2.1130 H     1 <1>   0.0800 
 45 H        2.6100     5.0630     1.7580 H     1 <1>   0.0800 
 46 H        5.0070     4.4780    -3.2730 H     1 <1>   0.1500 
 47 H        6.0550     4.3450    -1.0800 H     1 <1>   0.1500 
 48 H        6.4150     3.3340     2.4220 H     1 <1>   0.0800 
 49 H        6.3750     4.6160     1.2170 H     1 <1>   0.0800 
 50 H        6.8740     2.9770     0.7610 H     1 <1>   0.0800 
@<TRIPOS>BOND
  1   1   2  1   
  2   1   3  1   
  3   2   4  2   
  4   2   5  1   
  5   3   6  2   
  6   3   7  1   
  7   4   6  1   
  8   4   8  1   
  9   5   9  1   
 10   5  24  1   
 11   5  25  1   
 12   7  26  1   
 13   7  27  1   
 14   7  28  1   
 15   8  29  1   
 16   8  30  1   
 17   8  31  1   
 18   9  10  1   
 19   9  11  1   
 20   9  32  1   
 21  10  12  1   
 22  10  13  1   
 23  10  33  1   
 24  11  14  1   
 25  11  34  1   
 26  11  35  1   
 27  12  15  1   
 28  12  36  1   
 29  12  37  1   
 30  13  38  1   
 31  13  39  1   
 32  13  40  1   
 33  14  16  ar  
 34  14  17  ar  
 35  15  18  1   
 36  16  19  ar  
 37  16  41  1   
 38  17  20  ar  
 39  17  42  1   
 40  18  43  1   
 41  18  44  1   
 42  18  45  1   
 43  19  21  1   
 44  19  22  ar  
 45  20  22  ar  
 46  20  46  1   
 47  21  23  1   
 48  22  47  1   
 49  23  48  1   
 50  23  49  1   
 51  23  50  1   
@<TRIPOS>SUBSTRUCTURE
  1 ****   9 GROUP 4 **** **** 0

# MOE 2024.06 (io_trps.svl 2023.06)
