@<TRIPOS>MOLECULE
NONAME
56 59 1 0 0 
SMALL
USER_CHARGES


@<TRIPOS>ATOM
  1 N       -0.8910     0.1340     0.7660 N.ar  1 <1>  -0.6200 
  2 C        0.1710     0.6330     1.3400 C.ar  1 <1>   0.7710 
  3 C       -1.6450     0.9720     0.0570 C.ar  1 <1>   0.4100 
  4 N        0.5270     1.9280     1.2480 N.ar  1 <1>  -0.1790 
  5 N        0.9250    -0.2090     2.0560 N.pl3 1 <1>  -0.9000 
  6 N       -2.7500     0.4380    -0.5430 N.pl3 1 <1>  -0.8380 
  7 C       -1.3230     2.3170    -0.0670 C.ar  1 <1>  -0.1500 
  8 C       -0.1980     2.8120     0.5470 C.ar  1 <1>   0.4610 
  9 C       -2.7720    -0.9670    -1.0690 C.3   1 <1>   0.2090 
 10 C       -4.0750     1.1320    -0.6020 C.3   1 <1>   0.2090 
 11 N        0.2200     4.1140     0.5040 N.pl3 1 <1>  -0.8380 
 12 C       -3.8930    -1.7920    -0.4040 C.3   1 <1>   0.3430 
 13 C       -5.1920     0.2660     0.0290 C.3   1 <1>   0.3430 
 14 C        1.6540     4.5470     0.4620 C.3   1 <1>   0.1290 
 15 C       -0.7330     5.2510     0.3050 C.3   1 <1>   0.1290 
 16 N       -5.2580    -1.1430    -0.5260 N.4   1 <1>  -0.9590 
 17 C       -6.3520    -1.9570     0.1150 C.3   1 <1>   0.4230 
 18 C       -6.3140    -3.4280    -0.3450 C.3   1 <1>  -0.0170 
 19 C       -7.7250    -1.3570    -0.2220 C.3   1 <1>  -0.1600 
 20 C       -7.5450    -4.2150     0.0780 C.ar  1 <1>  -0.1430 
 21 C       -8.8270    -2.0700     0.5690 C.3   1 <1>  -0.0170 
 22 C       -8.7120    -3.5830     0.4920 C.ar  1 <1>  -0.1430 
 23 C       -7.4940    -5.6000     0.0330 C.ar  1 <1>  -0.1500 
 24 C       -9.8090    -4.3470     0.8590 C.ar  1 <1>  -0.1500 
 25 C       -8.5920    -6.3550     0.4010 C.ar  1 <1>  -0.1500 
 26 C       -9.7520    -5.7270     0.8140 C.ar  1 <1>  -0.1500 
 27 H        1.3240     2.2670     1.7630 H     1 <1>   0.4570 
 28 H        1.7910    -0.0100     2.5590 H     1 <1>   0.4000 
 29 H        0.6340    -1.1900     2.1100 H     1 <1>   0.4000 
 30 H       -1.9370     2.9600    -0.6650 H     1 <1>   0.1500 
 31 H       -1.8270    -1.4540    -0.8980 H     1 <1>   0.0800 
 32 H       -2.9270    -0.9440    -2.1340 H     1 <1>   0.0800 
 33 H       -4.3200     1.3480    -1.6280 H     1 <1>   0.0800 
 34 H       -4.0270     2.0680    -0.0710 H     1 <1>   0.0800 
 35 H       -3.6440    -1.9170     0.6380 H     1 <1>   0.0800 
 36 H       -3.9060    -2.7680    -0.8590 H     1 <1>   0.0800 
 37 H       -6.1300     0.7700    -0.1260 H     1 <1>   0.0800 
 38 H       -5.0190     0.2210     1.0920 H     1 <1>   0.0800 
 39 H        2.3130     3.7100     0.3130 H     1 <1>   0.0800 
 40 H        1.9160     5.0480     1.3800 H     1 <1>   0.0800 
 41 H        1.8040     5.2340    -0.3550 H     1 <1>   0.0800 
 42 H       -1.7390     4.9590     0.5520 H     1 <1>   0.0800 
 43 H       -0.7040     5.5810    -0.7200 H     1 <1>   0.0800 
 44 H       -0.4600     6.0760     0.9420 H     1 <1>   0.0800 
 45 H       -5.4810    -1.0760    -1.5270 H     1 <1>   0.4500 
 46 H       -6.2270    -1.9400     1.1870 H     1 <1>   0.0800 
 47 H       -5.4570    -3.9180     0.0780 H     1 <1>   0.0800 
 48 H       -6.2520    -3.4740    -1.4170 H     1 <1>   0.0800 
 49 H       -7.9260    -1.4770    -1.2730 H     1 <1>   0.0800 
 50 H       -7.7850    -0.3150     0.0230 H     1 <1>   0.0800 
 51 H       -9.7890    -1.7630     0.1930 H     1 <1>   0.0800 
 52 H       -8.7750    -1.7810     1.6050 H     1 <1>   0.0800 
 53 H       -6.6010    -6.1070    -0.2890 H     1 <1>   0.1500 
 54 H      -10.7190    -3.8720     1.1840 H     1 <1>   0.1500 
 55 H       -8.5480    -7.4300     0.3650 H     1 <1>   0.1500 
 56 H      -10.6090    -6.3130     1.1010 H     1 <1>   0.1500 
@<TRIPOS>BOND
  1   1   2  ar  
  2   1   3  ar  
  3   2   4  ar  
  4   2   5  1   
  5   3   6  1   
  6   3   7  ar  
  7   4   8  ar  
  8   4  27  1   
  9   5  28  1   
 10   5  29  1   
 11   6   9  1   
 12   6  10  1   
 13   7   8  ar  
 14   7  30  1   
 15   8  11  1   
 16   9  12  1   
 17   9  31  1   
 18   9  32  1   
 19  10  13  1   
 20  10  33  1   
 21  10  34  1   
 22  11  14  1   
 23  11  15  1   
 24  12  16  1   
 25  12  35  1   
 26  12  36  1   
 27  13  16  1   
 28  13  37  1   
 29  13  38  1   
 30  14  39  1   
 31  14  40  1   
 32  14  41  1   
 33  15  42  1   
 34  15  43  1   
 35  15  44  1   
 36  16  17  1   
 37  16  45  1   
 38  17  18  1   
 39  17  19  1   
 40  17  46  1   
 41  18  20  1   
 42  18  47  1   
 43  18  48  1   
 44  19  21  1   
 45  19  49  1   
 46  19  50  1   
 47  20  22  ar  
 48  20  23  ar  
 49  21  22  1   
 50  21  51  1   
 51  21  52  1   
 52  22  24  ar  
 53  23  25  ar  
 54  23  53  1   
 55  24  26  ar  
 56  24  54  1   
 57  25  26  ar  
 58  25  55  1   
 59  26  56  1   
@<TRIPOS>SUBSTRUCTURE
  1 ****  12 GROUP 4 **** **** 0

# MOE 2024.06 (io_trps.svl 2023.06)
