@<TRIPOS>MOLECULE
NONAME
47 50 1 0 0 
SMALL
USER_CHARGES


@<TRIPOS>ATOM
  1 S       -0.5690    -0.2760     0.2960 S.3   1 <1>  -0.0800 
  2 C        0.8880    -1.2780     0.1920 C.2   1 <1>  -0.0130 
  3 C        0.2940     1.1680    -0.1870 C.2   1 <1>  -0.1100 
  4 C        0.8200    -2.6880     0.4960 C.ar  1 <1>   0.6730 
  5 C        1.9220    -0.4840    -0.1930 C.2   1 <1>  -0.1500 
  6 C        1.5910     0.8870    -0.4050 C.2   1 <1>  -0.1500 
  7 N       -0.3490    -3.2100     0.8820 N.ar  1 <1>  -0.6200 
  8 N        1.9510    -3.3920     0.3660 N.ar  1 <1>  -0.6200 
  9 C       -0.3790    -4.4900     1.1530 C.ar  1 <1>   0.1600 
 10 C        1.8980    -4.6710     0.6390 C.ar  1 <1>   0.1600 
 11 C        0.7340    -5.2870     1.0330 C.ar  1 <1>  -0.1430 
 12 C        0.6650    -6.7680     1.3270 C.3   1 <1>   0.4870 
 13 N        0.6060    -7.5510     0.0520 N.4   1 <1>  -0.9590 
 14 C       -0.5830    -7.1920    -0.7840 C.3   1 <1>   0.3430 
 15 C        0.4420    -9.0080     0.3480 C.3   1 <1>   0.3430 
 16 C       -1.7280    -8.0610    -0.2590 C.3   1 <1>   0.2000 
 17 C       -1.0400    -9.3710     0.1310 C.3   1 <1>  -0.0800 
 18 O       -2.2410    -7.4750     0.8940 O.3   1 <1>  -0.6800 
 19 C       -1.1970   -10.4450    -0.9630 C.3   1 <1>   0.0210 
 20 C       -0.5480   -11.7520    -0.5520 C.2   1 <1>   0.1080 
 21 N        0.7250   -11.8710    -0.3280 N.2   1 <1>  -0.7070 
 22 C       -1.2270   -12.9520    -0.3740 C.2   1 <1>  -0.1500 
 23 N        0.8940   -13.1730    -0.0100 N.pl3 1 <1>   0.3000 
 24 C       -0.2760   -13.8430    -0.0260 C.2   1 <1>  -0.3320 
 25 C       -0.4160   -15.3210     0.2910 C.3   1 <1>  -0.0600 
 26 H       -0.2660     2.0830    -0.2560 H     1 <1>   0.1500 
 27 H        2.9290    -0.8340    -0.3350 H     1 <1>   0.1500 
 28 H        2.3390     1.5980    -0.7110 H     1 <1>   0.1500 
 29 H       -1.3220    -4.9060     1.4720 H     1 <1>   0.1500 
 30 H        2.8140    -5.2310     0.5410 H     1 <1>   0.1500 
 31 H       -0.2090    -6.9720     1.9250 H     1 <1>   0.0800 
 32 H        1.5320    -7.0610     1.8970 H     1 <1>   0.0800 
 33 H        1.4700    -7.3910    -0.4800 H     1 <1>   0.4500 
 34 H       -0.8300    -6.1440    -0.7360 H     1 <1>   0.0800 
 35 H       -0.3890    -7.4560    -1.8100 H     1 <1>   0.0800 
 36 H        1.0560    -9.5810    -0.3280 H     1 <1>   0.0800 
 37 H        0.7450    -9.2430     1.3560 H     1 <1>   0.0800 
 38 H       -2.5260    -8.1700    -0.9750 H     1 <1>   0.0800 
 39 H       -1.4530    -9.7690     1.0420 H     1 <1>   0.0800 
 40 H       -3.0790    -7.9090     1.1670 H     1 <1>   0.4000 
 41 H       -0.7490   -10.1190    -1.8850 H     1 <1>   0.0800 
 42 H       -2.2410   -10.6250    -1.1480 H     1 <1>   0.0800 
 43 H       -2.2840   -13.1170    -0.4960 H     1 <1>   0.1500 
 44 H        1.8140   -13.5780     0.2070 H     1 <1>   0.2700 
 45 H       -1.4450   -15.6220     0.2080 H     1 <1>   0.0800 
 46 H       -0.0810   -15.5210     1.2930 H     1 <1>   0.0800 
 47 H        0.1680   -15.9070    -0.3980 H     1 <1>   0.0800 
@<TRIPOS>BOND
  1   1   2  1   
  2   1   3  1   
  3   2   4  1   
  4   2   5  2   
  5   3   6  2   
  6   3  26  1   
  7   4   7  ar  
  8   4   8  ar  
  9   5   6  1   
 10   5  27  1   
 11   6  28  1   
 12   7   9  ar  
 13   8  10  ar  
 14   9  11  ar  
 15   9  29  1   
 16  10  11  ar  
 17  10  30  1   
 18  11  12  1   
 19  12  13  1   
 20  12  31  1   
 21  12  32  1   
 22  13  14  1   
 23  13  15  1   
 24  13  33  1   
 25  14  16  1   
 26  14  34  1   
 27  14  35  1   
 28  15  17  1   
 29  15  36  1   
 30  15  37  1   
 31  16  17  1   
 32  16  18  1   
 33  16  38  1   
 34  17  19  1   
 35  17  39  1   
 36  18  40  1   
 37  19  20  1   
 38  19  41  1   
 39  19  42  1   
 40  20  21  2   
 41  20  22  1   
 42  21  23  1   
 43  22  24  2   
 44  22  43  1   
 45  23  24  1   
 46  23  44  1   
 47  24  25  1   
 48  25  45  1   
 49  25  46  1   
 50  25  47  1   
@<TRIPOS>SUBSTRUCTURE
  1 ****  13 GROUP 4 **** **** 0

# MOE 2024.06 (io_trps.svl 2023.06)
