@<TRIPOS>MOLECULE
NONAME
45 48 1 0 0 
SMALL
USER_CHARGES


@<TRIPOS>ATOM
  1 O        0.0190     0.0400    -0.2750 O.3   1 <1>  -0.5600 
  2 C        1.2740    -0.4940    -0.6030 C.3   1 <1>   0.3440 
  3 C       -0.1340     1.4040    -0.5400 C.3   1 <1>   0.2950 
  4 C        1.3000    -1.9820    -0.2840 C.ar  1 <1>  -0.1440 
  5 C        2.3790     0.2220     0.2070 C.3   1 <1>   0.3430 
  6 C       -1.5680     1.7850    -0.1720 C.3   1 <1>  -0.1950 
  7 C        0.8870     2.2220     0.2850 C.3   1 <1>   0.3430 
  8 C        2.0430    -2.8420    -1.0810 C.ar  1 <1>  -0.1500 
  9 C        0.6080    -2.5000     0.8040 C.ar  1 <1>  -0.1500 
 10 N        2.2980     1.7240     0.1110 N.4   1 <1>  -0.9590 
 11 C       -2.6980     1.5430    -1.1220 C.3   1 <1>  -0.2000 
 12 C       -2.2520     2.9470    -0.8240 C.3   1 <1>  -0.2000 
 13 C        2.1020    -4.1940    -0.7890 C.ar  1 <1>  -0.1500 
 14 C        0.6670    -3.8510     1.0950 C.ar  1 <1>  -0.1500 
 15 C        3.2610     2.4410     1.0000 C.3   1 <1>   0.4860 
 16 C        1.4160    -4.6990     0.3000 C.ar  1 <1>  -0.1500 
 17 C        3.4910     3.8460     0.4460 C.ar  1 <1>   0.1670 
 18 N        3.4730     3.9640    -0.8800 N.ar  1 <1>  -0.6200 
 19 C        3.6940     4.9050     1.3190 C.ar  1 <1>  -0.1500 
 20 C        3.6790     5.1890    -1.3470 C.ar  1 <1>   0.1600 
 21 C        3.8990     6.1710     0.8140 C.ar  1 <1>  -0.1500 
 22 C        3.8910     6.3040    -0.5570 C.ar  1 <1>  -0.1500 
 23 H        1.4300    -0.3540    -1.6590 H     1 <1>   0.0800 
 24 H        0.0210     1.5660    -1.5930 H     1 <1>   0.0800 
 25 H        3.3410    -0.1210    -0.1360 H     1 <1>   0.0800 
 26 H        2.2730    -0.0820     1.2360 H     1 <1>   0.0800 
 27 H       -1.7780     1.6190     0.8720 H     1 <1>   0.1000 
 28 H        0.6020     2.1550     1.3220 H     1 <1>   0.0800 
 29 H        0.8240     3.2580    -0.0070 H     1 <1>   0.0800 
 30 H        2.5830    -2.4760    -1.9370 H     1 <1>   0.1500 
 31 H        0.0110    -1.8580     1.4290 H     1 <1>   0.1500 
 32 H        2.6010     2.0390    -0.8310 H     1 <1>   0.4500 
 33 H       -2.4870     1.1210    -2.0900 H     1 <1>   0.1000 
 34 H       -3.6390     1.2000    -0.7250 H     1 <1>   0.1000 
 35 H       -2.9070     3.5700    -0.2380 H     1 <1>   0.1000 
 36 H       -1.7710     3.4940    -1.6180 H     1 <1>   0.1000 
 37 H        2.6800    -4.8570    -1.4110 H     1 <1>   0.1500 
 38 H        0.1260    -4.2460     1.9380 H     1 <1>   0.1500 
 39 H        2.8870     2.4880     2.0090 H     1 <1>   0.0800 
 40 H        4.2060     1.9240     1.0040 H     1 <1>   0.0800 
 41 H        1.4600    -5.7510     0.5260 H     1 <1>   0.1500 
 42 H        3.6980     4.7580     2.3850 H     1 <1>   0.1500 
 43 H        3.6800     5.3150    -2.4180 H     1 <1>   0.1500 
 44 H        4.0620     7.0200     1.4580 H     1 <1>   0.1500 
 45 H        4.0490     7.2660    -1.0120 H     1 <1>   0.1500 
@<TRIPOS>BOND
  1   1   2  1   
  2   1   3  1   
  3   2   4  1   
  4   2   5  1   
  5   2  23  1   
  6   3   6  1   
  7   3   7  1   
  8   3  24  1   
  9   4   8  ar  
 10   4   9  ar  
 11   5  10  1   
 12   5  25  1   
 13   5  26  1   
 14   6  11  1   
 15   6  12  1   
 16   6  27  1   
 17   7  10  1   
 18   7  28  1   
 19   7  29  1   
 20   8  13  ar  
 21   8  30  1   
 22   9  14  ar  
 23   9  31  1   
 24  10  15  1   
 25  10  32  1   
 26  11  12  1   
 27  11  33  1   
 28  11  34  1   
 29  12  35  1   
 30  12  36  1   
 31  13  16  ar  
 32  13  37  1   
 33  14  16  ar  
 34  14  38  1   
 35  15  17  1   
 36  15  39  1   
 37  15  40  1   
 38  16  41  1   
 39  17  18  ar  
 40  17  19  ar  
 41  18  20  ar  
 42  19  21  ar  
 43  19  42  1   
 44  20  22  ar  
 45  20  43  1   
 46  21  22  ar  
 47  21  44  1   
 48  22  45  1   
@<TRIPOS>SUBSTRUCTURE
  1 ****  10 GROUP 4 **** **** 0

# MOE 2024.06 (io_trps.svl 2023.06)
