@<TRIPOS>MOLECULE
NONAME
48 51 1 0 0 
SMALL
USER_CHARGES


@<TRIPOS>ATOM
  1 S        0.7780    -0.2230     1.4480 S.3   1 <1>  -0.0800 
  2 C        0.5150     1.2910     0.6080 C.2   1 <1>  -0.1400 
  3 C        2.4620     0.2010     1.7240 C.2   1 <1>  -0.1100 
  4 C        1.6310     2.0280     0.5460 C.2   1 <1>  -0.1810 
  5 C       -0.8210     1.6860     0.0430 C.3   1 <1>   0.0200 
  6 C        2.7500     1.4060     1.1940 C.2   1 <1>  -0.1500 
  7 C        1.6420     3.3870    -0.1590 C.3   1 <1>   0.4610 
  8 C       -0.7800     3.2040    -0.1970 C.3   1 <1>   0.1200 
  9 O        0.4140     3.5870    -0.8390 O.3   1 <1>  -0.5600 
 10 C        2.7320     3.4180    -1.2320 C.3   1 <1>  -0.1600 
 11 C        1.8550     4.5240     0.8470 C.3   1 <1>  -0.1600 
 12 C        2.8300     4.7860    -1.9070 C.3   1 <1>   0.2090 
 13 C        1.9060     5.8800     0.1510 C.3   1 <1>   0.2090 
 14 N        2.9700     5.8660    -0.8880 N.pl3 1 <1>  -0.8380 
 15 C        4.2230     6.3620    -0.5530 C.ar  1 <1>   0.4100 
 16 N        5.1530     5.4250    -0.3850 N.ar  1 <1>  -0.6200 
 17 C        4.4710     7.7400    -0.3750 C.ar  1 <1>   0.0860 
 18 C        6.3510     5.8110    -0.0010 C.ar  1 <1>   0.1670 
 19 C        3.4820     8.7670    -0.6250 C.2   1 <1>   0.5440 
 20 C        5.7420     8.1070     0.0460 C.ar  1 <1>  -0.1500 
 21 C        6.6990     7.1350     0.2400 C.ar  1 <1>  -0.1440 
 22 C        7.3600     4.6910     0.1770 C.3   1 <1>  -0.0970 
 23 O        3.5150     9.8380    -0.0540 O.2   1 <1>  -0.5700 
 24 N        2.4800     8.6090    -1.5160 N.am  1 <1>  -0.8000 
 25 C        8.0910     7.5460     0.7040 C.3   1 <1>  -0.0970 
 26 H        3.0660    -0.5070     2.2620 H     1 <1>   0.1500 
 27 H       -1.6080     1.4470     0.7340 H     1 <1>   0.0800 
 28 H       -0.9980     1.1660    -0.8810 H     1 <1>   0.0800 
 29 H        3.7120     1.8880     1.2310 H     1 <1>   0.1500 
 30 H       -0.8500     3.7320     0.7370 H     1 <1>   0.0800 
 31 H       -1.6010     3.5030    -0.8240 H     1 <1>   0.0800 
 32 H        2.5300     2.6600    -1.9650 H     1 <1>   0.0800 
 33 H        3.6830     3.1920    -0.7890 H     1 <1>   0.0800 
 34 H        2.7870     4.3710     1.3590 H     1 <1>   0.0800 
 35 H        1.0800     4.5150     1.5890 H     1 <1>   0.0800 
 36 H        1.9430     4.9660    -2.4910 H     1 <1>   0.0800 
 37 H        3.6770     4.8010    -2.5720 H     1 <1>   0.0800 
 38 H        2.1090     6.6500     0.8760 H     1 <1>   0.0800 
 39 H        0.9580     6.0950    -0.3130 H     1 <1>   0.0800 
 40 H        5.9640     9.1470     0.2110 H     1 <1>   0.1500 
 41 H        6.9960     3.7850    -0.2740 H     1 <1>   0.0800 
 42 H        7.5190     4.5120     1.2240 H     1 <1>   0.0800 
 43 H        8.2930     4.9460    -0.2890 H     1 <1>   0.0800 
 44 H        1.7670     9.3290    -1.6170 H     1 <1>   0.3700 
 45 H        2.2700     7.6620    -1.8530 H     1 <1>   0.3700 
 46 H        8.3740     6.9830     1.5750 H     1 <1>   0.0800 
 47 H        8.1190     8.5900     0.9580 H     1 <1>   0.0800 
 48 H        8.8070     7.3690    -0.0780 H     1 <1>   0.0800 
@<TRIPOS>BOND
  1   1   2  1   
  2   1   3  1   
  3   2   4  2   
  4   2   5  1   
  5   3   6  2   
  6   3  26  1   
  7   4   6  1   
  8   4   7  1   
  9   5   8  1   
 10   5  27  1   
 11   5  28  1   
 12   6  29  1   
 13   7   9  1   
 14   7  10  1   
 15   7  11  1   
 16   8   9  1   
 17   8  30  1   
 18   8  31  1   
 19  10  12  1   
 20  10  32  1   
 21  10  33  1   
 22  11  13  1   
 23  11  34  1   
 24  11  35  1   
 25  12  14  1   
 26  12  36  1   
 27  12  37  1   
 28  13  14  1   
 29  13  38  1   
 30  13  39  1   
 31  14  15  1   
 32  15  16  ar  
 33  15  17  ar  
 34  16  18  ar  
 35  17  19  1   
 36  17  20  ar  
 37  18  21  ar  
 38  18  22  1   
 39  19  23  2   
 40  19  24  am  
 41  20  21  ar  
 42  20  40  1   
 43  21  25  1   
 44  22  41  1   
 45  22  42  1   
 46  22  43  1   
 47  24  44  1   
 48  24  45  1   
 49  25  46  1   
 50  25  47  1   
 51  25  48  1   
@<TRIPOS>SUBSTRUCTURE
  1 ****  14 GROUP 4 **** **** 0

# MOE 2024.06 (io_trps.svl 2023.06)
