@<TRIPOS>MOLECULE
NONAME
44 45 1 0 0 
SMALL
USER_CHARGES


@<TRIPOS>ATOM
  1 O        1.4920    -0.7310     1.6720 O.2   1 <1>  -0.5700 
  2 C        1.8160    -0.8730     0.5190 C.2   1 <1>   0.5690 
  3 N        2.3990     0.1010    -0.2320 N.am  1 <1>  -0.4930 
  4 C        1.5420    -2.2200    -0.1050 C.3   1 <1>  -0.0990 
  5 C        2.7130     1.4310     0.1480 C.2   1 <1>   0.0630 
  6 C        0.1460    -2.7010     0.3290 C.3   1 <1>   0.4230 
  7 C        2.5310     2.0760     1.3720 C.2   1 <1>   0.1390 
  8 C        3.2750     2.3650    -0.6460 C.2   1 <1>  -0.3020 
  9 N       -0.0950    -4.1430    -0.0290 N.4   1 <1>  -0.9590 
 10 C       -0.9450    -1.8290    -0.3240 C.3   1 <1>  -0.1600 
 11 N        2.9420     3.3080     1.3450 N.2   1 <1>  -0.7070 
 12 N        3.4070     3.4920     0.0920 N.pl3 1 <1>   0.3140 
 13 C       -1.4470    -4.5980     0.4190 C.3   1 <1>   0.3430 
 14 C        0.9250    -5.0790     0.5440 C.3   1 <1>   0.2630 
 15 C       -2.3610    -2.2800     0.0480 C.3   1 <1>  -0.1600 
 16 C        3.9860     4.7830    -0.3830 C.3   1 <1>   0.1760 
 17 C       -2.5370    -3.7690    -0.2550 C.3   1 <1>  -0.1600 
 18 C        5.2380     5.1460     0.4280 C.3   1 <1>  -0.2400 
 19 C        2.9430     5.9070    -0.3070 C.3   1 <1>  -0.2400 
 20 H        2.6730    -0.1240    -1.1870 H     1 <1>   0.3700 
 21 H        2.3110    -2.8730     0.2580 H     1 <1>   0.0800 
 22 H        1.6060    -2.1570    -1.1750 H     1 <1>   0.0800 
 23 H        0.0690    -2.5960     1.4010 H     1 <1>   0.0800 
 24 H        2.1020     1.6170     2.2460 H     1 <1>   0.1500 
 25 H        3.5840     2.3030    -1.6710 H     1 <1>   0.1500 
 26 H       -0.0830    -4.2120    -1.0550 H     1 <1>   0.4500 
 27 H       -0.8340    -1.8460    -1.3950 H     1 <1>   0.0800 
 28 H       -0.8280    -0.8060    -0.0070 H     1 <1>   0.0800 
 29 H       -1.5300    -4.4930     1.4890 H     1 <1>   0.0800 
 30 H       -1.5880    -5.6380     0.1700 H     1 <1>   0.0800 
 31 H        0.9790    -4.9630     1.6150 H     1 <1>   0.0800 
 32 H        1.8990    -4.8850     0.1250 H     1 <1>   0.0800 
 33 H        0.6620    -6.1010     0.3220 H     1 <1>   0.0800 
 34 H       -3.0860    -1.7040    -0.5030 H     1 <1>   0.0800 
 35 H       -2.5300    -2.1010     1.0980 H     1 <1>   0.0800 
 36 H        4.2720     4.6520    -1.4110 H     1 <1>   0.0800 
 37 H       -3.4990    -4.0930     0.1060 H     1 <1>   0.0800 
 38 H       -2.5180    -3.9380    -1.3180 H     1 <1>   0.0800 
 39 H        4.9830     5.2900     1.4630 H     1 <1>   0.0800 
 40 H        5.6750     6.0530     0.0520 H     1 <1>   0.0800 
 41 H        5.9680     4.3590     0.3540 H     1 <1>   0.0800 
 42 H        2.6400     6.0660     0.7130 H     1 <1>   0.0800 
 43 H        2.0780     5.6500    -0.8920 H     1 <1>   0.0800 
 44 H        3.3540     6.8230    -0.6900 H     1 <1>   0.0800 
@<TRIPOS>BOND
  1   1   2  2   
  2   2   3  am  
  3   2   4  1   
  4   3   5  1   
  5   3  20  1   
  6   4   6  1   
  7   4  21  1   
  8   4  22  1   
  9   5   7  1   
 10   5   8  2   
 11   6   9  1   
 12   6  10  1   
 13   6  23  1   
 14   7  11  2   
 15   7  24  1   
 16   8  12  1   
 17   8  25  1   
 18   9  13  1   
 19   9  14  1   
 20   9  26  1   
 21  10  15  1   
 22  10  27  1   
 23  10  28  1   
 24  11  12  1   
 25  12  16  1   
 26  13  17  1   
 27  13  29  1   
 28  13  30  1   
 29  14  31  1   
 30  14  32  1   
 31  14  33  1   
 32  15  17  1   
 33  15  34  1   
 34  15  35  1   
 35  16  18  1   
 36  16  19  1   
 37  16  36  1   
 38  17  37  1   
 39  17  38  1   
 40  18  39  1   
 41  18  40  1   
 42  18  41  1   
 43  19  42  1   
 44  19  43  1   
 45  19  44  1   
@<TRIPOS>SUBSTRUCTURE
  1 ****   2 GROUP 4 **** **** 0

# MOE 2024.06 (io_trps.svl 2023.06)
