@<TRIPOS>MOLECULE
NONAME
40 43 1 0 0 
SMALL
USER_CHARGES


@<TRIPOS>ATOM
  1 S       -0.3500     0.3160    -0.4840 S.3   1 <1>  -0.0800 
  2 C       -0.2630    -1.4440    -0.3260 C.2   1 <1>   0.4620 
  3 C        1.3530     0.4240    -0.1060 C.ar  1 <1>   0.0400 
  4 N        0.9010    -1.8880    -0.0260 N.2   1 <1>  -0.5650 
  5 N       -1.3990    -2.1850    -0.5290 N.pl3 1 <1>  -0.8220 
  6 C        1.8210    -0.8600     0.1010 C.ar  1 <1>   0.2270 
  7 C        2.1450     1.5530    -0.0160 C.ar  1 <1>  -0.1500 
  8 C       -2.7860    -1.6620    -0.6040 C.3   1 <1>   0.2090 
  9 C       -1.4120    -3.6640    -0.3930 C.3   1 <1>   0.2090 
 10 C        3.1630    -1.0190     0.4180 C.ar  1 <1>  -0.1500 
 11 C        3.4810     1.3740     0.3020 C.ar  1 <1>  -0.1500 
 12 C       -3.6250    -2.7650     0.0410 C.3   1 <1>   0.2000 
 13 C       -2.8960    -4.0480    -0.3700 C.3   1 <1>  -0.0800 
 14 C        3.9860     0.0930     0.5170 C.ar  1 <1>  -0.1500 
 15 O       -3.5450    -2.6110     1.4180 O.3   1 <1>  -0.6800 
 16 C       -3.2000    -5.2900     0.4870 C.3   1 <1>   0.0210 
 17 C       -2.4180    -6.4910    -0.0070 C.2   1 <1>   0.1080 
 18 N       -2.5690    -6.9900    -1.1950 N.2   1 <1>  -0.7070 
 19 C       -1.4600    -7.1760     0.7320 C.2   1 <1>  -0.1500 
 20 N       -1.7050    -8.0200    -1.2440 N.pl3 1 <1>   0.3000 
 21 C       -1.0190    -8.1520    -0.0890 C.2   1 <1>  -0.3320 
 22 C        0.0300    -9.2190     0.1630 C.3   1 <1>  -0.0600 
 23 H        1.7310     2.5310    -0.1870 H     1 <1>   0.1500 
 24 H       -2.9040    -0.7250    -0.0870 H     1 <1>   0.0800 
 25 H       -3.0600    -1.5440    -1.6380 H     1 <1>   0.0800 
 26 H       -0.9010    -4.1280    -1.2200 H     1 <1>   0.0800 
 27 H       -0.9240    -3.9410     0.5260 H     1 <1>   0.0800 
 28 H        3.5430    -2.0110     0.5820 H     1 <1>   0.1500 
 29 H        4.1350     2.2260     0.3820 H     1 <1>   0.1500 
 30 H       -4.6600    -2.7440    -0.2530 H     1 <1>   0.0800 
 31 H       -3.1770    -4.2710    -1.3850 H     1 <1>   0.0800 
 32 H        5.0260    -0.0330     0.7630 H     1 <1>   0.1500 
 33 H       -2.6050    -2.4480     1.6440 H     1 <1>   0.4000 
 34 H       -4.2490    -5.5160     0.4330 H     1 <1>   0.0800 
 35 H       -2.9510    -5.1100     1.5170 H     1 <1>   0.0800 
 36 H       -1.1560    -6.9530     1.7390 H     1 <1>   0.1500 
 37 H       -1.6070    -8.6120    -2.0770 H     1 <1>   0.2700 
 38 H        0.4310    -9.1160     1.1560 H     1 <1>   0.0800 
 39 H        0.8360    -9.1230    -0.5430 H     1 <1>   0.0800 
 40 H       -0.4050   -10.1980     0.0700 H     1 <1>   0.0800 
@<TRIPOS>BOND
  1   1   2  1   
  2   1   3  1   
  3   2   4  2   
  4   2   5  1   
  5   3   6  ar  
  6   3   7  ar  
  7   4   6  1   
  8   5   8  1   
  9   5   9  1   
 10   6  10  ar  
 11   7  11  ar  
 12   7  23  1   
 13   8  12  1   
 14   8  24  1   
 15   8  25  1   
 16   9  13  1   
 17   9  26  1   
 18   9  27  1   
 19  10  14  ar  
 20  10  28  1   
 21  11  14  ar  
 22  11  29  1   
 23  12  13  1   
 24  12  15  1   
 25  12  30  1   
 26  13  16  1   
 27  13  31  1   
 28  14  32  1   
 29  15  33  1   
 30  16  17  1   
 31  16  34  1   
 32  16  35  1   
 33  17  18  2   
 34  17  19  1   
 35  18  20  1   
 36  19  21  2   
 37  19  36  1   
 38  20  21  1   
 39  20  37  1   
 40  21  22  1   
 41  22  38  1   
 42  22  39  1   
 43  22  40  1   
@<TRIPOS>SUBSTRUCTURE
  1 ****   9 GROUP 4 **** **** 0

# MOE 2024.06 (io_trps.svl 2023.06)
