@<TRIPOS>MOLECULE
NONAME
48 49 1 0 0 
SMALL
USER_CHARGES


@<TRIPOS>ATOM
  1 O       -3.2130    -1.6250     1.7510 O.2   1 <1>  -0.5700 
  2 C       -2.3990    -2.0220     0.9470 C.2   1 <1>   0.6900 
  3 N       -2.0850    -3.3230     0.8320 N.am  1 <1>  -0.7300 
  4 N       -1.7990    -1.1490     0.1380 N.am  1 <1>  -0.8000 
  5 C       -2.6890    -4.4140     1.6570 C.3   1 <1>   0.2010 
  6 C       -3.4510    -5.4540     0.8290 C.2   1 <1>   0.5690 
  7 O       -2.8210    -6.4150     0.4460 O.2   1 <1>  -0.5700 
  8 N       -4.7840    -5.3160     0.5310 N.am  1 <1>  -0.6600 
  9 C       -5.5530    -6.4470    -0.0770 C.3   1 <1>   0.1400 
 10 C       -5.5950    -4.0810     0.7430 C.3   1 <1>   0.1400 
 11 C       -5.7360    -6.2840    -1.5950 C.3   1 <1>   0.1400 
 12 C       -5.5620    -3.1430    -0.4740 C.3   1 <1>  -0.1600 
 13 N       -6.3650    -4.9750    -1.9600 N.am  1 <1>  -0.6600 
 14 C       -5.4410    -3.8160    -1.8460 C.3   1 <1>   0.1400 
 15 C       -7.6820    -4.7900    -2.3100 C.2   1 <1>   0.5690 
 16 O       -8.1120    -3.6930    -2.5830 O.2   1 <1>  -0.5700 
 17 C       -8.6660    -5.9520    -2.3710 C.3   1 <1>   0.0440 
 18 C       -8.8910    -6.6150    -1.0150 C.ar  1 <1>  -0.1430 
 19 C       -9.2090    -5.8430     0.0910 C.ar  1 <1>  -0.1500 
 20 C       -8.7730    -7.9890    -0.8690 C.ar  1 <1>  -0.1500 
 21 C       -9.3900    -6.4330     1.3290 C.ar  1 <1>  -0.1500 
 22 C       -8.9540    -8.5790     0.3700 C.ar  1 <1>  -0.1500 
 23 C       -9.2610    -7.8040     1.4760 C.ar  1 <1>  -0.1430 
 24 C       -9.4570    -8.4440     2.8390 C.3   1 <1>  -0.0970 
 25 H       -1.5400    -3.6350     0.0310 H     1 <1>   0.3700 
 26 H       -1.9770    -0.1600     0.3070 H     1 <1>   0.3700 
 27 H       -0.9430    -1.3780    -0.3580 H     1 <1>   0.3700 
 28 H       -3.3400    -4.0010     2.4050 H     1 <1>   0.0800 
 29 H       -1.8970    -4.9220     2.1750 H     1 <1>   0.0800 
 30 H       -6.5150    -6.5230     0.3960 H     1 <1>   0.0800 
 31 H       -5.0410    -7.3750     0.1080 H     1 <1>   0.0800 
 32 H       -5.2600    -3.5460     1.6140 H     1 <1>   0.0800 
 33 H       -6.6170    -4.3680     0.9250 H     1 <1>   0.0800 
 34 H       -6.3280    -7.1010    -1.9630 H     1 <1>   0.0800 
 35 H       -4.7720    -6.3590    -2.0660 H     1 <1>   0.0800 
 36 H       -4.7430    -2.4590    -0.3670 H     1 <1>   0.0800 
 37 H       -6.4560    -2.5450    -0.4630 H     1 <1>   0.0800 
 38 H       -4.4280    -4.1490    -1.9920 H     1 <1>   0.0800 
 39 H       -5.6630    -3.0980    -2.6180 H     1 <1>   0.0800 
 40 H       -8.3100    -6.6640    -3.0890 H     1 <1>   0.0800 
 41 H       -9.6100    -5.5830    -2.7280 H     1 <1>   0.0800 
 42 H       -9.3140    -4.7750    -0.0070 H     1 <1>   0.1500 
 43 H       -8.5390    -8.6100    -1.7150 H     1 <1>   0.1500 
 44 H       -9.6330    -5.8190     2.1790 H     1 <1>   0.1500 
 45 H       -8.8550    -9.6460     0.4690 H     1 <1>   0.1500 
 46 H      -10.2790    -7.9790     3.3530 H     1 <1>   0.0800 
 47 H       -8.5660    -8.3250     3.4280 H     1 <1>   0.0800 
 48 H       -9.6700    -9.4930     2.7400 H     1 <1>   0.0800 
@<TRIPOS>BOND
  1   1   2  2   
  2   2   3  am  
  3   2   4  am  
  4   3   5  1   
  5   3  25  1   
  6   4  26  1   
  7   4  27  1   
  8   5   6  1   
  9   5  28  1   
 10   5  29  1   
 11   6   7  2   
 12   6   8  am  
 13   8   9  1   
 14   8  10  1   
 15   9  11  1   
 16   9  30  1   
 17   9  31  1   
 18  10  12  1   
 19  10  32  1   
 20  10  33  1   
 21  11  13  1   
 22  11  34  1   
 23  11  35  1   
 24  12  14  1   
 25  12  36  1   
 26  12  37  1   
 27  13  14  1   
 28  13  15  am  
 29  14  38  1   
 30  14  39  1   
 31  15  16  2   
 32  15  17  1   
 33  17  18  1   
 34  17  40  1   
 35  17  41  1   
 36  18  19  ar  
 37  18  20  ar  
 38  19  21  ar  
 39  19  42  1   
 40  20  22  ar  
 41  20  43  1   
 42  21  23  ar  
 43  21  44  1   
 44  22  23  ar  
 45  22  45  1   
 46  23  24  1   
 47  24  46  1   
 48  24  47  1   
 49  24  48  1   
@<TRIPOS>SUBSTRUCTURE
  1 ****   9 GROUP 4 **** **** 0

# MOE 2024.06 (io_trps.svl 2023.06)
