@<TRIPOS>MOLECULE
NONAME
55 57 1 0 0 
SMALL
USER_CHARGES


@<TRIPOS>ATOM
  1 O        0.3490    -0.1890     1.7790 O.2   1 <1>  -0.5700 
  2 C        1.2830    -0.4170     1.0430 C.2   1 <1>   0.5690 
  3 N        2.2030     0.5380     0.6990 N.am  1 <1>  -0.4940 
  4 C        1.4960    -1.8320     0.4400 C.3   1 <1>   0.2510 
  5 C        2.3590     1.9130     0.9710 C.2   1 <1>  -0.0880 
  6 N        0.7620    -2.0610    -0.8530 N.3   1 <1>  -0.8100 
  7 C        1.1610    -2.9350     1.4760 C.3   1 <1>  -0.1600 
  8 N        1.4270     2.8310     1.3440 N.pl3 1 <1>   0.3140 
  9 C        3.5430     2.5760     0.8430 C.2   1 <1>  -0.0540 
 10 C        1.1490    -3.3190    -1.5320 C.3   1 <1>   0.1100 
 11 C        0.9090    -0.9240    -1.7950 C.3   1 <1>   0.1100 
 12 C        2.2080    -4.0600     1.5570 C.3   1 <1>  -0.2400 
 13 N        1.9690     4.0640     1.4430 N.2   1 <1>  -0.7070 
 14 C       -0.0150     2.6600     1.5580 C.3   1 <1>   0.0160 
 15 C        4.8440     2.0350     0.5090 C.ar  1 <1>   0.0540 
 16 C        3.2150     3.9050     1.1400 C.2   1 <1>   0.1080 
 17 C        0.4540    -3.4850    -2.8960 C.3   1 <1>   0.1200 
 18 C        0.2120    -1.1880    -3.1390 C.3   1 <1>   0.1200 
 19 C        5.0880     1.2640    -0.6390 C.ar  1 <1>   0.0820 
 20 C        5.9130     2.2770     1.3690 C.ar  1 <1>  -0.1500 
 21 C        4.1730     5.0750     1.1130 C.3   1 <1>  -0.0590 
 22 O        0.6880    -2.3720    -3.7060 O.3   1 <1>  -0.5600 
 23 O        4.0490     1.0010    -1.4790 O.3   1 <1>  -0.3620 
 24 C        6.3660     0.7770    -0.9000 C.ar  1 <1>  -0.1500 
 25 C        7.1800     1.7940     1.1060 C.ar  1 <1>  -0.1500 
 26 C        4.2740     0.7400    -2.8490 C.3   1 <1>   0.0400 
 27 C        7.4090     1.0430    -0.0320 C.ar  1 <1>  -0.1500 
 28 H        2.9480     0.2050     0.0790 H     1 <1>   0.3700 
 29 H        2.5490    -1.9020     0.2310 H     1 <1>   0.0800 
 30 H        0.1820    -3.3350     1.2730 H     1 <1>   0.0800 
 31 H        1.1140    -2.4940     2.4570 H     1 <1>   0.0800 
 32 H        0.8630    -4.1560    -0.9230 H     1 <1>   0.0800 
 33 H        2.2150    -3.3480    -1.6780 H     1 <1>   0.0800 
 34 H        1.9510    -0.7330    -1.9790 H     1 <1>   0.0800 
 35 H        0.4710    -0.0380    -1.3690 H     1 <1>   0.0800 
 36 H        2.3210    -4.5760     0.6230 H     1 <1>   0.0800 
 37 H        1.9090    -4.7770     2.3020 H     1 <1>   0.0800 
 38 H        3.1640    -3.6580     1.8440 H     1 <1>   0.0800 
 39 H       -0.4210     2.0450     0.7780 H     1 <1>   0.0800 
 40 H       -0.4920     3.6210     1.5450 H     1 <1>   0.0800 
 41 H       -0.1740     2.1930     2.5120 H     1 <1>   0.0800 
 42 H       -0.6090    -3.6000    -2.7640 H     1 <1>   0.0800 
 43 H        0.8350    -4.3500    -3.4060 H     1 <1>   0.0800 
 44 H        0.4140    -0.3880    -3.8280 H     1 <1>   0.0800 
 45 H       -0.8520    -1.2700    -3.0030 H     1 <1>   0.0800 
 46 H        5.7420     2.8500     2.2630 H     1 <1>   0.1500 
 47 H        4.9450     4.9110     0.3840 H     1 <1>   0.0800 
 48 H        4.6160     5.2000     2.0830 H     1 <1>   0.0800 
 49 H        3.6400     5.9710     0.8570 H     1 <1>   0.0800 
 50 H        6.5680     0.1820    -1.7700 H     1 <1>   0.1500 
 51 H        7.9880     1.9980     1.7870 H     1 <1>   0.1500 
 52 H        3.3300     0.7930    -3.3610 H     1 <1>   0.0800 
 53 H        4.6910    -0.2450    -2.9580 H     1 <1>   0.0800 
 54 H        4.9420     1.4870    -3.2430 H     1 <1>   0.0800 
 55 H        8.3950     0.6650    -0.2390 H     1 <1>   0.1500 
@<TRIPOS>BOND
  1   1   2  2   
  2   2   3  am  
  3   2   4  1   
  4   3   5  1   
  5   3  28  1   
  6   4   6  1   
  7   4   7  1   
  8   4  29  1   
  9   5   8  1   
 10   5   9  2   
 11   6  10  1   
 12   6  11  1   
 13   7  12  1   
 14   7  30  1   
 15   7  31  1   
 16   8  13  1   
 17   8  14  1   
 18   9  15  1   
 19   9  16  1   
 20  10  17  1   
 21  10  32  1   
 22  10  33  1   
 23  11  18  1   
 24  11  34  1   
 25  11  35  1   
 26  12  36  1   
 27  12  37  1   
 28  12  38  1   
 29  13  16  2   
 30  14  39  1   
 31  14  40  1   
 32  14  41  1   
 33  15  19  ar  
 34  15  20  ar  
 35  16  21  1   
 36  17  22  1   
 37  17  42  1   
 38  17  43  1   
 39  18  22  1   
 40  18  44  1   
 41  18  45  1   
 42  19  23  1   
 43  19  24  ar  
 44  20  25  ar  
 45  20  46  1   
 46  21  47  1   
 47  21  48  1   
 48  21  49  1   
 49  23  26  1   
 50  24  27  ar  
 51  24  50  1   
 52  25  27  ar  
 53  25  51  1   
 54  26  52  1   
 55  26  53  1   
 56  26  54  1   
 57  27  55  1   
@<TRIPOS>SUBSTRUCTURE
  1 ****   3 GROUP 4 **** **** 0

# MOE 2024.06 (io_trps.svl 2023.06)
