@<TRIPOS>MOLECULE
NONAME
41 41 1 0 0 
SMALL
USER_CHARGES


@<TRIPOS>ATOM
  1 O       -1.6730    -0.8060    -1.2920 O.2   1 <1>  -0.5700 
  2 C       -2.0790     0.0880    -0.5840 C.2   1 <1>   0.5690 
  3 N       -2.8780    -0.2090     0.4970 N.am  1 <1>  -0.6600 
  4 C       -1.6490     1.5130    -0.9800 C.3   1 <1>  -0.0190 
  5 C       -3.0500    -1.6390     0.9040 C.3   1 <1>   0.3200 
  6 C       -3.7260     0.7500     1.2670 C.3   1 <1>   0.1400 
  7 C       -0.7480     2.1690     0.0910 C.3   1 <1>  -0.1600 
  8 C       -2.8120     2.4110    -1.4490 C.3   1 <1>  -0.2400 
  9 C       -4.1540    -2.2970     0.0950 C.2   1 <1>   0.0060 
 10 C       -5.1520     0.8010     0.7030 C.3   1 <1>   0.1200 
 11 C       -0.1010     3.4820    -0.3780 C.3   1 <1>  -0.1600 
 12 N       -5.2570    -2.7740     0.5800 N.2   1 <1>  -0.5650 
 13 N       -4.0510    -2.4260    -1.2440 N.pl3 1 <1>   0.0330 
 14 O       -5.8610     1.7980     1.3570 O.3   1 <1>  -0.6800 
 15 C        0.8710     4.0240     0.6770 C.3   1 <1>  -0.1600 
 16 C       -5.9060    -3.2420    -0.5050 C.2   1 <1>   0.0770 
 17 C       -5.1850    -3.0360    -1.6290 C.2   1 <1>  -0.3020 
 18 C        1.5130     5.3340     0.2120 C.3   1 <1>  -0.2400 
 19 H       -1.0230     1.3810    -1.8470 H     1 <1>   0.0800 
 20 H       -3.2900    -1.7010     1.9500 H     1 <1>   0.0800 
 21 H       -2.1300    -2.1760     0.7480 H     1 <1>   0.0800 
 22 H       -3.3050     1.7330     1.2340 H     1 <1>   0.0800 
 23 H       -3.7610     0.4450     2.2980 H     1 <1>   0.0800 
 24 H        0.0340     1.4720     0.3400 H     1 <1>   0.0800 
 25 H       -1.3040     2.3590     0.9900 H     1 <1>   0.0800 
 26 H       -3.3750     2.8070    -0.6250 H     1 <1>   0.0800 
 27 H       -3.4750     1.8500    -2.0840 H     1 <1>   0.0800 
 28 H       -2.4340     3.2400    -2.0210 H     1 <1>   0.0800 
 29 H       -5.6700    -0.1310     0.8460 H     1 <1>   0.0800 
 30 H       -5.1340     1.0450    -0.3440 H     1 <1>   0.0800 
 31 H       -0.8620     4.2200    -0.5610 H     1 <1>   0.0800 
 32 H        0.4320     3.3120    -1.2980 H     1 <1>   0.0800 
 33 H       -3.2540    -2.0890    -1.8030 H     1 <1>   0.2700 
 34 H       -6.1890     1.4780     2.2210 H     1 <1>   0.4000 
 35 H        1.6460     3.2990     0.8630 H     1 <1>   0.0800 
 36 H        0.3460     4.1960     1.6000 H     1 <1>   0.0800 
 37 H       -6.8740    -3.7080    -0.4180 H     1 <1>   0.1500 
 38 H       -5.4090    -3.2820    -2.6510 H     1 <1>   0.1500 
 39 H        2.0630     5.1810    -0.7000 H     1 <1>   0.0800 
 40 H        2.1920     5.6970     0.9640 H     1 <1>   0.0800 
 41 H        0.7600     6.0830     0.0410 H     1 <1>   0.0800 
@<TRIPOS>BOND
  1   1   2  2   
  2   2   3  am  
  3   2   4  1   
  4   3   5  1   
  5   3   6  1   
  6   4   7  1   
  7   4   8  1   
  8   4  19  1   
  9   5   9  1   
 10   5  20  1   
 11   5  21  1   
 12   6  10  1   
 13   6  22  1   
 14   6  23  1   
 15   7  11  1   
 16   7  24  1   
 17   7  25  1   
 18   8  26  1   
 19   8  27  1   
 20   8  28  1   
 21   9  12  2   
 22   9  13  1   
 23  10  14  1   
 24  10  29  1   
 25  10  30  1   
 26  11  15  1   
 27  11  31  1   
 28  11  32  1   
 29  12  16  1   
 30  13  17  1   
 31  13  33  1   
 32  14  34  1   
 33  15  18  1   
 34  15  35  1   
 35  15  36  1   
 36  16  17  2   
 37  16  37  1   
 38  17  38  1   
 39  18  39  1   
 40  18  40  1   
 41  18  41  1   
@<TRIPOS>SUBSTRUCTURE
  1 ****   3 GROUP 4 **** **** 0

# MOE 2024.06 (io_trps.svl 2023.06)
