@<TRIPOS>MOLECULE
NONAME
47 49 1 0 0 
SMALL
USER_CHARGES


@<TRIPOS>ATOM
  1 O       -1.5320     0.3730     2.3060 O.2   1 <1>  -0.5700 
  2 C       -1.8660     0.8680     1.2460 C.2   1 <1>   0.5440 
  3 N       -2.5040     0.0910     0.3060 N.am  1 <1>  -0.6600 
  4 C       -1.6070     2.2740     0.9980 C.ar  1 <1>   0.0860 
  5 C       -2.4670    -1.4030     0.4300 C.3   1 <1>   0.3640 
  6 C       -3.3170     0.7130    -0.7810 C.3   1 <1>   0.1400 
  7 C       -0.5810     2.7170     0.1520 C.ar  1 <1>  -0.1440 
  8 C       -2.4100     3.2310     1.6160 C.ar  1 <1>  -0.1500 
  9 C       -1.1060    -1.8930    -0.0760 C.ar  1 <1>  -0.1440 
 10 C       -3.6390    -2.1570    -0.2700 C.3   1 <1>   0.2000 
 11 C       -4.1180    -0.2970    -1.6150 C.3   1 <1>   0.1200 
 12 C       -0.3970     4.0740    -0.0620 C.ar  1 <1>  -0.1500 
 13 C        0.3620     1.7340    -0.5390 C.3   1 <1>  -0.0170 
 14 C       -2.2230     4.5820     1.3970 C.ar  1 <1>  -0.1500 
 15 C       -0.7510    -1.8420    -1.4180 C.ar  1 <1>  -0.1500 
 16 C       -0.1870    -2.3910     0.8380 C.ar  1 <1>  -0.1500 
 17 O       -4.6230    -1.3040    -0.7990 O.3   1 <1>  -0.5600 
 18 C       -4.3540    -3.1240     0.6850 C.3   1 <1>   0.1200 
 19 C       -1.2140     5.0050     0.5530 C.ar  1 <1>  -0.1500 
 20 C        1.4440     1.2360     0.4210 C.3   1 <1>  -0.2400 
 21 C        0.4890    -2.2900    -1.8390 C.ar  1 <1>  -0.1500 
 22 C        1.0540    -2.8380     0.4210 C.ar  1 <1>  -0.1500 
 23 O       -3.4690    -4.0780     1.1810 O.3   1 <1>  -0.6800 
 24 C        1.3930    -2.7900    -0.9190 C.ar  1 <1>  -0.1500 
 25 H       -2.5270    -1.6420     1.4780 H     1 <1>   0.0800 
 26 H       -4.0120     1.4030    -0.3330 H     1 <1>   0.0800 
 27 H       -2.6750     1.2780    -1.4330 H     1 <1>   0.0800 
 28 H       -3.1890     2.9000     2.2800 H     1 <1>   0.1500 
 29 H       -3.2570    -2.7330    -1.0930 H     1 <1>   0.0800 
 30 H       -3.5100    -0.7410    -2.3830 H     1 <1>   0.0800 
 31 H       -4.9500     0.1950    -2.0860 H     1 <1>   0.0800 
 32 H        0.3920     4.4180    -0.7080 H     1 <1>   0.1500 
 33 H       -0.1870     0.8930    -0.9210 H     1 <1>   0.0800 
 34 H        0.8340     2.2090    -1.3810 H     1 <1>   0.0800 
 35 H       -2.8570     5.3030     1.8840 H     1 <1>   0.1500 
 36 H       -1.4330    -1.4490    -2.1470 H     1 <1>   0.1500 
 37 H       -0.4360    -2.4230     1.8860 H     1 <1>   0.1500 
 38 H       -5.1480    -3.6380     0.1730 H     1 <1>   0.0800 
 39 H       -4.7570    -2.5830     1.5240 H     1 <1>   0.0800 
 40 H       -1.0610     6.0570     0.3790 H     1 <1>   0.1500 
 41 H        0.9990     0.7140     1.2500 H     1 <1>   0.0800 
 42 H        2.0160     2.0640     0.8020 H     1 <1>   0.0800 
 43 H        2.1050     0.5580    -0.0880 H     1 <1>   0.0800 
 44 H        0.7540    -2.2470    -2.8810 H     1 <1>   0.1500 
 45 H        1.7540    -3.2200     1.1430 H     1 <1>   0.1500 
 46 H       -3.1150    -4.6420     0.4640 H     1 <1>   0.4000 
 47 H        2.3580    -3.1380    -1.2430 H     1 <1>   0.1500 
@<TRIPOS>BOND
  1   1   2  2   
  2   2   3  am  
  3   2   4  1   
  4   3   5  1   
  5   3   6  1   
  6   4   7  ar  
  7   4   8  ar  
  8   5   9  1   
  9   5  10  1   
 10   5  25  1   
 11   6  11  1   
 12   6  26  1   
 13   6  27  1   
 14   7  12  ar  
 15   7  13  1   
 16   8  14  ar  
 17   8  28  1   
 18   9  15  ar  
 19   9  16  ar  
 20  10  17  1   
 21  10  18  1   
 22  10  29  1   
 23  11  17  1   
 24  11  30  1   
 25  11  31  1   
 26  12  19  ar  
 27  12  32  1   
 28  13  20  1   
 29  13  33  1   
 30  13  34  1   
 31  14  19  ar  
 32  14  35  1   
 33  15  21  ar  
 34  15  36  1   
 35  16  22  ar  
 36  16  37  1   
 37  18  23  1   
 38  18  38  1   
 39  18  39  1   
 40  19  40  1   
 41  20  41  1   
 42  20  42  1   
 43  20  43  1   
 44  21  24  ar  
 45  21  44  1   
 46  22  24  ar  
 47  22  45  1   
 48  23  46  1   
 49  24  47  1   
@<TRIPOS>SUBSTRUCTURE
  1 ****   3 GROUP 4 **** **** 0

# MOE 2024.06 (io_trps.svl 2023.06)
