@<TRIPOS>MOLECULE
NONAME
57 59 1 0 0 
SMALL
USER_CHARGES


@<TRIPOS>ATOM
  1 CL       0.9500    -1.2130    -0.0550 Cl    1 <1>  -0.1770 
  2 C       -0.7100    -1.7090    -0.2690 C.ar  1 <1>   0.1770 
  3 C       -1.6860    -1.1780     0.5530 C.ar  1 <1>  -0.1500 
  4 C       -1.0220    -2.6240    -1.2550 C.ar  1 <1>  -0.1500 
  5 C       -3.0030    -1.5730     0.3800 C.ar  1 <1>  -0.1500 
  6 C       -2.3410    -3.0150    -1.4220 C.ar  1 <1>  -0.1500 
  7 C       -3.3350    -2.4900    -0.6080 C.ar  1 <1>  -0.1430 
  8 C       -4.7800    -2.9220    -0.7940 C.3   1 <1>  -0.0160 
  9 C       -5.0860    -4.1640     0.0500 C.3   1 <1>  -0.1600 
 10 C       -6.5480    -4.6220    -0.1110 C.3   1 <1>  -0.0990 
 11 C       -6.9240    -5.8470     0.7220 C.2   1 <1>   0.5690 
 12 O       -6.0300    -6.4800     1.2330 O.2   1 <1>  -0.5700 
 13 N       -8.2420    -6.2130     0.8800 N.am  1 <1>  -0.6600 
 14 C       -9.3720    -5.5640     0.1490 C.3   1 <1>   0.2200 
 15 C       -8.5660    -7.3400     1.8120 C.3   1 <1>   0.0600 
 16 C      -10.2080    -4.6630     1.0550 C.3   1 <1>  -0.1600 
 17 C      -10.3810    -6.5380    -0.4650 C.3   1 <1>  -0.1600 
 18 C      -11.5520    -4.5220     0.3250 C.3   1 <1>  -0.0800 
 19 C      -11.6530    -5.6990    -0.6520 C.3   1 <1>  -0.0800 
 20 C      -12.7980    -4.6120     1.2180 C.3   1 <1>  -0.1600 
 21 C      -12.9690    -6.4170    -0.3120 C.3   1 <1>  -0.1600 
 22 C      -13.8410    -5.3680     0.3880 C.3   1 <1>   0.4230 
 23 N      -14.4900    -4.4600    -0.6140 N.4   1 <1>  -0.9590 
 24 C      -15.2390    -3.3310     0.0280 C.3   1 <1>   0.2630 
 25 C      -15.4300    -5.1870    -1.5290 C.3   1 <1>   0.2630 
 26 H       -1.4180    -0.4690     1.3140 H     1 <1>   0.1500 
 27 H       -0.2450    -3.0240    -1.8800 H     1 <1>   0.1500 
 28 H       -3.7670    -1.1660     1.0200 H     1 <1>   0.1500 
 29 H       -2.5890    -3.7310    -2.1860 H     1 <1>   0.1500 
 30 H       -5.4340    -2.1160    -0.5090 H     1 <1>   0.0800 
 31 H       -4.9590    -3.1350    -1.8340 H     1 <1>   0.0800 
 32 H       -4.8930    -3.9480     1.0870 H     1 <1>   0.0800 
 33 H       -4.4260    -4.9640    -0.2430 H     1 <1>   0.0800 
 34 H       -6.7280    -4.8570    -1.1440 H     1 <1>   0.0800 
 35 H       -7.1890    -3.8100     0.1750 H     1 <1>   0.0800 
 36 H       -8.9950    -4.9620    -0.6590 H     1 <1>   0.0800 
 37 H       -9.5080    -7.1770     2.3010 H     1 <1>   0.0800 
 38 H       -7.8080    -7.4300     2.5720 H     1 <1>   0.0800 
 39 H       -8.6040    -8.2630     1.2600 H     1 <1>   0.0800 
 40 H      -10.3420    -5.1310     2.0130 H     1 <1>   0.0800 
 41 H       -9.7340    -3.7080     1.1950 H     1 <1>   0.0800 
 42 H      -10.0210    -6.9250    -1.4020 H     1 <1>   0.0800 
 43 H      -10.5760    -7.3570     0.2000 H     1 <1>   0.0800 
 44 H      -11.5610    -3.6020    -0.2360 H     1 <1>   0.0800 
 45 H      -11.6850    -5.3150    -1.6590 H     1 <1>   0.0800 
 46 H      -13.1130    -3.6520     1.5810 H     1 <1>   0.0800 
 47 H      -12.5780    -5.2200     2.0780 H     1 <1>   0.0800 
 48 H      -12.7790    -7.1960     0.4050 H     1 <1>   0.0800 
 49 H      -13.4160    -6.8800    -1.1710 H     1 <1>   0.0800 
 50 H      -14.5870    -5.8300     1.0160 H     1 <1>   0.0800 
 51 H      -13.7250    -4.0650    -1.1790 H     1 <1>   0.4500 
 52 H      -15.9900    -3.7130     0.7010 H     1 <1>   0.0800 
 53 H      -15.7260    -2.7310    -0.7250 H     1 <1>   0.0800 
 54 H      -14.5710    -2.6930     0.5810 H     1 <1>   0.0800 
 55 H      -16.1940    -5.6900    -0.9580 H     1 <1>   0.0800 
 56 H      -14.9020    -5.9170    -2.1190 H     1 <1>   0.0800 
 57 H      -15.9050    -4.4930    -2.2030 H     1 <1>   0.0800 
@<TRIPOS>BOND
  1   1   2  1   
  2   2   3  ar  
  3   2   4  ar  
  4   3   5  ar  
  5   3  26  1   
  6   4   6  ar  
  7   4  27  1   
  8   5   7  ar  
  9   5  28  1   
 10   6   7  ar  
 11   6  29  1   
 12   7   8  1   
 13   8   9  1   
 14   8  30  1   
 15   8  31  1   
 16   9  10  1   
 17   9  32  1   
 18   9  33  1   
 19  10  11  1   
 20  10  34  1   
 21  10  35  1   
 22  11  12  2   
 23  11  13  am  
 24  13  14  1   
 25  13  15  1   
 26  14  16  1   
 27  14  17  1   
 28  14  36  1   
 29  15  37  1   
 30  15  38  1   
 31  15  39  1   
 32  16  18  1   
 33  16  40  1   
 34  16  41  1   
 35  17  19  1   
 36  17  42  1   
 37  17  43  1   
 38  18  19  1   
 39  18  20  1   
 40  18  44  1   
 41  19  21  1   
 42  19  45  1   
 43  20  22  1   
 44  20  46  1   
 45  20  47  1   
 46  21  22  1   
 47  21  48  1   
 48  21  49  1   
 49  22  23  1   
 50  22  50  1   
 51  23  24  1   
 52  23  25  1   
 53  23  51  1   
 54  24  52  1   
 55  24  53  1   
 56  24  54  1   
 57  25  55  1   
 58  25  56  1   
 59  25  57  1   
@<TRIPOS>SUBSTRUCTURE
  1 ****  10 GROUP 4 **** **** 0

# MOE 2024.06 (io_trps.svl 2023.06)
