@<TRIPOS>MOLECULE
NONAME
35 37 1 0 0 
SMALL
USER_CHARGES


@<TRIPOS>ATOM
  1 F       -0.5800    -0.0410     0.0420 F     1 <1>  -0.1900 
  2 C       -1.6930    -0.7320     0.0980 C.ar  1 <1>   0.1900 
  3 C       -2.9070    -0.0950     0.1630 C.ar  1 <1>   0.1600 
  4 C       -1.6640    -2.1040     0.0920 C.ar  1 <1>   0.1600 
  5 N       -4.0310    -0.7780     0.2190 N.ar  1 <1>  -0.6200 
  6 N       -2.7750    -2.8070     0.1480 N.ar  1 <1>  -0.6200 
  7 C       -3.9130    -2.1100     0.2140 C.ar  1 <1>   0.7200 
  8 N       -5.0780    -2.8320     0.2870 N.pl3 1 <1>  -0.8380 
  9 C       -6.4200    -2.2360     0.0650 C.3   1 <1>   0.2090 
 10 C       -5.1250    -4.3070     0.1620 C.3   1 <1>   0.2090 
 11 C       -7.3090    -3.4120    -0.3470 C.3   1 <1>   0.2000 
 12 C       -6.6120    -4.6610     0.1910 C.3   1 <1>  -0.0800 
 13 O       -8.5860    -3.3150     0.1870 O.3   1 <1>  -0.6800 
 14 C       -6.9610    -5.9280    -0.6040 C.3   1 <1>   0.0200 
 15 C       -6.1770    -7.1250    -0.1010 C.2   1 <1>  -0.0400 
 16 O       -6.3320    -7.5380     1.1290 O.3   1 <1>  -0.0190 
 17 C       -5.2750    -7.9200    -0.6940 C.2   1 <1>  -0.1500 
 18 N       -5.5780    -8.5660     1.3920 N.2   1 <1>  -0.4100 
 19 C       -4.9310    -8.8200     0.3120 C.2   1 <1>   0.1080 
 20 C       -3.9310    -9.9460     0.1640 C.3   1 <1>  -0.0590 
 21 H       -2.9510     0.9800     0.1670 H     1 <1>   0.1500 
 22 H       -0.7230    -2.6220     0.0420 H     1 <1>   0.1500 
 23 H       -6.7610    -1.7910     0.9830 H     1 <1>   0.0800 
 24 H       -6.3850    -1.4950    -0.7140 H     1 <1>   0.0800 
 25 H       -4.6760    -4.5960    -0.7740 H     1 <1>   0.0800 
 26 H       -4.5940    -4.7770     0.9730 H     1 <1>   0.0800 
 27 H       -7.3910    -3.4390    -1.4200 H     1 <1>   0.0800 
 28 H       -6.8790    -4.8030     1.2240 H     1 <1>   0.0800 
 29 H       -8.5430    -3.3070     1.1630 H     1 <1>   0.4000 
 30 H       -6.7440    -5.7780    -1.6470 H     1 <1>   0.0800 
 31 H       -8.0130    -6.1330    -0.5090 H     1 <1>   0.0800 
 32 H       -4.8860    -7.9000    -1.6940 H     1 <1>   0.1500 
 33 H       -4.2320   -10.5990    -0.6340 H     1 <1>   0.0800 
 34 H       -3.8790   -10.5120     1.0760 H     1 <1>   0.0800 
 35 H       -2.9590    -9.5430    -0.0520 H     1 <1>   0.0800 
@<TRIPOS>BOND
  1   1   2  1   
  2   2   3  ar  
  3   2   4  ar  
  4   3   5  ar  
  5   3  21  1   
  6   4   6  ar  
  7   4  22  1   
  8   5   7  ar  
  9   6   7  ar  
 10   7   8  1   
 11   8   9  1   
 12   8  10  1   
 13   9  11  1   
 14   9  23  1   
 15   9  24  1   
 16  10  12  1   
 17  10  25  1   
 18  10  26  1   
 19  11  12  1   
 20  11  13  1   
 21  11  27  1   
 22  12  14  1   
 23  12  28  1   
 24  13  29  1   
 25  14  15  1   
 26  14  30  1   
 27  14  31  1   
 28  15  16  1   
 29  15  17  2   
 30  16  18  1   
 31  17  19  1   
 32  17  32  1   
 33  18  19  2   
 34  19  20  1   
 35  20  33  1   
 36  20  34  1   
 37  20  35  1   
@<TRIPOS>SUBSTRUCTURE
  1 ****  10 GROUP 4 **** **** 0

# MOE 2024.06 (io_trps.svl 2023.06)
