@<TRIPOS>MOLECULE
NONAME
54 57 1 0 0 
SMALL
USER_CHARGES


@<TRIPOS>ATOM
  1 O        0.6300     0.8470    -0.0180 O.2   1 <1>  -0.5700 
  2 C       -0.1230     1.7340    -0.3420 C.2   1 <1>   0.5690 
  3 N       -1.4810     1.6400    -0.1600 N.am  1 <1>  -0.6600 
  4 C        0.5040     2.9650    -0.9730 C.3   1 <1>  -0.0990 
  5 C       -2.4620     2.7460    -0.4090 C.3   1 <1>   0.1400 
  6 C       -2.1170     0.3350     0.1930 C.3   1 <1>   0.1400 
  7 C        0.8000     4.0480     0.0700 C.3   1 <1>  -0.0160 
  8 C       -3.4090     2.9460     0.7890 C.3   1 <1>   0.1440 
  9 C       -3.0970     0.4960     1.3630 C.3   1 <1>  -0.1600 
 10 C        1.1750     5.3530    -0.6080 C.ar  1 <1>  -0.1440 
 11 C       -4.3650     4.0680     0.4340 C.ar  1 <1>   0.1660 
 12 C       -4.1200     1.6170     1.1080 C.3   1 <1>  -0.1600 
 13 C       -2.6790     3.5170     2.0360 C.3   1 <1>  -0.1600 
 14 C        0.2160     6.2540    -1.0280 C.ar  1 <1>  -0.1500 
 15 C        2.4880     5.7050    -0.8420 C.ar  1 <1>  -0.1500 
 16 N       -5.3400     3.9840    -0.4350 N.ar  1 <1>  -0.6200 
 17 C       -4.0690     5.2130     1.1100 C.ar  1 <1>  -0.1440 
 18 C       -2.8830     5.0410     2.0250 C.3   1 <1>  -0.0170 
 19 C        0.6080     7.4310    -1.6440 C.ar  1 <1>   0.1600 
 20 C        2.7720     6.9080    -1.4660 C.ar  1 <1>   0.1600 
 21 C       -6.0480     5.1030    -0.6090 C.ar  1 <1>   0.7200 
 22 C       -4.8490     6.3150     0.8680 C.ar  1 <1>   0.1600 
 23 N        1.8630     7.7800    -1.8720 N.ar  1 <1>  -0.6200 
 24 N       -5.8400     6.2710     0.0090 N.ar  1 <1>  -0.6200 
 25 N       -7.0880     5.0510    -1.5160 N.pl3 1 <1>  -0.8380 
 26 C       -7.2840     3.8970    -2.4360 C.3   1 <1>   0.1290 
 27 C       -8.1400     6.1050    -1.5700 C.3   1 <1>   0.1290 
 28 H       -0.1370     3.3430    -1.7460 H     1 <1>   0.0800 
 29 H        1.4250     2.6760    -1.4450 H     1 <1>   0.0800 
 30 H       -3.0480     2.4960    -1.2780 H     1 <1>   0.0800 
 31 H       -1.9640     3.6750    -0.6110 H     1 <1>   0.0800 
 32 H       -1.3690    -0.3940     0.4530 H     1 <1>   0.0800 
 33 H       -2.6460    -0.0320    -0.6700 H     1 <1>   0.0800 
 34 H        1.5980     3.7170     0.7130 H     1 <1>   0.0800 
 35 H       -0.0620     4.2140     0.6870 H     1 <1>   0.0800 
 36 H       -2.5360     0.6980     2.2580 H     1 <1>   0.0800 
 37 H       -3.6160    -0.4340     1.5140 H     1 <1>   0.0800 
 38 H       -4.7410     1.3420     0.2720 H     1 <1>   0.0800 
 39 H       -4.7660     1.7350     1.9610 H     1 <1>   0.0800 
 40 H       -1.6400     3.2430     2.0710 H     1 <1>   0.0800 
 41 H       -3.1470     3.1330     2.9260 H     1 <1>   0.0800 
 42 H       -0.8300     6.0550    -0.8870 H     1 <1>   0.1500 
 43 H        3.2920     5.0550    -0.5470 H     1 <1>   0.1500 
 44 H       -2.0260     5.5420     1.6080 H     1 <1>   0.0800 
 45 H       -3.0840     5.4200     3.0120 H     1 <1>   0.0800 
 46 H       -0.1520     8.1220    -1.9670 H     1 <1>   0.1500 
 47 H        3.8030     7.1670    -1.6400 H     1 <1>   0.1500 
 48 H       -4.6580     7.2430     1.3790 H     1 <1>   0.1500 
 49 H       -6.3370     3.4570    -2.6970 H     1 <1>   0.0800 
 50 H       -7.7660     4.2230    -3.3410 H     1 <1>   0.0800 
 51 H       -7.8950     3.1540    -1.9550 H     1 <1>   0.0800 
 52 H       -8.2660     6.5640    -0.6040 H     1 <1>   0.0800 
 53 H       -9.0820     5.6750    -1.8630 H     1 <1>   0.0800 
 54 H       -7.8560     6.8600    -2.2810 H     1 <1>   0.0800 
@<TRIPOS>BOND
  1   1   2  2   
  2   2   3  am  
  3   2   4  1   
  4   3   5  1   
  5   3   6  1   
  6   4   7  1   
  7   4  28  1   
  8   4  29  1   
  9   5   8  1   
 10   5  30  1   
 11   5  31  1   
 12   6   9  1   
 13   6  32  1   
 14   6  33  1   
 15   7  10  1   
 16   7  34  1   
 17   7  35  1   
 18   8  11  1   
 19   8  12  1   
 20   8  13  1   
 21   9  12  1   
 22   9  36  1   
 23   9  37  1   
 24  10  14  ar  
 25  10  15  ar  
 26  11  16  ar  
 27  11  17  ar  
 28  12  38  1   
 29  12  39  1   
 30  13  18  1   
 31  13  40  1   
 32  13  41  1   
 33  14  19  ar  
 34  14  42  1   
 35  15  20  ar  
 36  15  43  1   
 37  16  21  ar  
 38  17  18  1   
 39  17  22  ar  
 40  18  44  1   
 41  18  45  1   
 42  19  23  ar  
 43  19  46  1   
 44  20  23  ar  
 45  20  47  1   
 46  21  24  ar  
 47  21  25  1   
 48  22  24  ar  
 49  22  48  1   
 50  25  26  1   
 51  25  27  1   
 52  26  49  1   
 53  26  50  1   
 54  26  51  1   
 55  27  52  1   
 56  27  53  1   
 57  27  54  1   
@<TRIPOS>SUBSTRUCTURE
  1 ****   5 GROUP 4 **** **** 0

# MOE 2024.06 (io_trps.svl 2023.06)
