@<TRIPOS>MOLECULE
NONAME
46 48 1 0 0 
SMALL
USER_CHARGES


@<TRIPOS>ATOM
  1 F        0.2960    -0.8520    -0.8370 F     1 <1>  -0.3400 
  2 C       -0.5590    -1.8580    -0.9320 C.3   1 <1>   1.3000 
  3 F       -0.4350    -2.4000    -2.1330 F     1 <1>  -0.3400 
  4 F       -0.2380    -2.7860    -0.0380 F     1 <1>  -0.3400 
  5 O       -1.9020    -1.4390    -0.7450 O.3   1 <1>  -0.3630 
  6 C       -2.2470    -0.9580     0.4710 C.ar  1 <1>   0.0830 
  7 C       -2.9820    -1.7500     1.3490 C.ar  1 <1>  -0.1440 
  8 C       -1.8920     0.3360     0.8240 C.ar  1 <1>  -0.1500 
  9 C       -3.3310    -1.2400     2.5910 C.ar  1 <1>  -0.1500 
 10 C       -3.4230    -3.1490     0.9610 C.3   1 <1>   0.4870 
 11 C       -2.2490     0.8350     2.0630 C.ar  1 <1>  -0.1500 
 12 C       -2.9640     0.0460     2.9460 C.ar  1 <1>  -0.1500 
 13 N       -4.3200    -3.0620    -0.2260 N.4   1 <1>  -0.9590 
 14 C       -5.5360    -2.2360     0.0610 C.3   1 <1>   0.4230 
 15 C       -4.5660    -4.4150    -0.8150 C.3   1 <1>   0.2630 
 16 C       -6.5740    -2.9630     0.9170 C.3   1 <1>  -0.1600 
 17 C       -6.2760    -1.8810    -1.2260 C.3   1 <1>  -0.1600 
 18 C       -7.5870    -3.6050    -0.0470 C.3   1 <1>  -0.0800 
 19 C       -7.3990    -2.9160    -1.4080 C.3   1 <1>  -0.0800 
 20 C       -9.0530    -3.3820     0.3560 C.3   1 <1>  -0.1600 
 21 C       -8.7590    -2.3010    -1.7770 C.3   1 <1>  -0.1600 
 22 C       -9.5520    -2.2090    -0.4790 C.3   1 <1>   0.2000 
 23 O       -9.2010    -1.0400     0.1600 O.3   1 <1>  -0.6800 
 24 H       -1.3410     0.9600     0.1400 H     1 <1>   0.1500 
 25 H       -3.8900    -1.8310     3.2990 H     1 <1>   0.1500 
 26 H       -3.9370    -3.6160     1.7850 H     1 <1>   0.0800 
 27 H       -2.5520    -3.7400     0.7260 H     1 <1>   0.0800 
 28 H       -1.9690     1.8380     2.3420 H     1 <1>   0.1500 
 29 H       -3.2340     0.4390     3.9130 H     1 <1>   0.1500 
 30 H       -3.7810    -2.5070    -0.9080 H     1 <1>   0.4500 
 31 H       -5.2340    -1.3240     0.5530 H     1 <1>   0.0800 
 32 H       -5.1270    -5.0270    -0.1290 H     1 <1>   0.0800 
 33 H       -3.6310    -4.9070    -1.0310 H     1 <1>   0.0800 
 34 H       -5.1220    -4.3270    -1.7340 H     1 <1>   0.0800 
 35 H       -6.1450    -3.6850     1.5870 H     1 <1>   0.0800 
 36 H       -7.0740    -2.2220     1.5160 H     1 <1>   0.0800 
 37 H       -6.7060    -0.9040    -1.0940 H     1 <1>   0.0800 
 38 H       -5.6260    -1.8360    -2.0810 H     1 <1>   0.0800 
 39 H       -7.3940    -4.6610    -0.1330 H     1 <1>   0.0800 
 40 H       -7.1160    -3.6370    -2.1570 H     1 <1>   0.0800 
 41 H       -9.2000    -3.2250     1.4110 H     1 <1>   0.0800 
 42 H       -9.6200    -4.2500     0.0700 H     1 <1>   0.0800 
 43 H       -9.2760    -2.9850    -2.4270 H     1 <1>   0.0800 
 44 H       -8.6900    -1.3540    -2.2850 H     1 <1>   0.0800 
 45 H      -10.6200    -2.2110    -0.6260 H     1 <1>   0.0800 
 46 H       -8.2360    -0.9910     0.2390 H     1 <1>   0.4000 
@<TRIPOS>BOND
  1   1   2  1   
  2   2   3  1   
  3   2   4  1   
  4   2   5  1   
  5   5   6  1   
  6   6   7  ar  
  7   6   8  ar  
  8   7   9  ar  
  9   7  10  1   
 10   8  11  ar  
 11   8  24  1   
 12   9  12  ar  
 13   9  25  1   
 14  10  13  1   
 15  10  26  1   
 16  10  27  1   
 17  11  12  ar  
 18  11  28  1   
 19  12  29  1   
 20  13  14  1   
 21  13  15  1   
 22  13  30  1   
 23  14  16  1   
 24  14  17  1   
 25  14  31  1   
 26  15  32  1   
 27  15  33  1   
 28  15  34  1   
 29  16  18  1   
 30  16  35  1   
 31  16  36  1   
 32  17  19  1   
 33  17  37  1   
 34  17  38  1   
 35  18  19  1   
 36  18  20  1   
 37  18  39  1   
 38  19  21  1   
 39  19  40  1   
 40  20  22  1   
 41  20  41  1   
 42  20  42  1   
 43  21  22  1   
 44  21  43  1   
 45  21  44  1   
 46  22  23  1   
 47  22  45  1   
 48  23  46  1   
@<TRIPOS>SUBSTRUCTURE
  1 ****  13 GROUP 4 **** **** 0

# MOE 2024.06 (io_trps.svl 2023.06)
