@<TRIPOS>MOLECULE
NONAME
42 43 1 0 0 
SMALL
USER_CHARGES


@<TRIPOS>ATOM
  1 S       -0.1840    -0.0710     0.4280 S.o2  1 <1>   1.0900 
  2 O       -0.5650    -0.3950     1.7800 O.2   1 <1>  -0.6500 
  3 O       -0.1460    -1.1020    -0.5770 O.2   1 <1>  -0.6500 
  4 C       -1.4200     1.0730    -0.1310 C.3   1 <1>  -0.0550 
  5 C        1.3510     0.8360     0.4300 C.3   1 <1>  -0.1350 
  6 C       -2.7260     0.2890    -0.1660 C.3   1 <1>   0.3430 
  7 N       -3.8860     1.1230    -0.6160 N.4   1 <1>  -0.9590 
  8 C       -4.2920     2.1330     0.4110 C.3   1 <1>   0.3430 
  9 C       -5.0320     0.2300    -0.9660 C.3   1 <1>   0.3430 
 10 C       -5.4190     3.0030    -0.1310 C.3   1 <1>  -0.1600 
 11 C       -6.1780     1.0570    -1.5300 C.3   1 <1>  -0.1600 
 12 C       -6.6160     2.1530    -0.5600 C.3   1 <1>   0.4180 
 13 O       -7.4830     2.9600    -1.2980 O.3   1 <1>  -0.5600 
 14 C       -7.3320     1.5440     0.6460 C.2   1 <1>  -0.2880 
 15 C       -8.3650     3.7910    -0.5920 C.3   1 <1>   0.1200 
 16 C       -8.5650     1.8880     1.0230 C.2   1 <1>  -0.2760 
 17 C       -9.3280     2.9560     0.2610 C.3   1 <1>  -0.0220 
 18 C       -9.3150     1.2720     2.1920 C.3   1 <1>  -0.1020 
 19 H       -1.1770     1.4280    -1.1140 H     1 <1>   0.0800 
 20 H       -1.4900     1.8960     0.5530 H     1 <1>   0.0800 
 21 H        2.1490     0.2000     0.7630 H     1 <1>   0.0800 
 22 H        1.2980     1.6780     1.0930 H     1 <1>   0.0800 
 23 H        1.5910     1.1820    -0.5570 H     1 <1>   0.0800 
 24 H       -2.9250    -0.1170     0.8140 H     1 <1>   0.0800 
 25 H       -2.5990    -0.5450    -0.8400 H     1 <1>   0.0800 
 26 H       -3.6290     1.6240    -1.4790 H     1 <1>   0.4500 
 27 H       -3.4550     2.7610     0.6690 H     1 <1>   0.0800 
 28 H       -4.6240     1.6310     1.3070 H     1 <1>   0.0800 
 29 H       -5.3670    -0.3010    -0.0890 H     1 <1>   0.0800 
 30 H       -4.7240    -0.4970    -1.7010 H     1 <1>   0.0800 
 31 H       -5.0600     3.5770    -0.9660 H     1 <1>   0.0800 
 32 H       -5.7240     3.6850     0.6410 H     1 <1>   0.0800 
 33 H       -7.0150     0.4120    -1.7270 H     1 <1>   0.0800 
 34 H       -5.8730     1.4960    -2.4630 H     1 <1>   0.0800 
 35 H       -6.7660     0.8000     1.1730 H     1 <1>   0.1500 
 36 H       -8.9140     4.3760    -1.3100 H     1 <1>   0.0800 
 37 H       -7.7910     4.4570     0.0280 H     1 <1>   0.0800 
 38 H      -10.0680     2.4970    -0.3710 H     1 <1>   0.0800 
 39 H       -9.8360     3.6140     0.9440 H     1 <1>   0.0800 
 40 H       -9.5550     2.0260     2.9200 H     1 <1>   0.0800 
 41 H       -8.7200     0.5140     2.6710 H     1 <1>   0.0800 
 42 H      -10.2280     0.8200     1.8480 H     1 <1>   0.0800 
@<TRIPOS>BOND
  1   1   2  2   
  2   1   3  2   
  3   1   4  1   
  4   1   5  1   
  5   4   6  1   
  6   4  19  1   
  7   4  20  1   
  8   5  21  1   
  9   5  22  1   
 10   5  23  1   
 11   6   7  1   
 12   6  24  1   
 13   6  25  1   
 14   7   8  1   
 15   7   9  1   
 16   7  26  1   
 17   8  10  1   
 18   8  27  1   
 19   8  28  1   
 20   9  11  1   
 21   9  29  1   
 22   9  30  1   
 23  10  12  1   
 24  10  31  1   
 25  10  32  1   
 26  11  12  1   
 27  11  33  1   
 28  11  34  1   
 29  12  13  1   
 30  12  14  1   
 31  13  15  1   
 32  14  16  2   
 33  14  35  1   
 34  15  17  1   
 35  15  36  1   
 36  15  37  1   
 37  16  17  1   
 38  16  18  1   
 39  17  38  1   
 40  17  39  1   
 41  18  40  1   
 42  18  41  1   
 43  18  42  1   
@<TRIPOS>SUBSTRUCTURE
  1 ****   8 GROUP 4 **** **** 0

# MOE 2024.06 (io_trps.svl 2023.06)
