@<TRIPOS>MOLECULE
NONAME
38 39 1 0 0 
SMALL
USER_CHARGES


@<TRIPOS>ATOM
  1 O        1.3410    -0.3520     1.9320 O.2   1 <1>  -0.5700 
  2 C        1.1890    -1.0030     0.9260 C.2   1 <1>   0.5690 
  3 N        2.1870    -1.5850     0.2340 N.am  1 <1>  -0.6600 
  4 C       -0.1310    -1.1870     0.2350 C.3   1 <1>  -0.0990 
  5 C        3.6300    -1.4270     0.5990 C.3   1 <1>   0.2810 
  6 C        1.7430    -2.0940    -1.0790 C.3   1 <1>   0.1400 
  7 C        0.2690    -1.6700    -1.1700 C.3   1 <1>  -0.1600 
  8 C        4.1700    -0.0460     0.1710 C.2   1 <1>   0.5690 
  9 C        4.4430    -2.6230     0.0780 C.3   1 <1>  -0.2400 
 10 O        5.0500     0.0290    -0.6560 O.2   1 <1>  -0.5700 
 11 N        3.5930     1.0490     0.7520 N.am  1 <1>  -0.4940 
 12 C        3.8020     2.4190     0.5710 C.2   1 <1>   0.2040 
 13 O        2.7930     3.2220     0.8140 O.3   1 <1>  -0.0190 
 14 C        4.8470     3.1910     0.1980 C.2   1 <1>  -0.1810 
 15 N        3.0970     4.4760     0.6150 N.2   1 <1>  -0.4100 
 16 C        4.3260     4.4850     0.2440 C.2   1 <1>   0.1080 
 17 C        6.2780     2.8220    -0.1660 C.3   1 <1>   0.0210 
 18 C        5.0730     5.7610    -0.0840 C.3   1 <1>  -0.0590 
 19 C        6.4790     2.8280    -1.6830 C.3   1 <1>  -0.2400 
 20 H       -0.6760    -0.2610     0.2020 H     1 <1>   0.0800 
 21 H       -0.6990    -1.9340     0.7580 H     1 <1>   0.0800 
 22 H        3.6920    -1.4530     1.6730 H     1 <1>   0.0800 
 23 H        1.8370    -3.1660    -1.1030 H     1 <1>   0.0800 
 24 H        2.3240    -1.6550    -1.8740 H     1 <1>   0.0800 
 25 H        0.1840    -0.8580    -1.8710 H     1 <1>   0.0800 
 26 H       -0.3520    -2.4810    -1.5070 H     1 <1>   0.0800 
 27 H        4.4800    -2.6220    -0.9970 H     1 <1>   0.0800 
 28 H        4.0170    -3.5450     0.4290 H     1 <1>   0.0800 
 29 H        5.4520    -2.5530     0.4420 H     1 <1>   0.0800 
 30 H        2.7610     0.8270     1.3180 H     1 <1>   0.3700 
 31 H        6.5130     1.8500     0.2260 H     1 <1>   0.0800 
 32 H        6.9570     3.5190     0.2920 H     1 <1>   0.0800 
 33 H        6.0020     5.7950     0.4530 H     1 <1>   0.0800 
 34 H        4.4810     6.6130     0.1960 H     1 <1>   0.0800 
 35 H        5.2670     5.8080    -1.1390 H     1 <1>   0.0800 
 36 H        5.8000     2.1320    -2.1450 H     1 <1>   0.0800 
 37 H        7.4850     2.5330    -1.9220 H     1 <1>   0.0800 
 38 H        6.2970     3.8060    -2.0890 H     1 <1>   0.0800 
@<TRIPOS>BOND
  1   1   2  2   
  2   2   3  am  
  3   2   4  1   
  4   3   5  1   
  5   3   6  1   
  6   4   7  1   
  7   4  20  1   
  8   4  21  1   
  9   5   8  1   
 10   5   9  1   
 11   5  22  1   
 12   6   7  1   
 13   6  23  1   
 14   6  24  1   
 15   7  25  1   
 16   7  26  1   
 17   8  10  2   
 18   8  11  am  
 19   9  27  1   
 20   9  28  1   
 21   9  29  1   
 22  11  12  1   
 23  11  30  1   
 24  12  13  1   
 25  12  14  2   
 26  13  15  1   
 27  14  16  1   
 28  14  17  1   
 29  15  16  2   
 30  16  18  1   
 31  17  19  1   
 32  17  31  1   
 33  17  32  1   
 34  18  33  1   
 35  18  34  1   
 36  18  35  1   
 37  19  36  1   
 38  19  37  1   
 39  19  38  1   
@<TRIPOS>SUBSTRUCTURE
  1 ****  11 GROUP 4 **** **** 0

# MOE 2024.06 (io_trps.svl 2023.06)
