@<TRIPOS>MOLECULE
NONAME
47 50 1 0 0 
SMALL
USER_CHARGES


@<TRIPOS>ATOM
  1 S        0.0930     0.7310    -2.9000 S.3   1 <1>  -0.0800 
  2 C       -0.0240     1.7570    -1.4860 C.2   1 <1>  -0.1400 
  3 C        1.6520     1.4350    -3.3050 C.2   1 <1>  -0.1100 
  4 C        1.0490     2.5470    -1.3490 C.2   1 <1>  -0.1810 
  5 C       -1.2120     1.7300    -0.5630 C.3   1 <1>   0.0200 
  6 C        2.0110     2.3670    -2.4000 C.2   1 <1>  -0.1500 
  7 C        1.1610     3.5210    -0.1700 C.3   1 <1>   0.4610 
  8 C       -1.1680     3.0220     0.2690 C.3   1 <1>   0.1200 
  9 O        0.1290     3.2600     0.7620 O.3   1 <1>  -0.5600 
 10 C        2.4680     3.2820     0.5970 C.3   1 <1>  -0.1600 
 11 C        1.0080     4.9840    -0.6340 C.3   1 <1>  -0.1600 
 12 C        2.8420     4.5020     1.4330 C.3   1 <1>   0.1400 
 13 C        2.3490     5.7100    -0.7570 C.3   1 <1>   0.1400 
 14 N        3.0890     5.6800     0.5430 N.am  1 <1>  -0.6600 
 15 C        3.9460     6.6680     0.9590 C.2   1 <1>   0.5690 
 16 O        4.4440     6.6490     2.0600 O.2   1 <1>  -0.5700 
 17 C        4.2850     7.8340     0.0400 C.3   1 <1>  -0.0990 
 18 C        5.5810     8.5600     0.4270 C.3   1 <1>   0.0200 
 19 C        5.8460     9.7130    -0.5280 C.2   1 <1>  -0.3320 
 20 N        5.2910    10.9450    -0.4400 N.pl3 1 <1>   0.3140 
 21 C        6.6580     9.7300    -1.6070 C.2   1 <1>  -0.1500 
 22 N        5.7140    11.7430    -1.4340 N.2   1 <1>  -0.7070 
 23 C        4.3590    11.4410     0.5810 C.3   1 <1>   0.0160 
 24 C        6.5330    11.0120    -2.1250 C.2   1 <1>   0.1390 
 25 H        2.1410     1.0710    -4.1900 H     1 <1>   0.1500 
 26 H       -1.1590     0.8700     0.0800 H     1 <1>   0.0800 
 27 H       -2.1270     1.6890    -1.1260 H     1 <1>   0.0800 
 28 H        2.9230     2.9360    -2.4310 H     1 <1>   0.1500 
 29 H       -1.8320     2.9450     1.1120 H     1 <1>   0.0800 
 30 H       -1.4650     3.8650    -0.3310 H     1 <1>   0.0800 
 31 H        3.2770     3.0840    -0.0800 H     1 <1>   0.0800 
 32 H        2.3590     2.4170     1.2250 H     1 <1>   0.0800 
 33 H        0.4080     5.5290     0.0720 H     1 <1>   0.0800 
 34 H        0.5060     5.0100    -1.5840 H     1 <1>   0.0800 
 35 H        3.7270     4.2860     2.0070 H     1 <1>   0.0800 
 36 H        2.0460     4.7370     2.1190 H     1 <1>   0.0800 
 37 H        2.1640     6.7270    -1.0560 H     1 <1>   0.0800 
 38 H        2.9520     5.2380    -1.5140 H     1 <1>   0.0800 
 39 H        3.4650     8.5260     0.0610 H     1 <1>   0.0800 
 40 H        4.3990     7.4730    -0.9650 H     1 <1>   0.0800 
 41 H        6.4000     7.8640     0.3820 H     1 <1>   0.0800 
 42 H        5.5230     8.9250     1.4390 H     1 <1>   0.0800 
 43 H        7.2770     8.9470    -2.0050 H     1 <1>   0.1500 
 44 H        3.4260    10.9180     0.4940 H     1 <1>   0.0800 
 45 H        4.1980    12.4920     0.4280 H     1 <1>   0.0800 
 46 H        4.7830    11.2820     1.5550 H     1 <1>   0.0800 
 47 H        7.0500    11.3690    -3.0000 H     1 <1>   0.1500 
@<TRIPOS>BOND
  1   1   2  1   
  2   1   3  1   
  3   2   4  2   
  4   2   5  1   
  5   3   6  2   
  6   3  25  1   
  7   4   6  1   
  8   4   7  1   
  9   5   8  1   
 10   5  26  1   
 11   5  27  1   
 12   6  28  1   
 13   7   9  1   
 14   7  10  1   
 15   7  11  1   
 16   8   9  1   
 17   8  29  1   
 18   8  30  1   
 19  10  12  1   
 20  10  31  1   
 21  10  32  1   
 22  11  13  1   
 23  11  33  1   
 24  11  34  1   
 25  12  14  1   
 26  12  35  1   
 27  12  36  1   
 28  13  14  1   
 29  13  37  1   
 30  13  38  1   
 31  14  15  am  
 32  15  16  2   
 33  15  17  1   
 34  17  18  1   
 35  17  39  1   
 36  17  40  1   
 37  18  19  1   
 38  18  41  1   
 39  18  42  1   
 40  19  20  1   
 41  19  21  2   
 42  20  22  1   
 43  20  23  1   
 44  21  24  1   
 45  21  43  1   
 46  22  24  2   
 47  23  44  1   
 48  23  45  1   
 49  23  46  1   
 50  24  47  1   
@<TRIPOS>SUBSTRUCTURE
  1 ****  13 GROUP 4 **** **** 0

# MOE 2024.06 (io_trps.svl 2023.06)
