@<TRIPOS>MOLECULE
NONAME
46 46 1 0 0 
SMALL
USER_CHARGES


@<TRIPOS>ATOM
  1 O        1.1230    -0.8410     1.1490 O.2   1 <1>  -0.5700 
  2 C        1.0720    -0.8040    -0.0580 C.2   1 <1>   0.5690 
  3 N        1.4840     0.2720    -0.7920 N.am  1 <1>  -0.7300 
  4 C        0.4910    -2.0470    -0.7520 C.3   1 <1>   0.4040 
  5 C        2.0530     1.5410    -0.2800 C.3   1 <1>   0.2200 
  6 N       -0.4140    -2.8460     0.1630 N.4   1 <1>  -0.9590 
  7 C        3.3590     1.2690     0.4830 C.3   1 <1>  -0.1600 
  8 C        0.9990     2.2720     0.5540 C.3   1 <1>  -0.2400 
  9 C       -0.5410    -4.2700    -0.2810 C.3   1 <1>   0.3430 
 10 C       -1.7270    -2.1530     0.3590 C.3   1 <1>   0.2630 
 11 C        4.1480     2.5480     0.7970 C.3   1 <1>  -0.2400 
 12 C       -1.1750    -5.1620     0.7880 C.3   1 <1>   0.0210 
 13 C       -1.1160    -6.5910     0.2940 C.2   1 <1>  -0.1810 
 14 C       -0.0570    -7.4820     0.4640 C.2   1 <1>   0.1080 
 15 C       -2.0410    -7.2820    -0.4090 C.2   1 <1>  -0.3320 
 16 N       -0.2900    -8.6250    -0.0920 N.2   1 <1>  -0.7070 
 17 C        1.2360    -7.2170     1.2050 C.3   1 <1>  -0.0590 
 18 N       -1.5180    -8.5090    -0.6230 N.pl3 1 <1>   0.3000 
 19 C       -3.4210    -6.8890    -0.9110 C.3   1 <1>  -0.0600 
 20 H        1.4420     0.2550    -1.8130 H     1 <1>   0.3700 
 21 H        1.3210    -2.6600    -1.0590 H     1 <1>   0.0800 
 22 H       -0.0490    -1.7440    -1.6320 H     1 <1>   0.0800 
 23 H        2.2890     2.1580    -1.1320 H     1 <1>   0.0800 
 24 H        0.0780    -2.8110     1.0770 H     1 <1>   0.4500 
 25 H        3.9850     0.6300    -0.1150 H     1 <1>   0.0800 
 26 H        3.1470     0.7610     1.4070 H     1 <1>   0.0800 
 27 H        0.8000     1.7440     1.4690 H     1 <1>   0.0800 
 28 H        0.0870     2.3770    -0.0040 H     1 <1>   0.0800 
 29 H        1.3470     3.2560     0.8060 H     1 <1>   0.0800 
 30 H        0.4370    -4.6650    -0.5040 H     1 <1>   0.0800 
 31 H       -1.1300    -4.3280    -1.1810 H     1 <1>   0.0800 
 32 H       -2.2780    -2.1160    -0.5660 H     1 <1>   0.0800 
 33 H       -1.5650    -1.1440     0.7080 H     1 <1>   0.0800 
 34 H       -2.3200    -2.6700     1.0960 H     1 <1>   0.0800 
 35 H        4.3610     3.0950    -0.1040 H     1 <1>   0.0800 
 36 H        5.0820     2.2930     1.2680 H     1 <1>   0.0800 
 37 H        3.6000     3.1830     1.4700 H     1 <1>   0.0800 
 38 H       -2.1990    -4.8880     0.9560 H     1 <1>   0.0800 
 39 H       -0.6370    -5.0840     1.7160 H     1 <1>   0.0800 
 40 H        1.7010    -6.3210     0.8430 H     1 <1>   0.0800 
 41 H        1.9130    -8.0400     1.0560 H     1 <1>   0.0800 
 42 H        1.0390    -7.1240     2.2560 H     1 <1>   0.0800 
 43 H       -1.9680    -9.2870    -1.1220 H     1 <1>   0.2700 
 44 H       -3.6540    -5.8740    -0.6490 H     1 <1>   0.0800 
 45 H       -4.1670    -7.5310    -0.4750 H     1 <1>   0.0800 
 46 H       -3.4680    -6.9860    -1.9820 H     1 <1>   0.0800 
@<TRIPOS>BOND
  1   1   2  2   
  2   2   3  am  
  3   2   4  1   
  4   3   5  1   
  5   3  20  1   
  6   4   6  1   
  7   4  21  1   
  8   4  22  1   
  9   5   7  1   
 10   5   8  1   
 11   5  23  1   
 12   6   9  1   
 13   6  10  1   
 14   6  24  1   
 15   7  11  1   
 16   7  25  1   
 17   7  26  1   
 18   8  27  1   
 19   8  28  1   
 20   8  29  1   
 21   9  12  1   
 22   9  30  1   
 23   9  31  1   
 24  10  32  1   
 25  10  33  1   
 26  10  34  1   
 27  11  35  1   
 28  11  36  1   
 29  11  37  1   
 30  12  13  1   
 31  12  38  1   
 32  12  39  1   
 33  13  14  1   
 34  13  15  2   
 35  14  16  2   
 36  14  17  1   
 37  15  18  1   
 38  15  19  1   
 39  16  18  1   
 40  17  40  1   
 41  17  41  1   
 42  17  42  1   
 43  18  43  1   
 44  19  44  1   
 45  19  45  1   
 46  19  46  1   
@<TRIPOS>SUBSTRUCTURE
  1 ****   6 GROUP 4 **** **** 0

# MOE 2024.06 (io_trps.svl 2023.06)
