@<TRIPOS>MOLECULE
NONAME
49 50 1 0 0 
SMALL
USER_CHARGES


@<TRIPOS>ATOM
  1 O        3.0390     2.3320     1.7710 O.co2 1 <1>  -0.9000 
  2 C        2.4680     1.2820     1.4390 C.2   1 <1>   0.9060 
  3 O        2.2760     0.3790     2.2500 O.co2 1 <1>  -0.9000 
  4 C        2.2950     0.9670    -0.0600 C.3   1 <1>  -0.1060 
  5 C        3.2520    -0.2260    -0.2880 C.3   1 <1>   0.2000 
  6 C        2.7760     2.1490    -0.9670 C.3   1 <1>  -0.1600 
  7 C        0.8240     0.5850    -0.3820 C.3   1 <1>  -0.1600 
  8 O        3.2720    -0.5660    -1.6430 O.3   1 <1>  -0.6800 
  9 C        4.6920     0.1470     0.1550 C.3   1 <1>   0.3430 
 10 C        4.3050     2.2210    -1.1490 C.3   1 <1>   0.3430 
 11 C       -0.1830     1.7100    -0.0860 C.3   1 <1>  -0.1600 
 12 N        4.9760     1.6260     0.0370 N.4   1 <1>  -0.9590 
 13 C       -1.6120     1.2600    -0.4000 C.3   1 <1>  -0.2400 
 14 C        6.3870     1.9800     0.2630 C.3   1 <1>   0.3430 
 15 C        6.4860     3.4630     0.6140 C.3   1 <1>  -0.1600 
 16 C        7.8720     3.8110     1.1690 C.3   1 <1>   0.0960 
 17 N        7.9500     5.2590     1.4420 N.pl3 1 <1>   0.0480 
 18 C        8.5170     6.2430     0.7000 C.2   1 <1>   0.0060 
 19 C        7.4190     5.8920     2.5030 C.2   1 <1>  -0.3020 
 20 N        8.3800     7.4210     1.2130 N.2   1 <1>  -0.5650 
 21 C        9.2440     6.0090    -0.6080 C.3   1 <1>  -0.0600 
 22 C        7.6910     7.2050     2.3470 C.2   1 <1>   0.0770 
 23 H        2.9240    -1.0940     0.2600 H     1 <1>   0.0800 
 24 H        2.4290     3.0820    -0.5600 H     1 <1>   0.0800 
 25 H        2.3420     2.0610    -1.9470 H     1 <1>   0.0800 
 26 H        0.7330     0.3050    -1.4160 H     1 <1>   0.0800 
 27 H        0.5560    -0.2720     0.2140 H     1 <1>   0.0800 
 28 H        2.3750    -0.8480    -1.9140 H     1 <1>   0.4000 
 29 H        5.3930    -0.4250    -0.4280 H     1 <1>   0.0800 
 30 H        4.7990    -0.1350     1.1910 H     1 <1>   0.0800 
 31 H        4.5980     3.2490    -1.2790 H     1 <1>   0.0800 
 32 H        4.5860     1.6640    -2.0280 H     1 <1>   0.0800 
 33 H       -0.1250     1.9860     0.9540 H     1 <1>   0.0800 
 34 H        0.0450     2.5820    -0.6740 H     1 <1>   0.0800 
 35 H        4.4290     2.0420     0.8400 H     1 <1>   0.4500 
 36 H       -1.8750     0.4080     0.2020 H     1 <1>   0.0800 
 37 H       -1.7080     0.9990    -1.4380 H     1 <1>   0.0800 
 38 H       -2.3020     2.0560    -0.1810 H     1 <1>   0.0800 
 39 H        6.7620     1.4000     1.0910 H     1 <1>   0.0800 
 40 H        6.9740     1.7540    -0.6120 H     1 <1>   0.0800 
 41 H        5.7480     3.6990     1.3650 H     1 <1>   0.0800 
 42 H        6.2990     4.0590    -0.2610 H     1 <1>   0.0800 
 43 H        8.6410     3.5460     0.4660 H     1 <1>   0.0800 
 44 H        8.0510     3.2830     2.0890 H     1 <1>   0.0800 
 45 H        6.8860     5.3930     3.2920 H     1 <1>   0.1500 
 46 H        9.5630     6.9510    -1.0170 H     1 <1>   0.0800 
 47 H        8.5920     5.5320    -1.3160 H     1 <1>   0.0800 
 48 H       10.1130     5.3980    -0.4440 H     1 <1>   0.0800 
 49 H        7.4220     8.0190     3.0000 H     1 <1>   0.1500 
@<TRIPOS>BOND
  1   1   2  ar  
  2   2   3  ar  
  3   2   4  1   
  4   4   5  1   
  5   4   6  1   
  6   4   7  1   
  7   5   8  1   
  8   5   9  1   
  9   5  23  1   
 10   6  10  1   
 11   6  24  1   
 12   6  25  1   
 13   7  11  1   
 14   7  26  1   
 15   7  27  1   
 16   8  28  1   
 17   9  12  1   
 18   9  29  1   
 19   9  30  1   
 20  10  12  1   
 21  10  31  1   
 22  10  32  1   
 23  11  13  1   
 24  11  33  1   
 25  11  34  1   
 26  12  14  1   
 27  12  35  1   
 28  13  36  1   
 29  13  37  1   
 30  13  38  1   
 31  14  15  1   
 32  14  39  1   
 33  14  40  1   
 34  15  16  1   
 35  15  41  1   
 36  15  42  1   
 37  16  17  1   
 38  16  43  1   
 39  16  44  1   
 40  17  18  1   
 41  17  19  1   
 42  18  20  2   
 43  18  21  1   
 44  19  22  2   
 45  19  45  1   
 46  20  22  1   
 47  21  46  1   
 48  21  47  1   
 49  21  48  1   
 50  22  49  1   
@<TRIPOS>SUBSTRUCTURE
  1 ****  12 GROUP 4 **** **** 0

# MOE 2024.06 (io_trps.svl 2023.06)
