@<TRIPOS>MOLECULE
NONAME
43 44 1 0 0 
SMALL
USER_CHARGES


@<TRIPOS>ATOM
  1 O        1.2690     0.7860     1.8000 O.2   1 <1>  -0.5700 
  2 C        1.4780    -0.3250     1.3650 C.2   1 <1>   0.5690 
  3 N        2.3290    -0.5280     0.3040 N.am  1 <1>  -0.6600 
  4 C        0.7470    -1.4940     2.0490 C.3   1 <1>   0.1710 
  5 C        2.8860     0.6100    -0.4830 C.3   1 <1>   0.1400 
  6 C        2.5770    -1.8430    -0.3560 C.3   1 <1>   0.1400 
  7 N       -0.1980    -2.2610     1.1830 N.3   1 <1>  -0.8100 
  8 C        2.3930     0.5320    -1.9390 C.3   1 <1>   0.1200 
  9 C        2.0770    -1.7960    -1.8080 C.3   1 <1>   0.1200 
 10 C       -0.7870    -3.3950     1.9380 C.3   1 <1>   0.2540 
 11 C       -1.2580    -1.3790     0.6640 C.3   1 <1>   0.0300 
 12 O        2.6670    -0.7260    -2.4950 O.3   1 <1>  -0.5600 
 13 C       -1.5760    -4.3740     1.0670 C.ar  1 <1>   0.1670 
 14 N       -2.6760    -4.8850     1.6030 N.ar  1 <1>  -0.6200 
 15 C       -1.1230    -4.6930    -0.2050 C.ar  1 <1>  -0.1500 
 16 C       -3.3460    -5.7340     0.8400 C.ar  1 <1>   0.1600 
 17 C       -1.8310    -5.5810    -0.9860 C.ar  1 <1>  -0.1500 
 18 C       -2.9800    -6.1170    -0.4420 C.ar  1 <1>  -0.1440 
 19 C       -3.8230    -7.1020    -1.2350 C.3   1 <1>  -0.0170 
 20 C       -4.8470    -6.3610    -2.0970 C.3   1 <1>  -0.2400 
 21 H        0.2100    -1.0980     2.8930 H     1 <1>   0.0800 
 22 H        1.4980    -2.1620     2.4290 H     1 <1>   0.0800 
 23 H        3.9610     0.5620    -0.4670 H     1 <1>   0.0800 
 24 H        2.5900     1.5520    -0.0570 H     1 <1>   0.0800 
 25 H        2.0900    -2.6460     0.1640 H     1 <1>   0.0800 
 26 H        3.6340    -2.0460    -0.3540 H     1 <1>   0.0800 
 27 H        2.8900     1.2720    -2.5390 H     1 <1>   0.0800 
 28 H        1.3320     0.7040    -1.9840 H     1 <1>   0.0800 
 29 H        1.0070    -1.6800    -1.8340 H     1 <1>   0.0800 
 30 H        2.3410    -2.7030    -2.3220 H     1 <1>   0.0800 
 31 H       -1.4360    -3.0140     2.7090 H     1 <1>   0.0800 
 32 H       -0.0020    -3.9530     2.4180 H     1 <1>   0.0800 
 33 H       -0.8290    -0.5920     0.0680 H     1 <1>   0.0800 
 34 H       -1.8140    -0.9380     1.4740 H     1 <1>   0.0800 
 35 H       -1.9370    -1.9350     0.0400 H     1 <1>   0.0800 
 36 H       -0.2220    -4.2430    -0.5800 H     1 <1>   0.1500 
 37 H       -4.2440    -6.1500     1.2630 H     1 <1>   0.1500 
 38 H       -1.5000    -5.8390    -1.9760 H     1 <1>   0.1500 
 39 H       -4.3330    -7.7700    -0.5620 H     1 <1>   0.0800 
 40 H       -3.1860    -7.6990    -1.8640 H     1 <1>   0.0800 
 41 H       -5.5020    -5.7750    -1.4760 H     1 <1>   0.0800 
 42 H       -5.4380    -7.0640    -2.6570 H     1 <1>   0.0800 
 43 H       -4.3460    -5.7030    -2.7860 H     1 <1>   0.0800 
@<TRIPOS>BOND
  1   1   2  2   
  2   2   3  am  
  3   2   4  1   
  4   3   5  1   
  5   3   6  1   
  6   4   7  1   
  7   4  21  1   
  8   4  22  1   
  9   5   8  1   
 10   5  23  1   
 11   5  24  1   
 12   6   9  1   
 13   6  25  1   
 14   6  26  1   
 15   7  10  1   
 16   7  11  1   
 17   8  12  1   
 18   8  27  1   
 19   8  28  1   
 20   9  12  1   
 21   9  29  1   
 22   9  30  1   
 23  10  13  1   
 24  10  31  1   
 25  10  32  1   
 26  11  33  1   
 27  11  34  1   
 28  11  35  1   
 29  13  14  ar  
 30  13  15  ar  
 31  14  16  ar  
 32  15  17  ar  
 33  15  36  1   
 34  16  18  ar  
 35  16  37  1   
 36  17  18  ar  
 37  17  38  1   
 38  18  19  1   
 39  19  20  1   
 40  19  39  1   
 41  19  40  1   
 42  20  41  1   
 43  20  42  1   
 44  20  43  1   
@<TRIPOS>SUBSTRUCTURE
  1 ****   7 GROUP 4 **** **** 0

# MOE 2024.06 (io_trps.svl 2023.06)
