@<TRIPOS>MOLECULE
NONAME
48 50 1 0 0 
SMALL
USER_CHARGES


@<TRIPOS>ATOM
  1 O        0.6210     0.9870     0.2340 O.3   1 <1>  -0.6800 
  2 C        1.4710     0.7230    -0.8370 C.3   1 <1>   0.3000 
  3 C        2.6140     1.7280    -0.8910 C.2   1 <1>   0.0070 
  4 N        3.0170     2.2600    -1.9940 N.2   1 <1>  -0.3380 
  5 N        3.3300     2.1650     0.1550 N.pl3 1 <1>   0.0480 
  6 N        4.0170     3.0810    -1.6940 N.2   1 <1>  -0.3380 
  7 C        4.1890     3.0220    -0.4180 C.2   1 <1>   0.0070 
  8 C        3.1850     1.7880     1.5790 C.3   1 <1>   0.0160 
  9 C        5.2510     3.8530     0.2950 C.3   1 <1>   0.1000 
 10 C        5.0110     5.3470     0.0110 C.3   1 <1>  -0.1600 
 11 C        6.6460     3.4190    -0.1850 C.3   1 <1>  -0.1600 
 12 C        6.1680     6.2240     0.4770 C.3   1 <1>   0.3430 
 13 C        7.7480     4.3640     0.2840 C.3   1 <1>   0.3430 
 14 N        7.4310     5.7520    -0.1710 N.4   1 <1>  -0.9590 
 15 C        8.6060     6.6610     0.0380 C.3   1 <1>   0.3430 
 16 C        8.4500     8.0020    -0.6880 C.3   1 <1>  -0.0160 
 17 C        9.7460     8.7870    -0.6000 C.cat 1 <1>   0.6560 
 18 N       10.6810     8.7700    -1.5370 N.pl3 1 <1>  -0.7000 
 19 N       10.1220     9.5810     0.4020 N.pl3 1 <1>  -0.7640 
 20 C       11.7030     9.5910    -1.1340 C.2   1 <1>   0.2000 
 21 C       11.3580    10.0940     0.0680 C.2   1 <1>   0.2000 
 22 C        9.4290     9.9840     1.6630 C.3   1 <1>   0.2740 
 23 H       -0.2170     0.4970     0.1240 H     1 <1>   0.4000 
 24 H        0.8960     0.7860    -1.7460 H     1 <1>   0.0800 
 25 H        1.8560    -0.2750    -0.7300 H     1 <1>   0.0800 
 26 H        2.8210     0.7790     1.6490 H     1 <1>   0.0800 
 27 H        2.4790     2.4490     2.0480 H     1 <1>   0.0800 
 28 H        4.1330     1.8460     2.0790 H     1 <1>   0.0800 
 29 H        5.1880     3.6970     1.3570 H     1 <1>   0.0800 
 30 H        4.1060     5.6560     0.5040 H     1 <1>   0.0800 
 31 H        4.8620     5.5050    -1.0430 H     1 <1>   0.0800 
 32 H        6.6660     3.3690    -1.2610 H     1 <1>   0.0800 
 33 H        6.8490     2.4260     0.1770 H     1 <1>   0.0800 
 34 H        6.2570     6.1690     1.5510 H     1 <1>   0.0800 
 35 H        5.9600     7.2460     0.2020 H     1 <1>   0.0800 
 36 H        8.6880     4.0390    -0.1320 H     1 <1>   0.0800 
 37 H        7.8220     4.3320     1.3600 H     1 <1>   0.0800 
 38 H        7.2270     5.6660    -1.1800 H     1 <1>   0.4500 
 39 H        9.4930     6.1730    -0.3360 H     1 <1>   0.0800 
 40 H        8.7510     6.8330     1.0930 H     1 <1>   0.0800 
 41 H        7.6590     8.5840    -0.2540 H     1 <1>   0.0800 
 42 H        8.2220     7.8340    -1.7250 H     1 <1>   0.0800 
 43 H       10.6730     8.2770    -2.4370 H     1 <1>   0.4500 
 44 H       12.5970     9.7690    -1.7150 H     1 <1>   0.1500 
 45 H       11.9120    10.7800     0.6920 H     1 <1>   0.1500 
 46 H        8.4900     9.4700     1.7730 H     1 <1>   0.0800 
 47 H        9.2410    11.0450     1.6510 H     1 <1>   0.0800 
 48 H       10.0510     9.7550     2.5120 H     1 <1>   0.0800 
@<TRIPOS>BOND
  1   1   2  1   
  2   1  23  1   
  3   2   3  1   
  4   2  24  1   
  5   2  25  1   
  6   3   4  2   
  7   3   5  1   
  8   4   6  1   
  9   5   7  1   
 10   5   8  1   
 11   6   7  2   
 12   7   9  1   
 13   8  26  1   
 14   8  27  1   
 15   8  28  1   
 16   9  10  1   
 17   9  11  1   
 18   9  29  1   
 19  10  12  1   
 20  10  30  1   
 21  10  31  1   
 22  11  13  1   
 23  11  32  1   
 24  11  33  1   
 25  12  14  1   
 26  12  34  1   
 27  12  35  1   
 28  13  14  1   
 29  13  36  1   
 30  13  37  1   
 31  14  15  1   
 32  14  38  1   
 33  15  16  1   
 34  15  39  1   
 35  15  40  1   
 36  16  17  1   
 37  16  41  1   
 38  16  42  1   
 39  17  18  ar  
 40  17  19  ar  
 41  18  20  1   
 42  18  43  1   
 43  19  21  1   
 44  19  22  1   
 45  20  21  2   
 46  20  44  1   
 47  21  45  1   
 48  22  46  1   
 49  22  47  1   
 50  22  48  1   
@<TRIPOS>SUBSTRUCTURE
  1 ****  14 GROUP 4 **** **** 0

# MOE 2024.06 (io_trps.svl 2023.06)
