@<TRIPOS>MOLECULE
NONAME
42 42 1 0 0 
SMALL
USER_CHARGES


@<TRIPOS>ATOM
  1 O       -1.0400    -0.5990    -2.1060 O.3   1 <1>  -0.8500 
  2 C       -0.7730    -1.5470    -1.3440 C.2   1 <1>  -0.1500 
  3 C       -1.6240    -2.0120    -0.3380 C.2   1 <1>  -0.1240 
  4 C        0.4840    -2.1860    -1.5010 C.2   1 <1>  -0.1500 
  5 C       -1.2230    -3.0870     0.4760 C.2   1 <1>   0.6160 
  6 C       -2.9820    -1.3190    -0.1340 C.3   1 <1>   0.0580 
  7 C        0.8710    -3.2250    -0.7220 C.2   1 <1>  -0.0290 
  8 O       -1.9360    -3.5330     1.4020 O.2   1 <1>  -0.5700 
  9 N        0.0220    -3.7120     0.2730 N.am  1 <1>  -0.4690 
 10 C       -2.9750    -0.5300     1.1920 C.3   1 <1>  -0.0990 
 11 C       -4.1540    -2.3260    -0.2270 C.3   1 <1>  -0.1600 
 12 C        2.2370    -3.8600    -0.9240 C.3   1 <1>  -0.1020 
 13 C        0.4240    -4.8280     1.1770 C.3   1 <1>   0.0600 
 14 C       -1.8810     0.5140     1.2020 C.2   1 <1>   0.6590 
 15 C       -5.4110    -1.8080    -0.9570 C.3   1 <1>  -0.0800 
 16 O       -0.9690     0.4780     1.9930 O.2   1 <1>  -0.5700 
 17 O       -1.9940     1.4710     0.2920 O.3   1 <1>  -0.4300 
 18 C       -6.0530    -0.5910    -0.2800 C.3   1 <1>  -0.2400 
 19 C       -6.4440    -2.9370    -1.0610 C.3   1 <1>  -0.2400 
 20 C       -0.8530     2.1540    -0.1710 C.3   1 <1>   0.0400 
 21 H        1.1000    -1.7790    -2.2790 H     1 <1>   0.1500 
 22 H       -3.1120    -0.6120    -0.9340 H     1 <1>   0.0800 
 23 H       -2.8200    -1.1970     2.0180 H     1 <1>   0.0800 
 24 H       -3.9080    -0.0290     1.3420 H     1 <1>   0.0800 
 25 H       -4.4100    -2.6770     0.7560 H     1 <1>   0.0800 
 26 H       -3.8000    -3.1790    -0.7800 H     1 <1>   0.0800 
 27 H        2.8000    -3.8190    -0.0100 H     1 <1>   0.0800 
 28 H        2.7840    -3.3300    -1.6820 H     1 <1>   0.0800 
 29 H        2.1260    -4.8800    -1.2400 H     1 <1>   0.0800 
 30 H       -0.4420    -5.3840     1.4920 H     1 <1>   0.0800 
 31 H        0.9120    -4.4200     2.0430 H     1 <1>   0.0800 
 32 H        1.0840    -5.5100     0.6770 H     1 <1>   0.0800 
 33 H       -5.1230    -1.5260    -1.9580 H     1 <1>   0.0800 
 34 H       -6.2570    -0.7980     0.7550 H     1 <1>   0.0800 
 35 H       -6.9750    -0.3350    -0.7700 H     1 <1>   0.0800 
 36 H       -5.4010     0.2610    -0.3510 H     1 <1>   0.0800 
 37 H       -6.7600    -3.2510    -0.0820 H     1 <1>   0.0800 
 38 H       -6.0190    -3.7820    -1.5730 H     1 <1>   0.0800 
 39 H       -7.3050    -2.6070    -1.6140 H     1 <1>   0.0800 
 40 H       -1.1630     2.8680    -0.9110 H     1 <1>   0.0800 
 41 H       -0.1930     1.4300    -0.6200 H     1 <1>   0.0800 
 42 H       -0.3720     2.6430     0.6570 H     1 <1>   0.0800 
@<TRIPOS>BOND
  1   1   2  1   
  2   2   3  2   
  3   2   4  1   
  4   3   5  1   
  5   3   6  1   
  6   4   7  2   
  7   4  21  1   
  8   5   8  2   
  9   5   9  am  
 10   6  10  1   
 11   6  11  1   
 12   6  22  1   
 13   7   9  1   
 14   7  12  1   
 15   9  13  1   
 16  10  14  1   
 17  10  23  1   
 18  10  24  1   
 19  11  15  1   
 20  11  25  1   
 21  11  26  1   
 22  12  27  1   
 23  12  28  1   
 24  12  29  1   
 25  13  30  1   
 26  13  31  1   
 27  13  32  1   
 28  14  16  2   
 29  14  17  1   
 30  15  18  1   
 31  15  19  1   
 32  15  33  1   
 33  17  20  1   
 34  18  34  1   
 35  18  35  1   
 36  18  36  1   
 37  19  37  1   
 38  19  38  1   
 39  19  39  1   
 40  20  40  1   
 41  20  41  1   
 42  20  42  1   
@<TRIPOS>SUBSTRUCTURE
  1 ****   3 GROUP 4 **** **** 0

# MOE 2024.06 (io_trps.svl 2023.06)
