@<TRIPOS>MOLECULE
NONAME
52 54 1 0 0 
SMALL
USER_CHARGES


@<TRIPOS>ATOM
  1 S        1.2630     0.7550    -1.8760 S.o2  1 <1>   1.3330 
  2 O        1.6090    -0.5580    -2.3730 O.2   1 <1>  -0.6500 
  3 O        0.8770     1.7960    -2.8010 O.2   1 <1>  -0.6500 
  4 N       -0.0010     0.5770    -0.7540 N.am  1 <1>  -0.8490 
  5 C        2.6330     1.3450    -0.8800 C.3   1 <1>  -0.0550 
  6 C       -0.7380     1.8210    -0.5050 C.3   1 <1>   0.1160 
  7 C       -0.9380    -0.4840    -1.1380 C.3   1 <1>   0.1160 
  8 C        3.1800     0.3120     0.1290 C.3   1 <1>  -0.0800 
  9 C        4.4750     0.7150     0.8210 C.3   1 <1>   0.2200 
 10 C        2.2480    -0.0090     1.3060 C.3   1 <1>   0.1200 
 11 N        4.4320     2.1400     1.2370 N.am  1 <1>  -0.7300 
 12 C        4.3960    -0.1500     2.0700 C.3   1 <1>   0.1200 
 13 O        3.0560    -0.0870     2.4460 O.3   1 <1>  -0.5600 
 14 C        5.0010     3.1850     0.5750 C.2   1 <1>   0.5440 
 15 O        5.5900     2.9560    -0.4610 O.2   1 <1>  -0.5700 
 16 C        4.8920     4.5380     1.0830 C.ar  1 <1>   0.0860 
 17 C        5.9580     5.4540     0.9980 C.ar  1 <1>   0.0170 
 18 C        3.6990     4.9630     1.6710 C.ar  1 <1>  -0.1500 
 19 C        7.2320     5.0970     0.4230 C.cat 1 <1>   0.7830 
 20 C        5.7840     6.7450     1.4980 C.ar  1 <1>  -0.1500 
 21 C        3.5480     6.2440     2.1640 C.ar  1 <1>  -0.1500 
 22 N        8.2770     4.6450     1.1160 N.pl3 1 <1>  -0.7000 
 23 N        7.5900     5.1880    -0.8650 N.pl3 1 <1>  -0.7640 
 24 C        4.5950     7.1390     2.0760 C.ar  1 <1>  -0.1500 
 25 C        9.3130     4.4150     0.2520 C.2   1 <1>   0.2000 
 26 C        8.8850     4.7510    -0.9810 C.2   1 <1>   0.2000 
 27 C        6.7080     5.5430    -2.0110 C.3   1 <1>   0.2740 
 28 H        3.4330     1.6120    -1.5440 H     1 <1>   0.0800 
 29 H        2.3350     2.2360    -0.3640 H     1 <1>   0.0800 
 30 H       -1.4590     1.6730     0.2800 H     1 <1>   0.0800 
 31 H       -1.2520     2.1390    -1.3980 H     1 <1>   0.0800 
 32 H       -0.0600     2.6000    -0.2020 H     1 <1>   0.0800 
 33 H       -1.7200    -0.5770    -0.4040 H     1 <1>   0.0800 
 34 H       -0.4230    -1.4280    -1.2010 H     1 <1>   0.0800 
 35 H       -1.3760    -0.2650    -2.0990 H     1 <1>   0.0800 
 36 H        3.3650    -0.6090    -0.3980 H     1 <1>   0.0800 
 37 H        5.3510     0.5090     0.2290 H     1 <1>   0.0800 
 38 H        1.7440    -0.9500     1.1680 H     1 <1>   0.0800 
 39 H        1.5240     0.7680     1.4740 H     1 <1>   0.0800 
 40 H        3.9040     2.2810     2.1040 H     1 <1>   0.3700 
 41 H        5.0180     0.2060     2.8720 H     1 <1>   0.0800 
 42 H        4.6320    -1.1760     1.8460 H     1 <1>   0.0800 
 43 H        2.8650     4.2850     1.7410 H     1 <1>   0.1500 
 44 H        6.5910     7.4580     1.4370 H     1 <1>   0.1500 
 45 H        2.6160     6.5490     2.6140 H     1 <1>   0.1500 
 46 H        8.2840     4.4890     2.1270 H     1 <1>   0.4500 
 47 H        4.4780     8.1410     2.4590 H     1 <1>   0.1500 
 48 H       10.2740     4.0310     0.5580 H     1 <1>   0.1500 
 49 H        9.4160     4.6990    -1.9190 H     1 <1>   0.1500 
 50 H        7.2280     6.2010    -2.6860 H     1 <1>   0.0800 
 51 H        5.8150     6.0350    -1.6670 H     1 <1>   0.0800 
 52 H        6.4260     4.6470    -2.5400 H     1 <1>   0.0800 
@<TRIPOS>BOND
  1   1   2  2   
  2   1   3  2   
  3   1   4  am  
  4   1   5  1   
  5   4   6  1   
  6   4   7  1   
  7   5   8  1   
  8   5  28  1   
  9   5  29  1   
 10   6  30  1   
 11   6  31  1   
 12   6  32  1   
 13   7  33  1   
 14   7  34  1   
 15   7  35  1   
 16   8   9  1   
 17   8  10  1   
 18   8  36  1   
 19   9  11  1   
 20   9  12  1   
 21   9  37  1   
 22  10  13  1   
 23  10  38  1   
 24  10  39  1   
 25  11  14  am  
 26  11  40  1   
 27  12  13  1   
 28  12  41  1   
 29  12  42  1   
 30  14  15  2   
 31  14  16  1   
 32  16  17  ar  
 33  16  18  ar  
 34  17  19  1   
 35  17  20  ar  
 36  18  21  ar  
 37  18  43  1   
 38  19  22  ar  
 39  19  23  ar  
 40  20  24  ar  
 41  20  44  1   
 42  21  24  ar  
 43  21  45  1   
 44  22  25  1   
 45  22  46  1   
 46  23  26  1   
 47  23  27  1   
 48  24  47  1   
 49  25  26  2   
 50  25  48  1   
 51  26  49  1   
 52  27  50  1   
 53  27  51  1   
 54  27  52  1   
@<TRIPOS>SUBSTRUCTURE
  1 ****  14 GROUP 4 **** **** 0

# MOE 2024.06 (io_trps.svl 2023.06)
