@<TRIPOS>MOLECULE
NONAME
25 25 1 0 0 
SMALL
USER_CHARGES


@<TRIPOS>ATOM
  1 O        6.1990     0.4810     1.5570 O.2   1 <1>  -0.5700 
  2 C        5.7180     0.5910     0.4490 C.2   1 <1>   0.5690 
  3 N        5.3020     1.8000    -0.0440 N.am  1 <1>  -0.6600 
  4 C        5.6140    -0.6860    -0.3880 C.3   1 <1>  -0.0190 
  5 C        5.2950     3.0230     0.8130 C.3   1 <1>   0.0600 
  6 C        4.8500     2.0570    -1.4430 C.3   1 <1>   0.0600 
  7 C        5.4340    -1.8830     0.5340 C.3   1 <1>   0.3430 
  8 C        6.9380    -1.0030    -1.0980 C.3   1 <1>  -0.1600 
  9 N        6.8110    -2.1790     0.9920 N.4   1 <1>  -0.9060 
 10 C        7.7310    -1.8920    -0.1370 C.3   1 <1>   0.3430 
 11 H        4.7860    -0.6210    -1.0690 H     1 <1>   0.0800 
 12 H        4.3260     3.4910     0.7770 H     1 <1>   0.0800 
 13 H        6.0350     3.7200     0.4600 H     1 <1>   0.0800 
 14 H        5.5160     2.7810     1.8380 H     1 <1>   0.0800 
 15 H        5.1880     3.0280    -1.7640 H     1 <1>   0.0800 
 16 H        3.7740     2.0350    -1.4870 H     1 <1>   0.0800 
 17 H        5.2500     1.3270    -2.1230 H     1 <1>   0.0800 
 18 H        5.0400    -2.7190    -0.0210 H     1 <1>   0.0800 
 19 H        4.7800    -1.6520     1.3610 H     1 <1>   0.0800 
 20 H        7.4880    -0.1110    -1.3450 H     1 <1>   0.0800 
 21 H        6.7530    -1.5490    -2.0070 H     1 <1>   0.0800 
 22 H        7.0010    -1.4690     1.7250 H     1 <1>   0.4500 
 23 H        6.9260    -3.1130     1.4040 H     1 <1>   0.4500 
 24 H        8.6140    -1.3830     0.2180 H     1 <1>   0.0800 
 25 H        8.0220    -2.8050    -0.6330 H     1 <1>   0.0800 
@<TRIPOS>BOND
  1   1   2  2   
  2   2   3  am  
  3   2   4  1   
  4   3   5  1   
  5   3   6  1   
  6   4   7  1   
  7   4   8  1   
  8   4  11  1   
  9   5  12  1   
 10   5  13  1   
 11   5  14  1   
 12   6  15  1   
 13   6  16  1   
 14   6  17  1   
 15   7   9  1   
 16   7  18  1   
 17   7  19  1   
 18   8  10  1   
 19   8  20  1   
 20   8  21  1   
 21   9  10  1   
 22   9  22  1   
 23   9  23  1   
 24  10  24  1   
 25  10  25  1   
@<TRIPOS>SUBSTRUCTURE
  1 ****   2 GROUP 4 **** **** 0

# MOE 2024.06 (io_trps.svl 2023.06)
