@<TRIPOS>MOLECULE
NONAME
55 59 1 0 0 
SMALL
USER_CHARGES


@<TRIPOS>ATOM
  1 O       -3.9020    -0.6260     2.3690 O.co2 1 <1>  -0.9000 
  2 C       -4.3700     0.4650     2.0160 C.2   1 <1>   0.9790 
  3 O       -5.4970     0.7730     2.4360 O.co2 1 <1>  -0.9000 
  4 C       -3.8990     1.1190     0.8140 C.ar  1 <1>  -0.1790 
  5 C       -4.1540     0.5200    -0.4250 C.ar  1 <1>  -0.1440 
  6 C       -3.2430     2.3480     0.8360 C.ar  1 <1>  -0.1500 
  7 C       -3.7630     1.1410    -1.6000 C.ar  1 <1>  -0.1500 
  8 C       -4.8490    -0.8350    -0.4420 C.3   1 <1>   0.4870 
  9 C       -2.8530     2.9640    -0.3380 C.ar  1 <1>  -0.1500 
 10 C       -3.1130     2.3630    -1.5570 C.ar  1 <1>  -0.1500 
 11 N       -6.1910    -0.7130     0.1840 N.4   1 <1>  -0.9590 
 12 C       -6.5150    -1.9250     0.9980 C.3   1 <1>   0.3430 
 13 C       -7.2540    -0.2320    -0.7250 C.3   1 <1>   0.3430 
 14 C       -7.6240    -1.6840     2.0410 C.3   1 <1>   0.1400 
 15 C       -8.0990     0.8470    -0.0460 C.3   1 <1>  -0.1600 
 16 N       -8.8180    -1.0020     1.4500 N.am  1 <1>  -0.6600 
 17 C       -8.6620     0.4720     1.3300 C.3   1 <1>   0.1400 
 18 C       -9.9400    -1.6390     0.9900 C.2   1 <1>   0.6300 
 19 O      -10.8200    -1.0380     0.4210 O.2   1 <1>  -0.5700 
 20 C      -10.0780    -3.1480     1.1610 C.3   1 <1>  -0.1000 
 21 C       -9.2640    -4.0870     0.3010 C.3   1 <1>  -0.1950 
 22 C      -10.7370    -4.0000     0.1060 C.3   1 <1>  -0.1950 
 23 C       -9.0060    -5.5870     0.5450 C.3   1 <1>   0.0150 
 24 C      -11.2270    -5.4530     0.2500 C.3   1 <1>   0.0150 
 25 C      -10.2650    -6.0280     1.2830 C.3   1 <1>  -0.1600 
 26 C       -9.2210    -6.2950    -0.8050 C.3   1 <1>  -0.1600 
 27 C      -10.7520    -6.2000    -1.0100 C.3   1 <1>  -0.1600 
 28 H       -3.0480     2.8190     1.7850 H     1 <1>   0.1500 
 29 H       -3.9520     0.6840    -2.5550 H     1 <1>   0.1500 
 30 H       -4.2440    -1.5190     0.1330 H     1 <1>   0.0800 
 31 H       -4.9310    -1.2110    -1.4470 H     1 <1>   0.0800 
 32 H       -2.3470     3.9130    -0.3020 H     1 <1>   0.1500 
 33 H       -2.8070     2.8470    -2.4680 H     1 <1>   0.1500 
 34 H       -6.0710     0.0220     0.9240 H     1 <1>   0.4500 
 35 H       -6.8040    -2.7340     0.3510 H     1 <1>   0.0800 
 36 H       -5.6290    -2.2280     1.5370 H     1 <1>   0.0800 
 37 H       -6.8140     0.1850    -1.6160 H     1 <1>   0.0800 
 38 H       -7.8870    -1.0570    -1.0100 H     1 <1>   0.0800 
 39 H       -7.2210    -1.0810     2.8380 H     1 <1>   0.0800 
 40 H       -7.9050    -2.6250     2.4780 H     1 <1>   0.0800 
 41 H       -7.5220     1.7500     0.0490 H     1 <1>   0.0800 
 42 H       -8.9280     1.0720    -0.6930 H     1 <1>   0.0800 
 43 H       -9.6150     0.9530     1.4770 H     1 <1>   0.0800 
 44 H       -8.0010     0.8290     2.1030 H     1 <1>   0.0800 
 45 H      -10.2840    -3.3900     2.1860 H     1 <1>   0.1000 
 46 H       -8.6450    -3.6620    -0.4700 H     1 <1>   0.1000 
 47 H      -11.1300    -3.4900    -0.7590 H     1 <1>   0.1000 
 48 H       -8.0770    -5.8160     1.0390 H     1 <1>   0.0800 
 49 H      -12.2740    -5.5560     0.4790 H     1 <1>   0.0800 
 50 H      -10.3700    -5.5880     2.2580 H     1 <1>   0.0800 
 51 H      -10.3430    -7.0990     1.3690 H     1 <1>   0.0800 
 52 H       -8.6800    -5.8160    -1.6020 H     1 <1>   0.0800 
 53 H       -8.9180    -7.3260    -0.7410 H     1 <1>   0.0800 
 54 H      -11.1870    -7.1840    -1.0480 H     1 <1>   0.0800 
 55 H      -11.0080    -5.6650    -1.9090 H     1 <1>   0.0800 
@<TRIPOS>BOND
  1   1   2  ar  
  2   2   3  ar  
  3   2   4  1   
  4   4   5  ar  
  5   4   6  ar  
  6   5   7  ar  
  7   5   8  1   
  8   6   9  ar  
  9   6  28  1   
 10   7  10  ar  
 11   7  29  1   
 12   8  11  1   
 13   8  30  1   
 14   8  31  1   
 15   9  10  ar  
 16   9  32  1   
 17  10  33  1   
 18  11  12  1   
 19  11  13  1   
 20  11  34  1   
 21  12  14  1   
 22  12  35  1   
 23  12  36  1   
 24  13  15  1   
 25  13  37  1   
 26  13  38  1   
 27  14  16  1   
 28  14  39  1   
 29  14  40  1   
 30  15  17  1   
 31  15  41  1   
 32  15  42  1   
 33  16  17  1   
 34  16  18  am  
 35  17  43  1   
 36  17  44  1   
 37  18  19  2   
 38  18  20  1   
 39  20  21  1   
 40  20  22  1   
 41  20  45  1   
 42  21  22  1   
 43  21  23  1   
 44  21  46  1   
 45  22  24  1   
 46  22  47  1   
 47  23  25  1   
 48  23  26  1   
 49  23  48  1   
 50  24  25  1   
 51  24  27  1   
 52  24  49  1   
 53  25  50  1   
 54  25  51  1   
 55  26  27  1   
 56  26  52  1   
 57  26  53  1   
 58  27  54  1   
 59  27  55  1   
@<TRIPOS>SUBSTRUCTURE
  1 ****  12 GROUP 4 **** **** 0

# MOE 2024.06 (io_trps.svl 2023.06)
