@<TRIPOS>MOLECULE
NONAME
43 45 1 0 0 
SMALL
USER_CHARGES


@<TRIPOS>ATOM
  1 O       -0.5490     0.1910     1.4690 O.2   1 <1>  -0.5700 
  2 C       -1.2370     0.6790     0.6070 C.2   1 <1>   0.5690 
  3 N       -2.0810    -0.0720    -0.1420 N.am  1 <1>  -0.7300 
  4 C       -1.1600     2.1830     0.3590 C.3   1 <1>  -0.0190 
  5 C       -2.2950    -1.5240     0.0320 C.3   1 <1>   0.3200 
  6 C       -2.5200     2.8710     0.5880 C.3   1 <1>  -0.1600 
  7 C       -0.5860     2.5150    -1.0410 C.3   1 <1>  -0.1600 
  8 C       -3.7720    -1.8560    -0.0980 C.2   1 <1>  -0.0400 
  9 C       -2.4180     4.4070     0.4960 C.3   1 <1>   0.2000 
 10 C       -0.9800     3.9130    -1.5570 C.3   1 <1>  -0.1600 
 11 O       -4.1040    -3.1400    -0.2030 O.3   1 <1>  -0.2800 
 12 C       -4.8690    -1.0710    -0.1290 C.2   1 <1>  -0.1500 
 13 O       -3.6320     4.8870    -0.0280 O.3   1 <1>  -0.5600 
 14 C       -1.2470     4.8840    -0.4050 C.3   1 <1>   0.2000 
 15 C       -5.4320    -3.2020    -0.3080 C.ar  1 <1>   0.1400 
 16 C       -5.9770    -1.9320    -0.2680 C.ar  1 <1>   0.0000 
 17 C       -4.6550     5.0470     0.9050 C.3   1 <1>   0.0400 
 18 O       -1.5620     6.1130    -0.9460 O.3   1 <1>  -0.6800 
 19 C       -6.2210    -4.3370    -0.4400 C.ar  1 <1>  -0.1500 
 20 C       -7.3600    -1.7760    -0.3640 C.ar  1 <1>  -0.1500 
 21 C       -7.5890    -4.1750    -0.5360 C.ar  1 <1>  -0.1500 
 22 C       -8.1550    -2.8970    -0.4970 C.ar  1 <1>  -0.1500 
 23 H       -2.6280     0.3580    -0.8870 H     1 <1>   0.3700 
 24 H       -0.4780     2.5790     1.0920 H     1 <1>   0.0800 
 25 H       -1.7450    -2.0520    -0.7270 H     1 <1>   0.0800 
 26 H       -1.9370    -1.8450     0.9960 H     1 <1>   0.0800 
 27 H       -2.8970     2.6000     1.5590 H     1 <1>   0.0800 
 28 H       -3.2140     2.5170    -0.1550 H     1 <1>   0.0800 
 29 H        0.4880     2.4450    -0.9870 H     1 <1>   0.0800 
 30 H       -0.9110     1.7880    -1.7650 H     1 <1>   0.0800 
 31 H       -2.2680     4.8290     1.4750 H     1 <1>   0.0800 
 32 H       -1.8780     3.8290    -2.1460 H     1 <1>   0.0800 
 33 H       -0.1980     4.2990    -2.1880 H     1 <1>   0.0800 
 34 H       -4.9440    -0.0020    -0.0600 H     1 <1>   0.1500 
 35 H       -0.3500     5.0000     0.1780 H     1 <1>   0.0800 
 36 H       -5.5250     5.4130     0.3880 H     1 <1>   0.0800 
 37 H       -4.3500     5.7630     1.6490 H     1 <1>   0.0800 
 38 H       -4.8800     4.0980     1.3610 H     1 <1>   0.0800 
 39 H       -2.5420     6.1250    -1.0340 H     1 <1>   0.4000 
 40 H       -5.7590    -5.3060    -0.4660 H     1 <1>   0.1500 
 41 H       -7.7890    -0.7900    -0.3340 H     1 <1>   0.1500 
 42 H       -8.2290    -5.0350    -0.6400 H     1 <1>   0.1500 
 43 H       -9.2240    -2.7950    -0.5730 H     1 <1>   0.1500 
@<TRIPOS>BOND
  1   1   2  2   
  2   2   3  am  
  3   2   4  1   
  4   3   5  1   
  5   3  23  1   
  6   4   6  1   
  7   4   7  1   
  8   4  24  1   
  9   5   8  1   
 10   5  25  1   
 11   5  26  1   
 12   6   9  1   
 13   6  27  1   
 14   6  28  1   
 15   7  10  1   
 16   7  29  1   
 17   7  30  1   
 18   8  11  1   
 19   8  12  2   
 20   9  13  1   
 21   9  14  1   
 22   9  31  1   
 23  10  14  1   
 24  10  32  1   
 25  10  33  1   
 26  11  15  1   
 27  12  16  1   
 28  12  34  1   
 29  13  17  1   
 30  14  18  1   
 31  14  35  1   
 32  15  16  ar  
 33  15  19  ar  
 34  16  20  ar  
 35  17  36  1   
 36  17  37  1   
 37  17  38  1   
 38  18  39  1   
 39  19  21  ar  
 40  19  40  1   
 41  20  22  ar  
 42  20  41  1   
 43  21  22  ar  
 44  21  42  1   
 45  22  43  1   
@<TRIPOS>SUBSTRUCTURE
  1 ****   3 GROUP 4 **** **** 0

# MOE 2024.06 (io_trps.svl 2023.06)
