@<TRIPOS>MOLECULE
NONAME
46 48 1 0 0 
SMALL
USER_CHARGES


@<TRIPOS>ATOM
  1 F       -0.2260    -0.6940    -0.8990 F     1 <1>  -0.3400 
  2 C       -1.4420    -0.7070    -0.3660 C.3   1 <1>   1.0200 
  3 F       -1.3500    -0.0560     0.7870 F     1 <1>  -0.3400 
  4 F       -2.1990     0.0430    -1.1610 F     1 <1>  -0.3400 
  5 C       -1.9810    -2.1600    -0.2130 C.3   1 <1>   0.1100 
  6 N       -3.2520    -2.3990     0.5530 N.3   1 <1>  -0.8100 
  7 C       -4.4410    -1.8060    -0.1040 C.3   1 <1>   0.1100 
  8 C       -3.4710    -3.8470     0.7680 C.3   1 <1>   0.1100 
  9 C       -5.7390    -2.0490     0.6920 C.3   1 <1>   0.2090 
 10 C       -4.7330    -4.1240     1.6040 C.3   1 <1>   0.2090 
 11 N       -5.9490    -3.5080     0.9730 N.pl3 1 <1>  -0.8380 
 12 C       -7.0610    -4.2220     0.6520 C.ar  1 <1>   0.4100 
 13 N       -6.9270    -5.5210     0.4580 N.ar  1 <1>  -0.6200 
 14 C       -8.3190    -3.5980     0.5360 C.ar  1 <1>  -0.1500 
 15 C       -7.9980    -6.2250     0.1240 C.ar  1 <1>   0.7710 
 16 C       -9.4030    -4.3350     0.1960 C.ar  1 <1>   0.2180 
 17 N       -9.2080    -5.6580    -0.0100 N.ar  1 <1>  -0.1790 
 18 N       -7.8760    -7.5590    -0.0870 N.pl3 1 <1>  -0.8380 
 19 C      -10.8020    -3.7630     0.0470 C.3   1 <1>  -0.0970 
 20 C       -8.9130    -8.5290    -0.5320 C.3   1 <1>   0.2090 
 21 C       -6.5700    -8.2550     0.0840 C.3   1 <1>   0.2090 
 22 C       -8.1420    -9.7870    -0.9070 C.3   1 <1>  -0.1600 
 23 C       -6.8870    -9.7380    -0.0450 C.3   1 <1>  -0.1600 
 24 H       -1.1980    -2.7100     0.2770 H     1 <1>   0.0800 
 25 H       -2.0860    -2.5700    -1.2010 H     1 <1>   0.0800 
 26 H       -4.5560    -2.2170    -1.0920 H     1 <1>   0.0800 
 27 H       -4.3090    -0.7420    -0.1970 H     1 <1>   0.0800 
 28 H       -2.6230    -4.2620     1.2850 H     1 <1>   0.0800 
 29 H       -3.5670    -4.3510    -0.1790 H     1 <1>   0.0800 
 30 H       -6.5570    -1.6470     0.1240 H     1 <1>   0.0800 
 31 H       -5.6810    -1.5140     1.6250 H     1 <1>   0.0800 
 32 H       -4.5970    -3.7020     2.5850 H     1 <1>   0.0800 
 33 H       -4.8510    -5.1850     1.7240 H     1 <1>   0.0800 
 34 H       -8.3990    -2.5480     0.7370 H     1 <1>   0.1500 
 35 H       -9.9570    -6.2880    -0.2580 H     1 <1>   0.4570 
 36 H      -10.7970    -2.7040     0.2430 H     1 <1>   0.0800 
 37 H      -11.4760    -4.2290     0.7440 H     1 <1>   0.0800 
 38 H      -11.1660    -3.9160    -0.9530 H     1 <1>   0.0800 
 39 H       -9.4680    -8.1630    -1.3790 H     1 <1>   0.0800 
 40 H       -9.5790    -8.7460     0.2870 H     1 <1>   0.0800 
 41 H       -6.1280    -8.0330     1.0420 H     1 <1>   0.0800 
 42 H       -5.8970    -7.9470    -0.7000 H     1 <1>   0.0800 
 43 H       -7.8710    -9.7400    -1.9480 H     1 <1>   0.0800 
 44 H       -8.7190   -10.6800    -0.7380 H     1 <1>   0.0800 
 45 H       -7.0930   -10.1390     0.9330 H     1 <1>   0.0800 
 46 H       -6.0680   -10.2850    -0.4790 H     1 <1>   0.0800 
@<TRIPOS>BOND
  1   1   2  1   
  2   2   3  1   
  3   2   4  1   
  4   2   5  1   
  5   5   6  1   
  6   5  24  1   
  7   5  25  1   
  8   6   7  1   
  9   6   8  1   
 10   7   9  1   
 11   7  26  1   
 12   7  27  1   
 13   8  10  1   
 14   8  28  1   
 15   8  29  1   
 16   9  11  1   
 17   9  30  1   
 18   9  31  1   
 19  10  11  1   
 20  10  32  1   
 21  10  33  1   
 22  11  12  1   
 23  12  13  ar  
 24  12  14  ar  
 25  13  15  ar  
 26  14  16  ar  
 27  14  34  1   
 28  15  17  ar  
 29  15  18  1   
 30  16  17  ar  
 31  16  19  1   
 32  17  35  1   
 33  18  20  1   
 34  18  21  1   
 35  19  36  1   
 36  19  37  1   
 37  19  38  1   
 38  20  22  1   
 39  20  39  1   
 40  20  40  1   
 41  21  23  1   
 42  21  41  1   
 43  21  42  1   
 44  22  23  1   
 45  22  43  1   
 46  22  44  1   
 47  23  45  1   
 48  23  46  1   
@<TRIPOS>SUBSTRUCTURE
  1 ****  11 GROUP 4 **** **** 0

# MOE 2024.06 (io_trps.svl 2023.06)
