@<TRIPOS>MOLECULE
NONAME
57 60 1 0 0 
SMALL
USER_CHARGES


@<TRIPOS>ATOM
  1 S        0.6710     0.3000    -2.0550 S.o2  1 <1>   1.4470 
  2 O       -0.6040     0.0650    -2.6980 O.2   1 <1>  -0.6500 
  3 O        1.9000     0.0450    -2.7730 O.2   1 <1>  -0.6500 
  4 N        0.6870     1.9560    -1.6610 N.am  1 <1>  -0.8490 
  5 C        0.7380    -0.5130    -0.4340 C.ar  1 <1>  -0.0090 
  6 C       -0.5630     2.3690    -1.0190 C.3   1 <1>   0.1960 
  7 C        0.9270     2.7610    -2.8610 C.3   1 <1>   0.1960 
  8 C        1.9310    -0.5880     0.2760 C.ar  1 <1>  -0.1500 
  9 C       -0.4020    -1.0520     0.1530 C.ar  1 <1>  -0.1500 
 10 C       -0.3980     3.7870    -0.4790 C.3   1 <1>  -0.1600 
 11 C        1.1760     4.2110    -2.4500 C.3   1 <1>  -0.1600 
 12 C        1.9860    -1.1710     1.5300 C.ar  1 <1>  -0.1500 
 13 C       -0.3570    -1.6350     1.4070 C.ar  1 <1>  -0.1500 
 14 C        0.0250     4.7490    -1.5940 C.3   1 <1>   0.2890 
 15 C        0.8400    -1.6940     2.0980 C.ar  1 <1>  -0.1500 
 16 N        0.3760     6.0690    -1.0260 N.pl3 1 <1>  -0.8690 
 17 C        1.3230     6.4930    -0.1810 C.ar  1 <1>   0.7710 
 18 N        1.3130     7.7780     0.1010 N.ar  1 <1>  -0.6200 
 19 N        2.2220     5.6370     0.3350 N.ar  1 <1>  -0.1790 
 20 C        2.2380     8.2450     0.9200 C.ar  1 <1>   0.4100 
 21 C        3.1740     6.0660     1.1980 C.ar  1 <1>   0.2110 
 22 N        2.2430     9.5800     1.1800 N.pl3 1 <1>  -0.8380 
 23 C        3.1910     7.3850     1.5060 C.ar  1 <1>  -0.1500 
 24 C        3.4830    10.3810     1.4580 C.3   1 <1>   0.2090 
 25 C        1.0190    10.4310     1.0410 C.3   1 <1>   0.2090 
 26 C        3.6990    11.4450     0.3660 C.3   1 <1>   0.2000 
 27 C        1.2210    11.4500    -0.0850 C.3   1 <1>  -0.1600 
 28 O        4.7580    12.2630     0.7190 O.3   1 <1>  -0.6800 
 29 C        2.4630    12.3250     0.1530 C.3   1 <1>  -0.1600 
 30 H       -0.7960     1.7100    -0.1980 H     1 <1>   0.0800 
 31 H       -1.3800     2.3240    -1.7240 H     1 <1>   0.0800 
 32 H        0.0830     2.6910    -3.5310 H     1 <1>   0.0800 
 33 H        1.7970     2.4000    -3.3860 H     1 <1>   0.0800 
 34 H        2.8300    -0.1880    -0.1630 H     1 <1>   0.1500 
 35 H       -1.3400    -1.0190    -0.3780 H     1 <1>   0.1500 
 36 H        0.3190     3.7500     0.3160 H     1 <1>   0.0800 
 37 H       -1.3370     4.1120    -0.0670 H     1 <1>   0.0800 
 38 H        1.2690     4.8100    -3.3380 H     1 <1>   0.0800 
 39 H        2.1140     4.2420    -1.9320 H     1 <1>   0.0800 
 40 H        2.9210    -1.2240     2.0620 H     1 <1>   0.1500 
 41 H       -1.2500    -2.0470     1.8450 H     1 <1>   0.1500 
 42 H       -0.8260     4.8810    -2.2450 H     1 <1>   0.0800 
 43 H        0.8780    -2.1500     3.0730 H     1 <1>   0.1500 
 44 H       -0.2370     6.8270    -1.3480 H     1 <1>   0.4000 
 45 H        2.1290     4.6690     0.0400 H     1 <1>   0.4570 
 46 H        3.8740     5.3570     1.6100 H     1 <1>   0.1500 
 47 H        3.9060     7.7860     2.1980 H     1 <1>   0.1500 
 48 H        4.3530     9.7510     1.4800 H     1 <1>   0.0800 
 49 H        3.3770    10.8610     2.4150 H     1 <1>   0.0800 
 50 H        0.8440    10.9470     1.9700 H     1 <1>   0.0800 
 51 H        0.1490     9.8310     0.8370 H     1 <1>   0.0800 
 52 H        3.9650    10.9530    -0.5540 H     1 <1>   0.0800 
 53 H        0.3490    12.0750    -0.1570 H     1 <1>   0.0800 
 54 H        1.3210    10.9190    -1.0160 H     1 <1>   0.0800 
 55 H        4.4760    12.9190     1.3840 H     1 <1>   0.4000 
 56 H        2.6180    12.9670    -0.6970 H     1 <1>   0.0800 
 57 H        2.2930    12.9350     1.0230 H     1 <1>   0.0800 
@<TRIPOS>BOND
  1   1   2  2   
  2   1   3  2   
  3   1   4  am  
  4   1   5  1   
  5   4   6  1   
  6   4   7  1   
  7   5   8  ar  
  8   5   9  ar  
  9   6  10  1   
 10   6  30  1   
 11   6  31  1   
 12   7  11  1   
 13   7  32  1   
 14   7  33  1   
 15   8  12  ar  
 16   8  34  1   
 17   9  13  ar  
 18   9  35  1   
 19  10  14  1   
 20  10  36  1   
 21  10  37  1   
 22  11  14  1   
 23  11  38  1   
 24  11  39  1   
 25  12  15  ar  
 26  12  40  1   
 27  13  15  ar  
 28  13  41  1   
 29  14  16  1   
 30  14  42  1   
 31  15  43  1   
 32  16  17  1   
 33  16  44  1   
 34  17  18  ar  
 35  17  19  ar  
 36  18  20  ar  
 37  19  21  ar  
 38  19  45  1   
 39  20  22  1   
 40  20  23  ar  
 41  21  23  ar  
 42  21  46  1   
 43  22  24  1   
 44  22  25  1   
 45  23  47  1   
 46  24  26  1   
 47  24  48  1   
 48  24  49  1   
 49  25  27  1   
 50  25  50  1   
 51  25  51  1   
 52  26  28  1   
 53  26  29  1   
 54  26  52  1   
 55  27  29  1   
 56  27  53  1   
 57  27  54  1   
 58  28  55  1   
 59  29  56  1   
 60  29  57  1   
@<TRIPOS>SUBSTRUCTURE
  1 ****  19 GROUP 4 **** **** 0

# MOE 2024.06 (io_trps.svl 2023.06)
