@<TRIPOS>MOLECULE
NONAME
44 46 1 0 0 
SMALL
USER_CHARGES


@<TRIPOS>ATOM
  1 CL       1.1580    -3.5490    -1.9210 Cl    1 <1>  -0.1770 
  2 C       -0.1860    -4.3610    -1.1620 C.ar  1 <1>   0.1770 
  3 C       -1.4760    -3.9640    -1.4540 C.ar  1 <1>  -0.1500 
  4 C        0.0550    -5.3920    -0.2760 C.ar  1 <1>  -0.1500 
  5 C       -2.5380    -4.6120    -0.8490 C.ar  1 <1>  -0.1500 
  6 C       -1.0150    -6.0350     0.3220 C.ar  1 <1>  -0.1500 
  7 C       -2.3360    -5.6660     0.0480 C.ar  1 <1>   0.0530 
  8 C       -3.4420    -6.3520     0.6730 C.2   1 <1>   0.0870 
  9 O       -3.2550    -7.0990     1.7360 O.3   1 <1>  -0.0190 
 10 C       -4.7610    -6.4400     0.3720 C.2   1 <1>  -0.2330 
 11 N       -4.3570    -7.6610     2.1620 N.2   1 <1>  -0.4100 
 12 C       -5.2850    -7.2430     1.3780 C.2   1 <1>   0.3720 
 13 C       -5.4830    -5.9780    -0.7590 C.2   1 <1>   1.0330 
 14 N       -6.6140    -7.6470     1.5440 N.pl3 1 <1>  -0.8210 
 15 O       -6.1100    -4.9120    -0.7400 O.co2 1 <1>  -0.9000 
 16 O       -5.5170    -6.7020    -1.7710 O.co2 1 <1>  -0.9000 
 17 C       -7.2480    -8.4100     0.4150 C.3   1 <1>   0.2090 
 18 C       -7.4660    -6.4890     1.9440 C.3   1 <1>   0.1290 
 19 C       -6.6800    -9.8370     0.2600 C.3   1 <1>   0.3430 
 20 N       -5.1910    -9.8760     0.1490 N.4   1 <1>  -0.9590 
 21 C       -4.6680    -9.3750    -1.1590 C.3   1 <1>   0.3430 
 22 C       -4.5790   -11.1850     0.4490 C.3   1 <1>   0.3430 
 23 C       -3.6050   -10.3780    -1.5870 C.3   1 <1>  -0.1600 
 24 C       -3.2750   -11.1710    -0.3270 C.3   1 <1>  -0.1600 
 25 H       -1.6480    -3.1580    -2.1450 H     1 <1>   0.1500 
 26 H        1.0670    -5.6830    -0.0590 H     1 <1>   0.1500 
 27 H       -3.5380    -4.2860    -1.0790 H     1 <1>   0.1500 
 28 H       -0.8230    -6.8360     1.0130 H     1 <1>   0.1500 
 29 H       -7.1580    -7.8780    -0.5130 H     1 <1>   0.0800 
 30 H       -8.3020    -8.4990     0.6100 H     1 <1>   0.0800 
 31 H       -6.9400    -5.8730     2.6540 H     1 <1>   0.0800 
 32 H       -8.3740    -6.8400     2.4020 H     1 <1>   0.0800 
 33 H       -7.7110    -5.8860     1.0850 H     1 <1>   0.0800 
 34 H       -7.1210   -10.3030    -0.6040 H     1 <1>   0.0800 
 35 H       -6.9800   -10.3970     1.1300 H     1 <1>   0.0800 
 36 H       -4.8610    -9.1980     0.8670 H     1 <1>   0.4500 
 37 H       -4.2150    -8.4070    -1.0250 H     1 <1>   0.0800 
 38 H       -5.4470    -9.2850    -1.8980 H     1 <1>   0.0800 
 39 H       -5.2100   -11.9760     0.0770 H     1 <1>   0.0800 
 40 H       -4.4180   -11.3140     1.5070 H     1 <1>   0.0800 
 41 H       -2.7440    -9.8780    -1.9960 H     1 <1>   0.0800 
 42 H       -4.0200   -11.0240    -2.3410 H     1 <1>   0.0800 
 43 H       -2.9270   -12.1660    -0.5460 H     1 <1>   0.0800 
 44 H       -2.5270   -10.6560     0.2510 H     1 <1>   0.0800 
@<TRIPOS>BOND
  1   1   2  1   
  2   2   3  ar  
  3   2   4  ar  
  4   3   5  ar  
  5   3  25  1   
  6   4   6  ar  
  7   4  26  1   
  8   5   7  ar  
  9   5  27  1   
 10   6   7  ar  
 11   6  28  1   
 12   7   8  1   
 13   8   9  1   
 14   8  10  2   
 15   9  11  1   
 16  10  12  1   
 17  10  13  1   
 18  11  12  2   
 19  12  14  1   
 20  13  15  ar  
 21  13  16  ar  
 22  14  17  1   
 23  14  18  1   
 24  17  19  1   
 25  17  29  1   
 26  17  30  1   
 27  18  31  1   
 28  18  32  1   
 29  18  33  1   
 30  19  20  1   
 31  19  34  1   
 32  19  35  1   
 33  20  21  1   
 34  20  22  1   
 35  20  36  1   
 36  21  23  1   
 37  21  37  1   
 38  21  38  1   
 39  22  24  1   
 40  22  39  1   
 41  22  40  1   
 42  23  24  1   
 43  23  41  1   
 44  23  42  1   
 45  24  43  1   
 46  24  44  1   
@<TRIPOS>SUBSTRUCTURE
  1 ****   8 GROUP 4 **** **** 0

# MOE 2024.06 (io_trps.svl 2023.06)
