@<TRIPOS>MOLECULE
NONAME
37 39 1 0 0 
SMALL
USER_CHARGES


@<TRIPOS>ATOM
  1 O       -0.4990     0.2880    -0.1860 O.2   1 <1>  -0.5700 
  2 C       -1.5520     0.9010    -0.0860 C.2   1 <1>   0.7160 
  3 N       -2.7180     0.1580    -0.1650 N.am  1 <1>  -0.6600 
  4 C       -1.5190     2.3520     0.1080 C.2   1 <1>   0.2030 
  5 C       -4.1000     0.6930    -0.0920 C.3   1 <1>   0.1400 
  6 C       -2.7350    -1.3170    -0.3140 C.3   1 <1>   0.1400 
  7 N       -2.5370     3.1690     0.3400 N.2   1 <1>  -0.7070 
  8 C       -0.3230     3.0860     0.0690 C.2   1 <1>  -0.1500 
  9 C       -5.0090    -0.5280    -0.2500 C.3   1 <1>   0.2000 
 10 C       -4.1440    -1.7330     0.1110 C.3   1 <1>  -0.0800 
 11 N       -1.9880     4.3990     0.4390 N.pl3 1 <1>   0.3000 
 12 C       -0.6440     4.3760     0.2880 C.2   1 <1>  -0.0680 
 13 O       -6.1060    -0.4680     0.5950 O.3   1 <1>  -0.6800 
 14 C       -4.6390    -3.0360    -0.5390 C.3   1 <1>  -0.0170 
 15 N        0.2050     5.4890     0.3440 N.pl3 1 <1>  -0.8840 
 16 C       -3.7720    -4.2200    -0.1450 C.ar  1 <1>   0.1670 
 17 N       -2.6960    -4.4370    -0.8840 N.ar  1 <1>  -0.6200 
 18 C       -4.1250    -5.0050     0.9510 C.ar  1 <1>   0.1600 
 19 C       -2.0030    -5.4800    -0.4570 C.ar  1 <1>   0.1600 
 20 N       -3.4330    -6.0480     1.3800 N.ar  1 <1>  -0.6200 
 21 C       -2.3600    -6.2590     0.6380 C.ar  1 <1>   0.1600 
 22 H       -4.2480     1.1660     0.8630 H     1 <1>   0.0800 
 23 H       -4.2680     1.4020    -0.8850 H     1 <1>   0.0800 
 24 H       -2.5520    -1.5680    -1.3450 H     1 <1>   0.0800 
 25 H       -1.9820    -1.7800     0.3020 H     1 <1>   0.0800 
 26 H        0.6500     2.6630    -0.1060 H     1 <1>   0.1500 
 27 H       -5.3630    -0.5890    -1.2660 H     1 <1>   0.0800 
 28 H       -4.1270    -1.8520     1.1810 H     1 <1>   0.0800 
 29 H       -2.5410     5.2490     0.5860 H     1 <1>   0.2700 
 30 H       -5.8150    -0.3100     1.5140 H     1 <1>   0.4000 
 31 H       -4.6360    -2.9390    -1.6110 H     1 <1>   0.0800 
 32 H       -5.6550    -3.2190    -0.2350 H     1 <1>   0.0800 
 33 H        0.0660     6.1190     1.1420 H     1 <1>   0.4000 
 34 H        1.2020     5.2580     0.2620 H     1 <1>   0.4000 
 35 H       -5.0170    -4.7590     1.4980 H     1 <1>   0.1500 
 36 H       -1.1090    -5.7310    -0.9990 H     1 <1>   0.1500 
 37 H       -1.7300    -7.0880     0.9080 H     1 <1>   0.1500 
@<TRIPOS>BOND
  1   1   2  2   
  2   2   3  am  
  3   2   4  1   
  4   3   5  1   
  5   3   6  1   
  6   4   7  2   
  7   4   8  1   
  8   5   9  1   
  9   5  22  1   
 10   5  23  1   
 11   6  10  1   
 12   6  24  1   
 13   6  25  1   
 14   7  11  1   
 15   8  12  2   
 16   8  26  1   
 17   9  10  1   
 18   9  13  1   
 19   9  27  1   
 20  10  14  1   
 21  10  28  1   
 22  11  12  1   
 23  11  29  1   
 24  12  15  1   
 25  13  30  1   
 26  14  16  1   
 27  14  31  1   
 28  14  32  1   
 29  15  33  1   
 30  15  34  1   
 31  16  17  ar  
 32  16  18  ar  
 33  17  19  ar  
 34  18  20  ar  
 35  18  35  1   
 36  19  21  ar  
 37  19  36  1   
 38  20  21  ar  
 39  21  37  1   
@<TRIPOS>SUBSTRUCTURE
  1 ****   6 GROUP 4 **** **** 0

# MOE 2024.06 (io_trps.svl 2023.06)
