@<TRIPOS>MOLECULE
NONAME
54 56 1 0 0 
SMALL
USER_CHARGES


@<TRIPOS>ATOM
  1 O        0.5380    -0.6480    -1.5240 O.2   1 <1>  -0.5700 
  2 C        1.1440    -0.5030    -0.4910 C.2   1 <1>   0.5690 
  3 N        1.7120     0.6830    -0.1750 N.am  1 <1>  -0.7300 
  4 C        1.3050    -1.6640     0.4880 C.3   1 <1>  -0.0190 
  5 C        1.7990     1.8360    -1.0920 C.3   1 <1>   0.4000 
  6 C        2.6500    -2.3810     0.2690 C.3   1 <1>  -0.1600 
  7 C        0.1440    -2.6770     0.4060 C.3   1 <1>  -0.1600 
  8 C        3.1640     2.5140    -0.9530 C.2   1 <1>   0.2980 
  9 C        0.6610     2.7970    -0.7490 C.3   1 <1>  -0.2400 
 10 C        2.8270    -3.5650     1.2250 C.3   1 <1>   0.1400 
 11 C        0.3520    -3.8490     1.3680 C.3   1 <1>   0.1400 
 12 O        3.5280     3.3660    -1.8780 O.3   1 <1>  -0.0190 
 13 N        4.0090     2.3370    -0.0100 N.2   1 <1>  -0.5650 
 14 N        1.6670    -4.4870     1.0840 N.am  1 <1>  -0.6600 
 15 N        4.7020     3.7630    -1.4950 N.2   1 <1>  -0.4100 
 16 C        4.9720     3.1570    -0.4060 C.2   1 <1>   0.3350 
 17 C        1.8430    -5.7930     0.6840 C.2   1 <1>   0.5770 
 18 C        6.2420     3.3030     0.4100 C.3   1 <1>   0.0210 
 19 O        2.9500    -6.2680     0.5670 O.2   1 <1>  -0.5700 
 20 C        0.6380    -6.6850     0.3810 C.3   1 <1>   0.0530 
 21 C        7.2500     4.2430    -0.2490 C.3   1 <1>   0.1200 
 22 C        0.9300    -8.0540    -0.3010 C.3   1 <1>   0.0000 
 23 C       -0.1330    -6.3070    -0.9140 C.3   1 <1>   0.0000 
 24 O        8.3800     4.3060     0.5600 O.3   1 <1>  -0.5600 
 25 C       -0.3590    -7.8250    -1.1300 C.3   1 <1>   0.0000 
 26 C        9.3800     5.1370     0.0660 C.3   1 <1>   0.0400 
 27 H        2.3330     0.7740     0.6330 H     1 <1>   0.3700 
 28 H        1.3040    -1.2500     1.4810 H     1 <1>   0.0800 
 29 H        1.6870     1.4940    -2.1080 H     1 <1>   0.0800 
 30 H        3.4620    -1.6900     0.4120 H     1 <1>   0.0800 
 31 H        2.7060    -2.7440    -0.7430 H     1 <1>   0.0800 
 32 H        0.0640    -3.0630    -0.5960 H     1 <1>   0.0800 
 33 H       -0.7830    -2.1830     0.6390 H     1 <1>   0.0800 
 34 H        0.7610     3.1510     0.2610 H     1 <1>   0.0800 
 35 H       -0.2850     2.2990    -0.8640 H     1 <1>   0.0800 
 36 H        0.6840     3.6410    -1.4130 H     1 <1>   0.0800 
 37 H        2.8790    -3.2190     2.2430 H     1 <1>   0.0800 
 38 H        3.7500    -4.0720     1.0000 H     1 <1>   0.0800 
 39 H       -0.4570    -4.5470     1.2680 H     1 <1>   0.0800 
 40 H        0.3520    -3.4910     2.3840 H     1 <1>   0.0800 
 41 H        6.6880     2.3330     0.5250 H     1 <1>   0.0800 
 42 H        5.9830     3.6840     1.3800 H     1 <1>   0.0800 
 43 H       -0.0200    -6.8050     1.2260 H     1 <1>   0.0000 
 44 H        6.8350     5.2330    -0.3450 H     1 <1>   0.0800 
 45 H        7.5360     3.8700    -1.2180 H     1 <1>   0.0800 
 46 H        0.8720    -8.8950     0.3670 H     1 <1>   0.0000 
 47 H        1.8100    -8.0560    -0.9220 H     1 <1>   0.0000 
 48 H        0.5000    -5.8700    -1.6690 H     1 <1>   0.0000 
 49 H       -1.0390    -5.7550    -0.7410 H     1 <1>   0.0000 
 50 H       -1.2430    -8.1880    -0.6350 H     1 <1>   0.0000 
 51 H       -0.2790    -8.1350    -2.1570 H     1 <1>   0.0000 
 52 H       10.2040     5.1160     0.7580 H     1 <1>   0.0800 
 53 H        9.0010     6.1410    -0.0170 H     1 <1>   0.0800 
 54 H        9.7040     4.7730    -0.8940 H     1 <1>   0.0800 
@<TRIPOS>BOND
  1   1   2  2   
  2   2   3  am  
  3   2   4  1   
  4   3   5  1   
  5   3  27  1   
  6   4   6  1   
  7   4   7  1   
  8   4  28  1   
  9   5   8  1   
 10   5   9  1   
 11   5  29  1   
 12   6  10  1   
 13   6  30  1   
 14   6  31  1   
 15   7  11  1   
 16   7  32  1   
 17   7  33  1   
 18   8  12  1   
 19   8  13  2   
 20   9  34  1   
 21   9  35  1   
 22   9  36  1   
 23  10  14  1   
 24  10  37  1   
 25  10  38  1   
 26  11  14  1   
 27  11  39  1   
 28  11  40  1   
 29  12  15  1   
 30  13  16  1   
 31  14  17  am  
 32  15  16  2   
 33  16  18  1   
 34  17  19  2   
 35  17  20  1   
 36  18  21  1   
 37  18  41  1   
 38  18  42  1   
 39  20  22  1   
 40  20  23  1   
 41  20  43  1   
 42  21  24  1   
 43  21  44  1   
 44  21  45  1   
 45  22  25  1   
 46  22  46  1   
 47  22  47  1   
 48  23  25  1   
 49  23  48  1   
 50  23  49  1   
 51  24  26  1   
 52  25  50  1   
 53  25  51  1   
 54  26  52  1   
 55  26  53  1   
 56  26  54  1   
@<TRIPOS>SUBSTRUCTURE
  1 ****   6 GROUP 4 **** **** 0

# MOE 2024.06 (io_trps.svl 2023.06)
