@<TRIPOS>MOLECULE
NONAME
38 40 1 0 0 
SMALL
USER_CHARGES


@<TRIPOS>ATOM
  1 CL       0.6140    -2.0920    -2.2120 Cl    1 <1>  -0.1240 
  2 C       -0.5400    -2.8840    -1.1750 C.2   1 <1>   0.1640 
  3 S       -0.6890    -4.6190    -1.3480 S.3   1 <1>  -0.0800 
  4 C       -1.3680    -2.4000    -0.2340 C.2   1 <1>  -0.1500 
  5 C       -1.9230    -4.6660    -0.0930 C.2   1 <1>  -0.1400 
  6 C       -2.1590    -3.4220     0.3860 C.2   1 <1>  -0.1500 
  7 C       -2.4720    -6.0470     0.2090 C.3   1 <1>   0.5230 
  8 N       -3.7060    -5.9420     1.0400 N.4   1 <1>  -0.9590 
  9 C       -4.8470    -5.3410     0.2660 C.3   1 <1>   0.3430 
 10 C       -4.1460    -7.2960     1.4930 C.3   1 <1>   0.3430 
 11 C       -6.0170    -6.3290     0.3680 C.3   1 <1>   0.2000 
 12 C       -5.3480    -7.6770     0.6210 C.3   1 <1>  -0.0800 
 13 O       -6.8130    -6.0020     1.4580 O.3   1 <1>  -0.6800 
 14 C       -4.9540    -8.3460    -0.7170 C.3   1 <1>  -0.0170 
 15 C       -3.9030    -9.4310    -0.5520 C.ar  1 <1>   0.1670 
 16 N       -2.6420    -9.0180    -0.5160 N.ar  1 <1>  -0.6200 
 17 C       -4.2930   -10.7580    -0.4550 C.ar  1 <1>  -0.1500 
 18 C       -1.7340    -9.9780    -0.3970 C.ar  1 <1>   0.1600 
 19 C       -3.3360   -11.7400    -0.3180 C.ar  1 <1>  -0.1500 
 20 C       -2.0220   -11.3270    -0.2920 C.ar  1 <1>  -0.1500 
 21 H       -1.4480    -1.3640     0.0460 H     1 <1>   0.1500 
 22 H       -2.8550    -3.1490     1.1600 H     1 <1>   0.1500 
 23 H       -1.7210    -6.6220     0.7270 H     1 <1>   0.0800 
 24 H       -2.6930    -6.5540    -0.7160 H     1 <1>   0.0800 
 25 H       -3.4760    -5.3570     1.8510 H     1 <1>   0.4500 
 26 H       -5.1310    -4.3750     0.6510 H     1 <1>   0.0800 
 27 H       -4.5660    -5.2340    -0.7690 H     1 <1>   0.0800 
 28 H       -3.3520    -8.0210     1.4420 H     1 <1>   0.0800 
 29 H       -4.4730    -7.2350     2.5180 H     1 <1>   0.0800 
 30 H       -6.6430    -6.3140    -0.5100 H     1 <1>   0.0800 
 31 H       -5.9980    -8.3500     1.1550 H     1 <1>   0.0800 
 32 H       -6.3750    -6.1360     2.3200 H     1 <1>   0.4000 
 33 H       -4.5690    -7.6210    -1.4130 H     1 <1>   0.0800 
 34 H       -5.8340    -8.7690    -1.1700 H     1 <1>   0.0800 
 35 H       -5.3330   -11.0320    -0.4900 H     1 <1>   0.1500 
 36 H       -0.6980    -9.6790    -0.3830 H     1 <1>   0.1500 
 37 H       -3.6010   -12.7810    -0.2400 H     1 <1>   0.1500 
 38 H       -1.2270   -12.0460    -0.1960 H     1 <1>   0.1500 
@<TRIPOS>BOND
  1   1   2  1   
  2   2   3  1   
  3   2   4  2   
  4   3   5  1   
  5   4   6  1   
  6   4  21  1   
  7   5   6  2   
  8   5   7  1   
  9   6  22  1   
 10   7   8  1   
 11   7  23  1   
 12   7  24  1   
 13   8   9  1   
 14   8  10  1   
 15   8  25  1   
 16   9  11  1   
 17   9  26  1   
 18   9  27  1   
 19  10  12  1   
 20  10  28  1   
 21  10  29  1   
 22  11  12  1   
 23  11  13  1   
 24  11  30  1   
 25  12  14  1   
 26  12  31  1   
 27  13  32  1   
 28  14  15  1   
 29  14  33  1   
 30  14  34  1   
 31  15  16  ar  
 32  15  17  ar  
 33  16  18  ar  
 34  17  19  ar  
 35  17  35  1   
 36  18  20  ar  
 37  18  36  1   
 38  19  20  ar  
 39  19  37  1   
 40  20  38  1   
@<TRIPOS>SUBSTRUCTURE
  1 ****   7 GROUP 4 **** **** 0

# MOE 2024.06 (io_trps.svl 2023.06)
