@<TRIPOS>MOLECULE
NONAME
45 47 1 0 0 
SMALL
USER_CHARGES


@<TRIPOS>ATOM
  1 O       -0.2640     0.7740     0.8020 O.2   1 <1>  -0.5700 
  2 C       -0.1940     1.8510     0.2690 C.2   1 <1>   0.5690 
  3 N       -0.6930     2.9530     0.8730 N.am  1 <1>  -0.7300 
  4 C        0.4390     1.9820    -1.1220 C.3   1 <1>   0.1810 
  5 C       -0.6450     4.3080     0.2740 C.3   1 <1>   0.3640 
  6 O        0.7890     3.3110    -1.4470 O.3   1 <1>  -0.5600 
  7 C       -1.9870     5.0000     0.4820 C.ar  1 <1>  -0.1440 
  8 C       -0.2510     4.2540    -1.2210 C.3   1 <1>   0.2610 
  9 C       -2.0160     6.3190     0.9130 C.ar  1 <1>  -0.1500 
 10 C       -3.1860     4.3420     0.2410 C.ar  1 <1>  -0.1500 
 11 C        0.1030     5.6580    -1.7310 C.2   1 <1>   0.5690 
 12 C       -3.2230     6.9680     1.1050 C.ar  1 <1>  -0.1500 
 13 C       -4.3930     4.9910     0.4330 C.ar  1 <1>  -0.1500 
 14 O       -0.6560     6.1370    -2.5430 O.2   1 <1>  -0.5700 
 15 N        1.1980     6.3730    -1.2840 N.am  1 <1>  -0.6600 
 16 C       -4.4120     6.3050     0.8650 C.ar  1 <1>  -0.1500 
 17 C        1.3940     7.7940    -1.6890 C.3   1 <1>   0.1400 
 18 C        2.3220     5.8270    -0.4700 C.3   1 <1>   0.1400 
 19 C        1.5600     8.6660    -0.4430 C.3   1 <1>  -0.1600 
 20 C        2.5010     6.6740     0.7910 C.3   1 <1>  -0.1600 
 21 C        2.6990     8.1490     0.4420 C.3   1 <1>   0.2000 
 22 O        2.7070     8.8500     1.6440 O.3   1 <1>  -0.5600 
 23 C        3.3700    10.0750     1.6220 C.3   1 <1>   0.0400 
 24 H       -1.1430     2.8610     1.7850 H     1 <1>   0.3700 
 25 H       -0.2500     1.6220    -1.8640 H     1 <1>   0.0800 
 26 H        1.3340     1.3880    -1.1630 H     1 <1>   0.0800 
 27 H        0.1030     4.8660     0.8060 H     1 <1>   0.0800 
 28 H       -1.1040     3.9210    -1.7860 H     1 <1>   0.0800 
 29 H       -1.1000     6.8550     1.0990 H     1 <1>   0.1500 
 30 H       -3.1900     3.3200    -0.0970 H     1 <1>   0.1500 
 31 H       -3.2360     7.9920     1.4380 H     1 <1>   0.1500 
 32 H       -5.3180     4.4740     0.2440 H     1 <1>   0.1500 
 33 H       -5.3500     6.8110     1.0130 H     1 <1>   0.1500 
 34 H        2.2710     7.8640    -2.3100 H     1 <1>   0.0800 
 35 H        0.5550     8.1510    -2.2620 H     1 <1>   0.0800 
 36 H        2.1540     4.8050    -0.1900 H     1 <1>   0.0800 
 37 H        3.2230     5.8570    -1.0600 H     1 <1>   0.0800 
 38 H        0.6370     8.6590     0.1100 H     1 <1>   0.0800 
 39 H        1.7620     9.6740    -0.7550 H     1 <1>   0.0800 
 40 H        3.3570     6.3210     1.3360 H     1 <1>   0.0800 
 41 H        1.6340     6.5670     1.4170 H     1 <1>   0.0800 
 42 H        3.6510     8.2750    -0.0490 H     1 <1>   0.0800 
 43 H        3.3260    10.4930     2.6110 H     1 <1>   0.0800 
 44 H        2.8820    10.7380     0.9300 H     1 <1>   0.0800 
 45 H        4.3970     9.9190     1.3410 H     1 <1>   0.0800 
@<TRIPOS>BOND
  1   1   2  2   
  2   2   3  am  
  3   2   4  1   
  4   3   5  1   
  5   3  24  1   
  6   4   6  1   
  7   4  25  1   
  8   4  26  1   
  9   5   7  1   
 10   5   8  1   
 11   5  27  1   
 12   6   8  1   
 13   7   9  ar  
 14   7  10  ar  
 15   8  11  1   
 16   8  28  1   
 17   9  12  ar  
 18   9  29  1   
 19  10  13  ar  
 20  10  30  1   
 21  11  14  2   
 22  11  15  am  
 23  12  16  ar  
 24  12  31  1   
 25  13  16  ar  
 26  13  32  1   
 27  15  17  1   
 28  15  18  1   
 29  16  33  1   
 30  17  19  1   
 31  17  34  1   
 32  17  35  1   
 33  18  20  1   
 34  18  36  1   
 35  18  37  1   
 36  19  21  1   
 37  19  38  1   
 38  19  39  1   
 39  20  21  1   
 40  20  40  1   
 41  20  41  1   
 42  21  22  1   
 43  21  42  1   
 44  22  23  1   
 45  23  43  1   
 46  23  44  1   
 47  23  45  1   
@<TRIPOS>SUBSTRUCTURE
  1 ****   5 GROUP 4 **** **** 0

# MOE 2024.06 (io_trps.svl 2023.06)
