@<TRIPOS>MOLECULE
NONAME
52 55 1 0 0 
SMALL
USER_CHARGES


@<TRIPOS>ATOM
  1 O        0.1880     0.1650     0.2170 O.2   1 <1>  -0.5700 
  2 C       -0.7590     0.7350    -0.2650 C.2   1 <1>   0.5690 
  3 N       -1.9560     0.1000    -0.4470 N.am  1 <1>  -0.6600 
  4 C       -0.5850     2.1950    -0.6360 C.3   1 <1>  -0.0990 
  5 C       -3.2350     0.6910    -0.9150 C.3   1 <1>   0.1400 
  6 C       -2.1720    -1.3090    -0.0270 C.3   1 <1>   0.1400 
  7 C       -0.8450     3.0960     0.5790 C.3   1 <1>  -0.0220 
  8 C       -4.3040    -0.1820    -0.2640 C.3   1 <1>   0.2000 
  9 C       -3.6670    -1.5770    -0.2510 C.3   1 <1>  -0.0800 
 10 C       -0.5640     4.5660     0.2500 C.2   1 <1>  -0.1240 
 11 O       -4.4780     0.2660     1.0370 O.3   1 <1>  -0.6800 
 12 C       -4.2850    -2.5620     0.7600 C.3   1 <1>   0.0200 
 13 C       -1.6340     5.4220    -0.1930 C.2   1 <1>   0.3750 
 14 C        0.6960     5.0900     0.3680 C.2   1 <1>  -0.1690 
 15 C       -3.7250    -3.9690     0.6420 C.2   1 <1>  -0.0400 
 16 N       -1.4760     6.6710    -0.4770 N.2   1 <1>  -0.5760 
 17 C       -3.0460     4.8890    -0.3590 C.3   1 <1>  -0.1790 
 18 N        0.8470     6.4370     0.0680 N.pl3 1 <1>   0.6010 
 19 C        1.9700     4.3520     0.7930 C.3   1 <1>  -0.1020 
 20 O       -4.0790    -4.8590     1.5300 O.3   1 <1>  -0.0190 
 21 C       -2.8900    -4.5690    -0.2230 C.2   1 <1>  -0.1500 
 22 C       -0.2160     7.1820    -0.3390 C.2   1 <1>   0.3120 
 23 N        1.9260     7.2170     0.1010 N.2   1 <1>  -0.7070 
 24 N       -3.5270    -6.0170     1.3100 N.2   1 <1>  -0.4100 
 25 C       -2.8030    -5.8720     0.2590 C.2   1 <1>   0.1080 
 26 N        0.1400     8.4060    -0.5680 N.2   1 <1>  -0.5650 
 27 C        1.4400     8.3560    -0.2830 C.2   1 <1>   0.3660 
 28 C       -1.9740    -6.9740    -0.3610 C.3   1 <1>  -0.0590 
 29 H        0.4270     2.3320    -0.9720 H     1 <1>   0.0800 
 30 H       -1.2300     2.4550    -1.4520 H     1 <1>   0.0800 
 31 H       -3.3450     1.7210    -0.6250 H     1 <1>   0.0800 
 32 H       -3.2910     0.6050    -1.9860 H     1 <1>   0.0800 
 33 H       -1.5560    -1.9710    -0.6100 H     1 <1>   0.0800 
 34 H       -1.9100    -1.4110     1.0130 H     1 <1>   0.0800 
 35 H       -0.2180     2.7780     1.3930 H     1 <1>   0.0800 
 36 H       -1.8510     2.9570     0.9280 H     1 <1>   0.0800 
 37 H       -5.2520    -0.1440    -0.7720 H     1 <1>   0.0800 
 38 H       -3.7800    -1.9900    -1.2380 H     1 <1>   0.0800 
 39 H       -3.6090     0.2770     1.4870 H     1 <1>   0.4000 
 40 H       -5.3490    -2.6080     0.6080 H     1 <1>   0.0800 
 41 H       -4.1170    -2.2150     1.7640 H     1 <1>   0.0800 
 42 H       -3.0550     4.0610    -1.0410 H     1 <1>   0.0800 
 43 H       -3.6870     5.6550    -0.7590 H     1 <1>   0.0800 
 44 H       -3.4450     4.5880     0.5920 H     1 <1>   0.0800 
 45 H        2.7440     4.5150     0.0630 H     1 <1>   0.0800 
 46 H        1.8350     3.2920     0.8860 H     1 <1>   0.0800 
 47 H        2.3150     4.7360     1.7370 H     1 <1>   0.0800 
 48 H       -2.3870    -4.1860    -1.0910 H     1 <1>   0.1500 
 49 H        2.0490     9.2420    -0.3740 H     1 <1>   0.1500 
 50 H       -0.9420    -6.6780    -0.3950 H     1 <1>   0.0800 
 51 H       -2.3200    -7.1740    -1.3580 H     1 <1>   0.0800 
 52 H       -2.0600    -7.8710     0.2250 H     1 <1>   0.0800 
@<TRIPOS>BOND
  1   1   2  2   
  2   2   3  am  
  3   2   4  1   
  4   3   5  1   
  5   3   6  1   
  6   4   7  1   
  7   4  29  1   
  8   4  30  1   
  9   5   8  1   
 10   5  31  1   
 11   5  32  1   
 12   6   9  1   
 13   6  33  1   
 14   6  34  1   
 15   7  10  1   
 16   7  35  1   
 17   7  36  1   
 18   8   9  1   
 19   8  11  1   
 20   8  37  1   
 21   9  12  1   
 22   9  38  1   
 23  10  13  1   
 24  10  14  2   
 25  11  39  1   
 26  12  15  1   
 27  12  40  1   
 28  12  41  1   
 29  13  16  2   
 30  13  17  1   
 31  14  18  1   
 32  14  19  1   
 33  15  20  1   
 34  15  21  2   
 35  16  22  1   
 36  17  42  1   
 37  17  43  1   
 38  17  44  1   
 39  18  22  1   
 40  18  23  1   
 41  19  45  1   
 42  19  46  1   
 43  19  47  1   
 44  20  24  1   
 45  21  25  1   
 46  21  48  1   
 47  22  26  2   
 48  23  27  2   
 49  24  25  2   
 50  25  28  1   
 51  26  27  1   
 52  27  49  1   
 53  28  50  1   
 54  28  51  1   
 55  28  52  1   
@<TRIPOS>SUBSTRUCTURE
  1 ****   2 GROUP 4 **** **** 0

# MOE 2024.06 (io_trps.svl 2023.06)
