@<TRIPOS>MOLECULE
NONAME
45 47 1 0 0 
SMALL
USER_CHARGES


@<TRIPOS>ATOM
  1 O        0.0380    -0.4920    -1.5330 O.2   1 <1>  -0.5700 
  2 C        1.0570     0.0900    -1.2010 C.2   1 <1>   0.5440 
  3 N        0.9410     1.3470    -0.6480 N.am  1 <1>  -0.6600 
  4 C        2.3460    -0.5330    -1.3860 C.ar  1 <1>   0.0860 
  5 C       -0.3690     2.0120    -0.4710 C.3   1 <1>   0.1400 
  6 C        1.9770     1.9900     0.1900 C.3   1 <1>   0.1400 
  7 C        2.6030    -1.8240    -0.8900 C.ar  1 <1>   0.4100 
  8 C        3.3730     0.1240    -2.0510 C.ar  1 <1>  -0.1500 
  9 C       -0.0700     3.2550     0.3590 C.3   1 <1>  -0.1600 
 10 C        1.2010     2.9080     1.1280 C.3   1 <1>  -0.1600 
 11 N        3.7820    -2.4360    -0.9950 N.ar  1 <1>  -0.6200 
 12 N        1.6110    -2.5260    -0.2480 N.pl3 1 <1>  -0.8690 
 13 C        4.5860    -0.5150    -2.1670 C.ar  1 <1>  -0.1500 
 14 C        4.7350    -1.7780    -1.6240 C.ar  1 <1>   0.1600 
 15 C        1.6390    -3.9750    -0.0080 C.3   1 <1>   0.4330 
 16 C        0.2240    -4.5090    -0.2070 C.ar  1 <1>  -0.1430 
 17 C        2.1610    -4.2290     1.4130 C.3   1 <1>  -0.1600 
 18 C       -0.8680    -3.9940     0.4660 C.ar  1 <1>  -0.1500 
 19 C       -0.0410    -5.5460    -1.0810 C.ar  1 <1>  -0.1500 
 20 C        2.2410    -5.7210     1.7730 C.3   1 <1>  -0.2400 
 21 C       -2.1260    -4.5270     0.2460 C.ar  1 <1>   0.1600 
 22 C       -1.3380    -6.0060    -1.2280 C.ar  1 <1>   0.1600 
 23 N       -2.3880    -5.5250    -0.5830 N.ar  1 <1>  -0.6200 
 24 H       -1.0310     1.3490     0.0620 H     1 <1>   0.0800 
 25 H       -0.8020     2.2600    -1.4250 H     1 <1>   0.0800 
 26 H        2.6310     2.5690    -0.4390 H     1 <1>   0.0800 
 27 H        2.5470     1.2590     0.7390 H     1 <1>   0.0800 
 28 H        3.2150     1.1050    -2.4630 H     1 <1>   0.1500 
 29 H       -0.8890     3.5060     1.0100 H     1 <1>   0.0800 
 30 H        0.1160     4.0810    -0.3050 H     1 <1>   0.0800 
 31 H        1.7700     3.7790     1.3980 H     1 <1>   0.0800 
 32 H        0.9500     2.3620     2.0210 H     1 <1>   0.0800 
 33 H        0.6620    -2.2060    -0.4880 H     1 <1>   0.4000 
 34 H        5.4110    -0.0440    -2.6730 H     1 <1>   0.1500 
 35 H        5.6880    -2.2700    -1.7140 H     1 <1>   0.1500 
 36 H        2.2990    -4.4460    -0.7180 H     1 <1>   0.0800 
 37 H        1.5250    -3.7270     2.1200 H     1 <1>   0.0800 
 38 H        3.1460    -3.8020     1.4890 H     1 <1>   0.0800 
 39 H       -0.7480    -3.1810     1.1600 H     1 <1>   0.1500 
 40 H        0.7510    -5.9990    -1.6500 H     1 <1>   0.1500 
 41 H        1.2630    -6.1700     1.7570 H     1 <1>   0.0800 
 42 H        2.6510    -5.8370     2.7610 H     1 <1>   0.0800 
 43 H        2.8750    -6.2410     1.0770 H     1 <1>   0.0800 
 44 H       -2.9620    -4.1080     0.7790 H     1 <1>   0.1500 
 45 H       -1.5220    -6.8140    -1.9150 H     1 <1>   0.1500 
@<TRIPOS>BOND
  1   1   2  2   
  2   2   3  am  
  3   2   4  1   
  4   3   5  1   
  5   3   6  1   
  6   4   7  ar  
  7   4   8  ar  
  8   5   9  1   
  9   5  24  1   
 10   5  25  1   
 11   6  10  1   
 12   6  26  1   
 13   6  27  1   
 14   7  11  ar  
 15   7  12  1   
 16   8  13  ar  
 17   8  28  1   
 18   9  10  1   
 19   9  29  1   
 20   9  30  1   
 21  10  31  1   
 22  10  32  1   
 23  11  14  ar  
 24  12  15  1   
 25  12  33  1   
 26  13  14  ar  
 27  13  34  1   
 28  14  35  1   
 29  15  16  1   
 30  15  17  1   
 31  15  36  1   
 32  16  18  ar  
 33  16  19  ar  
 34  17  20  1   
 35  17  37  1   
 36  17  38  1   
 37  18  21  ar  
 38  18  39  1   
 39  19  22  ar  
 40  19  40  1   
 41  20  41  1   
 42  20  42  1   
 43  20  43  1   
 44  21  23  ar  
 45  21  44  1   
 46  22  23  ar  
 47  22  45  1   
@<TRIPOS>SUBSTRUCTURE
  1 ****  12 GROUP 4 **** **** 0

# MOE 2024.06 (io_trps.svl 2023.06)
