@<TRIPOS>MOLECULE
NONAME
52 54 1 0 0 
SMALL
USER_CHARGES


@<TRIPOS>ATOM
  1 O       -1.0110    -2.1880    -1.6390 O.co2 1 <1>  -0.9000 
  2 C       -2.2110    -1.9740    -1.4700 C.2   1 <1>   0.9060 
  3 O       -2.9930    -1.6790    -2.3870 O.co2 1 <1>  -0.9000 
  4 C       -2.7790    -1.9680    -0.0440 C.3   1 <1>   0.2370 
  5 N       -3.9970    -1.0760     0.0960 N.4   1 <1>  -0.9590 
  6 C       -4.8810    -1.3230     1.2680 C.3   1 <1>   0.3430 
  7 C       -3.6790     0.3480    -0.1920 C.3   1 <1>   0.3430 
  8 C       -6.3330    -0.8790     0.9530 C.3   1 <1>   0.1900 
  9 C       -4.9200     1.1910    -0.5440 C.3   1 <1>  -0.0800 
 10 N       -6.5410    -0.7850    -0.5310 N.3   1 <1>  -0.8100 
 11 C       -6.7010     0.4050     1.7190 C.3   1 <1>   0.1200 
 12 C       -5.3990     2.0500     0.6370 C.3   1 <1>   0.1200 
 13 C       -6.0790     0.4350    -1.2290 C.3   1 <1>   0.1100 
 14 C       -7.8290    -1.2870    -1.0330 C.3   1 <1>   0.2530 
 15 O       -5.6200     1.2880     1.7770 O.3   1 <1>  -0.5600 
 16 C       -7.9710    -2.7550    -0.6820 C.ar  1 <1>  -0.1430 
 17 C       -7.0110    -3.6720    -1.0450 C.ar  1 <1>   0.1600 
 18 C       -9.0460    -3.2320     0.0320 C.ar  1 <1>   0.1600 
 19 N       -7.0920    -4.9380    -0.7130 N.ar  1 <1>  -0.6200 
 20 N       -9.1570    -4.4920     0.3740 N.ar  1 <1>  -0.6200 
 21 C       -8.1640    -5.2840    -0.0170 C.ar  1 <1>   0.7200 
 22 N       -8.2110    -6.5940     0.3060 N.pl3 1 <1>  -0.8690 
 23 C       -9.4150    -7.3370     0.6760 C.3   1 <1>   0.2890 
 24 C       -9.0140    -8.3970     1.6940 C.3   1 <1>  -0.2400 
 25 C       -9.9890    -7.9700    -0.5870 C.3   1 <1>  -0.2400 
 26 H       -1.9990    -1.6480     0.6220 H     1 <1>   0.0800 
 27 H       -3.0390    -2.9830     0.1940 H     1 <1>   0.0800 
 28 H       -4.5860    -1.3310    -0.7250 H     1 <1>   0.4500 
 29 H       -4.8940    -2.3780     1.4820 H     1 <1>   0.0800 
 30 H       -4.5100    -0.8080     2.1380 H     1 <1>   0.0800 
 31 H       -3.1620     0.7860     0.6450 H     1 <1>   0.0800 
 32 H       -3.0150     0.3770    -1.0430 H     1 <1>   0.0800 
 33 H       -6.9730    -1.6490     1.3460 H     1 <1>   0.0800 
 34 H       -4.5800     1.9060    -1.2720 H     1 <1>   0.0800 
 35 H       -6.9340     0.1490     2.7370 H     1 <1>   0.0800 
 36 H       -7.5580     0.8960     1.2910 H     1 <1>   0.0800 
 37 H       -6.3020     2.5860     0.3950 H     1 <1>   0.0800 
 38 H       -4.6410     2.7720     0.8890 H     1 <1>   0.0800 
 39 H       -5.7570     0.1460    -2.2170 H     1 <1>   0.0800 
 40 H       -6.9080     1.1120    -1.3490 H     1 <1>   0.0800 
 41 H       -8.6360    -0.7110    -0.6110 H     1 <1>   0.0800 
 42 H       -7.8640    -1.1870    -2.1050 H     1 <1>   0.0800 
 43 H       -6.1520    -3.3540    -1.6140 H     1 <1>   0.1500 
 44 H       -9.8350    -2.5660     0.3370 H     1 <1>   0.1500 
 45 H       -7.4840    -7.1330    -0.1570 H     1 <1>   0.4000 
 46 H      -10.1440    -6.6760     1.1170 H     1 <1>   0.0800 
 47 H       -8.2900    -9.0720     1.2760 H     1 <1>   0.0800 
 48 H       -9.8780    -8.9600     1.9950 H     1 <1>   0.0800 
 49 H       -8.5980    -7.9230     2.5650 H     1 <1>   0.0800 
 50 H       -9.2760    -8.6350    -1.0380 H     1 <1>   0.0800 
 51 H      -10.2530    -7.2000    -1.2900 H     1 <1>   0.0800 
 52 H      -10.8760    -8.5250    -0.3450 H     1 <1>   0.0800 
@<TRIPOS>BOND
  1   1   2  ar  
  2   2   3  ar  
  3   2   4  1   
  4   4   5  1   
  5   4  26  1   
  6   4  27  1   
  7   5   6  1   
  8   5   7  1   
  9   5  28  1   
 10   6   8  1   
 11   6  29  1   
 12   6  30  1   
 13   7   9  1   
 14   7  31  1   
 15   7  32  1   
 16   8  10  1   
 17   8  11  1   
 18   8  33  1   
 19   9  12  1   
 20   9  13  1   
 21   9  34  1   
 22  10  13  1   
 23  10  14  1   
 24  11  15  1   
 25  11  35  1   
 26  11  36  1   
 27  12  15  1   
 28  12  37  1   
 29  12  38  1   
 30  13  39  1   
 31  13  40  1   
 32  14  16  1   
 33  14  41  1   
 34  14  42  1   
 35  16  17  ar  
 36  16  18  ar  
 37  17  19  ar  
 38  17  43  1   
 39  18  20  ar  
 40  18  44  1   
 41  19  21  ar  
 42  20  21  ar  
 43  21  22  1   
 44  22  23  1   
 45  22  45  1   
 46  23  24  1   
 47  23  25  1   
 48  23  46  1   
 49  24  47  1   
 50  24  48  1   
 51  24  49  1   
 52  25  50  1   
 53  25  51  1   
 54  25  52  1   
@<TRIPOS>SUBSTRUCTURE
  1 ****  17 GROUP 4 **** **** 0

# MOE 2024.06 (io_trps.svl 2023.06)
