@<TRIPOS>MOLECULE
NONAME
44 45 1 0 0 
SMALL
USER_CHARGES


@<TRIPOS>ATOM
  1 CL      -2.1500    -0.4820    -0.7240 Cl    1 <1>  -0.1770 
  2 C       -1.9380    -2.1820    -0.3910 C.ar  1 <1>   0.1770 
  3 C       -2.8650    -3.0860    -0.8730 C.ar  1 <1>  -0.1500 
  4 C       -0.8470    -2.6000     0.3500 C.ar  1 <1>  -0.1500 
  5 C       -2.6650    -4.4230    -0.5900 C.ar  1 <1>   0.1900 
  6 C       -0.6700    -3.9490     0.6200 C.ar  1 <1>  -0.1500 
  7 F       -3.5430    -5.2820    -1.0460 F     1 <1>  -0.1900 
  8 C       -1.5790    -4.8960     0.1510 C.ar  1 <1>   0.1170 
  9 N       -1.4440    -6.2750     0.4000 N.am  1 <1>  -0.5470 
 10 C       -0.4180    -7.0500     0.8590 C.2   1 <1>   0.5690 
 11 O        0.6650    -6.6220     1.1790 O.2   1 <1>  -0.5700 
 12 C       -0.6890    -8.5530     0.9530 C.3   1 <1>   0.1710 
 13 N       -1.8340    -9.0100     0.1100 N.3   1 <1>  -0.8100 
 14 C       -2.3120   -10.3370     0.5600 C.3   1 <1>   0.1100 
 15 C       -1.4570    -9.0580    -1.3150 C.3   1 <1>   0.1100 
 16 C       -3.5520   -10.7830    -0.2290 C.3   1 <1>   0.2000 
 17 C       -2.6800    -9.4190    -2.1640 C.3   1 <1>  -0.1600 
 18 O       -3.8620   -12.0840     0.1700 O.3   1 <1>  -0.5600 
 19 C       -3.2790   -10.7690    -1.7400 C.3   1 <1>  -0.1600 
 20 C       -5.1890   -12.4600    -0.0090 C.3   1 <1>   0.1200 
 21 C       -5.3420   -13.8880     0.5100 C.3   1 <1>  -0.1600 
 22 C       -6.7830   -14.3880     0.3560 C.3   1 <1>  -0.2400 
 23 H       -3.7110    -2.7590    -1.4470 H     1 <1>   0.1500 
 24 H       -0.1410    -1.8730     0.7140 H     1 <1>   0.1500 
 25 H        0.1800    -4.2580     1.2010 H     1 <1>   0.1500 
 26 H       -2.2390    -6.8590     0.1090 H     1 <1>   0.3700 
 27 H       -0.9010    -8.7650     1.9860 H     1 <1>   0.0800 
 28 H        0.2050    -9.0880     0.6850 H     1 <1>   0.0800 
 29 H       -2.5740   -10.2900     1.6030 H     1 <1>   0.0800 
 30 H       -1.5300   -11.0670     0.4310 H     1 <1>   0.0800 
 31 H       -0.6800    -9.7900    -1.4650 H     1 <1>   0.0800 
 32 H       -1.0810    -8.1000    -1.6320 H     1 <1>   0.0800 
 33 H       -4.3710   -10.1310     0.0210 H     1 <1>   0.0800 
 34 H       -2.3930    -9.4630    -3.1990 H     1 <1>   0.0800 
 35 H       -3.4170    -8.6420    -2.0590 H     1 <1>   0.0800 
 36 H       -4.1890   -10.9390    -2.2860 H     1 <1>   0.0800 
 37 H       -2.5810   -11.5530    -1.9760 H     1 <1>   0.0800 
 38 H       -5.4310   -12.4130    -1.0560 H     1 <1>   0.0800 
 39 H       -5.8190   -11.7860     0.5470 H     1 <1>   0.0800 
 40 H       -5.0650   -13.9170     1.5500 H     1 <1>   0.0800 
 41 H       -4.6810   -14.5350    -0.0400 H     1 <1>   0.0800 
 42 H       -7.4600   -13.7630     0.9120 H     1 <1>   0.0800 
 43 H       -6.8630   -15.3940     0.7280 H     1 <1>   0.0800 
 44 H       -7.0750   -14.3830    -0.6790 H     1 <1>   0.0800 
@<TRIPOS>BOND
  1   1   2  1   
  2   2   3  ar  
  3   2   4  ar  
  4   3   5  ar  
  5   3  23  1   
  6   4   6  ar  
  7   4  24  1   
  8   5   7  1   
  9   5   8  ar  
 10   6   8  ar  
 11   6  25  1   
 12   8   9  1   
 13   9  10  am  
 14   9  26  1   
 15  10  11  2   
 16  10  12  1   
 17  12  13  1   
 18  12  27  1   
 19  12  28  1   
 20  13  14  1   
 21  13  15  1   
 22  14  16  1   
 23  14  29  1   
 24  14  30  1   
 25  15  17  1   
 26  15  31  1   
 27  15  32  1   
 28  16  18  1   
 29  16  19  1   
 30  16  33  1   
 31  17  19  1   
 32  17  34  1   
 33  17  35  1   
 34  18  20  1   
 35  19  36  1   
 36  19  37  1   
 37  20  21  1   
 38  20  38  1   
 39  20  39  1   
 40  21  22  1   
 41  21  40  1   
 42  21  41  1   
 43  22  42  1   
 44  22  43  1   
 45  22  44  1   
@<TRIPOS>SUBSTRUCTURE
  1 ****  13 GROUP 4 **** **** 0

# MOE 2024.06 (io_trps.svl 2023.06)
