@<TRIPOS>MOLECULE
NONAME
46 48 1 0 0 
SMALL
USER_CHARGES


@<TRIPOS>ATOM
  1 F        0.1780    -0.1530     0.3730 F     1 <1>  -0.3400 
  2 C        0.9500    -1.2300     0.2550 C.3   1 <1>   1.2010 
  3 F        1.3710    -1.5080     1.4870 F     1 <1>  -0.3400 
  4 F        2.0300    -0.8460    -0.4200 F     1 <1>  -0.3400 
  5 C        0.2130    -2.4320    -0.4040 C.2   1 <1>   0.1080 
  6 N       -0.3120    -2.4560    -1.6120 N.2   1 <1>  -0.7070 
  7 C        0.0220    -3.6550     0.2310 C.2   1 <1>  -0.1500 
  8 N       -0.8250    -3.6860    -1.7480 N.pl3 1 <1>   0.3000 
  9 C       -0.6570    -4.4450    -0.6440 C.2   1 <1>  -0.2370 
 10 C       -1.1150    -5.7960    -0.5320 C.2   1 <1>   0.7150 
 11 O       -0.6060    -6.5600     0.2680 O.2   1 <1>  -0.5700 
 12 N       -2.1540    -6.2710    -1.2980 N.am  1 <1>  -0.6600 
 13 C       -2.2610    -7.7430    -1.5070 C.3   1 <1>   0.1400 
 14 C       -3.4730    -5.5800    -1.2640 C.3   1 <1>   0.1400 
 15 C       -3.0820    -8.3680    -0.3530 C.3   1 <1>   0.4230 
 16 C       -4.3090    -6.1800    -0.1240 C.3   1 <1>  -0.1600 
 17 N       -3.0900    -9.8910    -0.3510 N.4   1 <1>  -0.9590 
 18 C       -4.4950    -7.7230    -0.2270 C.3   1 <1>   0.0000 
 19 C       -4.1820   -10.4960     0.4800 C.3   1 <1>   0.3430 
 20 C       -3.0540   -10.5450    -1.7000 C.3   1 <1>   0.2630 
 21 C       -5.1780    -8.2300     1.0770 C.3   1 <1>  -0.1600 
 22 C       -5.3620    -8.0850    -1.4670 C.3   1 <1>   0.1200 
 23 C       -4.5980    -9.5540     1.6090 C.3   1 <1>  -0.1600 
 24 O       -6.5310    -7.3450    -1.5080 O.3   1 <1>  -0.6800 
 25 H        0.3510    -3.9230     1.2220 H     1 <1>   0.1500 
 26 H       -1.2830    -3.9980    -2.6140 H     1 <1>   0.2700 
 27 H       -2.7160    -7.9240    -2.4630 H     1 <1>   0.0800 
 28 H       -1.2720    -8.1680    -1.5170 H     1 <1>   0.0800 
 29 H       -3.3440    -4.5250    -1.0890 H     1 <1>   0.0800 
 30 H       -3.9780    -5.7010    -2.2080 H     1 <1>   0.0800 
 31 H       -2.5600    -8.0740     0.5440 H     1 <1>   0.0800 
 32 H       -3.8150    -5.9330     0.8000 H     1 <1>   0.0800 
 33 H       -5.2640    -5.6830    -0.0980 H     1 <1>   0.0800 
 34 H       -2.2090   -10.1420     0.1230 H     1 <1>   0.4500 
 35 H       -5.0450   -10.6900    -0.1360 H     1 <1>   0.0800 
 36 H       -3.8510   -11.4360     0.8920 H     1 <1>   0.0800 
 37 H       -3.9310   -10.2870    -2.2700 H     1 <1>   0.0800 
 38 H       -3.0190   -11.6180    -1.5940 H     1 <1>   0.0800 
 39 H       -2.1800   -10.2340    -2.2490 H     1 <1>   0.0800 
 40 H       -5.0840    -7.5010     1.8650 H     1 <1>   0.0800 
 41 H       -6.2350    -8.3530     0.9160 H     1 <1>   0.0800 
 42 H       -5.6390    -9.1240    -1.4660 H     1 <1>   0.0800 
 43 H       -4.8440    -7.8750    -2.3850 H     1 <1>   0.0800 
 44 H       -5.3360   -10.0410     2.2240 H     1 <1>   0.0800 
 45 H       -3.7450    -9.3600     2.2380 H     1 <1>   0.0800 
 46 H       -7.1140    -7.5270    -0.7440 H     1 <1>   0.4000 
@<TRIPOS>BOND
  1   1   2  1   
  2   2   3  1   
  3   2   4  1   
  4   2   5  1   
  5   5   6  2   
  6   5   7  1   
  7   6   8  1   
  8   7   9  2   
  9   7  25  1   
 10   8   9  1   
 11   8  26  1   
 12   9  10  1   
 13  10  11  2   
 14  10  12  am  
 15  12  13  1   
 16  12  14  1   
 17  13  15  1   
 18  13  27  1   
 19  13  28  1   
 20  14  16  1   
 21  14  29  1   
 22  14  30  1   
 23  15  17  1   
 24  15  18  1   
 25  15  31  1   
 26  16  18  1   
 27  16  32  1   
 28  16  33  1   
 29  17  19  1   
 30  17  20  1   
 31  17  34  1   
 32  18  21  1   
 33  18  22  1   
 34  19  23  1   
 35  19  35  1   
 36  19  36  1   
 37  20  37  1   
 38  20  38  1   
 39  20  39  1   
 40  21  23  1   
 41  21  40  1   
 42  21  41  1   
 43  22  24  1   
 44  22  42  1   
 45  22  43  1   
 46  23  44  1   
 47  23  45  1   
 48  24  46  1   
@<TRIPOS>SUBSTRUCTURE
  1 ****  10 GROUP 4 **** **** 0

# MOE 2024.06 (io_trps.svl 2023.06)
