@<TRIPOS>MOLECULE
NONAME
52 54 1 0 0 
SMALL
USER_CHARGES


@<TRIPOS>ATOM
  1 O       -1.5170    -0.3680     1.2130 O.2   1 <1>  -0.5700 
  2 C       -1.8750     0.5570     0.5210 C.2   1 <1>   0.5690 
  3 N       -3.0680     0.5080    -0.1660 N.am  1 <1>  -0.6600 
  4 C       -0.9600     1.7830     0.4420 C.3   1 <1>  -0.0190 
  5 C       -3.9150    -0.7290    -0.1200 C.3   1 <1>   0.1400 
  6 C       -3.6320     1.6310    -0.9740 C.3   1 <1>   0.1400 
  7 C        0.4370     1.5610     1.0030 C.3   1 <1>   0.1200 
  8 C       -1.4330     2.9830     1.2580 C.3   1 <1>  -0.1600 
  9 C       -5.3120    -0.4730     0.4630 C.3   1 <1>   0.1400 
 10 C       -4.6870     2.3790    -0.1510 C.3   1 <1>  -0.1600 
 11 O        0.9000     2.8390     1.2890 O.3   1 <1>  -0.5600 
 12 C       -0.1430     3.6230     1.7690 C.3   1 <1>   0.1200 
 13 N       -6.1520     0.3370    -0.4750 N.am  1 <1>  -0.6600 
 14 C       -6.1110     1.8150    -0.2690 C.3   1 <1>   0.1400 
 15 C       -6.9520    -0.2110    -1.4560 C.2   1 <1>   0.5690 
 16 O       -7.5800     0.4880    -2.2180 O.2   1 <1>  -0.5700 
 17 C       -7.0490    -1.7200    -1.6780 C.3   1 <1>   0.1810 
 18 O       -7.6290    -2.3800    -0.5630 O.3   1 <1>  -0.3630 
 19 C       -7.7390    -3.7310    -0.5260 C.ar  1 <1>   0.0820 
 20 C       -8.1900    -4.2870     0.6590 C.ar  1 <1>  -0.1500 
 21 C       -7.4270    -4.5630    -1.5980 C.ar  1 <1>  -0.1500 
 22 C       -8.3280    -5.6580     0.7920 C.ar  1 <1>   0.0820 
 23 C       -7.5640    -5.9350    -1.4710 C.ar  1 <1>  -0.1500 
 24 O       -8.7740    -6.1150     1.9900 O.3   1 <1>  -0.3620 
 25 C       -8.0120    -6.4860    -0.2820 C.ar  1 <1>  -0.1500 
 26 C       -8.9920    -7.4900     2.2160 C.3   1 <1>   0.0400 
 27 H       -0.8310     2.0620    -0.5870 H     1 <1>   0.0800 
 28 H       -3.4390    -1.4820     0.4830 H     1 <1>   0.0800 
 29 H       -4.0050    -1.1320    -1.1130 H     1 <1>   0.0800 
 30 H       -4.0640     1.2490    -1.8840 H     1 <1>   0.0800 
 31 H       -2.8550     2.3160    -1.2580 H     1 <1>   0.0800 
 32 H        1.0990     1.0880     0.2990 H     1 <1>   0.0800 
 33 H        0.4170     1.0040     1.9250 H     1 <1>   0.0800 
 34 H       -2.0270     2.6660     2.0980 H     1 <1>   0.0800 
 35 H       -2.0020     3.6750     0.6650 H     1 <1>   0.0800 
 36 H       -5.2190     0.0330     1.4080 H     1 <1>   0.0800 
 37 H       -5.7850    -1.4160     0.6610 H     1 <1>   0.0800 
 38 H       -4.7210     3.4000    -0.4850 H     1 <1>   0.0800 
 39 H       -4.3940     2.4020     0.8830 H     1 <1>   0.0800 
 40 H       -0.1010     3.6170     2.8450 H     1 <1>   0.0800 
 41 H       -0.0110     4.6250     1.4000 H     1 <1>   0.0800 
 42 H       -6.5950     2.3060    -1.0960 H     1 <1>   0.0800 
 43 H       -6.6710     2.0600     0.6160 H     1 <1>   0.0800 
 44 H       -6.0690    -2.1250    -1.8440 H     1 <1>   0.0800 
 45 H       -7.6700    -1.9100    -2.5340 H     1 <1>   0.0800 
 46 H       -8.4360    -3.6490     1.4870 H     1 <1>   0.1500 
 47 H       -7.0820    -4.1690    -2.5350 H     1 <1>   0.1500 
 48 H       -7.3220    -6.5770    -2.3000 H     1 <1>   0.1500 
 49 H       -8.1080    -7.5520    -0.2120 H     1 <1>   0.1500 
 50 H       -9.3570    -7.6090     3.2200 H     1 <1>   0.0800 
 51 H       -8.0600    -8.0150     2.1020 H     1 <1>   0.0800 
 52 H       -9.7250    -7.8480     1.5160 H     1 <1>   0.0800 
@<TRIPOS>BOND
  1   1   2  2   
  2   2   3  am  
  3   2   4  1   
  4   3   5  1   
  5   3   6  1   
  6   4   7  1   
  7   4   8  1   
  8   4  27  1   
  9   5   9  1   
 10   5  28  1   
 11   5  29  1   
 12   6  10  1   
 13   6  30  1   
 14   6  31  1   
 15   7  11  1   
 16   7  32  1   
 17   7  33  1   
 18   8  12  1   
 19   8  34  1   
 20   8  35  1   
 21   9  13  1   
 22   9  36  1   
 23   9  37  1   
 24  10  14  1   
 25  10  38  1   
 26  10  39  1   
 27  11  12  1   
 28  12  40  1   
 29  12  41  1   
 30  13  14  1   
 31  13  15  am  
 32  14  42  1   
 33  14  43  1   
 34  15  16  2   
 35  15  17  1   
 36  17  18  1   
 37  17  44  1   
 38  17  45  1   
 39  18  19  1   
 40  19  20  ar  
 41  19  21  ar  
 42  20  22  ar  
 43  20  46  1   
 44  21  23  ar  
 45  21  47  1   
 46  22  24  1   
 47  22  25  ar  
 48  23  25  ar  
 49  23  48  1   
 50  24  26  1   
 51  25  49  1   
 52  26  50  1   
 53  26  51  1   
 54  26  52  1   
@<TRIPOS>SUBSTRUCTURE
  1 ****   9 GROUP 4 **** **** 0

# MOE 2024.06 (io_trps.svl 2023.06)
