@<TRIPOS>MOLECULE
NONAME
54 57 1 0 0 
SMALL
USER_CHARGES


@<TRIPOS>ATOM
  1 O       -2.3390     0.7080    -1.6830 O.2   1 <1>  -0.5700 
  2 C       -2.2950     1.0940    -0.5310 C.2   1 <1>   0.5440 
  3 N       -2.5260     0.1720     0.4700 N.am  1 <1>  -0.6600 
  4 C       -2.0520     2.4930    -0.2440 C.ar  1 <1>   0.0860 
  5 C       -3.3930     0.4760     1.6330 C.3   1 <1>   0.1400 
  6 C       -2.3220    -1.2770     0.2180 C.3   1 <1>   0.1400 
  7 C       -1.2970     2.8810     0.8610 C.ar  1 <1>   0.1600 
  8 C       -2.5550     3.5060    -1.0500 C.ar  1 <1>  -0.1500 
  9 C       -4.7760    -0.1190     1.3570 C.3   1 <1>  -0.1600 
 10 C       -3.6780    -1.9060    -0.0960 C.3   1 <1>  -0.1600 
 11 N       -1.0440     4.1260     1.2320 N.ar  1 <1>  -0.6200 
 12 C       -2.2960     4.8110    -0.6900 C.ar  1 <1>  -0.1500 
 13 C       -4.6830    -1.6160     1.0300 C.3   1 <1>   0.4230 
 14 C       -1.5480     5.0650     0.4470 C.ar  1 <1>   0.1600 
 15 N       -6.0420    -2.1320     0.7040 N.4   1 <1>  -0.9590 
 16 C       -6.6960    -1.6200    -0.5370 C.3   1 <1>   0.3430 
 17 C       -6.1650    -3.6200     0.6460 C.3   1 <1>   0.3430 
 18 C       -7.8670    -2.5790    -0.7390 C.3   1 <1>   0.2000 
 19 C       -7.2340    -3.9350    -0.4140 C.3   1 <1>  -0.0800 
 20 O       -8.8290    -2.2710     0.2200 O.3   1 <1>  -0.6800 
 21 C       -8.2060    -5.0530     0.0120 C.3   1 <1>   0.0200 
 22 C       -7.4620    -6.3570     0.2280 C.2   1 <1>  -0.0400 
 23 O       -6.5860    -6.4550     1.1920 O.3   1 <1>  -0.0190 
 24 C       -7.5030    -7.5360    -0.4090 C.2   1 <1>  -0.1500 
 25 N       -6.0260    -7.6250     1.2240 N.2   1 <1>  -0.4100 
 26 C       -6.5640    -8.3040     0.2750 C.2   1 <1>   0.1080 
 27 C       -6.2170    -9.7410    -0.0470 C.3   1 <1>  -0.0590 
 28 H       -2.9620     0.0470     2.5230 H     1 <1>   0.0800 
 29 H       -3.4800     1.5390     1.7810 H     1 <1>   0.0800 
 30 H       -1.6470    -1.4180    -0.6110 H     1 <1>   0.0800 
 31 H       -1.8790    -1.7330     1.0880 H     1 <1>   0.0800 
 32 H       -0.8750     2.1060     1.4770 H     1 <1>   0.1500 
 33 H       -3.1280     3.2700    -1.9300 H     1 <1>   0.1500 
 34 H       -5.2070     0.4240     0.5350 H     1 <1>   0.0800 
 35 H       -5.3930     0.0280     2.2250 H     1 <1>   0.0800 
 36 H       -3.5370    -2.9640    -0.2170 H     1 <1>   0.0800 
 37 H       -4.0100    -1.4940    -1.0320 H     1 <1>   0.0800 
 38 H       -2.6670     5.6270    -1.2840 H     1 <1>   0.1500 
 39 H       -4.3300    -2.1180     1.9170 H     1 <1>   0.0800 
 40 H       -1.3530     6.0880     0.7220 H     1 <1>   0.1500 
 41 H       -6.6870    -1.8410     1.4550 H     1 <1>   0.4500 
 42 H       -7.0370    -0.6030    -0.4290 H     1 <1>   0.0800 
 43 H       -6.0240    -1.6910    -1.3750 H     1 <1>   0.0800 
 44 H       -5.2320    -4.0840     0.3690 H     1 <1>   0.0800 
 45 H       -6.4660    -4.0010     1.6090 H     1 <1>   0.0800 
 46 H       -8.3030    -2.5130    -1.7220 H     1 <1>   0.0800 
 47 H       -6.7130    -4.2730    -1.2930 H     1 <1>   0.0800 
 48 H       -9.7050    -2.6450    -0.0180 H     1 <1>   0.4000 
 49 H       -8.9480    -5.1990    -0.7540 H     1 <1>   0.0800 
 50 H       -8.7150    -4.7940     0.9250 H     1 <1>   0.0800 
 51 H       -8.0970    -7.8560    -1.2470 H     1 <1>   0.1500 
 52 H       -7.0900   -10.3590     0.0530 H     1 <1>   0.0800 
 53 H       -5.4610   -10.0970     0.6300 H     1 <1>   0.0800 
 54 H       -5.8450    -9.8130    -1.0520 H     1 <1>   0.0800 
@<TRIPOS>BOND
  1   1   2  2   
  2   2   3  am  
  3   2   4  1   
  4   3   5  1   
  5   3   6  1   
  6   4   7  ar  
  7   4   8  ar  
  8   5   9  1   
  9   5  28  1   
 10   5  29  1   
 11   6  10  1   
 12   6  30  1   
 13   6  31  1   
 14   7  11  ar  
 15   7  32  1   
 16   8  12  ar  
 17   8  33  1   
 18   9  13  1   
 19   9  34  1   
 20   9  35  1   
 21  10  13  1   
 22  10  36  1   
 23  10  37  1   
 24  11  14  ar  
 25  12  14  ar  
 26  12  38  1   
 27  13  15  1   
 28  13  39  1   
 29  14  40  1   
 30  15  16  1   
 31  15  17  1   
 32  15  41  1   
 33  16  18  1   
 34  16  42  1   
 35  16  43  1   
 36  17  19  1   
 37  17  44  1   
 38  17  45  1   
 39  18  19  1   
 40  18  20  1   
 41  18  46  1   
 42  19  21  1   
 43  19  47  1   
 44  20  48  1   
 45  21  22  1   
 46  21  49  1   
 47  21  50  1   
 48  22  23  1   
 49  22  24  2   
 50  23  25  1   
 51  24  26  1   
 52  24  51  1   
 53  25  26  2   
 54  26  27  1   
 55  27  52  1   
 56  27  53  1   
 57  27  54  1   
@<TRIPOS>SUBSTRUCTURE
  1 ****  13 GROUP 4 **** **** 0

# MOE 2024.06 (io_trps.svl 2023.06)
