@<TRIPOS>MOLECULE
NONAME
46 47 1 0 0 
SMALL
USER_CHARGES


@<TRIPOS>ATOM
  1 O        2.4230     0.4500     1.3660 O.2   1 <1>  -0.5700 
  2 C        2.1520    -0.2890     0.4380 C.2   1 <1>   0.5440 
  3 N        2.0330     0.2600    -0.8100 N.am  1 <1>  -0.7300 
  4 C        1.9540    -1.7130     0.6480 C.ar  1 <1>   0.0860 
  5 C        2.1610     1.7040    -1.1090 C.3   1 <1>   0.1400 
  6 C        1.4960    -2.1980     1.8720 C.ar  1 <1>  -0.1500 
  7 C        2.2080    -2.6530    -0.3530 C.ar  1 <1>  -0.1500 
  8 C        3.6330     2.0580    -1.2950 C.3   1 <1>  -0.0990 
  9 C        1.2870    -3.5480     2.0860 C.ar  1 <1>  -0.1500 
 10 C        2.0010    -4.0050    -0.1450 C.ar  1 <1>  -0.1500 
 11 C        3.7750     3.5500    -1.4560 C.2   1 <1>   0.5690 
 12 C        1.5360    -4.4610     1.0760 C.ar  1 <1>  -0.1430 
 13 O        3.6640     4.0300    -2.5570 O.2   1 <1>  -0.5700 
 14 N        4.0070     4.3000    -0.3500 N.am  1 <1>  -0.7300 
 15 C        1.3090    -5.9440     1.3080 C.3   1 <1>  -0.0970 
 16 C        4.1810     5.7660    -0.3370 C.3   1 <1>   0.1400 
 17 C        5.5290     6.0990     0.3060 C.3   1 <1>  -0.1600 
 18 C        5.8500     7.6060     0.2560 C.3   1 <1>  -0.0800 
 19 C        7.2400     7.8800     0.8190 C.3   1 <1>   0.1200 
 20 C        4.9880     8.4320     1.2030 C.3   1 <1>  -0.1600 
 21 O        7.0650     7.9790     2.1930 O.3   1 <1>  -0.5600 
 22 C        5.8050     8.4930     2.4930 C.3   1 <1>   0.1200 
 23 H        1.7290    -0.3310    -1.5850 H     1 <1>   0.3700 
 24 H        1.7510     2.2730    -0.2900 H     1 <1>   0.0800 
 25 H        1.6050     1.9450    -2.0000 H     1 <1>   0.0800 
 26 H        1.3010    -1.4990     2.6680 H     1 <1>   0.1500 
 27 H        2.5820    -2.3270    -1.3070 H     1 <1>   0.1500 
 28 H        4.0200     1.5730    -2.1720 H     1 <1>   0.0800 
 29 H        4.1990     1.7380    -0.4400 H     1 <1>   0.0800 
 30 H        0.9320    -3.8860     3.0450 H     1 <1>   0.1500 
 31 H        2.2070    -4.7050    -0.9370 H     1 <1>   0.1500 
 32 H        4.0680     3.8380     0.5610 H     1 <1>   0.3700 
 33 H        0.5090    -6.0960     2.0100 H     1 <1>   0.0800 
 34 H        2.2040    -6.3920     1.7000 H     1 <1>   0.0800 
 35 H        1.0490    -6.4350     0.3880 H     1 <1>   0.0800 
 36 H        3.3720     6.2100     0.2160 H     1 <1>   0.0800 
 37 H        4.1530     6.1460    -1.3450 H     1 <1>   0.0800 
 38 H        6.2960     5.5690    -0.2320 H     1 <1>   0.0800 
 39 H        5.5390     5.7600     1.3280 H     1 <1>   0.0800 
 40 H        5.7810     7.9600    -0.7580 H     1 <1>   0.0800 
 41 H        7.6200     8.8240     0.4670 H     1 <1>   0.0800 
 42 H        7.9470     7.0970     0.6060 H     1 <1>   0.0800 
 43 H        4.0110     8.0200     1.3780 H     1 <1>   0.0800 
 44 H        4.8730     9.4300     0.8200 H     1 <1>   0.0800 
 45 H        5.3750     7.8800     3.2660 H     1 <1>   0.0800 
 46 H        5.9210     9.5040     2.8450 H     1 <1>   0.0800 
@<TRIPOS>BOND
  1   1   2  2   
  2   2   3  am  
  3   2   4  1   
  4   3   5  1   
  5   3  23  1   
  6   4   6  ar  
  7   4   7  ar  
  8   5   8  1   
  9   5  24  1   
 10   5  25  1   
 11   6   9  ar  
 12   6  26  1   
 13   7  10  ar  
 14   7  27  1   
 15   8  11  1   
 16   8  28  1   
 17   8  29  1   
 18   9  12  ar  
 19   9  30  1   
 20  10  12  ar  
 21  10  31  1   
 22  11  13  2   
 23  11  14  am  
 24  12  15  1   
 25  14  16  1   
 26  14  32  1   
 27  15  33  1   
 28  15  34  1   
 29  15  35  1   
 30  16  17  1   
 31  16  36  1   
 32  16  37  1   
 33  17  18  1   
 34  17  38  1   
 35  17  39  1   
 36  18  19  1   
 37  18  20  1   
 38  18  40  1   
 39  19  21  1   
 40  19  41  1   
 41  19  42  1   
 42  20  22  1   
 43  20  43  1   
 44  20  44  1   
 45  21  22  1   
 46  22  45  1   
 47  22  46  1   
@<TRIPOS>SUBSTRUCTURE
  1 ****   8 GROUP 4 **** **** 0

# MOE 2024.06 (io_trps.svl 2023.06)
