@<TRIPOS>MOLECULE
NONAME
52 55 1 0 0 
SMALL
USER_CHARGES


@<TRIPOS>ATOM
  1 O       -0.2210    -0.4730    -1.6290 O.2   1 <1>  -0.5700 
  2 C       -0.3150    -1.6220    -1.2670 C.2   1 <1>   0.5690 
  3 N       -1.3690    -2.1110    -0.5120 N.am  1 <1>  -0.2980 
  4 C        0.7500    -2.6140    -1.6700 C.3   1 <1>  -0.0990 
  5 N       -1.4690    -3.3940    -0.0220 N.2   1 <1>  -0.5120 
  6 C       -2.5040    -1.2110    -0.2090 C.3   1 <1>   0.0600 
  7 C        0.8900    -3.7180    -0.6100 C.3   1 <1>  -0.0990 
  8 C       -0.4640    -4.2090    -0.0650 C.2   1 <1>   0.3890 
  9 C       -0.4860    -5.5830     0.4230 C.2   1 <1>   0.6300 
 10 O        0.5710    -6.1520     0.6640 O.2   1 <1>  -0.5700 
 11 N       -1.6450    -6.3180     0.6440 N.am  1 <1>  -0.6600 
 12 C       -2.9400    -6.0810    -0.0550 C.3   1 <1>   0.1400 
 13 C       -1.6890    -7.4310     1.6360 C.3   1 <1>   0.1400 
 14 C       -3.3890    -7.3690    -0.7510 C.3   1 <1>  -0.1600 
 15 C       -2.1290    -8.7230     0.9460 C.3   1 <1>  -0.1600 
 16 C       -3.4730    -8.5550     0.2240 C.3   1 <1>   0.4240 
 17 O       -4.3990    -8.2260     1.2330 O.3   1 <1>  -0.5600 
 18 C       -3.8610    -9.8590    -0.5080 C.ar  1 <1>  -0.1430 
 19 C       -5.7490    -8.4450     0.9640 C.3   1 <1>   0.1200 
 20 C       -5.0520   -10.5180    -0.2220 C.ar  1 <1>  -0.1430 
 21 C       -3.0240   -10.3980    -1.4800 C.ar  1 <1>  -0.1500 
 22 C       -5.9870    -9.9450     0.8250 C.3   1 <1>  -0.0170 
 23 C       -5.3910   -11.6890    -0.8810 C.ar  1 <1>  -0.1500 
 24 C       -3.3620   -11.5650    -2.1410 C.ar  1 <1>  -0.1500 
 25 C       -4.5440   -12.2200    -1.8480 C.ar  1 <1>   0.0830 
 26 O       -4.8000   -13.3600    -2.5380 O.3   1 <1>  -0.3630 
 27 C       -5.9670   -14.1150    -2.3000 C.3   1 <1>   0.0400 
 28 H        1.6870    -2.1060    -1.8080 H     1 <1>   0.0800 
 29 H        0.4560    -3.0470    -2.6080 H     1 <1>   0.0800 
 30 H       -2.9380    -0.8600    -1.1280 H     1 <1>   0.0800 
 31 H       -2.1510    -0.3690     0.3580 H     1 <1>   0.0800 
 32 H       -3.2510    -1.7350     0.3600 H     1 <1>   0.0800 
 33 H        1.4570    -3.3390     0.2220 H     1 <1>   0.0800 
 34 H        1.4440    -4.5350    -1.0390 H     1 <1>   0.0800 
 35 H       -2.8430    -5.3100    -0.7980 H     1 <1>   0.0800 
 36 H       -3.6770    -5.7690     0.6650 H     1 <1>   0.0800 
 37 H       -2.3880    -7.1770     2.4150 H     1 <1>   0.0800 
 38 H       -0.7250    -7.5760     2.0940 H     1 <1>   0.0800 
 39 H       -2.6810    -7.5940    -1.5260 H     1 <1>   0.0800 
 40 H       -4.3380    -7.2170    -1.2280 H     1 <1>   0.0800 
 41 H       -2.2160    -9.5120     1.6700 H     1 <1>   0.0800 
 42 H       -1.3620    -9.0060     0.2500 H     1 <1>   0.0800 
 43 H       -6.0220    -7.9240     0.0630 H     1 <1>   0.0800 
 44 H       -6.3170    -8.0480     1.7870 H     1 <1>   0.0800 
 45 H       -2.0970    -9.9160    -1.7340 H     1 <1>   0.1500 
 46 H       -7.0100   -10.1160     0.5450 H     1 <1>   0.0800 
 47 H       -5.8090   -10.4240     1.7710 H     1 <1>   0.0800 
 48 H       -6.3140   -12.1770    -0.6330 H     1 <1>   0.1500 
 49 H       -2.7090   -11.9770    -2.8890 H     1 <1>   0.1500 
 50 H       -5.9490   -14.9700    -2.9510 H     1 <1>   0.0800 
 51 H       -6.8260   -13.5060    -2.5180 H     1 <1>   0.0800 
 52 H       -5.9700   -14.4370    -1.2740 H     1 <1>   0.0800 
@<TRIPOS>BOND
  1   1   2  2   
  2   2   3  am  
  3   2   4  1   
  4   3   5  1   
  5   3   6  1   
  6   4   7  1   
  7   4  28  1   
  8   4  29  1   
  9   5   8  2   
 10   6  30  1   
 11   6  31  1   
 12   6  32  1   
 13   7   8  1   
 14   7  33  1   
 15   7  34  1   
 16   8   9  1   
 17   9  10  2   
 18   9  11  am  
 19  11  12  1   
 20  11  13  1   
 21  12  14  1   
 22  12  35  1   
 23  12  36  1   
 24  13  15  1   
 25  13  37  1   
 26  13  38  1   
 27  14  16  1   
 28  14  39  1   
 29  14  40  1   
 30  15  16  1   
 31  15  41  1   
 32  15  42  1   
 33  16  17  1   
 34  16  18  1   
 35  17  19  1   
 36  18  20  ar  
 37  18  21  ar  
 38  19  22  1   
 39  19  43  1   
 40  19  44  1   
 41  20  22  1   
 42  20  23  ar  
 43  21  24  ar  
 44  21  45  1   
 45  22  46  1   
 46  22  47  1   
 47  23  25  ar  
 48  23  48  1   
 49  24  25  ar  
 50  24  49  1   
 51  25  26  1   
 52  26  27  1   
 53  27  50  1   
 54  27  51  1   
 55  27  52  1   
@<TRIPOS>SUBSTRUCTURE
  1 ****  14 GROUP 4 **** **** 0

# MOE 2024.06 (io_trps.svl 2023.06)
