@<TRIPOS>MOLECULE
NONAME
48 51 1 0 0 
SMALL
USER_CHARGES


@<TRIPOS>ATOM
  1 O       -0.7020     0.3510     1.6670 O.2   1 <1>  -0.5700 
  2 C       -1.5810     0.9630     1.0940 C.2   1 <1>   0.5440 
  3 N       -2.6690     0.2650     0.6200 N.am  1 <1>  -0.6600 
  4 C       -1.4590     2.3900     0.9070 C.ar  1 <1>   0.0860 
  5 C       -3.5870     0.7510    -0.4460 C.3   1 <1>   0.1400 
  6 C       -2.7900    -1.2090     0.7620 C.3   1 <1>   0.1400 
  7 C       -2.4700     3.2560     1.3080 C.ar  1 <1>   0.1600 
  8 C       -0.3390     2.9600     0.3220 C.ar  1 <1>  -0.1500 
  9 C       -4.5540    -0.4080    -0.6810 C.3   1 <1>   0.2000 
 10 C       -3.7090    -1.6510    -0.3820 C.3   1 <1>  -0.0800 
 11 N       -2.4730     4.5680     1.1510 N.ar  1 <1>  -0.6200 
 12 C       -0.3070     4.3280     0.1520 C.ar  1 <1>  -0.1430 
 13 O       -5.5780    -0.3090     0.2480 O.3   1 <1>  -0.6800 
 14 C       -4.5170    -2.9280    -0.0790 C.3   1 <1>   0.0200 
 15 C       -1.3980     5.0840     0.5760 C.ar  1 <1>   0.1670 
 16 C        0.9170     4.9580    -0.5030 C.3   1 <1>  -0.0170 
 17 C       -3.6450    -4.1640     0.0740 C.2   1 <1>  -0.0400 
 18 C       -1.4150     6.6000     0.4240 C.3   1 <1>  -0.0170 
 19 C        1.0080     6.4670    -0.2480 C.3   1 <1>  -0.1600 
 20 O       -4.2050    -5.2790     0.4600 O.3   1 <1>  -0.0190 
 21 C       -2.3370    -4.4070    -0.1090 C.2   1 <1>  -0.1500 
 22 C       -0.3390     7.1360    -0.5300 C.3   1 <1>  -0.1600 
 23 N       -3.3450    -6.2520     0.5490 N.2   1 <1>  -0.4100 
 24 C       -2.2090    -5.7550     0.2120 C.2   1 <1>   0.1080 
 25 C       -0.9160    -6.5380     0.1750 C.3   1 <1>  -0.0590 
 26 H       -4.1120     1.6460    -0.1590 H     1 <1>   0.0800 
 27 H       -3.0170     0.9400    -1.3400 H     1 <1>   0.0800 
 28 H       -1.8240    -1.6820     0.7000 H     1 <1>   0.0800 
 29 H       -3.2290    -1.4330     1.7200 H     1 <1>   0.0800 
 30 H       -3.3310     2.8280     1.7910 H     1 <1>   0.1500 
 31 H        0.4790     2.3330     0.0120 H     1 <1>   0.1500 
 32 H       -4.9850    -0.4080    -1.6680 H     1 <1>   0.0800 
 33 H       -3.0930    -1.8360    -1.2440 H     1 <1>   0.0800 
 34 H       -5.1900    -0.1660     1.1350 H     1 <1>   0.4000 
 35 H       -5.2180    -3.1040    -0.8760 H     1 <1>   0.0800 
 36 H       -5.0820    -2.8000     0.8270 H     1 <1>   0.0800 
 37 H        1.8110     4.4840    -0.1370 H     1 <1>   0.0800 
 38 H        0.8610     4.7830    -1.5640 H     1 <1>   0.0800 
 39 H       -2.3840     6.9090     0.0750 H     1 <1>   0.0800 
 40 H       -1.2700     7.0270     1.4000 H     1 <1>   0.0800 
 41 H        1.2880     6.6400     0.7770 H     1 <1>   0.0800 
 42 H        1.7700     6.8930    -0.8780 H     1 <1>   0.0800 
 43 H       -1.5420    -3.7580    -0.4250 H     1 <1>   0.1500 
 44 H       -0.6330     6.9350    -1.5460 H     1 <1>   0.0800 
 45 H       -0.2550     8.2020    -0.4120 H     1 <1>   0.0800 
 46 H       -0.5110    -6.5260    -0.8200 H     1 <1>   0.0800 
 47 H       -1.0950    -7.5570     0.4650 H     1 <1>   0.0800 
 48 H       -0.2060    -6.1020     0.8540 H     1 <1>   0.0800 
@<TRIPOS>BOND
  1   1   2  2   
  2   2   3  am  
  3   2   4  1   
  4   3   5  1   
  5   3   6  1   
  6   4   7  ar  
  7   4   8  ar  
  8   5   9  1   
  9   5  26  1   
 10   5  27  1   
 11   6  10  1   
 12   6  28  1   
 13   6  29  1   
 14   7  11  ar  
 15   7  30  1   
 16   8  12  ar  
 17   8  31  1   
 18   9  10  1   
 19   9  13  1   
 20   9  32  1   
 21  10  14  1   
 22  10  33  1   
 23  11  15  ar  
 24  12  15  ar  
 25  12  16  1   
 26  13  34  1   
 27  14  17  1   
 28  14  35  1   
 29  14  36  1   
 30  15  18  1   
 31  16  19  1   
 32  16  37  1   
 33  16  38  1   
 34  17  20  1   
 35  17  21  2   
 36  18  22  1   
 37  18  39  1   
 38  18  40  1   
 39  19  22  1   
 40  19  41  1   
 41  19  42  1   
 42  20  23  1   
 43  21  24  1   
 44  21  43  1   
 45  22  44  1   
 46  22  45  1   
 47  23  24  2   
 48  24  25  1   
 49  25  46  1   
 50  25  47  1   
 51  25  48  1   
@<TRIPOS>SUBSTRUCTURE
  1 ****   3 GROUP 4 **** **** 0

# MOE 2024.06 (io_trps.svl 2023.06)
