@<TRIPOS>MOLECULE
NONAME
55 57 1 0 0 
SMALL
USER_CHARGES


@<TRIPOS>ATOM
  1 O        0.7530     0.2510     2.3270 O.2   1 <1>  -0.5700 
  2 C        1.3560    -0.4210     1.5200 C.2   1 <1>   0.5690 
  3 N        2.1370     0.1550     0.5450 N.am  1 <1>  -0.6600 
  4 C        1.2620    -1.9370     1.6710 C.3   1 <1>   0.1810 
  5 C        2.9030    -0.5810    -0.5090 C.3   1 <1>   0.1400 
  6 C        2.2690     1.6310     0.4350 C.3   1 <1>   0.1400 
  7 O        0.6370    -2.5340     0.5450 O.3   1 <1>  -0.3620 
  8 C        4.4250    -0.5900    -0.2680 C.3   1 <1>   0.1100 
  9 C        3.4330     2.1460     1.2840 C.3   1 <1>  -0.1600 
 10 C        0.7610    -3.8630     0.3000 C.ar  1 <1>   0.0820 
 11 N        5.0070     0.7530    -0.0440 N.3   1 <1>  -0.8100 
 12 C        4.6780     1.2550     1.3070 C.3   1 <1>   0.1100 
 13 C        0.4900    -4.3110    -0.9890 C.ar  1 <1>  -0.1440 
 14 C        1.1490    -4.7720     1.2820 C.ar  1 <1>  -0.1500 
 15 C        6.4720     0.7550    -0.2870 C.3   1 <1>   0.2900 
 16 C        0.6280    -5.6580    -1.2880 C.ar  1 <1>  -0.1500 
 17 C        0.0440    -3.3380    -2.0710 C.3   1 <1>  -0.0970 
 18 C        1.2840    -6.1130     0.9720 C.ar  1 <1>  -0.1500 
 19 C        7.1310     2.1380    -0.3440 C.2   1 <1>   0.2980 
 20 C        1.0250    -6.5560    -0.3130 C.ar  1 <1>  -0.1500 
 21 O        8.4220     2.1990    -0.4320 O.3   1 <1>  -0.2800 
 22 N        6.5990     3.3040    -0.3180 N.2   1 <1>  -0.3380 
 23 C        8.6750     3.4690    -0.4610 C.2   1 <1>   0.2980 
 24 N        7.6090     4.1720    -0.3930 N.2   1 <1>  -0.3380 
 25 C       10.1250     3.9430    -0.5650 C.3   1 <1>   0.1000 
 26 C       10.2670     5.4510    -0.3040 C.3   1 <1>  -0.2400 
 27 C       10.7100     3.5960    -1.9410 C.3   1 <1>  -0.2400 
 28 H        0.6800    -2.1780     2.5410 H     1 <1>   0.0800 
 29 H        2.2530    -2.3380     1.7700 H     1 <1>   0.0800 
 30 H        2.7110    -0.1200    -1.4620 H     1 <1>   0.0800 
 31 H        2.5650    -1.5960    -0.5860 H     1 <1>   0.0800 
 32 H        1.3540     2.1080     0.7460 H     1 <1>   0.0800 
 33 H        2.4420     1.8980    -0.5930 H     1 <1>   0.0800 
 34 H        4.8750    -1.0280    -1.1430 H     1 <1>   0.0800 
 35 H        4.6510    -1.2350     0.5630 H     1 <1>   0.0800 
 36 H        3.0890     2.2750     2.2950 H     1 <1>   0.0800 
 37 H        3.7140     3.1190     0.9220 H     1 <1>   0.0800 
 38 H        4.5140     0.4310     1.9810 H     1 <1>   0.0800 
 39 H        5.4900     1.8370     1.7090 H     1 <1>   0.0800 
 40 H        1.3430    -4.4580     2.2890 H     1 <1>   0.1500 
 41 H        6.6670     0.2810    -1.2320 H     1 <1>   0.0800 
 42 H        6.9580     0.1770     0.4780 H     1 <1>   0.0800 
 43 H        0.4250    -6.0160    -2.2810 H     1 <1>   0.1500 
 44 H       -0.8430    -2.8210    -1.7500 H     1 <1>   0.0800 
 45 H       -0.1740    -3.8500    -2.9900 H     1 <1>   0.0800 
 46 H        0.8170    -2.6140    -2.2540 H     1 <1>   0.0800 
 47 H        1.5860    -6.8150     1.7300 H     1 <1>   0.1500 
 48 H        1.1290    -7.6000    -0.5540 H     1 <1>   0.1500 
 49 H       10.6890     3.4200     0.1870 H     1 <1>   0.0800 
 50 H        9.7210     6.0120    -1.0420 H     1 <1>   0.0800 
 51 H       11.3010     5.7440    -0.3390 H     1 <1>   0.0800 
 52 H        9.8740     5.6940     0.6670 H     1 <1>   0.0800 
 53 H       10.1550     4.0930    -2.7180 H     1 <1>   0.0800 
 54 H       10.6580     2.5350    -2.1100 H     1 <1>   0.0800 
 55 H       11.7400     3.9010    -2.0010 H     1 <1>   0.0800 
@<TRIPOS>BOND
  1   1   2  2   
  2   2   3  am  
  3   2   4  1   
  4   3   5  1   
  5   3   6  1   
  6   4   7  1   
  7   4  28  1   
  8   4  29  1   
  9   5   8  1   
 10   5  30  1   
 11   5  31  1   
 12   6   9  1   
 13   6  32  1   
 14   6  33  1   
 15   7  10  1   
 16   8  11  1   
 17   8  34  1   
 18   8  35  1   
 19   9  12  1   
 20   9  36  1   
 21   9  37  1   
 22  10  13  ar  
 23  10  14  ar  
 24  11  12  1   
 25  11  15  1   
 26  12  38  1   
 27  12  39  1   
 28  13  16  ar  
 29  13  17  1   
 30  14  18  ar  
 31  14  40  1   
 32  15  19  1   
 33  15  41  1   
 34  15  42  1   
 35  16  20  ar  
 36  16  43  1   
 37  17  44  1   
 38  17  45  1   
 39  17  46  1   
 40  18  20  ar  
 41  18  47  1   
 42  19  21  1   
 43  19  22  2   
 44  20  48  1   
 45  21  23  1   
 46  22  24  1   
 47  23  24  2   
 48  23  25  1   
 49  25  26  1   
 50  25  27  1   
 51  25  49  1   
 52  26  50  1   
 53  26  51  1   
 54  26  52  1   
 55  27  53  1   
 56  27  54  1   
 57  27  55  1   
@<TRIPOS>SUBSTRUCTURE
  1 ****   8 GROUP 4 **** **** 0

# MOE 2024.06 (io_trps.svl 2023.06)
