@<TRIPOS>MOLECULE
NONAME
46 47 1 0 0 
SMALL
USER_CHARGES


@<TRIPOS>ATOM
  1 S        0.8120     1.0070     1.9460 S.3   1 <1>  -0.0800 
  2 C        1.6290     1.0630     0.4060 C.2   1 <1>  -0.1400 
  3 C        1.2610    -0.6750     2.0940 C.2   1 <1>   0.2280 
  4 C        2.1470    -0.1520     0.1520 C.2   1 <1>   0.0460 
  5 C        1.6130     2.3880    -0.3280 C.3   1 <1>   0.0200 
  6 N        1.9380    -1.1220     1.1140 N.2   1 <1>  -0.5650 
  7 C        2.9350    -0.5980    -1.0620 C.3   1 <1>  -0.0590 
  8 C        2.4020     3.4170     0.4870 C.3   1 <1>   0.3430 
  9 N        2.5380     4.7380    -0.2170 N.4   1 <1>  -0.9590 
 10 C        3.5240     5.7030     0.4170 C.3   1 <1>   0.4840 
 11 C        1.2110     5.4130    -0.4160 C.3   1 <1>   0.2630 
 12 C        3.7820     6.9420    -0.4810 C.2   1 <1>   0.5690 
 13 C        4.8560     4.9970     0.7010 C.3   1 <1>  -0.2400 
 14 O        3.6480     6.8000    -1.6760 O.2   1 <1>  -0.5700 
 15 N        4.1240     8.1410     0.0660 N.am  1 <1>  -0.7300 
 16 C        4.4070     9.3680    -0.7030 C.3   1 <1>   0.2200 
 17 C        5.8280     9.8190    -0.3910 C.3   1 <1>  -0.1600 
 18 C        3.5520    10.4990    -0.1470 C.3   1 <1>  -0.1600 
 19 C        5.7470    10.5640     0.9470 C.3   1 <1>  -0.1600 
 20 C        4.2850    11.0030     1.1020 C.3   1 <1>  -0.1600 
 21 H        0.9430    -1.1970     2.9800 H     1 <1>   0.1500 
 22 H        0.5900     2.6940    -0.4520 H     1 <1>   0.0800 
 23 H        2.0620     2.2660    -1.2970 H     1 <1>   0.0800 
 24 H        3.0570     0.2010    -1.7680 H     1 <1>   0.0800 
 25 H        2.4200    -1.4100    -1.5430 H     1 <1>   0.0800 
 26 H        3.9050    -0.9440    -0.7540 H     1 <1>   0.0800 
 27 H        3.3780     2.9990     0.6690 H     1 <1>   0.0800 
 28 H        1.9220     3.5590     1.4410 H     1 <1>   0.0800 
 29 H        2.9310     4.5870    -1.1630 H     1 <1>   0.4500 
 30 H        3.1190     6.0570     1.3500 H     1 <1>   0.0800 
 31 H        0.7570     5.6400     0.5350 H     1 <1>   0.0800 
 32 H        0.5430     4.7780    -0.9740 H     1 <1>   0.0800 
 33 H        1.3340     6.3310    -0.9690 H     1 <1>   0.0800 
 34 H        5.2380     4.5300    -0.1900 H     1 <1>   0.0800 
 35 H        4.7620     4.2710     1.4880 H     1 <1>   0.0800 
 36 H        5.5820     5.7210     1.0270 H     1 <1>   0.0800 
 37 H        4.2750     8.2710     1.0680 H     1 <1>   0.3700 
 38 H        4.2490     9.2140    -1.7590 H     1 <1>   0.0800 
 39 H        6.1380    10.5120    -1.1540 H     1 <1>   0.0800 
 40 H        6.5270     9.0000    -0.3730 H     1 <1>   0.0800 
 41 H        2.5410    10.1930     0.0550 H     1 <1>   0.0800 
 42 H        3.5270    11.2920    -0.8750 H     1 <1>   0.0800 
 43 H        6.4120    11.4110     0.9520 H     1 <1>   0.0800 
 44 H        6.0200     9.9070     1.7550 H     1 <1>   0.0800 
 45 H        3.8610    10.5580     1.9870 H     1 <1>   0.0800 
 46 H        4.2050    12.0740     1.1850 H     1 <1>   0.0800 
@<TRIPOS>BOND
  1   1   2  1   
  2   1   3  1   
  3   2   4  2   
  4   2   5  1   
  5   3   6  2   
  6   3  21  1   
  7   4   6  1   
  8   4   7  1   
  9   5   8  1   
 10   5  22  1   
 11   5  23  1   
 12   7  24  1   
 13   7  25  1   
 14   7  26  1   
 15   8   9  1   
 16   8  27  1   
 17   8  28  1   
 18   9  10  1   
 19   9  11  1   
 20   9  29  1   
 21  10  12  1   
 22  10  13  1   
 23  10  30  1   
 24  11  31  1   
 25  11  32  1   
 26  11  33  1   
 27  12  14  2   
 28  12  15  am  
 29  13  34  1   
 30  13  35  1   
 31  13  36  1   
 32  15  16  1   
 33  15  37  1   
 34  16  17  1   
 35  16  18  1   
 36  16  38  1   
 37  17  19  1   
 38  17  39  1   
 39  17  40  1   
 40  18  20  1   
 41  18  41  1   
 42  18  42  1   
 43  19  20  1   
 44  19  43  1   
 45  19  44  1   
 46  20  45  1   
 47  20  46  1   
@<TRIPOS>SUBSTRUCTURE
  1 ****   9 GROUP 4 **** **** 0

# MOE 2024.06 (io_trps.svl 2023.06)
