@<TRIPOS>MOLECULE
NONAME
51 53 1 0 0 
SMALL
USER_CHARGES


@<TRIPOS>ATOM
  1 S       -1.1400     1.4460     0.3650 S.o2  1 <1>   1.2040 
  2 O       -1.0050     1.5530     1.8010 O.2   1 <1>  -0.6500 
  3 O       -2.0830     2.2960    -0.3290 O.2   1 <1>  -0.6500 
  4 C       -1.4210    -0.2800    -0.0950 C.ar  1 <1>  -0.0090 
  5 C        0.4700     1.7440    -0.3390 C.3   1 <1>  -0.0550 
  6 C       -1.9950    -0.6100    -1.3180 C.ar  1 <1>  -0.1500 
  7 C       -1.0380    -1.3180     0.7460 C.ar  1 <1>  -0.1500 
  8 C        0.9070     3.1850    -0.1010 C.3   1 <1>   0.1100 
  9 C       -2.1770    -1.9310    -1.6910 C.ar  1 <1>  -0.1500 
 10 C       -1.2170    -2.6410     0.3810 C.ar  1 <1>  -0.1500 
 11 N        2.2310     3.4010    -0.7040 N.3   1 <1>  -0.8100 
 12 C       -1.7870    -2.9480    -0.8410 C.ar  1 <1>  -0.1500 
 13 C        2.3710     4.8110    -1.1360 C.3   1 <1>   0.1100 
 14 C        3.3110     2.9780     0.2050 C.3   1 <1>   0.1100 
 15 C        3.6580     5.1120    -1.9220 C.3   1 <1>   0.2090 
 16 C        4.5890     2.6870    -0.5840 C.3   1 <1>  -0.1600 
 17 N        4.8560     5.1740    -1.0250 N.pl3 1 <1>  -0.8380 
 18 C        5.5390     3.8810    -0.7370 C.3   1 <1>   0.2090 
 19 C        5.4720     6.3510    -0.7570 C.ar  1 <1>   0.1000 
 20 C        5.5320     6.9100     0.5330 C.ar  1 <1>  -0.1430 
 21 C        6.0900     7.0550    -1.7970 C.ar  1 <1>  -0.1500 
 22 C        6.1910     8.0990     0.7280 C.ar  1 <1>   0.2110 
 23 C        4.8530     6.2140     1.7080 C.3   1 <1>  -0.0970 
 24 C        6.7350     8.2380    -1.5610 C.ar  1 <1>   0.2110 
 25 N        6.7830     8.7490    -0.3060 N.ar  1 <1>  -0.1790 
 26 H        0.4410     1.5670    -1.3970 H     1 <1>   0.0800 
 27 H        1.1800     1.0730     0.1000 H     1 <1>   0.0800 
 28 H       -2.3070     0.1750    -1.9860 H     1 <1>   0.1500 
 29 H       -0.5980    -1.0910     1.7030 H     1 <1>   0.1500 
 30 H        0.9300     3.4100     0.9530 H     1 <1>   0.0800 
 31 H        0.1790     3.8320    -0.5630 H     1 <1>   0.0800 
 32 H       -2.6250    -2.1660    -2.6420 H     1 <1>   0.1500 
 33 H       -0.9150    -3.4310     1.0480 H     1 <1>   0.1500 
 34 H       -1.9280    -3.9760    -1.1280 H     1 <1>   0.1500 
 35 H        2.3120     5.4670    -0.2860 H     1 <1>   0.0800 
 36 H        1.5450     5.0440    -1.7860 H     1 <1>   0.0800 
 37 H        3.0220     2.0680     0.7000 H     1 <1>   0.0800 
 38 H        3.4840     3.7210     0.9640 H     1 <1>   0.0800 
 39 H        3.5360     6.0660    -2.4030 H     1 <1>   0.0800 
 40 H        3.7980     4.3730    -2.6910 H     1 <1>   0.0800 
 41 H        4.3340     2.2920    -1.5510 H     1 <1>   0.0800 
 42 H        5.1330     1.9160    -0.0710 H     1 <1>   0.0800 
 43 H        6.2350     3.6720    -1.5320 H     1 <1>   0.0800 
 44 H        6.1100     3.9890     0.1680 H     1 <1>   0.0800 
 45 H        6.0500     6.6360    -2.7870 H     1 <1>   0.1500 
 46 H        6.2490     8.5440     1.7090 H     1 <1>   0.1500 
 47 H        3.8190     6.0330     1.4770 H     1 <1>   0.0800 
 48 H        4.8980     6.8090     2.6030 H     1 <1>   0.0800 
 49 H        5.3280     5.2700     1.9070 H     1 <1>   0.0800 
 50 H        7.2140     8.7780    -2.3630 H     1 <1>   0.1500 
 51 H        7.2700     9.6350    -0.1360 H     1 <1>   0.4570 
@<TRIPOS>BOND
  1   1   2  2   
  2   1   3  2   
  3   1   4  1   
  4   1   5  1   
  5   4   6  ar  
  6   4   7  ar  
  7   5   8  1   
  8   5  26  1   
  9   5  27  1   
 10   6   9  ar  
 11   6  28  1   
 12   7  10  ar  
 13   7  29  1   
 14   8  11  1   
 15   8  30  1   
 16   8  31  1   
 17   9  12  ar  
 18   9  32  1   
 19  10  12  ar  
 20  10  33  1   
 21  11  13  1   
 22  11  14  1   
 23  12  34  1   
 24  13  15  1   
 25  13  35  1   
 26  13  36  1   
 27  14  16  1   
 28  14  37  1   
 29  14  38  1   
 30  15  17  1   
 31  15  39  1   
 32  15  40  1   
 33  16  18  1   
 34  16  41  1   
 35  16  42  1   
 36  17  18  1   
 37  17  19  1   
 38  18  43  1   
 39  18  44  1   
 40  19  20  ar  
 41  19  21  ar  
 42  20  22  ar  
 43  20  23  1   
 44  21  24  ar  
 45  21  45  1   
 46  22  25  ar  
 47  22  46  1   
 48  23  47  1   
 49  23  48  1   
 50  23  49  1   
 51  24  25  ar  
 52  24  50  1   
 53  25  51  1   
@<TRIPOS>SUBSTRUCTURE
  1 ****  11 GROUP 4 **** **** 0

# MOE 2024.06 (io_trps.svl 2023.06)
