@<TRIPOS>MOLECULE
Untitled Document
61 65 1 0 0 
SMALL
USER_CHARGES


@<TRIPOS>ATOM
  1 O       -0.9850     2.9730    -2.8480 O.2   1 <1>  -0.5700 
  2 C       -1.6290     3.1990    -1.8450 C.2   1 <1>   0.6900 
  3 N       -1.1420     3.7220    -0.6790 N.am  1 <1>  -0.4770 
  4 N       -2.9370     2.9140    -1.7480 N.am  1 <1>  -0.7300 
  5 C        0.1990     3.9150    -0.3250 C.ar  1 <1>   0.1170 
  6 C       -2.2240     3.7320     0.3370 C.3   1 <1>   0.1400 
  7 C       -3.4400     3.1250    -0.3840 C.3   1 <1>   0.1400 
  8 C        0.6030     5.0940     0.2900 C.ar  1 <1>  -0.1500 
  9 C        1.1520     2.9360    -0.5750 C.ar  1 <1>  -0.1500 
 10 C        1.9270     5.2980     0.6480 C.ar  1 <1>  -0.1440 
 11 C        2.4710     3.1220    -0.2080 C.ar  1 <1>  -0.1500 
 12 C        2.8590     4.3000     0.4060 C.ar  1 <1>  -0.1500 
 13 C        2.3600     6.6100     1.2710 C.3   1 <1>  -0.0170 
 14 C        2.8270     7.5370     0.1460 C.3   1 <1>   0.3430 
 15 N        3.2940     8.8640     0.6570 N.4   1 <1>  -0.9590 
 16 C        2.1570     9.7070     1.1900 C.3   1 <1>   0.3430 
 17 C        4.0260     9.6120    -0.4330 C.3   1 <1>   0.3430 
 18 C        2.6160    11.0960     1.6870 C.3   1 <1>   0.2090 
 19 C        4.5510    10.9860     0.0340 C.3   1 <1>   0.2090 
 20 N        3.4680    11.7890     0.6760 N.pl3 1 <1>  -0.8380 
 21 C        3.0070    12.9280     0.0170 C.ar  1 <1>   0.1000 
 22 C        3.7860    14.1190     0.0010 C.ar  1 <1>   0.0000 
 23 C        1.8000    12.8990    -0.6480 C.ar  1 <1>  -0.1500 
 24 C        3.3270    15.2330    -0.7380 C.ar  1 <1>   0.3100 
 25 C        4.9990    14.2710     0.6960 C.ar  1 <1>  -0.1500 
 26 C        1.3380    14.0050    -1.3560 C.ar  1 <1>  -0.1500 
 27 N        4.0220    16.3950    -0.8340 N.ar  1 <1>  -0.6200 
 28 C        2.0950    15.1450    -1.4000 C.ar  1 <1>  -0.1500 
 29 C        5.6710    15.4520     0.5940 C.ar  1 <1>  -0.1500 
 30 C        5.1420    16.4860    -0.1900 C.ar  1 <1>   0.1670 
 31 C        5.8960    17.7940    -0.3060 C.3   1 <1>  -0.0970 
 32 H       -3.3950     2.3320    -2.4490 H     1 <1>   0.3700 
 33 H       -2.4300     4.7400     0.6490 H     1 <1>   0.0800 
 34 H       -1.9430     3.1360     1.1880 H     1 <1>   0.0800 
 35 H       -3.7260     2.1880     0.0620 H     1 <1>   0.0800 
 36 H       -4.2750     3.8050    -0.3850 H     1 <1>   0.0800 
 37 H       -0.1380     5.8500     0.4700 H     1 <1>   0.1500 
 38 H        0.8540     2.0240    -1.0630 H     1 <1>   0.1500 
 39 H        3.1940     2.3480    -0.4040 H     1 <1>   0.1500 
 40 H        3.8920     4.4240     0.6840 H     1 <1>   0.1500 
 41 H        3.1620     6.4280     1.9640 H     1 <1>   0.0800 
 42 H        1.5300     7.0360     1.8040 H     1 <1>   0.0800 
 43 H        2.0210     7.6760    -0.5560 H     1 <1>   0.0800 
 44 H        3.6330     7.0470    -0.3770 H     1 <1>   0.0800 
 45 H        3.9630     8.7140     1.4240 H     1 <1>   0.4500 
 46 H        1.6670     9.1970     2.0020 H     1 <1>   0.0800 
 47 H        1.4290     9.8570     0.4110 H     1 <1>   0.0800 
 48 H        3.3620     9.7770    -1.2650 H     1 <1>   0.0800 
 49 H        4.8570     9.0250    -0.7880 H     1 <1>   0.0800 
 50 H        3.1760    10.9870     2.6000 H     1 <1>   0.0800 
 51 H        1.7540    11.7020     1.9100 H     1 <1>   0.0800 
 52 H        4.9430    11.5230    -0.8130 H     1 <1>   0.0800 
 53 H        5.3560    10.8520     0.7360 H     1 <1>   0.0800 
 54 H        1.1940    12.0140    -0.6400 H     1 <1>   0.1500 
 55 H        5.3750    13.4660     1.2990 H     1 <1>   0.1500 
 56 H        0.3920    13.9580    -1.8670 H     1 <1>   0.1500 
 57 H        1.7630    16.0100    -1.9460 H     1 <1>   0.1500 
 58 H        6.6010    15.6020     1.1110 H     1 <1>   0.1500 
 59 H        6.0840    18.0070    -1.3430 H     1 <1>   0.0800 
 60 H        6.8330    17.7540     0.2160 H     1 <1>   0.0800 
 61 H        5.3000    18.5870     0.1060 H     1 <1>   0.0800 
@<TRIPOS>BOND
  1   1   2  2   
  2   2   3  am  
  3   2   4  am  
  4   3   5  1   
  5   3   6  1   
  6   4   7  1   
  7   4  32  1   
  8   5   8  ar  
  9   5   9  ar  
 10   6   7  1   
 11   6  33  1   
 12   6  34  1   
 13   7  35  1   
 14   7  36  1   
 15   8  10  ar  
 16   8  37  1   
 17   9  11  ar  
 18   9  38  1   
 19  10  12  ar  
 20  10  13  1   
 21  11  12  ar  
 22  11  39  1   
 23  12  40  1   
 24  13  14  1   
 25  13  41  1   
 26  13  42  1   
 27  14  15  1   
 28  14  43  1   
 29  14  44  1   
 30  15  16  1   
 31  15  17  1   
 32  15  45  1   
 33  16  18  1   
 34  16  46  1   
 35  16  47  1   
 36  17  19  1   
 37  17  48  1   
 38  17  49  1   
 39  18  20  1   
 40  18  50  1   
 41  18  51  1   
 42  19  20  1   
 43  19  52  1   
 44  19  53  1   
 45  20  21  1   
 46  21  22  ar  
 47  21  23  ar  
 48  22  24  ar  
 49  22  25  ar  
 50  23  26  ar  
 51  23  54  1   
 52  24  27  ar  
 53  24  28  ar  
 54  25  29  ar  
 55  25  55  1   
 56  26  28  ar  
 57  26  56  1   
 58  27  30  ar  
 59  28  57  1   
 60  29  30  ar  
 61  29  58  1   
 62  30  31  1   
 63  31  59  1   
 64  31  60  1   
 65  31  61  1   
@<TRIPOS>SUBSTRUCTURE
  1 ****  16 GROUP 4 **** **** 0

# MOE 2024.06 (io_trps.svl 2023.06)
