@<TRIPOS>MOLECULE
NONAME
50 53 1 0 0 
SMALL
USER_CHARGES


@<TRIPOS>ATOM
  1 O       -2.4360     1.2860    -2.2050 O.2   1 <1>  -0.5700 
  2 C       -2.0750     2.0510    -1.3280 C.2   1 <1>   0.7800 
  3 O       -0.8810     2.6370    -1.3180 O.3   1 <1>  -0.2320 
  4 N       -2.8050     2.3840    -0.2190 N.am  1 <1>  -0.4770 
  5 C       -0.8240     3.3760    -0.1940 C.ar  1 <1>   0.0830 
  6 C       -2.0030     3.2440     0.5090 C.ar  1 <1>   0.1170 
  7 C       -4.2560     2.1390     0.0060 C.3   1 <1>   0.1400 
  8 C        0.2160     4.1700     0.2530 C.ar  1 <1>  -0.1500 
  9 C       -2.1760     3.9250     1.7060 C.ar  1 <1>  -0.1500 
 10 C       -4.5670     0.6560     0.2910 C.3   1 <1>   0.3430 
 11 C        0.0440     4.8480     1.4490 C.ar  1 <1>  -0.1500 
 12 C       -1.1430     4.7260     2.1690 C.ar  1 <1>  -0.1500 
 13 N       -4.3190    -0.2350    -0.8870 N.4   1 <1>  -0.9590 
 14 C       -5.3950    -0.1160    -1.9210 C.3   1 <1>   0.3430 
 15 C       -4.2780    -1.6720    -0.4770 C.3   1 <1>   0.3430 
 16 C       -6.3400    -1.2900    -1.6720 C.3   1 <1>   0.2000 
 17 C       -5.3680    -2.3970    -1.2720 C.3   1 <1>  -0.0800 
 18 O       -7.1490    -0.9600    -0.5760 O.3   1 <1>  -0.5600 
 19 C       -5.9770    -3.5880    -0.5090 C.3   1 <1>   0.0200 
 20 C       -8.5090    -1.2280    -0.7430 C.3   1 <1>   0.0400 
 21 C       -4.8840    -4.5060     0.0030 C.2   1 <1>  -0.0400 
 22 O       -3.9310    -4.8950    -0.8010 O.3   1 <1>  -0.0190 
 23 C       -4.6500    -5.0400     1.2110 C.2   1 <1>  -0.1500 
 24 N       -3.0640    -5.6470    -0.1930 N.2   1 <1>  -0.4100 
 25 C       -3.4740    -5.7610     1.0190 C.2   1 <1>   0.1080 
 26 C       -2.7680    -6.5710     2.0840 C.3   1 <1>  -0.0590 
 27 H       -4.5790     2.7240     0.8490 H     1 <1>   0.0800 
 28 H       -4.8110     2.4770    -0.8520 H     1 <1>   0.0800 
 29 H        1.1250     4.2530    -0.3160 H     1 <1>   0.1500 
 30 H       -3.0880     3.8370     2.2680 H     1 <1>   0.1500 
 31 H       -5.5990     0.5610     0.5900 H     1 <1>   0.0800 
 32 H       -3.9560     0.3390     1.1200 H     1 <1>   0.0800 
 33 H        0.8340     5.4760     1.8270 H     1 <1>   0.1500 
 34 H       -1.2550     5.2640     3.0960 H     1 <1>   0.1500 
 35 H       -3.4220     0.0420    -1.3380 H     1 <1>   0.4500 
 36 H       -5.9180     0.8240    -1.8660 H     1 <1>   0.0800 
 37 H       -4.9560    -0.2180    -2.9000 H     1 <1>   0.0800 
 38 H       -3.3110    -2.1100    -0.6740 H     1 <1>   0.0800 
 39 H       -4.4900    -1.7590     0.5770 H     1 <1>   0.0800 
 40 H       -6.9390    -1.5280    -2.5370 H     1 <1>   0.0800 
 41 H       -4.9060    -2.7760    -2.1680 H     1 <1>   0.0800 
 42 H       -6.6250    -4.1440    -1.1640 H     1 <1>   0.0800 
 43 H       -6.5590    -3.2520     0.3310 H     1 <1>   0.0800 
 44 H       -9.0190    -0.9660     0.1680 H     1 <1>   0.0800 
 45 H       -8.6490    -2.2760    -0.9440 H     1 <1>   0.0800 
 46 H       -8.8950    -0.6340    -1.5540 H     1 <1>   0.0800 
 47 H       -5.2050    -4.9600     2.1280 H     1 <1>   0.1500 
 48 H       -2.5160    -5.9430     2.9180 H     1 <1>   0.0800 
 49 H       -1.8640    -6.9960     1.6840 H     1 <1>   0.0800 
 50 H       -3.4060    -7.3680     2.4190 H     1 <1>   0.0800 
@<TRIPOS>BOND
  1   1   2  2   
  2   2   3  1   
  3   2   4  am  
  4   3   5  1   
  5   4   6  1   
  6   4   7  1   
  7   5   6  ar  
  8   5   8  ar  
  9   6   9  ar  
 10   7  10  1   
 11   7  27  1   
 12   7  28  1   
 13   8  11  ar  
 14   8  29  1   
 15   9  12  ar  
 16   9  30  1   
 17  10  13  1   
 18  10  31  1   
 19  10  32  1   
 20  11  12  ar  
 21  11  33  1   
 22  12  34  1   
 23  13  14  1   
 24  13  15  1   
 25  13  35  1   
 26  14  16  1   
 27  14  36  1   
 28  14  37  1   
 29  15  17  1   
 30  15  38  1   
 31  15  39  1   
 32  16  17  1   
 33  16  18  1   
 34  16  40  1   
 35  17  19  1   
 36  17  41  1   
 37  18  20  1   
 38  19  21  1   
 39  19  42  1   
 40  19  43  1   
 41  20  44  1   
 42  20  45  1   
 43  20  46  1   
 44  21  22  1   
 45  21  23  2   
 46  22  24  1   
 47  23  25  1   
 48  23  47  1   
 49  24  25  2   
 50  25  26  1   
 51  26  48  1   
 52  26  49  1   
 53  26  50  1   
@<TRIPOS>SUBSTRUCTURE
  1 ****  13 GROUP 4 **** **** 0

# MOE 2024.06 (io_trps.svl 2023.06)
