@<TRIPOS>MOLECULE
NONAME
41 42 1 0 0 
SMALL
USER_CHARGES


@<TRIPOS>ATOM
  1 S        0.3610     0.0190    -0.4420 S.o2  1 <1>   1.3330 
  2 O        0.1960    -0.0590    -1.8750 O.2   1 <1>  -0.6500 
  3 O        1.6900     0.0290     0.1280 O.2   1 <1>  -0.6500 
  4 N       -0.4980    -1.2630     0.2640 N.am  1 <1>  -0.8490 
  5 C       -0.5320     1.4630     0.1260 C.3   1 <1>  -0.0550 
  6 C       -0.3810    -2.5000    -0.5130 C.3   1 <1>   0.1160 
  7 C       -0.1250    -1.5150     1.6600 C.3   1 <1>   0.1160 
  8 C       -0.0020     2.7810    -0.4740 C.3   1 <1>  -0.0800 
  9 C       -0.8430     4.0120    -0.1280 C.3   1 <1>   0.2000 
 10 C        1.4210     3.1520    -0.0290 C.3   1 <1>   0.1400 
 11 O       -1.1500     3.9850     1.2250 O.3   1 <1>  -0.6800 
 12 C        0.1110     5.1780    -0.3690 C.3   1 <1>   0.1400 
 13 N        1.4420     4.6390     0.0100 N.am  1 <1>  -0.6600 
 14 C        2.6090     5.3610     0.0990 C.2   1 <1>   0.5440 
 15 O        3.6620     4.7610     0.1780 O.2   1 <1>  -0.5700 
 16 C        2.6150     6.8100     0.0880 C.ar  1 <1>   0.0860 
 17 C        3.3400     7.5030    -0.8840 C.ar  1 <1>  -0.1500 
 18 C        1.9130     7.5520     1.0470 C.ar  1 <1>  -0.1500 
 19 C        3.3350     8.8840    -0.8910 C.ar  1 <1>   0.1900 
 20 C        1.9080     8.9390     1.0390 C.ar  1 <1>  -0.1500 
 21 F        4.0140     9.5110    -1.8170 F     1 <1>  -0.1900 
 22 C        2.6240     9.5980     0.0580 C.ar  1 <1>   0.1900 
 23 F        2.6200    10.9040     0.0430 F     1 <1>  -0.1900 
 24 H       -1.5630     1.3550    -0.1490 H     1 <1>   0.0800 
 25 H       -0.4870     1.5100     1.1960 H     1 <1>   0.0800 
 26 H       -0.9500    -3.2880    -0.0490 H     1 <1>   0.0800 
 27 H        0.6510    -2.8020    -0.5850 H     1 <1>   0.0800 
 28 H       -0.7670    -2.3490    -1.5070 H     1 <1>   0.0800 
 29 H       -0.7580    -2.2780     2.0800 H     1 <1>   0.0800 
 30 H       -0.2410    -0.6190     2.2450 H     1 <1>   0.0800 
 31 H        0.9020    -1.8380     1.7240 H     1 <1>   0.0800 
 32 H        0.0110     2.6850    -1.5470 H     1 <1>   0.0800 
 33 H       -1.7580     4.0840    -0.6900 H     1 <1>   0.0800 
 34 H        2.1610     2.7760    -0.7170 H     1 <1>   0.0800 
 35 H        1.6360     2.7730     0.9560 H     1 <1>   0.0800 
 36 H       -0.3190     4.0740     1.7340 H     1 <1>   0.4000 
 37 H       -0.1670     6.0390     0.2120 H     1 <1>   0.0800 
 38 H        0.1210     5.4340    -1.4140 H     1 <1>   0.0800 
 39 H        3.9040     6.9610    -1.6220 H     1 <1>   0.1500 
 40 H        1.3690     7.0250     1.8120 H     1 <1>   0.1500 
 41 H        1.3640     9.5010     1.7780 H     1 <1>   0.1500 
@<TRIPOS>BOND
  1   1   2  2   
  2   1   3  2   
  3   1   4  am  
  4   1   5  1   
  5   4   6  1   
  6   4   7  1   
  7   5   8  1   
  8   5  24  1   
  9   5  25  1   
 10   6  26  1   
 11   6  27  1   
 12   6  28  1   
 13   7  29  1   
 14   7  30  1   
 15   7  31  1   
 16   8   9  1   
 17   8  10  1   
 18   8  32  1   
 19   9  11  1   
 20   9  12  1   
 21   9  33  1   
 22  10  13  1   
 23  10  34  1   
 24  10  35  1   
 25  11  36  1   
 26  12  13  1   
 27  12  37  1   
 28  12  38  1   
 29  13  14  am  
 30  14  15  2   
 31  14  16  1   
 32  16  17  ar  
 33  16  18  ar  
 34  17  19  ar  
 35  17  39  1   
 36  18  20  ar  
 37  18  40  1   
 38  19  21  1   
 39  19  22  ar  
 40  20  22  ar  
 41  20  41  1   
 42  22  23  1   
@<TRIPOS>SUBSTRUCTURE
  1 ****  13 GROUP 4 **** **** 0

# MOE 2024.06 (io_trps.svl 2023.06)
