@<TRIPOS>MOLECULE
NONAME
42 43 1 0 0 
SMALL
USER_CHARGES


@<TRIPOS>ATOM
  1 F       -0.2650    -3.2600    -1.8310 F     1 <1>  -0.1900 
  2 C        0.8840    -2.6860    -1.5840 C.ar  1 <1>   0.1900 
  3 C        1.3540    -2.6630    -0.2790 C.ar  1 <1>  -0.1440 
  4 C        1.5900    -2.1410    -2.6390 C.ar  1 <1>  -0.1500 
  5 C        2.5830    -2.0670    -0.0370 C.ar  1 <1>  -0.1500 
  6 C        0.5370    -3.2780     0.8380 C.3   1 <1>   0.4870 
  7 C        2.8150    -1.5530    -2.3800 C.ar  1 <1>  -0.1500 
  8 C        3.3070    -1.5180    -1.0840 C.ar  1 <1>  -0.1500 
  9 N        0.4340    -4.7400     0.5890 N.4   1 <1>  -0.9590 
 10 C       -0.6900    -5.3670     1.3350 C.3   1 <1>   0.4810 
 11 C        1.7330    -5.4420     0.7940 C.3   1 <1>   0.3430 
 12 C       -1.0260    -6.6970     0.6730 C.2   1 <1>  -0.0380 
 13 C        2.1440    -6.1290    -0.5080 C.3   1 <1>  -0.1600 
 14 N       -1.6050    -6.7220    -0.5790 N.pl3 1 <1>  -0.5500 
 15 C       -0.7640    -7.8950     1.2430 C.2   1 <1>  -0.1360 
 16 C        3.4680    -6.8810    -0.3350 C.3   1 <1>  -0.2400 
 17 C       -1.8780    -7.9080    -1.2030 C.2   1 <1>   0.4390 
 18 C       -1.0640    -9.0970     0.5510 C.2   1 <1>   0.7670 
 19 N       -1.6250    -9.0530    -0.6940 N.2   1 <1>  -0.6610 
 20 C       -2.5110    -7.8220    -2.5700 C.3   1 <1>  -0.1790 
 21 O       -0.8060   -10.1750     1.0540 O.2   1 <1>  -0.5700 
 22 H        1.1930    -2.1740    -3.6390 H     1 <1>   0.1500 
 23 H        2.9930    -2.0160     0.9590 H     1 <1>   0.1500 
 24 H       -0.4430    -2.8290     0.8360 H     1 <1>   0.0800 
 25 H        1.0020    -3.0870     1.7920 H     1 <1>   0.0800 
 26 H        3.3870    -1.1200    -3.1850 H     1 <1>   0.1500 
 27 H        4.2620    -1.0550    -0.8930 H     1 <1>   0.1500 
 28 H        0.2170    -4.8330    -0.4120 H     1 <1>   0.4500 
 29 H       -1.5610    -4.7320     1.3080 H     1 <1>   0.0800 
 30 H       -0.4130    -5.5240     2.3650 H     1 <1>   0.0800 
 31 H        1.6470    -6.1770     1.5780 H     1 <1>   0.0800 
 32 H        2.5000    -4.7370     1.0750 H     1 <1>   0.0800 
 33 H        2.2670    -5.3960    -1.2860 H     1 <1>   0.0800 
 34 H        1.3910    -6.8350    -0.8120 H     1 <1>   0.0800 
 35 H       -1.9080    -5.8790    -1.0780 H     1 <1>   0.4000 
 36 H       -0.3230    -8.0180     2.2140 H     1 <1>   0.1500 
 37 H        4.2590    -6.2060    -0.0570 H     1 <1>   0.0800 
 38 H        3.7430    -7.3560    -1.2610 H     1 <1>   0.0800 
 39 H        3.3800    -7.6450     0.4180 H     1 <1>   0.0800 
 40 H       -1.8660    -7.2940    -3.2460 H     1 <1>   0.0800 
 41 H       -3.4590    -7.3200    -2.5070 H     1 <1>   0.0800 
 42 H       -2.6760    -8.8110    -2.9600 H     1 <1>   0.0800 
@<TRIPOS>BOND
  1   1   2  1   
  2   2   3  ar  
  3   2   4  ar  
  4   3   5  ar  
  5   3   6  1   
  6   4   7  ar  
  7   4  22  1   
  8   5   8  ar  
  9   5  23  1   
 10   6   9  1   
 11   6  24  1   
 12   6  25  1   
 13   7   8  ar  
 14   7  26  1   
 15   8  27  1   
 16   9  10  1   
 17   9  11  1   
 18   9  28  1   
 19  10  12  1   
 20  10  29  1   
 21  10  30  1   
 22  11  13  1   
 23  11  31  1   
 24  11  32  1   
 25  12  14  1   
 26  12  15  2   
 27  13  16  1   
 28  13  33  1   
 29  13  34  1   
 30  14  17  1   
 31  14  35  1   
 32  15  18  1   
 33  15  36  1   
 34  16  37  1   
 35  16  38  1   
 36  16  39  1   
 37  17  19  2   
 38  17  20  1   
 39  18  19  1   
 40  18  21  2   
 41  20  40  1   
 42  20  41  1   
 43  20  42  1   
@<TRIPOS>SUBSTRUCTURE
  1 ****   9 GROUP 4 **** **** 0

# MOE 2024.06 (io_trps.svl 2023.06)
