@<TRIPOS>MOLECULE
NONAME
50 53 1 0 0 
SMALL
USER_CHARGES


@<TRIPOS>ATOM
  1 O        1.3840    -0.5140     1.0900 O.3   1 <1>  -0.5600 
  2 C        2.2480    -1.2310     0.2380 C.3   1 <1>   0.4240 
  3 C        0.0130    -0.6720     0.8990 C.3   1 <1>   0.1200 
  4 C        1.7210    -2.6570    -0.0320 C.ar  1 <1>  -0.1440 
  5 C        3.5900    -1.2850     0.9810 C.3   1 <1>  -0.1600 
  6 C        2.4060    -0.4390    -1.0710 C.3   1 <1>  -0.1600 
  7 C       -0.3680    -2.1080     1.2450 C.3   1 <1>  -0.0160 
  8 C        0.4850    -3.0740     0.4460 C.ar  1 <1>  -0.1440 
  9 C        2.4760    -3.5590    -0.7710 C.ar  1 <1>  -0.1500 
 10 C        4.1700     0.1130     1.1950 C.3   1 <1>   0.2090 
 11 C        3.0080     0.9420    -0.8230 C.3   1 <1>   0.2090 
 12 C        0.0260    -4.3570     0.1940 C.ar  1 <1>  -0.1500 
 13 C        2.0370    -4.8470    -1.0270 C.ar  1 <1>   0.0820 
 14 N        4.3110     0.7840    -0.1210 N.pl3 1 <1>  -0.8380 
 15 C        0.7840    -5.2590    -0.5470 C.ar  1 <1>   0.0820 
 16 O        2.9030    -5.6110    -1.7530 O.3   1 <1>  -0.3630 
 17 C        5.2430     1.7970    -0.2160 C.ar  1 <1>   0.4100 
 18 O        0.3220    -6.5140    -0.8260 O.3   1 <1>  -0.3630 
 19 C        2.9840    -7.0060    -1.5660 C.3   1 <1>   0.0400 
 20 N        4.7870     3.0350    -0.3490 N.ar  1 <1>  -0.6200 
 21 C        6.5980     1.4850    -0.1600 C.ar  1 <1>  -0.1500 
 22 C       -0.9900    -6.9220    -0.5070 C.3   1 <1>   0.0400 
 23 C        5.6950     4.0070    -0.4240 C.ar  1 <1>   0.3830 
 24 C        7.5400     2.4800    -0.2360 C.ar  1 <1>  -0.1500 
 25 C        5.2350     5.3640    -0.5680 C.1   1 <1>   0.4840 
 26 C        7.0630     3.7680    -0.3700 C.ar  1 <1>  -0.1500 
 27 N        4.9230     6.4580    -0.6830 N.1   1 <1>  -0.5570 
 28 H       -0.2330    -0.4400    -0.1220 H     1 <1>   0.0800 
 29 H       -0.4920     0.0200     1.5500 H     1 <1>   0.0800 
 30 H        4.3040    -1.8590     0.4220 H     1 <1>   0.0800 
 31 H        3.4490    -1.7720     1.9280 H     1 <1>   0.0800 
 32 H        1.4590    -0.3460    -1.5670 H     1 <1>   0.0800 
 33 H        3.0600    -0.9710    -1.7360 H     1 <1>   0.0800 
 34 H       -1.4090    -2.2590     1.0260 H     1 <1>   0.0800 
 35 H       -0.2140    -2.2740     2.2970 H     1 <1>   0.0800 
 36 H        3.4330    -3.2740    -1.1650 H     1 <1>   0.1500 
 37 H        5.1280     0.0400     1.6810 H     1 <1>   0.0800 
 38 H        3.5160     0.6950     1.8240 H     1 <1>   0.0800 
 39 H        2.3460     1.5400    -0.2200 H     1 <1>   0.0800 
 40 H        3.1610     1.4470    -1.7630 H     1 <1>   0.0800 
 41 H       -0.9320    -4.6350     0.5870 H     1 <1>   0.1500 
 42 H        3.9320    -7.3410    -1.9450 H     1 <1>   0.0800 
 43 H        2.1870    -7.4750    -2.1150 H     1 <1>   0.0800 
 44 H        2.9060    -7.2260    -0.5160 H     1 <1>   0.0800 
 45 H        6.8850     0.4550    -0.0620 H     1 <1>   0.1500 
 46 H       -1.1310    -7.9180    -0.8850 H     1 <1>   0.0800 
 47 H       -1.6880    -6.2520    -0.9770 H     1 <1>   0.0800 
 48 H       -1.1070    -6.9190     0.5620 H     1 <1>   0.0800 
 49 H        8.5950     2.2670    -0.1950 H     1 <1>   0.1500 
 50 H        7.7550     4.5890    -0.4350 H     1 <1>   0.1500 
@<TRIPOS>BOND
  1   1   2  1   
  2   1   3  1   
  3   2   4  1   
  4   2   5  1   
  5   2   6  1   
  6   3   7  1   
  7   3  28  1   
  8   3  29  1   
  9   4   8  ar  
 10   4   9  ar  
 11   5  10  1   
 12   5  30  1   
 13   5  31  1   
 14   6  11  1   
 15   6  32  1   
 16   6  33  1   
 17   7   8  1   
 18   7  34  1   
 19   7  35  1   
 20   8  12  ar  
 21   9  13  ar  
 22   9  36  1   
 23  10  14  1   
 24  10  37  1   
 25  10  38  1   
 26  11  14  1   
 27  11  39  1   
 28  11  40  1   
 29  12  15  ar  
 30  12  41  1   
 31  13  15  ar  
 32  13  16  1   
 33  14  17  1   
 34  15  18  1   
 35  16  19  1   
 36  17  20  ar  
 37  17  21  ar  
 38  18  22  1   
 39  19  42  1   
 40  19  43  1   
 41  19  44  1   
 42  20  23  ar  
 43  21  24  ar  
 44  21  45  1   
 45  22  46  1   
 46  22  47  1   
 47  22  48  1   
 48  23  25  1   
 49  23  26  ar  
 50  24  26  ar  
 51  24  49  1   
 52  25  27  3   
 53  26  50  1   
@<TRIPOS>SUBSTRUCTURE
  1 ****   2 GROUP 4 **** **** 0

# MOE 2024.06 (io_trps.svl 2023.06)
