@<TRIPOS>MOLECULE
NONAME
46 48 1 0 0 
SMALL
USER_CHARGES


@<TRIPOS>ATOM
  1 O        0.7420     0.9660    -0.4770 O.2   1 <1>  -0.5700 
  2 C        0.4050     2.1220    -0.3820 C.2   1 <1>   0.5690 
  3 N       -0.8360     2.4900     0.0670 N.am  1 <1>  -0.6600 
  4 C        1.4100     3.1950    -0.8120 C.3   1 <1>   0.1810 
  5 C       -1.2220     3.9350     0.1910 C.3   1 <1>   0.3640 
  6 C       -1.8190     1.4940     0.5870 C.3   1 <1>   0.0600 
  7 O        1.1210     4.4720    -0.2950 O.3   1 <1>  -0.5600 
  8 C       -2.6220     4.1520    -0.4040 C.ar  1 <1>  -0.1440 
  9 C       -0.2130     4.8840    -0.5020 C.3   1 <1>   0.2610 
 10 C       -3.6740     4.7060     0.3250 C.ar  1 <1>  -0.1440 
 11 C       -2.8440     3.7770    -1.7260 C.ar  1 <1>  -0.1500 
 12 C       -0.3990     6.3260    -0.0190 C.2   1 <1>   0.5690 
 13 C       -4.9060     4.8930    -0.2850 C.ar  1 <1>  -0.1500 
 14 C       -3.5380     5.1170     1.7870 C.3   1 <1>  -0.0960 
 15 C       -4.0750     3.9640    -2.3240 C.ar  1 <1>  -0.1500 
 16 O       -0.4920     6.5630     1.1660 O.2   1 <1>  -0.5700 
 17 N       -0.4110     7.3400    -0.9250 N.am  1 <1>  -0.7300 
 18 C       -5.1090     4.5270    -1.6030 C.ar  1 <1>  -0.1500 
 19 C       -0.5100     8.7750    -0.5620 C.3   1 <1>   0.3200 
 20 C        0.8260     9.2720    -0.0470 C.2   1 <1>   0.0060 
 21 N        1.5120    10.2460    -0.5380 N.2   1 <1>  -0.3380 
 22 N        1.4370     8.7270     1.0020 N.pl3 1 <1>   0.0330 
 23 N        2.6170    10.3540     0.2060 N.2   1 <1>  -0.3380 
 24 C        2.5540     9.4420     1.1140 C.2   1 <1>   0.0060 
 25 C        3.6050     9.1980     2.1760 C.3   1 <1>  -0.0600 
 26 H        1.4290     3.2570    -1.8840 H     1 <1>   0.0800 
 27 H        2.3890     2.9180    -0.4660 H     1 <1>   0.0800 
 28 H       -1.2230     4.1680     1.2390 H     1 <1>   0.0800 
 29 H       -2.1500     1.7840     1.5690 H     1 <1>   0.0800 
 30 H       -1.3740     0.5160     0.6500 H     1 <1>   0.0800 
 31 H       -2.6700     1.4410    -0.0690 H     1 <1>   0.0800 
 32 H       -0.3870     4.8680    -1.5620 H     1 <1>   0.0800 
 33 H       -2.0550     3.3240    -2.3010 H     1 <1>   0.1500 
 34 H       -5.7250     5.3240     0.2630 H     1 <1>   0.1500 
 35 H       -4.4920     5.3940     2.1990 H     1 <1>   0.0800 
 36 H       -2.8820     5.9620     1.8790 H     1 <1>   0.0800 
 37 H       -3.1530     4.3030     2.3730 H     1 <1>   0.0800 
 38 H       -4.2310     3.6690    -3.3470 H     1 <1>   0.1500 
 39 H       -0.1350     7.1700    -1.8940 H     1 <1>   0.3700 
 40 H       -6.0700     4.6760    -2.0620 H     1 <1>   0.1500 
 41 H       -0.8010     9.3470    -1.4260 H     1 <1>   0.0800 
 42 H       -1.2580     8.9050     0.2000 H     1 <1>   0.0800 
 43 H        1.0960     7.9290     1.5520 H     1 <1>   0.2700 
 44 H        3.9940     8.2000     2.0870 H     1 <1>   0.0800 
 45 H        3.1790     9.3300     3.1540 H     1 <1>   0.0800 
 46 H        4.4140     9.8960     2.0540 H     1 <1>   0.0800 
@<TRIPOS>BOND
  1   1   2  2   
  2   2   3  am  
  3   2   4  1   
  4   3   5  1   
  5   3   6  1   
  6   4   7  1   
  7   4  26  1   
  8   4  27  1   
  9   5   8  1   
 10   5   9  1   
 11   5  28  1   
 12   6  29  1   
 13   6  30  1   
 14   6  31  1   
 15   7   9  1   
 16   8  10  ar  
 17   8  11  ar  
 18   9  12  1   
 19   9  32  1   
 20  10  13  ar  
 21  10  14  1   
 22  11  15  ar  
 23  11  33  1   
 24  12  16  2   
 25  12  17  am  
 26  13  18  ar  
 27  13  34  1   
 28  14  35  1   
 29  14  36  1   
 30  14  37  1   
 31  15  18  ar  
 32  15  38  1   
 33  17  19  1   
 34  17  39  1   
 35  18  40  1   
 36  19  20  1   
 37  19  41  1   
 38  19  42  1   
 39  20  21  2   
 40  20  22  1   
 41  21  23  1   
 42  22  24  1   
 43  22  43  1   
 44  23  24  2   
 45  24  25  1   
 46  25  44  1   
 47  25  45  1   
 48  25  46  1   
@<TRIPOS>SUBSTRUCTURE
  1 ****  12 GROUP 4 **** **** 0

# MOE 2024.06 (io_trps.svl 2023.06)
