@<TRIPOS>MOLECULE
NONAME
40 41 1 0 0 
SMALL
USER_CHARGES


@<TRIPOS>ATOM
  1 O       -0.2060     1.0330     0.2680 O.2   1 <1>  -0.5700 
  2 C       -0.2370     2.2200     0.0650 C.2   1 <1>   0.5690 
  3 N       -1.2130     2.9880     0.5910 N.am  1 <1>  -0.7300 
  4 C        0.8140     2.8780    -0.8290 C.3   1 <1>   0.1810 
  5 C       -1.3830     4.4330     0.2930 C.3   1 <1>   0.3640 
  6 O        0.9340     4.2590    -0.5760 O.3   1 <1>  -0.5600 
  7 C       -2.7830     4.6290    -0.2880 C.ar  1 <1>  -0.1440 
  8 C       -0.2880     4.9920    -0.6610 C.3   1 <1>   0.2610 
  9 C       -3.2890     3.7770    -1.2630 C.ar  1 <1>  -0.1500 
 10 C       -3.5740     5.6790     0.1580 C.ar  1 <1>  -0.1500 
 11 C       -0.0370     6.4710    -0.3410 C.2   1 <1>   0.5690 
 12 C       -4.5600     3.9680    -1.7760 C.ar  1 <1>  -0.1500 
 13 C       -4.8450     5.8720    -0.3550 C.ar  1 <1>  -0.1500 
 14 O       -0.9490     7.2580    -0.4340 O.2   1 <1>  -0.5700 
 15 N        1.2140     6.8440     0.0510 N.am  1 <1>  -0.7300 
 16 C       -5.3390     5.0160    -1.3220 C.ar  1 <1>  -0.1500 
 17 C        1.7340     8.1630     0.4140 C.3   1 <1>   0.3000 
 18 C        0.9800     8.6950     1.6320 C.3   1 <1>  -0.2400 
 19 C        1.6090     9.1110    -0.7780 C.3   1 <1>  -0.2400 
 20 C        3.2080     7.9670     0.7660 C.3   1 <1>  -0.2400 
 21 H       -1.9530     2.5380     1.1330 H     1 <1>   0.3700 
 22 H        0.5510     2.7390    -1.8620 H     1 <1>   0.0800 
 23 H        1.7710     2.4240    -0.6470 H     1 <1>   0.0800 
 24 H       -1.3190     4.9660     1.2270 H     1 <1>   0.0800 
 25 H       -0.6330     4.9290    -1.6760 H     1 <1>   0.0800 
 26 H       -2.7000     2.9540    -1.6290 H     1 <1>   0.1500 
 27 H       -3.2030     6.3640     0.9020 H     1 <1>   0.1500 
 28 H       -4.9430     3.3010    -2.5290 H     1 <1>   0.1500 
 29 H       -5.4460     6.6930    -0.0040 H     1 <1>   0.1500 
 30 H        1.9120     6.0970     0.0650 H     1 <1>   0.3700 
 31 H       -6.3270     5.1670    -1.7210 H     1 <1>   0.1500 
 32 H        1.4040     9.6290     1.9510 H     1 <1>   0.0800 
 33 H        1.0390     7.9970     2.4470 H     1 <1>   0.0800 
 34 H       -0.0540     8.8670     1.3920 H     1 <1>   0.0800 
 35 H        2.0540    10.0610    -0.5440 H     1 <1>   0.0800 
 36 H        0.5760     9.2800    -1.0210 H     1 <1>   0.0800 
 37 H        2.1080     8.7020    -1.6380 H     1 <1>   0.0800 
 38 H        3.6480     8.9080     1.0440 H     1 <1>   0.0800 
 39 H        3.7500     7.5810    -0.0780 H     1 <1>   0.0800 
 40 H        3.3120     7.2900     1.5950 H     1 <1>   0.0800 
@<TRIPOS>BOND
  1   1   2  2   
  2   2   3  am  
  3   2   4  1   
  4   3   5  1   
  5   3  21  1   
  6   4   6  1   
  7   4  22  1   
  8   4  23  1   
  9   5   7  1   
 10   5   8  1   
 11   5  24  1   
 12   6   8  1   
 13   7   9  ar  
 14   7  10  ar  
 15   8  11  1   
 16   8  25  1   
 17   9  12  ar  
 18   9  26  1   
 19  10  13  ar  
 20  10  27  1   
 21  11  14  2   
 22  11  15  am  
 23  12  16  ar  
 24  12  28  1   
 25  13  16  ar  
 26  13  29  1   
 27  15  17  1   
 28  15  30  1   
 29  16  31  1   
 30  17  18  1   
 31  17  19  1   
 32  17  20  1   
 33  18  32  1   
 34  18  33  1   
 35  18  34  1   
 36  19  35  1   
 37  19  36  1   
 38  19  37  1   
 39  20  38  1   
 40  20  39  1   
 41  20  40  1   
@<TRIPOS>SUBSTRUCTURE
  1 ****   8 GROUP 4 **** **** 0

# MOE 2024.06 (io_trps.svl 2023.06)
