@<TRIPOS>MOLECULE
NONAME
36 38 1 0 0 
SMALL
USER_CHARGES


@<TRIPOS>ATOM
  1 CL      -0.5440    -0.3480    -0.2630 Cl    1 <1>  -0.1770 
  2 C        1.0220    -1.1250    -0.1090 C.ar  1 <1>   0.1770 
  3 C        1.1300    -2.4590     0.2640 C.ar  1 <1>   0.4100 
  4 C        2.1710    -0.4280    -0.3600 C.ar  1 <1>   0.1600 
  5 N        2.3160    -3.0310     0.3680 N.ar  1 <1>  -0.6200 
  6 N        0.0310    -3.2350     0.5420 N.pl3 1 <1>  -0.8690 
  7 N        3.3640    -0.9900    -0.2560 N.ar  1 <1>  -0.6200 
  8 C        3.3600    -2.2630     0.1060 C.ar  1 <1>   0.4770 
  9 C        0.0610    -4.7270     0.5430 C.3   1 <1>   0.3900 
 10 C        4.7140    -2.9190     0.2270 C.3   1 <1>  -0.0960 
 11 C       -1.2900    -5.3380     0.1640 C.2   1 <1>   0.3350 
 12 N       -2.3380    -4.6850    -0.1640 N.2   1 <1>  -0.4100 
 13 N       -1.4690    -6.6530     0.1490 N.2   1 <1>  -0.5650 
 14 O       -3.2700    -5.5530    -0.4120 O.3   1 <1>  -0.0190 
 15 C       -2.6920    -6.7110    -0.2060 C.2   1 <1>   0.2980 
 16 C       -3.5290    -7.9710    -0.4170 C.3   1 <1>   0.1000 
 17 C       -4.7390    -8.0520     0.5150 C.3   1 <1>  -0.1600 
 18 C       -2.7980    -9.2890    -0.1520 C.3   1 <1>  -0.1600 
 19 C       -5.1290    -9.5340     0.5560 C.3   1 <1>  -0.1600 
 20 C       -3.9110   -10.3190     0.0540 C.3   1 <1>  -0.1600 
 21 H        2.1180     0.6070    -0.6510 H     1 <1>   0.1500 
 22 H       -0.8950    -2.8640     0.2940 H     1 <1>   0.4000 
 23 H        0.3360    -5.0690     1.5240 H     1 <1>   0.0800 
 24 H        0.8010    -5.0770    -0.1560 H     1 <1>   0.0800 
 25 H        4.6690    -3.7410     0.9180 H     1 <1>   0.0800 
 26 H        5.4370    -2.2080     0.5810 H     1 <1>   0.0800 
 27 H        5.0190    -3.2830    -0.7350 H     1 <1>   0.0800 
 28 H       -3.8790    -7.9770    -1.4340 H     1 <1>   0.0800 
 29 H       -5.5490    -7.4310     0.1730 H     1 <1>   0.0800 
 30 H       -4.4480    -7.7350     1.5020 H     1 <1>   0.0800 
 31 H       -2.2230    -9.2070     0.7540 H     1 <1>   0.0800 
 32 H       -2.1410    -9.5540    -0.9620 H     1 <1>   0.0800 
 33 H       -5.9710    -9.7160    -0.0900 H     1 <1>   0.0800 
 34 H       -5.3920    -9.8260     1.5580 H     1 <1>   0.0800 
 35 H       -3.6110   -11.0790     0.7550 H     1 <1>   0.0800 
 36 H       -4.1490   -10.7880    -0.8860 H     1 <1>   0.0800 
@<TRIPOS>BOND
  1   1   2  1   
  2   2   3  ar  
  3   2   4  ar  
  4   3   5  ar  
  5   3   6  1   
  6   4   7  ar  
  7   4  21  1   
  8   5   8  ar  
  9   6   9  1   
 10   6  22  1   
 11   7   8  ar  
 12   8  10  1   
 13   9  11  1   
 14   9  23  1   
 15   9  24  1   
 16  10  25  1   
 17  10  26  1   
 18  10  27  1   
 19  11  12  2   
 20  11  13  1   
 21  12  14  1   
 22  13  15  2   
 23  14  15  1   
 24  15  16  1   
 25  16  17  1   
 26  16  18  1   
 27  16  28  1   
 28  17  19  1   
 29  17  29  1   
 30  17  30  1   
 31  18  20  1   
 32  18  31  1   
 33  18  32  1   
 34  19  20  1   
 35  19  33  1   
 36  19  34  1   
 37  20  35  1   
 38  20  36  1   
@<TRIPOS>SUBSTRUCTURE
  1 ****  11 GROUP 4 **** **** 0

# MOE 2024.06 (io_trps.svl 2023.06)
