@<TRIPOS>MOLECULE
NONAME
55 58 1 0 0 
SMALL
USER_CHARGES


@<TRIPOS>ATOM
  1 O       -1.5330    -4.1100     1.6090 O.2   1 <1>  -0.5700 
  2 C       -0.4270    -4.1850     1.1460 C.2   1 <1>   0.5690 
  3 N        0.0460    -5.3320     0.6180 N.am  1 <1>  -0.7300 
  4 C        0.4960    -2.9860     1.1440 C.3   1 <1>  -0.0990 
  5 C        1.4050    -5.4770     0.0630 C.3   1 <1>   0.1400 
  6 C        1.2290    -2.8730    -0.2080 C.3   1 <1>  -0.0800 
  7 C        1.7700    -4.2180    -0.7550 C.3   1 <1>  -0.0800 
  8 C        2.4180    -1.9020    -0.1720 C.3   1 <1>  -0.1600 
  9 C        3.2820    -4.0230    -0.9260 C.3   1 <1>  -0.1600 
 10 C        3.4420    -2.5160    -1.1210 C.3   1 <1>   0.4230 
 11 N        4.8230    -2.0040    -0.8980 N.4   1 <1>  -0.9590 
 12 C        5.4440    -2.3470     0.4160 C.3   1 <1>   0.4860 
 13 C        5.7280    -2.3830    -2.0290 C.3   1 <1>   0.2630 
 14 C        6.6440    -1.4440     0.6160 C.ar  1 <1>  -0.1440 
 15 C        7.9310    -1.9450     0.4800 C.ar  1 <1>  -0.1500 
 16 C        6.4620    -0.1040     0.9260 C.ar  1 <1>  -0.1500 
 17 C        9.0200    -1.1070     0.6330 C.ar  1 <1>  -0.1500 
 18 C        7.5530     0.7330     1.0790 C.ar  1 <1>  -0.1500 
 19 C        8.8430     0.2350     0.9260 C.ar  1 <1>   0.0820 
 20 O        9.9680     0.9840     1.0450 O.3   1 <1>  -0.3630 
 21 C        9.9190     2.3830     1.2820 C.3   1 <1>   0.2640 
 22 C        9.3990     3.1380     0.0620 C.ar  1 <1>   0.1670 
 23 N        8.4850     4.0740     0.2890 N.ar  1 <1>  -0.6200 
 24 C        9.8900     2.8290    -1.1990 C.ar  1 <1>  -0.1500 
 25 C        8.0540     4.7270    -0.7790 C.ar  1 <1>   0.1600 
 26 C        9.4280     3.5150    -2.3020 C.ar  1 <1>  -0.1500 
 27 C        8.4830     4.4910    -2.0730 C.ar  1 <1>  -0.1500 
 28 H       -0.5660    -6.1520     0.6560 H     1 <1>   0.3700 
 29 H       -0.0790    -2.0960     1.3330 H     1 <1>   0.0800 
 30 H        1.1920    -3.1160     1.9510 H     1 <1>   0.0800 
 31 H        2.0890    -5.6090     0.8840 H     1 <1>   0.0800 
 32 H        1.4510    -6.3530    -0.5630 H     1 <1>   0.0800 
 33 H        0.5110    -2.5070    -0.9260 H     1 <1>   0.0800 
 34 H        1.3430    -4.3530    -1.7370 H     1 <1>   0.0800 
 35 H        2.8000    -1.8440     0.8300 H     1 <1>   0.0800 
 36 H        2.1200    -0.9200    -0.4960 H     1 <1>   0.0800 
 37 H        3.6490    -4.5770    -1.7730 H     1 <1>   0.0800 
 38 H        3.7810    -4.3520    -0.0330 H     1 <1>   0.0800 
 39 H        3.1330    -2.2770    -2.1270 H     1 <1>   0.0800 
 40 H        4.7700    -0.9760    -0.9030 H     1 <1>   0.4500 
 41 H        4.7480    -2.1840     1.2220 H     1 <1>   0.0800 
 42 H        5.7500    -3.3800     0.4310 H     1 <1>   0.0800 
 43 H        5.8730    -3.4510    -2.0550 H     1 <1>   0.0800 
 44 H        6.6900    -1.9070    -1.9150 H     1 <1>   0.0800 
 45 H        5.3050    -2.0690    -2.9700 H     1 <1>   0.0800 
 46 H        8.1050    -2.9830     0.2550 H     1 <1>   0.1500 
 47 H        5.4770     0.3110     1.0560 H     1 <1>   0.1500 
 48 H       10.0220    -1.4870     0.5280 H     1 <1>   0.1500 
 49 H        7.3780     1.7680     1.3140 H     1 <1>   0.1500 
 50 H        9.3050     2.5650     2.1450 H     1 <1>   0.0800 
 51 H       10.9190     2.7090     1.5010 H     1 <1>   0.0800 
 52 H       10.6290     2.0560    -1.3140 H     1 <1>   0.1500 
 53 H        7.3170     5.4950    -0.6130 H     1 <1>   0.1500 
 54 H        9.7910     3.3000    -3.2920 H     1 <1>   0.1500 
 55 H        8.0840     5.0670    -2.8880 H     1 <1>   0.1500 
@<TRIPOS>BOND
  1   1   2  2   
  2   2   3  am  
  3   2   4  1   
  4   3   5  1   
  5   3  28  1   
  6   4   6  1   
  7   4  29  1   
  8   4  30  1   
  9   5   7  1   
 10   5  31  1   
 11   5  32  1   
 12   6   7  1   
 13   6   8  1   
 14   6  33  1   
 15   7   9  1   
 16   7  34  1   
 17   8  10  1   
 18   8  35  1   
 19   8  36  1   
 20   9  10  1   
 21   9  37  1   
 22   9  38  1   
 23  10  11  1   
 24  10  39  1   
 25  11  12  1   
 26  11  13  1   
 27  11  40  1   
 28  12  14  1   
 29  12  41  1   
 30  12  42  1   
 31  13  43  1   
 32  13  44  1   
 33  13  45  1   
 34  14  15  ar  
 35  14  16  ar  
 36  15  17  ar  
 37  15  46  1   
 38  16  18  ar  
 39  16  47  1   
 40  17  19  ar  
 41  17  48  1   
 42  18  19  ar  
 43  18  49  1   
 44  19  20  1   
 45  20  21  1   
 46  21  22  1   
 47  21  50  1   
 48  21  51  1   
 49  22  23  ar  
 50  22  24  ar  
 51  23  25  ar  
 52  24  26  ar  
 53  24  52  1   
 54  25  27  ar  
 55  25  53  1   
 56  26  27  ar  
 57  26  54  1   
 58  27  55  1   
@<TRIPOS>SUBSTRUCTURE
  1 ****  14 GROUP 4 **** **** 0

# MOE 2024.06 (io_trps.svl 2023.06)
