@<TRIPOS>MOLECULE
NONAME
39 40 1 0 0 
SMALL
USER_CHARGES


@<TRIPOS>ATOM
  1 O       -1.9150    -0.2800     1.3670 O.2   1 <1>  -0.5700 
  2 C       -1.8840     0.4930     0.4390 C.2   1 <1>   0.5690 
  3 N       -1.9190     0.0580    -0.8440 N.am  1 <1>  -0.7300 
  4 C       -1.8550     1.9940     0.7190 C.3   1 <1>  -0.0190 
  5 C       -2.0230    -1.3630    -1.2490 C.3   1 <1>   0.3200 
  6 C       -3.0760     2.7130     0.1120 C.3   1 <1>  -0.1600 
  7 C       -0.5280     2.6440     0.2560 C.3   1 <1>  -0.1600 
  8 C       -3.4250    -1.8790    -0.9900 C.2   1 <1>   0.0060 
  9 C       -3.1380     4.2010     0.5160 C.3   1 <1>   0.2000 
 10 C       -0.6330     4.1630     0.0180 C.3   1 <1>  -0.1600 
 11 N       -4.2550    -2.3020    -1.8810 N.2   1 <1>  -0.3380 
 12 N       -3.9470    -1.9460     0.2310 N.pl3 1 <1>   0.0330 
 13 O       -3.6900     4.9180    -0.5600 O.3   1 <1>  -0.5600 
 14 C       -1.7450     4.7920     0.8610 C.3   1 <1>   0.2000 
 15 N       -5.3670    -2.6620    -1.2320 N.2   1 <1>  -0.3380 
 16 C       -5.1640    -2.4420     0.0210 C.2   1 <1>   0.0060 
 17 C       -5.0810     4.8830    -0.6450 C.3   1 <1>   0.0400 
 18 O       -1.7540     6.1490     0.6120 O.3   1 <1>  -0.6800 
 19 C       -6.1670    -2.7060     1.1230 C.3   1 <1>  -0.0600 
 20 H       -2.0300     0.7320    -1.6030 H     1 <1>   0.3700 
 21 H       -1.9180     2.1080     1.7880 H     1 <1>   0.0800 
 22 H       -1.7920    -1.4590    -2.2960 H     1 <1>   0.0800 
 23 H       -1.3170    -1.9510    -0.6880 H     1 <1>   0.0800 
 24 H       -3.9770     2.2230     0.4340 H     1 <1>   0.0800 
 25 H       -3.0190     2.6430    -0.9610 H     1 <1>   0.0800 
 26 H        0.2200     2.4520     1.0070 H     1 <1>   0.0800 
 27 H       -0.1830     2.1860    -0.6550 H     1 <1>   0.0800 
 28 H       -3.7690     4.3270     1.3790 H     1 <1>   0.0800 
 29 H       -0.8540     4.3400    -1.0210 H     1 <1>   0.0800 
 30 H        0.3090     4.6310     0.2470 H     1 <1>   0.0800 
 31 H       -3.4860    -1.6450     1.0990 H     1 <1>   0.2700 
 32 H       -1.5250     4.6500     1.9050 H     1 <1>   0.0800 
 33 H       -5.3790     5.4680    -1.4970 H     1 <1>   0.0800 
 34 H       -5.5030     5.3090     0.2500 H     1 <1>   0.0800 
 35 H       -5.4110     3.8670    -0.7730 H     1 <1>   0.0800 
 36 H       -2.3830     6.2810    -0.1330 H     1 <1>   0.4000 
 37 H       -5.7720    -3.4240     1.8180 H     1 <1>   0.0800 
 38 H       -7.0760    -3.0970     0.7010 H     1 <1>   0.0800 
 39 H       -6.3930    -1.7930     1.6430 H     1 <1>   0.0800 
@<TRIPOS>BOND
  1   1   2  2   
  2   2   3  am  
  3   2   4  1   
  4   3   5  1   
  5   3  20  1   
  6   4   6  1   
  7   4   7  1   
  8   4  21  1   
  9   5   8  1   
 10   5  22  1   
 11   5  23  1   
 12   6   9  1   
 13   6  24  1   
 14   6  25  1   
 15   7  10  1   
 16   7  26  1   
 17   7  27  1   
 18   8  11  2   
 19   8  12  1   
 20   9  13  1   
 21   9  14  1   
 22   9  28  1   
 23  10  14  1   
 24  10  29  1   
 25  10  30  1   
 26  11  15  1   
 27  12  16  1   
 28  12  31  1   
 29  13  17  1   
 30  14  18  1   
 31  14  32  1   
 32  15  16  2   
 33  16  19  1   
 34  17  33  1   
 35  17  34  1   
 36  17  35  1   
 37  18  36  1   
 38  19  37  1   
 39  19  38  1   
 40  19  39  1   
@<TRIPOS>SUBSTRUCTURE
  1 ****   2 GROUP 4 **** **** 0

# MOE 2024.06 (io_trps.svl 2023.06)
