@<TRIPOS>MOLECULE
NONAME
43 44 1 0 0 
SMALL
USER_CHARGES


@<TRIPOS>ATOM
  1 O        1.8970     0.5260    -0.8930 O.2   1 <1>  -0.5700 
  2 C        2.2080    -0.5300    -0.3730 C.2   1 <1>   0.7670 
  3 N        2.7590    -0.5290     0.8770 N.2   1 <1>  -0.6610 
  4 C        1.9790    -1.7550    -1.0510 C.2   1 <1>  -0.1360 
  5 C        3.0670    -1.6520     1.4040 C.2   1 <1>   0.4390 
  6 C        2.2960    -2.9310    -0.4620 C.2   1 <1>  -0.0380 
  7 N        2.8610    -2.8580     0.7940 N.pl3 1 <1>  -0.5500 
  8 C        3.6970    -1.6840     2.7740 C.3   1 <1>  -0.1790 
  9 C        2.0400    -4.2820    -1.1220 C.3   1 <1>   0.4810 
 10 N        0.9100    -4.9710    -0.4280 N.4   1 <1>  -0.9590 
 11 C        0.7760    -6.3710    -0.9270 C.3   1 <1>   0.3430 
 12 C       -0.3710    -4.2030    -0.5940 C.3   1 <1>   0.2630 
 13 C       -0.1020    -7.2050     0.0060 C.3   1 <1>  -0.1600 
 14 C       -0.2760    -8.6180    -0.5500 C.3   1 <1>   0.3430 
 15 O       -0.6700    -8.5050    -1.8650 O.3   1 <1>  -0.6800 
 16 C       -1.3320    -9.4040     0.2120 C.ar  1 <1>  -0.1430 
 17 C       -0.9410   -10.4170     1.0770 C.ar  1 <1>  -0.1500 
 18 C       -2.6870    -9.1280     0.0660 C.ar  1 <1>  -0.1500 
 19 C       -1.8850   -11.1380     1.7860 C.ar  1 <1>  -0.1500 
 20 C       -3.6310    -9.8500     0.7750 C.ar  1 <1>  -0.1500 
 21 C       -3.2300   -10.8550     1.6360 C.ar  1 <1>  -0.1500 
 22 H        1.5450    -1.6680    -2.0290 H     1 <1>   0.1500 
 23 H        3.2140    -3.6760     1.3010 H     1 <1>   0.4000 
 24 H        3.0810    -2.2430     3.4540 H     1 <1>   0.0800 
 25 H        3.7990    -0.6820     3.1540 H     1 <1>   0.0800 
 26 H        4.6740    -2.1270     2.7230 H     1 <1>   0.0800 
 27 H        2.9350    -4.8800    -1.0660 H     1 <1>   0.0800 
 28 H        1.7950    -4.1370    -2.1620 H     1 <1>   0.0800 
 29 H        1.1320    -4.9950     0.5750 H     1 <1>   0.4500 
 30 H        1.7470    -6.8350    -0.9920 H     1 <1>   0.0800 
 31 H        0.3450    -6.3660    -1.9170 H     1 <1>   0.0800 
 32 H       -0.6500    -4.1550    -1.6340 H     1 <1>   0.0800 
 33 H       -0.2590    -3.1970    -0.2200 H     1 <1>   0.0800 
 34 H       -1.1700    -4.6760    -0.0470 H     1 <1>   0.0800 
 35 H       -1.0770    -6.7660     0.1070 H     1 <1>   0.0800 
 36 H        0.3440    -7.2760     0.9810 H     1 <1>   0.0800 
 37 H        0.6610    -9.1510    -0.5410 H     1 <1>   0.0800 
 38 H       -1.0990    -9.3470    -2.1280 H     1 <1>   0.4000 
 39 H        0.1000   -10.6560     1.2090 H     1 <1>   0.1500 
 40 H       -3.0170    -8.3500    -0.6000 H     1 <1>   0.1500 
 41 H       -1.5740   -11.9220     2.4550 H     1 <1>   0.1500 
 42 H       -4.6780    -9.6310     0.6570 H     1 <1>   0.1500 
 43 H       -3.9640   -11.4170     2.1880 H     1 <1>   0.1500 
@<TRIPOS>BOND
  1   1   2  2   
  2   2   3  1   
  3   2   4  1   
  4   3   5  2   
  5   4   6  2   
  6   4  22  1   
  7   5   7  1   
  8   5   8  1   
  9   6   7  1   
 10   6   9  1   
 11   7  23  1   
 12   8  24  1   
 13   8  25  1   
 14   8  26  1   
 15   9  10  1   
 16   9  27  1   
 17   9  28  1   
 18  10  11  1   
 19  10  12  1   
 20  10  29  1   
 21  11  13  1   
 22  11  30  1   
 23  11  31  1   
 24  12  32  1   
 25  12  33  1   
 26  12  34  1   
 27  13  14  1   
 28  13  35  1   
 29  13  36  1   
 30  14  15  1   
 31  14  16  1   
 32  14  37  1   
 33  15  38  1   
 34  16  17  ar  
 35  16  18  ar  
 36  17  19  ar  
 37  17  39  1   
 38  18  20  ar  
 39  18  40  1   
 40  19  21  ar  
 41  19  41  1   
 42  20  21  ar  
 43  20  42  1   
 44  21  43  1   
@<TRIPOS>SUBSTRUCTURE
  1 ****  10 GROUP 4 **** **** 0

# MOE 2024.06 (io_trps.svl 2023.06)
