@<TRIPOS>MOLECULE
NONAME
45 48 1 0 0 
SMALL
USER_CHARGES


@<TRIPOS>ATOM
  1 N        0.1210     0.7340     1.5120 N.ar  1 <1>  -0.6200 
  2 C       -1.0250     1.3460     1.7790 C.ar  1 <1>   0.7200 
  3 C        0.5670     0.9580     0.3020 C.ar  1 <1>   0.1660 
  4 N       -1.7510     2.1220     0.9860 N.ar  1 <1>  -0.6200 
  5 N       -1.5240     1.1440     2.9980 N.pl3 1 <1>  -0.9000 
  6 C       -0.0760     1.7450    -0.6050 C.ar  1 <1>  -0.1430 
  7 C        1.8570     0.4010    -0.2520 C.3   1 <1>   0.1440 
  8 C       -1.2630     2.3210    -0.2180 C.ar  1 <1>   0.1600 
  9 C        0.6810     1.8320    -1.9070 C.3   1 <1>  -0.0170 
 10 C        2.9690     0.6280     0.7870 C.3   1 <1>   0.3430 
 11 C        1.7040    -1.1050    -0.5550 C.3   1 <1>  -0.1600 
 12 C        2.0570     1.2390    -1.5440 C.3   1 <1>  -0.1600 
 13 N        4.2510    -0.0230     0.3700 N.4   1 <1>  -0.9590 
 14 C        3.0530    -1.7640    -0.9030 C.3   1 <1>  -0.1600 
 15 C        4.1250    -1.4890     0.1550 C.3   1 <1>   0.3430 
 16 C        5.4050     0.3180     1.2400 C.3   1 <1>   0.5230 
 17 C        6.6250     0.4300     0.3340 C.2   1 <1>   0.0060 
 18 N        6.5320     0.5060    -0.9610 N.2   1 <1>  -0.5650 
 19 N        7.9020     0.4690     0.7920 N.pl3 1 <1>   0.0480 
 20 C        7.8110     0.5970    -1.3700 C.2   1 <1>   0.0770 
 21 C        8.6540     0.5750    -0.3160 C.2   1 <1>  -0.3020 
 22 C        8.4180     0.4200     2.1750 C.3   1 <1>   0.0160 
 23 H       -2.5020     1.4020     3.1050 H     1 <1>   0.4000 
 24 H       -1.2300     0.2930     3.4680 H     1 <1>   0.4000 
 25 H       -1.8150     2.9500    -0.8970 H     1 <1>   0.1500 
 26 H        0.7640     2.8470    -2.2550 H     1 <1>   0.0800 
 27 H        0.1890     1.2300    -2.6520 H     1 <1>   0.0800 
 28 H        2.6440     0.2150     1.7280 H     1 <1>   0.0800 
 29 H        3.1120     1.6870     0.9200 H     1 <1>   0.0800 
 30 H        1.0040    -1.2510    -1.3600 H     1 <1>   0.0800 
 31 H        1.2950    -1.5940     0.3130 H     1 <1>   0.0800 
 32 H        2.4580     0.6670    -2.3620 H     1 <1>   0.0800 
 33 H        2.7280     2.0570    -1.3460 H     1 <1>   0.0800 
 34 H        4.5630     0.3670    -0.5410 H     1 <1>   0.4500 
 35 H        3.4060    -1.4170    -1.8580 H     1 <1>   0.0800 
 36 H        2.9140    -2.8280    -0.9870 H     1 <1>   0.0800 
 37 H        3.8500    -1.9720     1.0790 H     1 <1>   0.0800 
 38 H        5.0690    -1.8940    -0.1780 H     1 <1>   0.0800 
 39 H        5.5530    -0.4400     1.9910 H     1 <1>   0.0800 
 40 H        5.2420     1.2680     1.7210 H     1 <1>   0.0800 
 41 H        8.0670     0.6760    -2.4150 H     1 <1>   0.1500 
 42 H        9.7290     0.6300    -0.3060 H     1 <1>   0.1500 
 43 H        8.0530     1.2660     2.7280 H     1 <1>   0.0800 
 44 H        9.4930     0.4530     2.1570 H     1 <1>   0.0800 
 45 H        8.1050    -0.4920     2.6480 H     1 <1>   0.0800 
@<TRIPOS>BOND
  1   1   2  ar  
  2   1   3  ar  
  3   2   4  ar  
  4   2   5  1   
  5   3   6  ar  
  6   3   7  1   
  7   4   8  ar  
  8   5  23  1   
  9   5  24  1   
 10   6   8  ar  
 11   6   9  1   
 12   7  10  1   
 13   7  11  1   
 14   7  12  1   
 15   8  25  1   
 16   9  12  1   
 17   9  26  1   
 18   9  27  1   
 19  10  13  1   
 20  10  28  1   
 21  10  29  1   
 22  11  14  1   
 23  11  30  1   
 24  11  31  1   
 25  12  32  1   
 26  12  33  1   
 27  13  15  1   
 28  13  16  1   
 29  13  34  1   
 30  14  15  1   
 31  14  35  1   
 32  14  36  1   
 33  15  37  1   
 34  15  38  1   
 35  16  17  1   
 36  16  39  1   
 37  16  40  1   
 38  17  18  2   
 39  17  19  1   
 40  18  20  1   
 41  19  21  1   
 42  19  22  1   
 43  20  21  2   
 44  20  41  1   
 45  21  42  1   
 46  22  43  1   
 47  22  44  1   
 48  22  45  1   
@<TRIPOS>SUBSTRUCTURE
  1 ****  10 GROUP 4 **** **** 0

# MOE 2024.06 (io_trps.svl 2023.06)
