@<TRIPOS>MOLECULE
NONAME
54 57 1 0 0 
SMALL
USER_CHARGES


@<TRIPOS>ATOM
  1 O       -2.0670     0.3810     2.6820 O.2   1 <1>  -0.5700 
  2 C       -2.6570     0.6840     1.6750 C.2   1 <1>   0.5690 
  3 N       -2.9890    -0.2500     0.7220 N.am  1 <1>  -0.6600 
  4 C       -3.0340     2.1380     1.5050 C.3   1 <1>  -0.1790 
  5 C       -2.5010    -1.6490     0.8370 C.3   1 <1>   0.1400 
  6 C       -3.8500     0.0050    -0.4580 C.3   1 <1>   0.1400 
  7 C       -3.7110    -2.5700     0.9760 C.3   1 <1>  -0.1600 
  8 C       -5.0840    -0.8960    -0.3550 C.3   1 <1>  -0.1600 
  9 C       -4.6820    -2.3680    -0.1880 C.3   1 <1>   0.4230 
 10 N       -5.8800    -3.1910     0.0800 N.4   1 <1>  -0.9060 
 11 C       -6.8210    -3.3760    -1.0610 C.3   1 <1>   0.4230 
 12 C       -8.0550    -4.1580    -0.6060 C.3   1 <1>  -0.0800 
 13 C       -6.2130    -4.3990    -2.0130 C.3   1 <1>   0.1200 
 14 C       -7.5970    -5.6230    -0.7030 C.3   1 <1>   0.1200 
 15 C       -8.6710    -3.7820     0.7590 C.3   1 <1>  -0.0170 
 16 O       -6.3310    -5.5810    -1.2940 O.3   1 <1>  -0.5600 
 17 C       -9.9340    -4.5950     1.0180 C.ar  1 <1>  -0.1440 
 18 C      -11.1720    -4.2980     0.3950 C.ar  1 <1>   0.0000 
 19 C       -9.8990    -5.6600     1.8710 C.ar  1 <1>  -0.1500 
 20 C      -12.2690    -5.1490     0.6760 C.ar  1 <1>   0.3100 
 21 C      -11.3900    -3.2110    -0.4850 C.ar  1 <1>  -0.1500 
 22 C      -11.0480    -6.4290     2.0900 C.ar  1 <1>   0.1600 
 23 N      -12.1880    -6.2050     1.5220 N.ar  1 <1>  -0.6200 
 24 C      -13.5040    -4.8970     0.0580 C.ar  1 <1>  -0.1500 
 25 C      -12.6080    -2.9910    -1.0680 C.ar  1 <1>  -0.1500 
 26 C      -13.6790    -3.8450    -0.7990 C.ar  1 <1>  -0.1500 
 27 H       -2.6490     2.5120     0.5760 H     1 <1>   0.0800 
 28 H       -2.6100     2.7160     2.3060 H     1 <1>   0.0800 
 29 H       -4.1010     2.2470     1.5330 H     1 <1>   0.0800 
 30 H       -1.9270    -1.8980    -0.0400 H     1 <1>   0.0800 
 31 H       -1.8550    -1.7630     1.6930 H     1 <1>   0.0800 
 32 H       -4.1560     1.0350    -0.5060 H     1 <1>   0.0800 
 33 H       -3.2930    -0.2160    -1.3540 H     1 <1>   0.0800 
 34 H       -4.1870    -2.3490     1.9160 H     1 <1>   0.0800 
 35 H       -3.3620    -3.5870     0.9980 H     1 <1>   0.0800 
 36 H       -5.6690    -0.7640    -1.2460 H     1 <1>   0.0800 
 37 H       -5.6650    -0.5680     0.4900 H     1 <1>   0.0800 
 38 H       -4.1990    -2.7030    -1.0920 H     1 <1>   0.0800 
 39 H       -6.3640    -2.8170     0.9000 H     1 <1>   0.4500 
 40 H       -5.5710    -4.1470     0.3130 H     1 <1>   0.4500 
 41 H       -7.0700    -2.4420    -1.5390 H     1 <1>   0.0800 
 42 H       -8.8140    -4.0260    -1.3590 H     1 <1>   0.0800 
 43 H       -5.1810    -4.2200    -2.2560 H     1 <1>   0.0800 
 44 H       -6.7900    -4.4930    -2.9190 H     1 <1>   0.0800 
 45 H       -8.2550    -6.2040    -1.3300 H     1 <1>   0.0800 
 46 H       -7.5030    -6.1000     0.2580 H     1 <1>   0.0800 
 47 H       -8.9100    -2.7330     0.7940 H     1 <1>   0.0800 
 48 H       -7.9730    -3.9780     1.5530 H     1 <1>   0.0800 
 49 H       -9.0050    -5.9460     2.3950 H     1 <1>   0.1500 
 50 H      -10.5900    -2.5320    -0.7030 H     1 <1>   0.1500 
 51 H      -10.9790    -7.2610     2.7710 H     1 <1>   0.1500 
 52 H      -14.3150    -5.5640     0.2840 H     1 <1>   0.1500 
 53 H      -12.7630    -2.1610    -1.7380 H     1 <1>   0.1500 
 54 H      -14.6320    -3.6640    -1.2650 H     1 <1>   0.1500 
@<TRIPOS>BOND
  1   1   2  2   
  2   2   3  am  
  3   2   4  1   
  4   3   5  1   
  5   3   6  1   
  6   4  27  1   
  7   4  28  1   
  8   4  29  1   
  9   5   7  1   
 10   5  30  1   
 11   5  31  1   
 12   6   8  1   
 13   6  32  1   
 14   6  33  1   
 15   7   9  1   
 16   7  34  1   
 17   7  35  1   
 18   8   9  1   
 19   8  36  1   
 20   8  37  1   
 21   9  10  1   
 22   9  38  1   
 23  10  11  1   
 24  10  39  1   
 25  10  40  1   
 26  11  12  1   
 27  11  13  1   
 28  11  41  1   
 29  12  14  1   
 30  12  15  1   
 31  12  42  1   
 32  13  16  1   
 33  13  43  1   
 34  13  44  1   
 35  14  16  1   
 36  14  45  1   
 37  14  46  1   
 38  15  17  1   
 39  15  47  1   
 40  15  48  1   
 41  17  18  ar  
 42  17  19  ar  
 43  18  20  ar  
 44  18  21  ar  
 45  19  22  ar  
 46  19  49  1   
 47  20  23  ar  
 48  20  24  ar  
 49  21  25  ar  
 50  21  50  1   
 51  22  23  ar  
 52  22  51  1   
 53  24  26  ar  
 54  24  52  1   
 55  25  26  ar  
 56  25  53  1   
 57  26  54  1   
@<TRIPOS>SUBSTRUCTURE
  1 ****  15 GROUP 4 **** **** 0

# MOE 2024.06 (io_trps.svl 2023.06)
