@<TRIPOS>MOLECULE
NONAME
43 45 1 0 0 
SMALL
USER_CHARGES


@<TRIPOS>ATOM
  1 O        0.0740    -0.5320     0.6220 O.3   1 <1>  -0.5600 
  2 C       -0.0330    -1.7850     0.0250 C.3   1 <1>   0.2000 
  3 C        0.6000     0.4860    -0.1710 C.3   1 <1>   0.1200 
  4 C       -0.9360    -2.6340     0.9320 C.3   1 <1>   0.2090 
  5 C        1.3480    -2.4410    -0.1110 C.3   1 <1>  -0.1600 
  6 C        0.4620     1.7950     0.6030 C.3   1 <1>  -0.1600 
  7 N       -1.0800    -4.0420     0.4080 N.pl3 1 <1>  -0.8380 
  8 C        1.2010    -3.8970    -0.5830 C.3   1 <1>  -0.1600 
  9 C        1.0130     2.9790    -0.2000 C.3   1 <1>  -0.2400 
 10 C       -2.2510    -4.6260     0.0560 C.ar  1 <1>   0.4610 
 11 C        0.2550    -4.7200     0.3030 C.3   1 <1>   0.2090 
 12 N       -3.1890    -3.8260    -0.4630 N.ar  1 <1>  -0.1790 
 13 C       -2.5460    -6.0380     0.1370 C.ar  1 <1>   0.0000 
 14 C       -4.3310    -4.2820    -1.0790 C.ar  1 <1>   0.2110 
 15 C       -3.6820    -6.5360    -0.5390 C.ar  1 <1>   0.0000 
 16 C       -1.8080    -6.9610     0.9030 C.ar  1 <1>  -0.1500 
 17 C       -4.5720    -5.6110    -1.1450 C.ar  1 <1>  -0.1500 
 18 C       -3.9430    -7.9120    -0.5550 C.ar  1 <1>  -0.1500 
 19 C       -2.0910    -8.3050     0.8980 C.ar  1 <1>  -0.1500 
 20 C       -3.1560    -8.7890     0.1470 C.ar  1 <1>  -0.1500 
 21 H       -0.4970    -1.6660    -0.9380 H     1 <1>   0.0800 
 22 H        0.0500     0.5360    -1.0960 H     1 <1>   0.0800 
 23 H        1.6380     0.2800    -0.3690 H     1 <1>   0.0800 
 24 H       -1.8910    -2.1540     1.0410 H     1 <1>   0.0800 
 25 H       -0.4870    -2.6790     1.9110 H     1 <1>   0.0800 
 26 H        1.8460    -2.4240     0.8440 H     1 <1>   0.0800 
 27 H        1.9510    -1.9060    -0.8230 H     1 <1>   0.0800 
 28 H        1.0020     1.7160     1.5300 H     1 <1>   0.0800 
 29 H       -0.5760     1.9710     0.8240 H     1 <1>   0.0800 
 30 H        2.1700    -4.3670    -0.5880 H     1 <1>   0.0800 
 31 H        0.8320    -3.9150    -1.5940 H     1 <1>   0.0800 
 32 H        2.0570     2.8340    -0.4170 H     1 <1>   0.0800 
 33 H        0.9060     3.8870     0.3670 H     1 <1>   0.0800 
 34 H        0.4780     3.0910    -1.1270 H     1 <1>   0.0800 
 35 H        0.1580    -5.6960    -0.1400 H     1 <1>   0.0800 
 36 H        0.6810    -4.8310     1.2870 H     1 <1>   0.0800 
 37 H       -2.9630    -2.8350    -0.4820 H     1 <1>   0.4570 
 38 H       -4.9990    -3.5530    -1.5090 H     1 <1>   0.1500 
 39 H       -1.0040    -6.6170     1.5270 H     1 <1>   0.1500 
 40 H       -5.4460    -5.9990    -1.6400 H     1 <1>   0.1500 
 41 H       -4.7820    -8.2870    -1.1150 H     1 <1>   0.1500 
 42 H       -1.4990    -8.9940     1.4770 H     1 <1>   0.1500 
 43 H       -3.3610    -9.8460     0.1350 H     1 <1>   0.1500 
@<TRIPOS>BOND
  1   1   2  1   
  2   1   3  1   
  3   2   4  1   
  4   2   5  1   
  5   2  21  1   
  6   3   6  1   
  7   3  22  1   
  8   3  23  1   
  9   4   7  1   
 10   4  24  1   
 11   4  25  1   
 12   5   8  1   
 13   5  26  1   
 14   5  27  1   
 15   6   9  1   
 16   6  28  1   
 17   6  29  1   
 18   7  10  1   
 19   7  11  1   
 20   8  11  1   
 21   8  30  1   
 22   8  31  1   
 23   9  32  1   
 24   9  33  1   
 25   9  34  1   
 26  10  12  ar  
 27  10  13  ar  
 28  11  35  1   
 29  11  36  1   
 30  12  14  ar  
 31  12  37  1   
 32  13  15  ar  
 33  13  16  ar  
 34  14  17  ar  
 35  14  38  1   
 36  15  17  ar  
 37  15  18  ar  
 38  16  19  ar  
 39  16  39  1   
 40  17  40  1   
 41  18  20  ar  
 42  18  41  1   
 43  19  20  ar  
 44  19  42  1   
 45  20  43  1   
@<TRIPOS>SUBSTRUCTURE
  1 ****   7 GROUP 4 **** **** 0

# MOE 2024.06 (io_trps.svl 2023.06)
