@<TRIPOS>MOLECULE
NONAME
49 50 1 0 0 
SMALL
USER_CHARGES


@<TRIPOS>ATOM
  1 S        0.3490     0.0270    -0.5520 S.o2  1 <1>   1.3330 
  2 O       -0.1180    -0.0900    -1.9160 O.2   1 <1>  -0.6500 
  3 O        1.7700     0.1040    -0.2940 O.2   1 <1>  -0.6500 
  4 N       -0.2670    -1.2830     0.3330 N.am  1 <1>  -0.8490 
  5 C       -0.4700     1.4390     0.1830 C.3   1 <1>  -0.0550 
  6 C        0.3950    -1.4750     1.6280 C.3   1 <1>   0.1160 
  7 C       -0.2350    -2.5320    -0.4330 C.3   1 <1>   0.1160 
  8 C       -0.1390     2.7660    -0.5270 C.3   1 <1>  -0.0800 
  9 C       -0.9550     3.9650    -0.0460 C.3   1 <1>   0.2000 
 10 C        1.3270     3.2110    -0.3720 C.3   1 <1>   0.1100 
 11 O       -1.0670     3.9120     1.3320 O.3   1 <1>  -0.6800 
 12 C       -0.0310     5.1290    -0.3710 C.3   1 <1>   0.1100 
 13 N        1.2960     4.6290     0.0200 N.3   1 <1>  -0.8100 
 14 C        2.4020     5.4060    -0.5730 C.3   1 <1>   0.2900 
 15 C        2.4970     6.8010     0.0230 C.2   1 <1>  -0.0400 
 16 O        3.2010     7.7080    -0.6160 O.3   1 <1>  -0.2800 
 17 C        1.9810     7.3300     1.1540 C.2   1 <1>  -0.1500 
 18 C        3.1680     8.8520     0.0630 C.2   1 <1>   0.0550 
 19 C        2.4140     8.6560     1.1830 C.2   1 <1>  -0.1500 
 20 C        3.8660    10.0270    -0.4210 C.2   1 <1>   0.7150 
 21 O        4.9270     9.9100    -1.0120 O.2   1 <1>  -0.5700 
 22 N        3.3660    11.3060    -0.2220 N.am  1 <1>  -0.6600 
 23 C        4.2080    12.5120    -0.4580 C.3   1 <1>   0.0600 
 24 C        1.9280    11.5920     0.0280 C.3   1 <1>   0.0600 
 25 H       -1.5310     1.2830     0.1350 H     1 <1>   0.0800 
 26 H       -0.2000     1.5100     1.2180 H     1 <1>   0.0800 
 27 H       -0.0920    -2.2620     2.1780 H     1 <1>   0.0800 
 28 H        0.3410    -0.5710     2.2110 H     1 <1>   0.0800 
 29 H        1.4310    -1.7350     1.4870 H     1 <1>   0.0800 
 30 H       -0.6500    -3.3380     0.1490 H     1 <1>   0.0800 
 31 H        0.7770    -2.7770    -0.7090 H     1 <1>   0.0800 
 32 H       -0.8230    -2.4300    -1.3300 H     1 <1>   0.0800 
 33 H       -0.3310     2.6440    -1.5800 H     1 <1>   0.0800 
 34 H       -1.9370     4.0390    -0.4830 H     1 <1>   0.0800 
 35 H        1.8490     3.0740    -1.3050 H     1 <1>   0.0800 
 36 H        1.8360     2.6490     0.3940 H     1 <1>   0.0800 
 37 H       -0.1700     4.1140     1.6790 H     1 <1>   0.4000 
 38 H       -0.3030     6.0200     0.1680 H     1 <1>   0.0800 
 39 H       -0.0580     5.3280    -1.4300 H     1 <1>   0.0800 
 40 H        3.3350     4.9000    -0.3930 H     1 <1>   0.0800 
 41 H        2.2640     5.4830    -1.6380 H     1 <1>   0.0800 
 42 H        1.3690     6.8430     1.8910 H     1 <1>   0.1500 
 43 H        2.1910     9.3640     1.9590 H     1 <1>   0.1500 
 44 H        4.0150    13.2490     0.3020 H     1 <1>   0.0800 
 45 H        3.9820    12.9280    -1.4240 H     1 <1>   0.0800 
 46 H        5.2530    12.2570    -0.4270 H     1 <1>   0.0800 
 47 H        1.6070    12.4160    -0.5860 H     1 <1>   0.0800 
 48 H        1.7830    11.8490     1.0630 H     1 <1>   0.0800 
 49 H        1.3200    10.7380    -0.2140 H     1 <1>   0.0800 
@<TRIPOS>BOND
  1   1   2  2   
  2   1   3  2   
  3   1   4  am  
  4   1   5  1   
  5   4   6  1   
  6   4   7  1   
  7   5   8  1   
  8   5  25  1   
  9   5  26  1   
 10   6  27  1   
 11   6  28  1   
 12   6  29  1   
 13   7  30  1   
 14   7  31  1   
 15   7  32  1   
 16   8   9  1   
 17   8  10  1   
 18   8  33  1   
 19   9  11  1   
 20   9  12  1   
 21   9  34  1   
 22  10  13  1   
 23  10  35  1   
 24  10  36  1   
 25  11  37  1   
 26  12  13  1   
 27  12  38  1   
 28  12  39  1   
 29  13  14  1   
 30  14  15  1   
 31  14  40  1   
 32  14  41  1   
 33  15  16  1   
 34  15  17  2   
 35  16  18  1   
 36  17  19  1   
 37  17  42  1   
 38  18  19  2   
 39  18  20  1   
 40  19  43  1   
 41  20  21  2   
 42  20  22  am  
 43  22  23  1   
 44  22  24  1   
 45  23  44  1   
 46  23  45  1   
 47  23  46  1   
 48  24  47  1   
 49  24  48  1   
 50  24  49  1   
@<TRIPOS>SUBSTRUCTURE
  1 ****  13 GROUP 4 **** **** 0

# MOE 2024.06 (io_trps.svl 2023.06)
