@<TRIPOS>MOLECULE
NONAME
42 43 1 0 0 
SMALL
USER_CHARGES


@<TRIPOS>ATOM
  1 CL       1.8290    -2.1610     3.8210 Cl    1 <1>  -0.1230 
  2 C        1.3470    -2.7380     2.2370 C.2   1 <1>   0.1230 
  3 C        0.9640    -1.9820     1.1820 C.2   1 <1>  -0.3020 
  4 C        1.3000    -4.0730     1.8650 C.2   1 <1>  -0.1500 
  5 N        0.6740    -2.8080     0.1450 N.pl3 1 <1>   0.0480 
  6 C        0.8780    -4.1130     0.5550 C.2   1 <1>  -0.2370 
  7 C        0.2370    -2.3350    -1.1840 C.3   1 <1>   0.0160 
  8 C        0.6750    -5.2770    -0.2690 C.2   1 <1>   0.7150 
  9 O        0.1490    -5.2180    -1.3660 O.2   1 <1>  -0.5700 
 10 N        1.0580    -6.4950     0.1960 N.am  1 <1>  -0.7300 
 11 C        0.8080    -7.7730    -0.5010 C.3   1 <1>   0.2200 
 12 C       -0.6350    -8.2050    -0.2510 C.3   1 <1>  -0.0800 
 13 C        1.6310    -8.9050     0.1090 C.3   1 <1>   0.1200 
 14 C       -0.5030    -9.4990     0.5580 C.3   1 <1>   0.1200 
 15 C       -1.4130    -8.3630    -1.5700 C.3   1 <1>  -0.0550 
 16 O        0.7990    -9.4990     1.0480 O.3   1 <1>  -0.5600 
 17 S       -3.1740    -8.6240    -1.3530 S.o2  1 <1>   1.3330 
 18 O       -3.3530    -9.8260    -0.5690 O.2   1 <1>  -0.6500 
 19 O       -3.8280    -8.5040    -2.6360 O.2   1 <1>  -0.6500 
 20 N       -3.6710    -7.3080    -0.4030 N.am  1 <1>  -0.8490 
 21 C       -4.9890    -7.5390     0.1930 C.3   1 <1>   0.1160 
 22 C       -3.6660    -6.0300    -1.1240 C.3   1 <1>   0.1160 
 23 H        0.8890    -0.9120     1.1290 H     1 <1>   0.1500 
 24 H        1.5560    -4.8880     2.5180 H     1 <1>   0.1500 
 25 H        0.2350    -1.2610    -1.2070 H     1 <1>   0.0800 
 26 H       -0.7530    -2.7010    -1.3830 H     1 <1>   0.0800 
 27 H        0.9120    -2.7080    -1.9330 H     1 <1>   0.0800 
 28 H        1.3090    -6.5790     1.1810 H     1 <1>   0.3700 
 29 H        1.0390    -7.6630    -1.5480 H     1 <1>   0.0800 
 30 H       -1.1360    -7.4780     0.3640 H     1 <1>   0.0800 
 31 H        2.5320    -8.5610     0.5880 H     1 <1>   0.0800 
 32 H        1.8680    -9.6460    -0.6340 H     1 <1>   0.0800 
 33 H       -0.6270   -10.3740    -0.0580 H     1 <1>   0.0800 
 34 H       -1.1930    -9.5370     1.3840 H     1 <1>   0.0800 
 35 H       -1.0020    -9.1790    -2.1320 H     1 <1>   0.0800 
 36 H       -1.2730    -7.4730    -2.1510 H     1 <1>   0.0800 
 37 H       -5.2680    -6.7070     0.8170 H     1 <1>   0.0800 
 38 H       -4.9660    -8.4260     0.8050 H     1 <1>   0.0800 
 39 H       -5.7310    -7.6710    -0.5780 H     1 <1>   0.0800 
 40 H       -3.9520    -5.2310    -0.4620 H     1 <1>   0.0800 
 41 H       -4.3540    -6.0610    -1.9540 H     1 <1>   0.0800 
 42 H       -2.6790    -5.8150    -1.4980 H     1 <1>   0.0800 
@<TRIPOS>BOND
  1   1   2  1   
  2   2   3  2   
  3   2   4  1   
  4   3   5  1   
  5   3  23  1   
  6   4   6  2   
  7   4  24  1   
  8   5   6  1   
  9   5   7  1   
 10   6   8  1   
 11   7  25  1   
 12   7  26  1   
 13   7  27  1   
 14   8   9  2   
 15   8  10  am  
 16  10  11  1   
 17  10  28  1   
 18  11  12  1   
 19  11  13  1   
 20  11  29  1   
 21  12  14  1   
 22  12  15  1   
 23  12  30  1   
 24  13  16  1   
 25  13  31  1   
 26  13  32  1   
 27  14  16  1   
 28  14  33  1   
 29  14  34  1   
 30  15  17  1   
 31  15  35  1   
 32  15  36  1   
 33  17  18  2   
 34  17  19  2   
 35  17  20  am  
 36  20  21  1   
 37  20  22  1   
 38  21  37  1   
 39  21  38  1   
 40  21  39  1   
 41  22  40  1   
 42  22  41  1   
 43  22  42  1   
@<TRIPOS>SUBSTRUCTURE
  1 ****   8 GROUP 4 **** **** 0

# MOE 2024.06 (io_trps.svl 2023.06)
