@<TRIPOS>MOLECULE
NONAME
40 42 1 0 0 
SMALL
USER_CHARGES


@<TRIPOS>ATOM
  1 CL       0.5860    -0.0970    -1.9210 Cl    1 <1>  -0.1770 
  2 C        1.3370    -1.1130    -0.7020 C.ar  1 <1>   0.1770 
  3 C        0.7900    -2.3610    -0.3610 C.ar  1 <1>   0.4100 
  4 C        2.4780    -0.6520    -0.0920 C.ar  1 <1>  -0.1500 
  5 N        1.3390    -3.1480     0.5640 N.ar  1 <1>  -0.6200 
  6 N       -0.3680    -2.8430    -0.9600 N.pl3 1 <1>  -0.8380 
  7 C        3.0410    -1.4770     0.8620 C.ar  1 <1>  -0.1500 
  8 C        2.4390    -2.6910     1.1440 C.ar  1 <1>   0.1600 
  9 C       -0.4950    -4.3110    -1.2430 C.3   1 <1>   0.2090 
 10 C       -1.6610    -2.1840    -0.6070 C.3   1 <1>   0.2090 
 11 C       -1.2920    -5.0590    -0.1530 C.3   1 <1>   0.2090 
 12 C       -2.4160    -2.9580     0.4920 C.3   1 <1>   0.2090 
 13 N       -2.6240    -4.3990     0.1140 N.pl3 1 <1>  -0.8380 
 14 C       -3.8180    -5.0550     0.0600 C.ar  1 <1>   0.4100 
 15 N       -3.7660    -6.4020     0.0470 N.ar  1 <1>  -0.6200 
 16 C       -5.0430    -4.4100     0.0200 C.ar  1 <1>  -0.1500 
 17 C       -4.8840    -7.0430     0.0200 C.ar  1 <1>   0.7730 
 18 C       -6.2160    -5.1370    -0.0100 C.ar  1 <1>   0.4610 
 19 S       -4.8140    -8.8230     0.0090 S.3   1 <1>  -0.3320 
 20 N       -6.1020    -6.4720    -0.0050 N.ar  1 <1>  -0.1790 
 21 N       -7.4390    -4.5660    -0.0470 N.pl3 1 <1>  -0.9000 
 22 C       -6.5400    -9.5000    -0.0150 C.3   1 <1>  -0.0100 
 23 H        2.9050     0.3010    -0.3490 H     1 <1>   0.1500 
 24 H        3.9360    -1.1820     1.3810 H     1 <1>   0.1500 
 25 H        2.8880    -3.3250     1.8900 H     1 <1>   0.1500 
 26 H        0.4840    -4.7500    -1.3280 H     1 <1>   0.0800 
 27 H       -0.9910    -4.4410    -2.1880 H     1 <1>   0.0800 
 28 H       -2.2750    -2.1240    -1.4890 H     1 <1>   0.0800 
 29 H       -1.4760    -1.1810    -0.2650 H     1 <1>   0.0800 
 30 H       -0.7120    -5.0640     0.7540 H     1 <1>   0.0800 
 31 H       -1.4120    -6.0800    -0.4660 H     1 <1>   0.0800 
 32 H       -3.3440    -2.4640     0.7020 H     1 <1>   0.0800 
 33 H       -1.8260    -2.9210     1.3930 H     1 <1>   0.0800 
 34 H       -5.0970    -3.3420     0.0010 H     1 <1>   0.1500 
 35 H       -6.9210    -7.0610    -0.0250 H     1 <1>   0.4570 
 36 H       -8.3490    -5.0400    -0.0730 H     1 <1>   0.4000 
 37 H       -7.5550    -3.5430    -0.0540 H     1 <1>   0.4000 
 38 H       -6.4560   -10.5740    -0.0170 H     1 <1>   0.0800 
 39 H       -7.0290    -9.1700    -0.9140 H     1 <1>   0.0800 
 40 H       -7.0520    -9.1740     0.8730 H     1 <1>   0.0800 
@<TRIPOS>BOND
  1   1   2  1   
  2   2   3  ar  
  3   2   4  ar  
  4   3   5  ar  
  5   3   6  1   
  6   4   7  ar  
  7   4  23  1   
  8   5   8  ar  
  9   6   9  1   
 10   6  10  1   
 11   7   8  ar  
 12   7  24  1   
 13   8  25  1   
 14   9  11  1   
 15   9  26  1   
 16   9  27  1   
 17  10  12  1   
 18  10  28  1   
 19  10  29  1   
 20  11  13  1   
 21  11  30  1   
 22  11  31  1   
 23  12  13  1   
 24  12  32  1   
 25  12  33  1   
 26  13  14  1   
 27  14  15  ar  
 28  14  16  ar  
 29  15  17  ar  
 30  16  18  ar  
 31  16  34  1   
 32  17  19  1   
 33  17  20  ar  
 34  18  20  ar  
 35  18  21  1   
 36  19  22  1   
 37  20  35  1   
 38  21  36  1   
 39  21  37  1   
 40  22  38  1   
 41  22  39  1   
 42  22  40  1   
@<TRIPOS>SUBSTRUCTURE
  1 ****  13 GROUP 4 **** **** 0

# MOE 2024.06 (io_trps.svl 2023.06)
