@<TRIPOS>MOLECULE
NONAME
47 49 1 0 0 
SMALL
USER_CHARGES


@<TRIPOS>ATOM
  1 N       -0.0280    -0.7430    -1.1280 N.ar  1 <1>  -0.6200 
  2 C        0.9860    -0.3870    -0.3490 C.ar  1 <1>   0.7710 
  3 C       -0.1100    -2.0110    -1.4510 C.ar  1 <1>   0.4100 
  4 N        1.9310    -1.2610     0.0410 N.ar  1 <1>  -0.1790 
  5 N        1.0830     0.9030     0.0580 N.pl3 1 <1>  -0.8380 
  6 N       -1.2410    -2.3710    -2.0690 N.pl3 1 <1>  -0.8690 
  7 C        0.8920    -2.9450    -1.1430 C.ar  1 <1>  -0.1500 
  8 C        1.9260    -2.5530    -0.3630 C.ar  1 <1>   0.2170 
  9 C        0.0950     1.9320    -0.3710 C.3   1 <1>   0.2090 
 10 C        2.0620     1.5030     1.0040 C.3   1 <1>   0.2090 
 11 C       -2.2770    -3.2730    -1.5070 C.3   1 <1>   0.2890 
 12 C        3.0490    -3.4800     0.0800 C.3   1 <1>  -0.0170 
 13 C        0.6430     3.2530     0.1490 C.3   1 <1>  -0.1600 
 14 C        1.4850     2.8670     1.3580 C.3   1 <1>  -0.1600 
 15 C       -2.4420    -3.1550     0.0280 C.3   1 <1>   0.0960 
 16 C       -2.0530    -4.6900    -2.0360 C.3   1 <1>  -0.2400 
 17 C        4.4120    -3.0480    -0.4760 C.3   1 <1>  -0.2400 
 18 N       -1.4160    -3.8410     0.8510 N.pl3 1 <1>   0.3140 
 19 N       -0.4880    -3.1760     1.5780 N.2   1 <1>  -0.7070 
 20 C       -1.3720    -5.1630     1.1170 C.2   1 <1>  -0.3020 
 21 C        0.1040    -4.0920     2.2850 C.2   1 <1>   0.1390 
 22 C       -0.3990    -5.3600     2.0300 C.2   1 <1>  -0.1500 
 23 H        2.6440    -0.8920     0.6520 H     1 <1>   0.4570 
 24 H       -1.6680    -1.6060    -2.6000 H     1 <1>   0.4000 
 25 H        0.7980    -3.9450    -1.5170 H     1 <1>   0.1500 
 26 H       -0.8590     1.7180     0.0840 H     1 <1>   0.0800 
 27 H       -0.0150     1.9470    -1.4430 H     1 <1>   0.0800 
 28 H        3.0100     1.6290     0.5080 H     1 <1>   0.0800 
 29 H        2.1800     0.9030     1.8910 H     1 <1>   0.0800 
 30 H       -3.2130    -2.9390    -1.9220 H     1 <1>   0.0800 
 31 H        2.8360    -4.4800    -0.2590 H     1 <1>   0.0800 
 32 H        3.0860    -3.5110     1.1560 H     1 <1>   0.0800 
 33 H       -0.1450     3.9410     0.3990 H     1 <1>   0.0800 
 34 H        1.2660     3.6970    -0.6090 H     1 <1>   0.0800 
 35 H        2.2560     3.5890     1.5670 H     1 <1>   0.0800 
 36 H        0.8540     2.7690     2.2240 H     1 <1>   0.0800 
 37 H       -3.3920    -3.5750     0.3000 H     1 <1>   0.0800 
 38 H       -2.4580    -2.1170     0.3030 H     1 <1>   0.0800 
 39 H       -1.1330    -5.1060    -1.6730 H     1 <1>   0.0800 
 40 H       -2.0290    -4.6780    -3.1110 H     1 <1>   0.0800 
 41 H       -2.8600    -5.3290    -1.7260 H     1 <1>   0.0800 
 42 H        4.3850    -3.0160    -1.5520 H     1 <1>   0.0800 
 43 H        5.1660    -3.7580    -0.1820 H     1 <1>   0.0800 
 44 H        4.7000    -2.0800    -0.1070 H     1 <1>   0.0800 
 45 H       -2.0320    -5.8820     0.6660 H     1 <1>   0.1500 
 46 H        0.8890    -3.8870     2.9930 H     1 <1>   0.1500 
 47 H       -0.0760    -6.2780     2.4880 H     1 <1>   0.1500 
@<TRIPOS>BOND
  1   1   2  ar  
  2   1   3  ar  
  3   2   4  ar  
  4   2   5  1   
  5   3   6  1   
  6   3   7  ar  
  7   4   8  ar  
  8   4  23  1   
  9   5   9  1   
 10   5  10  1   
 11   6  11  1   
 12   6  24  1   
 13   7   8  ar  
 14   7  25  1   
 15   8  12  1   
 16   9  13  1   
 17   9  26  1   
 18   9  27  1   
 19  10  14  1   
 20  10  28  1   
 21  10  29  1   
 22  11  15  1   
 23  11  16  1   
 24  11  30  1   
 25  12  17  1   
 26  12  31  1   
 27  12  32  1   
 28  13  14  1   
 29  13  33  1   
 30  13  34  1   
 31  14  35  1   
 32  14  36  1   
 33  15  18  1   
 34  15  37  1   
 35  15  38  1   
 36  16  39  1   
 37  16  40  1   
 38  16  41  1   
 39  17  42  1   
 40  17  43  1   
 41  17  44  1   
 42  18  19  1   
 43  18  20  1   
 44  19  21  2   
 45  20  22  2   
 46  20  45  1   
 47  21  22  1   
 48  21  46  1   
 49  22  47  1   
@<TRIPOS>SUBSTRUCTURE
  1 ****   3 GROUP 4 **** **** 0

# MOE 2024.06 (io_trps.svl 2023.06)
