@<TRIPOS>MOLECULE
NONAME
53 56 1 0 0 
SMALL
USER_CHARGES


@<TRIPOS>ATOM
  1 S       -0.4090     0.2680    -0.0900 S.3   1 <1>  -0.3320 
  2 C        1.2400     0.9970    -0.0240 C.ar  1 <1>   0.1020 
  3 C       -0.1740    -1.5630    -0.1110 C.3   1 <1>   0.0700 
  4 C        1.3120     2.3780     0.0110 C.ar  1 <1>  -0.1500 
  5 C        2.3890     0.2180    -0.0100 C.ar  1 <1>  -0.1500 
  6 C       -1.5570    -2.2140    -0.1600 C.3   1 <1>  -0.0990 
  7 C        2.5500     2.9930     0.0600 C.ar  1 <1>   0.0830 
  8 C        3.6290     0.8360     0.0460 C.ar  1 <1>  -0.1500 
  9 C       -1.4860    -3.7310    -0.1630 C.2   1 <1>   0.5690 
 10 O        2.6090     4.3490     0.0770 O.3   1 <1>  -0.3630 
 11 C        3.7130     2.2180     0.0870 C.ar  1 <1>   0.0830 
 12 O       -0.4080    -4.2700    -0.2390 O.2   1 <1>  -0.5700 
 13 N       -2.6410    -4.4550    -0.0840 N.am  1 <1>  -0.6600 
 14 C        3.8670     4.9380    -0.1940 C.3   1 <1>   0.1200 
 15 O        4.9410     2.7960     0.1580 O.3   1 <1>  -0.3630 
 16 C       -4.0240    -3.9190    -0.0320 C.3   1 <1>   0.1400 
 17 C       -2.6500    -5.9380    -0.0410 C.3   1 <1>   0.1400 
 18 C        4.9820     4.1630     0.5220 C.3   1 <1>   0.1200 
 19 C       -4.9250    -5.1480    -0.1530 C.3   1 <1>   0.2000 
 20 C       -4.0800    -6.3170     0.3460 C.3   1 <1>  -0.0800 
 21 O       -6.0710    -5.0190     0.6140 O.3   1 <1>  -0.6800 
 22 C       -4.5290    -7.6760    -0.2110 C.3   1 <1>   0.0210 
 23 C       -3.5810    -8.7790     0.2180 C.2   1 <1>   0.1080 
 24 N       -3.3220    -9.0390     1.4620 N.2   1 <1>  -0.7070 
 25 C       -2.8830    -9.6130    -0.6490 C.2   1 <1>  -0.1500 
 26 N       -2.4430   -10.0580     1.4210 N.pl3 1 <1>   0.3000 
 27 C       -2.1600   -10.4220     0.1520 C.2   1 <1>  -0.3320 
 28 C       -1.2000   -11.5360    -0.2210 C.3   1 <1>  -0.0600 
 29 H        0.4070    -1.8100    -0.9820 H     1 <1>   0.0800 
 30 H        0.3560    -1.8360     0.7850 H     1 <1>   0.0800 
 31 H        0.4160     2.9700    -0.0030 H     1 <1>   0.1500 
 32 H        2.3420    -0.8530    -0.0400 H     1 <1>   0.1500 
 33 H       -2.1210    -1.8960     0.6970 H     1 <1>   0.0800 
 34 H       -2.0640    -1.8930    -1.0500 H     1 <1>   0.0800 
 35 H        4.5320     0.2520     0.0600 H     1 <1>   0.1500 
 36 H        4.0230     4.9190    -1.2580 H     1 <1>   0.0800 
 37 H        3.8340     5.9580     0.1410 H     1 <1>   0.0800 
 38 H       -4.1780    -3.4260     0.9120 H     1 <1>   0.0800 
 39 H       -4.1990    -3.2370    -0.8460 H     1 <1>   0.0800 
 40 H       -2.3980    -6.3170    -1.0170 H     1 <1>   0.0800 
 41 H       -1.9380    -6.3080     0.6780 H     1 <1>   0.0800 
 42 H        4.8570     4.2290     1.5880 H     1 <1>   0.0800 
 43 H        5.9490     4.5480     0.2540 H     1 <1>   0.0800 
 44 H       -5.2170    -5.2820    -1.1810 H     1 <1>   0.0800 
 45 H       -4.1120    -6.3520     1.4220 H     1 <1>   0.0800 
 46 H       -5.8510    -5.0870     1.5640 H     1 <1>   0.4000 
 47 H       -4.5700    -7.6410    -1.2850 H     1 <1>   0.0800 
 48 H       -5.5130    -7.9060     0.1550 H     1 <1>   0.0800 
 49 H       -2.9280    -9.5940    -1.7230 H     1 <1>   0.1500 
 50 H       -2.0540   -10.4790     2.2730 H     1 <1>   0.2700 
 51 H       -1.1450   -11.6340    -1.2900 H     1 <1>   0.0800 
 52 H       -1.5370   -12.4710     0.1910 H     1 <1>   0.0800 
 53 H       -0.2160   -11.3210     0.1550 H     1 <1>   0.0800 
@<TRIPOS>BOND
  1   1   2  1   
  2   1   3  1   
  3   2   4  ar  
  4   2   5  ar  
  5   3   6  1   
  6   3  29  1   
  7   3  30  1   
  8   4   7  ar  
  9   4  31  1   
 10   5   8  ar  
 11   5  32  1   
 12   6   9  1   
 13   6  33  1   
 14   6  34  1   
 15   7  10  1   
 16   7  11  ar  
 17   8  11  ar  
 18   8  35  1   
 19   9  12  2   
 20   9  13  am  
 21  10  14  1   
 22  11  15  1   
 23  13  16  1   
 24  13  17  1   
 25  14  18  1   
 26  14  36  1   
 27  14  37  1   
 28  15  18  1   
 29  16  19  1   
 30  16  38  1   
 31  16  39  1   
 32  17  20  1   
 33  17  40  1   
 34  17  41  1   
 35  18  42  1   
 36  18  43  1   
 37  19  20  1   
 38  19  21  1   
 39  19  44  1   
 40  20  22  1   
 41  20  45  1   
 42  21  46  1   
 43  22  23  1   
 44  22  47  1   
 45  22  48  1   
 46  23  24  2   
 47  23  25  1   
 48  24  26  1   
 49  25  27  2   
 50  25  49  1   
 51  26  27  1   
 52  26  50  1   
 53  27  28  1   
 54  28  51  1   
 55  28  52  1   
 56  28  53  1   
@<TRIPOS>SUBSTRUCTURE
  1 ****   9 GROUP 4 **** **** 0

# MOE 2024.06 (io_trps.svl 2023.06)
