@<TRIPOS>MOLECULE
NONAME
48 51 1 0 0 
SMALL
USER_CHARGES


@<TRIPOS>ATOM
  1 O       -1.1380     1.4790    -1.9390 O.2   1 <1>  -0.5700 
  2 C       -2.1040     1.5700    -1.1980 C.2   1 <1>   0.5440 
  3 N       -3.2040     0.7700    -1.4770 N.am  1 <1>  -0.6600 
  4 C       -2.0480     2.5290    -0.0880 C.ar  1 <1>   0.3960 
  5 C       -4.5500     0.9340    -0.8640 C.3   1 <1>   0.1400 
  6 C       -3.1140    -0.4180    -2.3710 C.3   1 <1>   0.1400 
  7 N       -2.5540     2.2110     1.1170 N.ar  1 <1>  -0.6200 
  8 C       -1.4420     3.7680    -0.3130 C.ar  1 <1>  -0.1500 
  9 C       -4.8530    -0.2960    -0.0080 C.3   1 <1>  -0.1600 
 10 C       -3.4090    -1.6750    -1.5490 C.3   1 <1>  -0.1600 
 11 C       -2.4570     3.1220     2.0590 C.ar  1 <1>   0.3930 
 12 C       -1.3470     4.7130     0.6870 C.ar  1 <1>  -0.1500 
 13 C       -4.7660    -1.5940    -0.8320 C.3   1 <1>   0.4240 
 14 O       -2.9730     2.7830     3.2360 O.3   1 <1>  -0.5320 
 15 C       -1.8740     4.3710     1.9090 C.ar  1 <1>  -0.1500 
 16 O       -5.7230    -1.5190    -1.8650 O.3   1 <1>  -0.5600 
 17 C       -4.9810    -2.8410     0.0550 C.ar  1 <1>  -0.1430 
 18 C       -7.0300    -1.8920    -1.5600 C.3   1 <1>   0.1200 
 19 C       -6.0610    -3.6940    -0.1480 C.ar  1 <1>  -0.1430 
 20 C       -4.0920    -3.1310     1.0850 C.ar  1 <1>  -0.1500 
 21 C       -7.0530    -3.3860    -1.2510 C.3   1 <1>  -0.0170 
 22 C       -6.2370    -4.8160     0.6470 C.ar  1 <1>  -0.1500 
 23 C       -4.2690    -4.2480     1.8820 C.ar  1 <1>  -0.1500 
 24 C       -5.3380    -5.1000     1.6690 C.ar  1 <1>   0.0830 
 25 O       -5.4370    -6.1760     2.4900 O.3   1 <1>  -0.3630 
 26 C       -6.4760    -7.1170     2.3420 C.3   1 <1>   0.0400 
 27 H       -5.2820     1.0220    -1.6490 H     1 <1>   0.0800 
 28 H       -4.6040     1.8260    -0.2680 H     1 <1>   0.0800 
 29 H       -2.1340    -0.4970    -2.8100 H     1 <1>   0.0800 
 30 H       -3.8300    -0.3170    -3.1680 H     1 <1>   0.0800 
 31 H       -1.0410     3.9780    -1.2890 H     1 <1>   0.1500 
 32 H       -5.8230    -0.2050     0.4410 H     1 <1>   0.0800 
 33 H       -4.1380    -0.3260     0.7940 H     1 <1>   0.0800 
 34 H       -2.6190    -1.7940    -0.8330 H     1 <1>   0.0800 
 35 H       -3.3990    -2.5390    -2.1870 H     1 <1>   0.0800 
 36 H       -0.8800     5.6690     0.5150 H     1 <1>   0.1500 
 37 H       -2.8590     3.4630     3.9160 H     1 <1>   0.4500 
 38 H       -1.8340     5.0610     2.7310 H     1 <1>   0.1500 
 39 H       -7.6430    -1.6750    -2.4160 H     1 <1>   0.0800 
 40 H       -7.3770    -1.3160    -0.7200 H     1 <1>   0.0800 
 41 H       -3.2520    -2.4880     1.2790 H     1 <1>   0.1500 
 42 H       -6.7960    -3.9390    -2.1360 H     1 <1>   0.0800 
 43 H       -8.0460    -3.6680    -0.9490 H     1 <1>   0.0800 
 44 H       -7.0770    -5.4570     0.4610 H     1 <1>   0.1500 
 45 H       -3.5770    -4.4650     2.6750 H     1 <1>   0.1500 
 46 H       -6.3450    -7.8790     3.0890 H     1 <1>   0.0800 
 47 H       -6.4150    -7.5530     1.3600 H     1 <1>   0.0800 
 48 H       -7.4200    -6.6210     2.4870 H     1 <1>   0.0800 
@<TRIPOS>BOND
  1   1   2  2   
  2   2   3  am  
  3   2   4  1   
  4   3   5  1   
  5   3   6  1   
  6   4   7  ar  
  7   4   8  ar  
  8   5   9  1   
  9   5  27  1   
 10   5  28  1   
 11   6  10  1   
 12   6  29  1   
 13   6  30  1   
 14   7  11  ar  
 15   8  12  ar  
 16   8  31  1   
 17   9  13  1   
 18   9  32  1   
 19   9  33  1   
 20  10  13  1   
 21  10  34  1   
 22  10  35  1   
 23  11  14  1   
 24  11  15  ar  
 25  12  15  ar  
 26  12  36  1   
 27  13  16  1   
 28  13  17  1   
 29  14  37  1   
 30  15  38  1   
 31  16  18  1   
 32  17  19  ar  
 33  17  20  ar  
 34  18  21  1   
 35  18  39  1   
 36  18  40  1   
 37  19  21  1   
 38  19  22  ar  
 39  20  23  ar  
 40  20  41  1   
 41  21  42  1   
 42  21  43  1   
 43  22  24  ar  
 44  22  44  1   
 45  23  24  ar  
 46  23  45  1   
 47  24  25  1   
 48  25  26  1   
 49  26  46  1   
 50  26  47  1   
 51  26  48  1   
@<TRIPOS>SUBSTRUCTURE
  1 ****   9 GROUP 4 **** **** 0

# MOE 2024.06 (io_trps.svl 2023.06)
