@<TRIPOS>MOLECULE
NONAME
49 52 1 0 0 
SMALL
USER_CHARGES


@<TRIPOS>ATOM
  1 S       -3.2940    -1.3400    -2.0440 S.3   1 <1>  -0.0800 
  2 C       -4.0710     0.0000    -1.2270 C.2   1 <1>   0.1980 
  3 C       -3.0740    -2.1100    -0.5030 C.2   1 <1>  -0.1100 
  4 N       -4.1340    -0.1180     0.0380 N.2   1 <1>  -0.5650 
  5 C       -4.5850     1.1290    -2.0870 C.3   1 <1>  -0.0600 
  6 C       -3.5810    -1.3190     0.4550 C.2   1 <1>   0.0460 
  7 C       -3.6350    -1.6390     1.9380 C.3   1 <1>   0.0820 
  8 C       -4.1100    -3.0640     2.1530 C.2   1 <1>   0.5690 
  9 O       -3.2840    -3.8950     2.4550 O.2   1 <1>  -0.5700 
 10 N       -5.4320    -3.3950     1.9930 N.am  1 <1>  -0.6600 
 11 C       -6.5130    -2.4980     1.5170 C.3   1 <1>   0.1400 
 12 C       -5.9130    -4.7880     1.9890 C.3   1 <1>   0.1400 
 13 C       -7.4650    -3.3960     0.7160 C.3   1 <1>  -0.0800 
 14 C       -6.9220    -4.8410     0.8400 C.3   1 <1>  -0.0800 
 15 C       -7.7480    -2.9100    -0.7290 C.3   1 <1>   0.4240 
 16 C       -6.2690    -5.3550    -0.4560 C.3   1 <1>  -0.1600 
 17 O       -6.5710    -2.5010    -1.3300 O.3   1 <1>  -0.6800 
 18 C       -8.7180    -1.7090    -0.7030 C.ar  1 <1>  -0.1430 
 19 C       -8.2370    -4.1010    -1.5730 C.3   1 <1>  -0.1600 
 20 C       -7.2110    -5.2530    -1.6730 C.3   1 <1>  -0.1600 
 21 C       -8.2360    -0.4030    -0.6610 C.ar  1 <1>  -0.1500 
 22 C      -10.0980    -1.8920    -0.6880 C.ar  1 <1>  -0.1500 
 23 C       -9.0970     0.6790    -0.6170 C.ar  1 <1>  -0.1500 
 24 C      -10.9630    -0.8120    -0.6460 C.ar  1 <1>  -0.1500 
 25 C      -10.4640     0.4760    -0.6100 C.ar  1 <1>  -0.1500 
 26 H       -2.5980    -3.0740    -0.4760 H     1 <1>   0.1500 
 27 H       -5.0170     1.8910    -1.4640 H     1 <1>   0.0800 
 28 H       -5.3370     0.7570    -2.7580 H     1 <1>   0.0800 
 29 H       -3.7770     1.5530    -2.6540 H     1 <1>   0.0800 
 30 H       -4.3050    -0.9660     2.4380 H     1 <1>   0.0800 
 31 H       -2.6570    -1.5130     2.3630 H     1 <1>   0.0800 
 32 H       -7.0270    -2.0780     2.3640 H     1 <1>   0.0800 
 33 H       -6.1240    -1.6910     0.9230 H     1 <1>   0.0800 
 34 H       -5.1060    -5.4880     1.8520 H     1 <1>   0.0800 
 35 H       -6.4010    -4.9890     2.9270 H     1 <1>   0.0800 
 36 H       -8.4080    -3.3790     1.2330 H     1 <1>   0.0800 
 37 H       -7.7210    -5.5140     1.1000 H     1 <1>   0.0800 
 38 H       -5.3740    -4.7870    -0.6460 H     1 <1>   0.0800 
 39 H       -5.9640    -6.3800    -0.3290 H     1 <1>   0.0800 
 40 H       -5.9240    -3.2230    -1.2460 H     1 <1>   0.4000 
 41 H       -9.1240    -4.4990    -1.1180 H     1 <1>   0.0800 
 42 H       -8.5090    -3.7580    -2.5560 H     1 <1>   0.0800 
 43 H       -7.7490    -6.1790    -1.7880 H     1 <1>   0.0800 
 44 H       -6.6130    -5.1220    -2.5590 H     1 <1>   0.0800 
 45 H       -7.1750    -0.2140    -0.6630 H     1 <1>   0.1500 
 46 H      -10.5270    -2.8760    -0.7070 H     1 <1>   0.1500 
 47 H       -8.7000     1.6790    -0.5870 H     1 <1>   0.1500 
 48 H      -12.0260    -0.9740    -0.6400 H     1 <1>   0.1500 
 49 H      -11.1350     1.3170    -0.5780 H     1 <1>   0.1500 
@<TRIPOS>BOND
  1   1   2  1   
  2   1   3  1   
  3   2   4  2   
  4   2   5  1   
  5   3   6  2   
  6   3  26  1   
  7   4   6  1   
  8   5  27  1   
  9   5  28  1   
 10   5  29  1   
 11   6   7  1   
 12   7   8  1   
 13   7  30  1   
 14   7  31  1   
 15   8   9  2   
 16   8  10  am  
 17  10  11  1   
 18  10  12  1   
 19  11  13  1   
 20  11  32  1   
 21  11  33  1   
 22  12  14  1   
 23  12  34  1   
 24  12  35  1   
 25  13  14  1   
 26  13  15  1   
 27  13  36  1   
 28  14  16  1   
 29  14  37  1   
 30  15  17  1   
 31  15  18  1   
 32  15  19  1   
 33  16  20  1   
 34  16  38  1   
 35  16  39  1   
 36  17  40  1   
 37  18  21  ar  
 38  18  22  ar  
 39  19  20  1   
 40  19  41  1   
 41  19  42  1   
 42  20  43  1   
 43  20  44  1   
 44  21  23  ar  
 45  21  45  1   
 46  22  24  ar  
 47  22  46  1   
 48  23  25  ar  
 49  23  47  1   
 50  24  25  ar  
 51  24  48  1   
 52  25  49  1   
@<TRIPOS>SUBSTRUCTURE
  1 ****  17 GROUP 4 **** **** 0

# MOE 2024.06 (io_trps.svl 2023.06)
