@<TRIPOS>MOLECULE
NONAME
51 53 1 0 0 
SMALL
USER_CHARGES


@<TRIPOS>ATOM
  1 O        0.5980    -0.5440    -0.7640 O.2   1 <1>  -0.5700 
  2 C        1.6600    -0.8310    -0.2640 C.2   1 <1>   0.5690 
  3 N        2.5710     0.0870     0.1680 N.am  1 <1>  -0.4930 
  4 C        1.9840    -2.3170    -0.1160 C.3   1 <1>  -0.0190 
  5 C        2.4860     1.5040     0.1310 C.2   1 <1>   0.0630 
  6 C        2.0200    -3.0050    -1.4960 C.3   1 <1>  -0.1600 
  7 C        0.9530    -3.0070     0.8000 C.3   1 <1>  -0.1600 
  8 C        3.4420     2.4160     0.5850 C.2   1 <1>   0.1080 
  9 C        1.4860     2.2780    -0.3380 C.2   1 <1>  -0.3020 
 10 C        2.1740    -4.5200    -1.3900 C.3   1 <1>   0.3430 
 11 C        1.1350    -4.5220     0.8480 C.3   1 <1>   0.3430 
 12 N        3.0710     3.6450     0.4130 N.2   1 <1>  -0.7070 
 13 C        4.7740     2.0650     1.2120 C.3   1 <1>  -0.0590 
 14 N        1.8590     3.5600    -0.1590 N.pl3 1 <1>   0.3140 
 15 N        1.0830    -5.0720    -0.5400 N.4   1 <1>  -0.9590 
 16 C        1.0830     4.7500    -0.5220 C.3   1 <1>   0.0160 
 17 C        1.0400    -6.5620    -0.6150 C.3   1 <1>   0.4230 
 18 C       -0.3080    -7.0780    -0.0940 C.3   1 <1>  -0.1600 
 19 C        2.2110    -7.2280     0.1290 C.3   1 <1>  -0.1600 
 20 C       -0.3920    -8.6060    -0.2240 C.3   1 <1>  -0.1600 
 21 C        2.1340    -8.7570    -0.0020 C.3   1 <1>  -0.1600 
 22 C        0.7820    -9.2890     0.4920 C.3   1 <1>  -0.1600 
 23 H        3.4360    -0.2590     0.5750 H     1 <1>   0.3700 
 24 H        2.9560    -2.4150     0.3360 H     1 <1>   0.0800 
 25 H        2.8370    -2.6070    -2.0720 H     1 <1>   0.0800 
 26 H        1.1160    -2.7860    -2.0390 H     1 <1>   0.0800 
 27 H       -0.0450    -2.7890     0.4600 H     1 <1>   0.0800 
 28 H        1.0390    -2.6110     1.7970 H     1 <1>   0.0800 
 29 H        0.5510     1.9900    -0.7800 H     1 <1>   0.1500 
 30 H        3.1330    -4.7590    -0.9570 H     1 <1>   0.0800 
 31 H        2.1300    -4.9530    -2.3770 H     1 <1>   0.0800 
 32 H        0.3540    -4.9540     1.4510 H     1 <1>   0.0800 
 33 H        2.0840    -4.7600     1.3010 H     1 <1>   0.0800 
 34 H        5.3670     1.4990     0.5190 H     1 <1>   0.0800 
 35 H        4.6170     1.4970     2.1100 H     1 <1>   0.0800 
 36 H        5.3030     2.9670     1.4630 H     1 <1>   0.0800 
 37 H        0.2000    -4.7400    -0.9500 H     1 <1>   0.4500 
 38 H        0.1450     4.7310     0.0010 H     1 <1>   0.0800 
 39 H        0.9130     4.7490    -1.5820 H     1 <1>   0.0800 
 40 H        1.6350     5.6290    -0.2440 H     1 <1>   0.0800 
 41 H        1.1080    -6.8520    -1.6520 H     1 <1>   0.0800 
 42 H       -1.1120    -6.6400    -0.6590 H     1 <1>   0.0800 
 43 H       -0.4360    -6.8230     0.9430 H     1 <1>   0.0800 
 44 H        2.1830    -6.9840     1.1750 H     1 <1>   0.0800 
 45 H        3.1510    -6.9010    -0.2790 H     1 <1>   0.0800 
 46 H       -0.3830    -8.8840    -1.2650 H     1 <1>   0.0800 
 47 H       -1.3190    -8.9560     0.1980 H     1 <1>   0.0800 
 48 H        2.9260    -9.2120     0.5700 H     1 <1>   0.0800 
 49 H        2.2730    -9.0420    -1.0320 H     1 <1>   0.0800 
 50 H        0.7320   -10.3520     0.3250 H     1 <1>   0.0800 
 51 H        0.6980    -9.1260     1.5540 H     1 <1>   0.0800 
@<TRIPOS>BOND
  1   1   2  2   
  2   2   3  am  
  3   2   4  1   
  4   3   5  1   
  5   3  23  1   
  6   4   6  1   
  7   4   7  1   
  8   4  24  1   
  9   5   8  1   
 10   5   9  2   
 11   6  10  1   
 12   6  25  1   
 13   6  26  1   
 14   7  11  1   
 15   7  27  1   
 16   7  28  1   
 17   8  12  2   
 18   8  13  1   
 19   9  14  1   
 20   9  29  1   
 21  10  15  1   
 22  10  30  1   
 23  10  31  1   
 24  11  15  1   
 25  11  32  1   
 26  11  33  1   
 27  12  14  1   
 28  13  34  1   
 29  13  35  1   
 30  13  36  1   
 31  14  16  1   
 32  15  17  1   
 33  15  37  1   
 34  16  38  1   
 35  16  39  1   
 36  16  40  1   
 37  17  18  1   
 38  17  19  1   
 39  17  41  1   
 40  18  20  1   
 41  18  42  1   
 42  18  43  1   
 43  19  21  1   
 44  19  44  1   
 45  19  45  1   
 46  20  22  1   
 47  20  46  1   
 48  20  47  1   
 49  21  22  1   
 50  21  48  1   
 51  21  49  1   
 52  22  50  1   
 53  22  51  1   
@<TRIPOS>SUBSTRUCTURE
  1 ****   4 GROUP 4 **** **** 0

# MOE 2024.06 (io_trps.svl 2023.06)
