@<TRIPOS>MOLECULE
NONAME
53 56 1 0 0 
SMALL
USER_CHARGES


@<TRIPOS>ATOM
  1 O       -1.1120    -0.4520    -0.4930 O.3   1 <1>  -0.5600 
  2 C       -2.3350     0.2280    -0.4620 C.3   1 <1>   0.1200 
  3 C       -1.2330    -1.8330    -0.6510 C.3   1 <1>   0.1200 
  4 C       -3.1950    -0.2640     0.7150 C.3   1 <1>   0.2090 
  5 C       -2.0270    -2.4430     0.5200 C.3   1 <1>   0.2090 
  6 N       -3.3620    -1.7650     0.6810 N.pl3 1 <1>  -0.8380 
  7 C       -4.5900    -2.3500     0.7480 C.ar  1 <1>   0.7710 
  8 N       -5.6740    -1.5950     0.6760 N.ar  1 <1>  -0.6200 
  9 N       -4.6730    -3.6840     0.8910 N.ar  1 <1>  -0.1790 
 10 C       -6.8620    -2.1680     0.7410 C.ar  1 <1>   0.4100 
 11 C       -5.8620    -4.3260     0.9460 C.ar  1 <1>   0.2180 
 12 N       -7.9580    -1.3640     0.6850 N.pl3 1 <1>  -0.8380 
 13 C       -6.9800    -3.5660     0.8640 C.ar  1 <1>  -0.1500 
 14 C       -5.8800    -5.8380     1.0900 C.3   1 <1>  -0.0970 
 15 C       -9.2950    -1.6890     1.2840 C.3   1 <1>   0.2090 
 16 C       -7.9160     0.0260     0.1400 C.3   1 <1>   0.2090 
 17 C      -10.4180    -1.6150     0.2230 C.3   1 <1>   0.0000 
 18 C       -8.9870     0.1820    -0.9420 C.3   1 <1>  -0.1600 
 19 C      -11.8120    -1.8610     0.8340 C.3   1 <1>   0.2000 
 20 C      -10.3880    -0.2120    -0.4400 C.3   1 <1>  -0.1600 
 21 C      -10.3210    -2.7290    -0.8410 C.3   1 <1>  -0.1600 
 22 O      -11.7690    -2.9290     1.7140 O.3   1 <1>  -0.6800 
 23 C      -12.6910    -2.2900    -0.3390 C.3   1 <1>  -0.1600 
 24 C      -11.7520    -2.9710    -1.3460 C.3   1 <1>  -0.1600 
 25 H       -2.1240     1.2770    -0.3530 H     1 <1>   0.0800 
 26 H       -2.8440     0.0730    -1.3970 H     1 <1>   0.0800 
 27 H       -1.7170    -2.0310    -1.5910 H     1 <1>   0.0800 
 28 H       -0.2380    -2.2430    -0.6820 H     1 <1>   0.0800 
 29 H       -4.1400     0.2510     0.6830 H     1 <1>   0.0800 
 30 H       -2.7120     0.0180     1.6350 H     1 <1>   0.0800 
 31 H       -1.4530    -2.3170     1.4240 H     1 <1>   0.0800 
 32 H       -2.1360    -3.4960     0.3380 H     1 <1>   0.0800 
 33 H       -3.7940    -4.1730     0.9800 H     1 <1>   0.4570 
 34 H       -7.9540    -4.0100     0.8810 H     1 <1>   0.1500 
 35 H       -6.8930    -6.2010     1.1170 H     1 <1>   0.0800 
 36 H       -5.3940    -6.1360     2.0020 H     1 <1>   0.0800 
 37 H       -5.3810    -6.3020     0.2570 H     1 <1>   0.0800 
 38 H       -9.2830    -2.6520     1.7570 H     1 <1>   0.0800 
 39 H       -9.5050    -0.9710     2.0580 H     1 <1>   0.0800 
 40 H       -8.0950     0.7240     0.9400 H     1 <1>   0.0800 
 41 H       -6.9540     0.2500    -0.2890 H     1 <1>   0.0800 
 42 H       -9.0020     1.2050    -1.2720 H     1 <1>   0.0800 
 43 H       -8.7100    -0.4210    -1.7880 H     1 <1>   0.0800 
 44 H      -12.2000    -1.0060     1.3630 H     1 <1>   0.0800 
 45 H      -11.0790    -0.1630    -1.2630 H     1 <1>   0.0800 
 46 H      -10.6990     0.5210     0.2850 H     1 <1>   0.0800 
 47 H       -9.6510    -2.4820    -1.6440 H     1 <1>   0.0800 
 48 H       -9.9660    -3.6330    -0.3800 H     1 <1>   0.0800 
 49 H      -11.7370    -3.7570     1.1990 H     1 <1>   0.4000 
 50 H      -13.5040    -2.9250    -0.0320 H     1 <1>   0.0800 
 51 H      -13.1110    -1.4100    -0.7950 H     1 <1>   0.0800 
 52 H      -11.9550    -4.0260    -1.4110 H     1 <1>   0.0800 
 53 H      -11.8830    -2.5350    -2.3220 H     1 <1>   0.0800 
@<TRIPOS>BOND
  1   1   2  1   
  2   1   3  1   
  3   2   4  1   
  4   2  25  1   
  5   2  26  1   
  6   3   5  1   
  7   3  27  1   
  8   3  28  1   
  9   4   6  1   
 10   4  29  1   
 11   4  30  1   
 12   5   6  1   
 13   5  31  1   
 14   5  32  1   
 15   6   7  1   
 16   7   8  ar  
 17   7   9  ar  
 18   8  10  ar  
 19   9  11  ar  
 20   9  33  1   
 21  10  12  1   
 22  10  13  ar  
 23  11  13  ar  
 24  11  14  1   
 25  12  15  1   
 26  12  16  1   
 27  13  34  1   
 28  14  35  1   
 29  14  36  1   
 30  14  37  1   
 31  15  17  1   
 32  15  38  1   
 33  15  39  1   
 34  16  18  1   
 35  16  40  1   
 36  16  41  1   
 37  17  19  1   
 38  17  20  1   
 39  17  21  1   
 40  18  20  1   
 41  18  42  1   
 42  18  43  1   
 43  19  22  1   
 44  19  23  1   
 45  19  44  1   
 46  20  45  1   
 47  20  46  1   
 48  21  24  1   
 49  21  47  1   
 50  21  48  1   
 51  22  49  1   
 52  23  24  1   
 53  23  50  1   
 54  23  51  1   
 55  24  52  1   
 56  24  53  1   
@<TRIPOS>SUBSTRUCTURE
  1 ****  10 GROUP 4 **** **** 0

# MOE 2024.06 (io_trps.svl 2023.06)
