@<TRIPOS>MOLECULE
NONAME
40 42 1 0 0 
SMALL
USER_CHARGES


@<TRIPOS>ATOM
  1 CL      -2.2670    -1.8600    -1.5500 Cl    1 <1>  -0.1770 
  2 C       -2.3580    -0.3430    -0.6790 C.ar  1 <1>   0.1770 
  3 C       -1.9170     0.8190    -1.2900 C.ar  1 <1>   0.1770 
  4 C       -2.8720    -0.3170     0.6150 C.ar  1 <1>   0.0860 
  5 CL      -1.2870     0.7840    -2.9200 Cl    1 <1>  -0.1770 
  6 C       -1.9670     2.0320    -0.6290 C.ar  1 <1>  -0.1500 
  7 C       -3.3460    -1.5140     1.2640 C.2   1 <1>   0.5440 
  8 C       -2.9080     0.9140     1.2730 C.ar  1 <1>  -0.1500 
  9 C       -2.4650     2.0760     0.6630 C.ar  1 <1>  -0.1500 
 10 O       -2.6950    -2.0050     2.1640 O.2   1 <1>  -0.5700 
 11 N       -4.5340    -2.1020     0.9040 N.am  1 <1>  -0.6600 
 12 C       -5.4890    -1.5950    -0.1160 C.3   1 <1>   0.1400 
 13 C       -4.9100    -3.4730     1.3310 C.3   1 <1>   0.1400 
 14 C       -6.6270    -2.6170    -0.1260 C.3   1 <1>   0.2000 
 15 C       -5.9660    -3.9250     0.3140 C.3   1 <1>  -0.0800 
 16 O       -7.5520    -2.2490     0.8370 O.3   1 <1>  -0.6800 
 17 C       -5.3200    -4.6430    -0.8880 C.3   1 <1>   0.0210 
 18 C       -4.6200    -5.9180    -0.4650 C.2   1 <1>   0.1080 
 19 N       -5.2580    -6.9660    -0.0460 N.2   1 <1>  -0.7070 
 20 C       -3.2420    -6.1060    -0.4670 C.2   1 <1>  -0.1500 
 21 N       -4.2930    -7.8620     0.2320 N.pl3 1 <1>   0.3000 
 22 C       -3.0620    -7.3640    -0.0130 C.2   1 <1>  -0.3320 
 23 C       -1.7700    -8.1290     0.2060 C.3   1 <1>  -0.0600 
 24 H       -1.6190     2.9260    -1.1180 H     1 <1>   0.1500 
 25 H       -3.2890     0.9490     2.2810 H     1 <1>   0.1500 
 26 H       -2.5050     3.0140     1.1930 H     1 <1>   0.1500 
 27 H       -5.8430    -0.6070     0.1270 H     1 <1>   0.0800 
 28 H       -5.0090    -1.5800    -1.0780 H     1 <1>   0.0800 
 29 H       -4.0500    -4.1200     1.3570 H     1 <1>   0.0800 
 30 H       -5.3360    -3.4270     2.3180 H     1 <1>   0.0800 
 31 H       -7.1340    -2.6810    -1.0740 H     1 <1>   0.0800 
 32 H       -6.6780    -4.5950     0.7660 H     1 <1>   0.0800 
 33 H       -7.0940    -2.1460     1.6950 H     1 <1>   0.4000 
 34 H       -4.6080    -4.0020    -1.3750 H     1 <1>   0.0800 
 35 H       -6.0810    -4.9020    -1.6020 H     1 <1>   0.0800 
 36 H       -2.5040    -5.3830    -0.7660 H     1 <1>   0.1500 
 37 H       -4.5060    -8.8010     0.5880 H     1 <1>   0.2700 
 38 H       -0.9290    -7.5140    -0.0600 H     1 <1>   0.0800 
 39 H       -1.7540    -9.0150    -0.4030 H     1 <1>   0.0800 
 40 H       -1.6750    -8.4090     1.2400 H     1 <1>   0.0800 
@<TRIPOS>BOND
  1   1   2  1   
  2   2   3  ar  
  3   2   4  ar  
  4   3   5  1   
  5   3   6  ar  
  6   4   7  1   
  7   4   8  ar  
  8   6   9  ar  
  9   6  24  1   
 10   7  10  2   
 11   7  11  am  
 12   8   9  ar  
 13   8  25  1   
 14   9  26  1   
 15  11  12  1   
 16  11  13  1   
 17  12  14  1   
 18  12  27  1   
 19  12  28  1   
 20  13  15  1   
 21  13  29  1   
 22  13  30  1   
 23  14  15  1   
 24  14  16  1   
 25  14  31  1   
 26  15  17  1   
 27  15  32  1   
 28  16  33  1   
 29  17  18  1   
 30  17  34  1   
 31  17  35  1   
 32  18  19  2   
 33  18  20  1   
 34  19  21  1   
 35  20  22  2   
 36  20  36  1   
 37  21  22  1   
 38  21  37  1   
 39  22  23  1   
 40  23  38  1   
 41  23  39  1   
 42  23  40  1   
@<TRIPOS>SUBSTRUCTURE
  1 ****  11 GROUP 4 **** **** 0

# MOE 2024.06 (io_trps.svl 2023.06)
