@<TRIPOS>MOLECULE
NONAME
59 62 1 0 0 
SMALL
USER_CHARGES


@<TRIPOS>ATOM
  1 O       -0.0720    -0.0450    -0.6810 O.2   1 <1>  -0.5700 
  2 C        0.9060    -0.2570    -1.3550 C.2   1 <1>   0.5690 
  3 N        1.4720     0.7600    -2.0970 N.am  1 <1>  -0.6600 
  4 C        1.4890    -1.6620    -1.2930 C.3   1 <1>   0.0810 
  5 C        2.7990     0.7090    -2.8000 C.3   1 <1>   0.1400 
  6 C        0.7720     2.0740    -2.2110 C.3   1 <1>   0.1400 
  7 C        2.6080    -1.7380    -0.2700 C.2   1 <1>  -0.0400 
  8 C        3.9200     1.4240    -2.0070 C.3   1 <1>   0.3430 
  9 C        1.1690     3.0030    -1.0570 C.3   1 <1>  -0.1600 
 10 O        3.7260    -1.1000    -0.4780 O.3   1 <1>  -0.0190 
 11 C        2.7110    -2.3640     0.9120 C.2   1 <1>  -0.1500 
 12 N        3.4160     2.0370    -0.7340 N.4   1 <1>  -0.9590 
 13 C        2.6660     3.3000    -0.9530 C.3   1 <1>   0.3430 
 14 N        4.5640    -1.2410     0.5030 N.2   1 <1>  -0.4100 
 15 C        3.9840    -2.0110     1.3540 C.2   1 <1>   0.1080 
 16 C        4.4370     2.1130     0.3610 C.3   1 <1>   0.3430 
 17 C        4.6010    -2.4680     2.6580 C.3   1 <1>  -0.0590 
 18 C        5.8190     2.6610    -0.0560 C.3   1 <1>  -0.0800 
 19 C        6.7560     2.5830     1.1670 C.3   1 <1>  -0.0170 
 20 C        5.7670     4.0960    -0.6210 C.3   1 <1>  -0.2400 
 21 C        8.2030     2.8860     0.8050 C.ar  1 <1>  -0.1440 
 22 C        8.7500     4.1330     1.0940 C.ar  1 <1>  -0.1500 
 23 C        8.9850     1.9100     0.1870 C.ar  1 <1>  -0.1500 
 24 C       10.0640     4.3670     0.7450 C.ar  1 <1>   0.0820 
 25 C       10.3070     2.1630    -0.1550 C.ar  1 <1>  -0.1500 
 26 O       10.7830     5.4810     0.9200 O.3   1 <1>  -0.3620 
 27 C       10.8230     3.4100     0.1370 C.ar  1 <1>   0.0820 
 28 C       12.0820     5.2150     0.3950 C.3   1 <1>   0.4000 
 29 O       12.0540     3.8770    -0.0980 O.3   1 <1>  -0.3620 
 30 H        1.8380    -1.9700    -2.2590 H     1 <1>   0.0800 
 31 H        0.7060    -2.3390    -1.0030 H     1 <1>   0.0800 
 32 H        2.7070     1.1680    -3.7690 H     1 <1>   0.0800 
 33 H        3.0980    -0.3080    -2.9740 H     1 <1>   0.0800 
 34 H       -0.2950     1.9150    -2.1850 H     1 <1>   0.0800 
 35 H        1.0020     2.5330    -3.1580 H     1 <1>   0.0800 
 36 H        4.3850     2.1750    -2.6240 H     1 <1>   0.0800 
 37 H        4.6760     0.6920    -1.7730 H     1 <1>   0.0800 
 38 H        0.8140     2.5890    -0.1290 H     1 <1>   0.0800 
 39 H        0.6530     3.9360    -1.1920 H     1 <1>   0.0800 
 40 H        2.0040    -2.9880     1.4280 H     1 <1>   0.1500 
 41 H        2.6930     1.3680    -0.4140 H     1 <1>   0.4500 
 42 H        2.8300     3.9690    -0.1240 H     1 <1>   0.0800 
 43 H        3.0120     3.7870    -1.8500 H     1 <1>   0.0800 
 44 H        4.5860     1.1220     0.7570 H     1 <1>   0.0800 
 45 H        4.0500     2.7160     1.1660 H     1 <1>   0.0800 
 46 H        4.6510    -3.5410     2.6810 H     1 <1>   0.0800 
 47 H        4.0070    -2.1260     3.4860 H     1 <1>   0.0800 
 48 H        5.5970    -2.0740     2.7560 H     1 <1>   0.0800 
 49 H        6.2380     2.0110    -0.8030 H     1 <1>   0.0800 
 50 H        6.7200     1.5930     1.5890 H     1 <1>   0.0800 
 51 H        6.4250     3.2670     1.9300 H     1 <1>   0.0800 
 52 H        5.3410     4.7760     0.0960 H     1 <1>   0.0800 
 53 H        5.1980     4.1380    -1.5300 H     1 <1>   0.0800 
 54 H        6.7590     4.4400    -0.8600 H     1 <1>   0.0800 
 55 H        8.1830     4.9100     1.5740 H     1 <1>   0.1500 
 56 H        8.5690     0.9410    -0.0300 H     1 <1>   0.1500 
 57 H       10.9230     1.4210    -0.6310 H     1 <1>   0.1500 
 58 H       12.8120     5.2940     1.1810 H     1 <1>   0.0800 
 59 H       12.2900     5.8930    -0.4140 H     1 <1>   0.0800 
@<TRIPOS>BOND
  1   1   2  2   
  2   2   3  am  
  3   2   4  1   
  4   3   5  1   
  5   3   6  1   
  6   4   7  1   
  7   4  30  1   
  8   4  31  1   
  9   5   8  1   
 10   5  32  1   
 11   5  33  1   
 12   6   9  1   
 13   6  34  1   
 14   6  35  1   
 15   7  10  1   
 16   7  11  2   
 17   8  12  1   
 18   8  36  1   
 19   8  37  1   
 20   9  13  1   
 21   9  38  1   
 22   9  39  1   
 23  10  14  1   
 24  11  15  1   
 25  11  40  1   
 26  12  13  1   
 27  12  16  1   
 28  12  41  1   
 29  13  42  1   
 30  13  43  1   
 31  14  15  2   
 32  15  17  1   
 33  16  18  1   
 34  16  44  1   
 35  16  45  1   
 36  17  46  1   
 37  17  47  1   
 38  17  48  1   
 39  18  19  1   
 40  18  20  1   
 41  18  49  1   
 42  19  21  1   
 43  19  50  1   
 44  19  51  1   
 45  20  52  1   
 46  20  53  1   
 47  20  54  1   
 48  21  22  ar  
 49  21  23  ar  
 50  22  24  ar  
 51  22  55  1   
 52  23  25  ar  
 53  23  56  1   
 54  24  26  1   
 55  24  27  ar  
 56  25  27  ar  
 57  25  57  1   
 58  26  28  1   
 59  27  29  1   
 60  28  29  1   
 61  28  58  1   
 62  28  59  1   
@<TRIPOS>SUBSTRUCTURE
  1 ****  18 GROUP 4 **** **** 0

# MOE 2024.06 (io_trps.svl 2023.06)
