@<TRIPOS>MOLECULE
NONAME
42 44 1 0 0 
SMALL
USER_CHARGES


@<TRIPOS>ATOM
  1 S       -0.9580    -0.0820    -1.3470 S.3   1 <1>  -0.0800 
  2 C       -1.3440    -1.0530     0.0360 C.2   1 <1>   0.4420 
  3 C       -0.8700     1.2770    -0.2800 C.2   1 <1>   0.1980 
  4 N       -1.3790    -0.3630     1.1170 N.2   1 <1>  -0.3380 
  5 N       -1.5550    -2.3970    -0.1950 N.am  1 <1>  -0.4940 
  6 N       -1.1070     0.9640     0.9290 N.2   1 <1>  -0.3380 
  7 C       -0.5350     2.6260    -0.8850 C.3   1 <1>   0.0200 
  8 C       -1.9170    -3.3790     0.6880 C.2   1 <1>   0.5690 
  9 C       -0.5050     3.7230     0.1770 C.3   1 <1>   0.1200 
 10 O       -2.1270    -3.1700     1.8550 O.2   1 <1>  -0.5700 
 11 C       -2.0630    -4.8040     0.1470 C.3   1 <1>   0.1250 
 12 O       -0.1970     4.9240    -0.4530 O.3   1 <1>  -0.5600 
 13 C       -3.4890    -5.1530    -0.3150 C.ar  1 <1>  -0.1440 
 14 C       -1.5510    -5.8510     1.1550 C.3   1 <1>  -0.0990 
 15 C       -0.1400     6.0100     0.4090 C.3   1 <1>   0.1200 
 16 C       -3.8230    -6.5030    -0.4570 C.ar  1 <1>   0.1170 
 17 C       -4.4400    -4.1850    -0.6150 C.ar  1 <1>  -0.1500 
 18 C       -1.7660    -7.2450     0.6120 C.2   1 <1>   0.5690 
 19 C        0.2040     7.2380    -0.4240 C.3   1 <1>  -0.2400 
 20 N       -2.8820    -7.4770    -0.1190 N.am  1 <1>  -0.5470 
 21 C       -5.0820    -6.8760    -0.9180 C.ar  1 <1>  -0.1500 
 22 C       -5.6850    -4.5840    -1.0660 C.ar  1 <1>   0.1900 
 23 O       -0.9630    -8.1150     0.8240 O.2   1 <1>  -0.5700 
 24 C       -6.0250    -5.9130    -1.2280 C.ar  1 <1>  -0.1500 
 25 F       -6.5710    -3.6690    -1.3550 F     1 <1>  -0.1900 
 26 H       -1.4420    -2.6770    -1.1650 H     1 <1>   0.3700 
 27 H       -1.2750     2.8710    -1.6240 H     1 <1>   0.0800 
 28 H        0.4280     2.5670    -1.3580 H     1 <1>   0.0800 
 29 H        0.2490     3.5120     0.9160 H     1 <1>   0.0800 
 30 H       -1.4680     3.8140     0.6520 H     1 <1>   0.0800 
 31 H       -1.4330    -4.8820    -0.7200 H     1 <1>   0.0800 
 32 H       -2.0900    -5.7670     2.0810 H     1 <1>   0.0800 
 33 H       -0.5070    -5.6980     1.3550 H     1 <1>   0.0800 
 34 H        0.6200     5.8280     1.1500 H     1 <1>   0.0800 
 35 H       -1.0990     6.1290     0.8840 H     1 <1>   0.0800 
 36 H       -4.2530    -3.1320    -0.5110 H     1 <1>   0.1500 
 37 H        1.1560     7.1020    -0.9050 H     1 <1>   0.0800 
 38 H        0.2580     8.1040     0.2100 H     1 <1>   0.0800 
 39 H       -0.5540     7.4020    -1.1690 H     1 <1>   0.0800 
 40 H       -3.0270    -8.4480    -0.3990 H     1 <1>   0.3700 
 41 H       -5.3260    -7.9170    -1.0290 H     1 <1>   0.1500 
 42 H       -7.0050    -6.1790    -1.5830 H     1 <1>   0.1500 
@<TRIPOS>BOND
  1   1   2  1   
  2   1   3  1   
  3   2   4  2   
  4   2   5  1   
  5   3   6  2   
  6   3   7  1   
  7   4   6  1   
  8   5   8  am  
  9   5  26  1   
 10   7   9  1   
 11   7  27  1   
 12   7  28  1   
 13   8  10  2   
 14   8  11  1   
 15   9  12  1   
 16   9  29  1   
 17   9  30  1   
 18  11  13  1   
 19  11  14  1   
 20  11  31  1   
 21  12  15  1   
 22  13  16  ar  
 23  13  17  ar  
 24  14  18  1   
 25  14  32  1   
 26  14  33  1   
 27  15  19  1   
 28  15  34  1   
 29  15  35  1   
 30  16  20  1   
 31  16  21  ar  
 32  17  22  ar  
 33  17  36  1   
 34  18  20  am  
 35  18  23  2   
 36  19  37  1   
 37  19  38  1   
 38  19  39  1   
 39  20  40  1   
 40  21  24  ar  
 41  21  41  1   
 42  22  24  ar  
 43  22  25  1   
 44  24  42  1   
@<TRIPOS>SUBSTRUCTURE
  1 ****   5 GROUP 4 **** **** 0

# MOE 2024.06 (io_trps.svl 2023.06)
