@<TRIPOS>MOLECULE
NONAME
50 53 1 0 0 
SMALL
USER_CHARGES


@<TRIPOS>ATOM
  1 O       -3.5630    -0.9050    -3.2310 O.2   1 <1>  -0.5700 
  2 C       -3.4640    -1.1410    -2.0550 C.2   1 <1>   0.5690 
  3 N       -3.1400    -0.1640    -1.1930 N.am  1 <1>  -0.7300 
  4 C       -3.6990    -2.5420    -1.5450 C.3   1 <1>  -0.0190 
  5 C       -3.0960    -0.3230     0.2780 C.3   1 <1>   0.2200 
  6 C       -2.4180    -3.0900    -0.8850 C.3   1 <1>   0.1200 
  7 C       -5.0040    -2.6170    -0.7250 C.3   1 <1>   0.1400 
  8 C       -1.9780    -1.3180     0.6940 C.3   1 <1>   0.1200 
  9 C       -4.5090    -0.6430     0.8220 C.3   1 <1>   0.1400 
 10 O       -2.2390    -2.6770     0.4380 O.3   1 <1>  -0.5600 
 11 N       -4.9210    -2.0800     0.6770 N.am  1 <1>  -0.6600 
 12 C       -5.0200    -2.8630     1.8080 C.2   1 <1>   0.5690 
 13 O       -5.0610    -2.3740     2.9140 O.2   1 <1>  -0.5700 
 14 C       -5.0520    -4.3850     1.7280 C.3   1 <1>   0.0820 
 15 C       -6.3730    -4.9450     1.2140 C.2   1 <1>  -0.1810 
 16 C       -6.6010    -6.2740     0.7730 C.ar  1 <1>   0.0000 
 17 C       -7.5420    -4.2930     1.0740 C.2   1 <1>  -0.0100 
 18 C       -5.8550    -7.4530     0.6560 C.ar  1 <1>  -0.1430 
 19 C       -7.9340    -6.2840     0.3840 C.ar  1 <1>   0.1400 
 20 O       -8.4820    -5.0810     0.5740 O.3   1 <1>  -0.2800 
 21 C       -6.4720    -8.5770     0.1440 C.ar  1 <1>  -0.1500 
 22 C       -4.3970    -7.5180     1.0810 C.3   1 <1>  -0.0970 
 23 C       -8.5650    -7.4160    -0.1280 C.ar  1 <1>  -0.1430 
 24 C       -7.8130    -8.5720    -0.2540 C.ar  1 <1>  -0.1430 
 25 C      -10.0340    -7.3460    -0.5290 C.3   1 <1>  -0.0970 
 26 C       -8.4090    -9.8570    -0.8140 C.3   1 <1>  -0.0970 
 27 H       -2.9990     0.7690    -1.5840 H     1 <1>   0.3700 
 28 H       -3.8610    -3.1390    -2.4230 H     1 <1>   0.0800 
 29 H       -2.8210     0.6370     0.6780 H     1 <1>   0.0800 
 30 H       -1.5460    -2.8090    -1.4510 H     1 <1>   0.0800 
 31 H       -2.4690    -4.1640    -0.8620 H     1 <1>   0.0800 
 32 H       -5.3220    -3.6420    -0.7120 H     1 <1>   0.0800 
 33 H       -5.7720    -2.0720    -1.2480 H     1 <1>   0.0800 
 34 H       -1.8340    -1.2390     1.7570 H     1 <1>   0.0800 
 35 H       -1.0510    -1.0560     0.2150 H     1 <1>   0.0800 
 36 H       -5.2330    -0.0190     0.3280 H     1 <1>   0.0800 
 37 H       -4.5230    -0.3670     1.8610 H     1 <1>   0.0800 
 38 H       -4.2470    -4.6930     1.0900 H     1 <1>   0.0800 
 39 H       -4.8630    -4.7850     2.7070 H     1 <1>   0.0800 
 40 H       -7.8030    -3.2720     1.2970 H     1 <1>   0.1500 
 41 H       -5.9100    -9.4890     0.0460 H     1 <1>   0.1500 
 42 H       -4.0300    -8.5270     1.0350 H     1 <1>   0.0800 
 43 H       -4.2920    -7.1720     2.0930 H     1 <1>   0.0800 
 44 H       -3.7960    -6.9110     0.4310 H     1 <1>   0.0800 
 45 H      -10.5610    -8.2160    -0.1830 H     1 <1>   0.0800 
 46 H      -10.1160    -7.2850    -1.5990 H     1 <1>   0.0800 
 47 H      -10.5080    -6.4820    -0.1000 H     1 <1>   0.0800 
 48 H       -7.6400   -10.5730    -1.0410 H     1 <1>   0.0800 
 49 H       -8.9510    -9.6530    -1.7190 H     1 <1>   0.0800 
 50 H       -9.0790   -10.2910    -0.0940 H     1 <1>   0.0800 
@<TRIPOS>BOND
  1   1   2  2   
  2   2   3  am  
  3   2   4  1   
  4   3   5  1   
  5   3  27  1   
  6   4   6  1   
  7   4   7  1   
  8   4  28  1   
  9   5   8  1   
 10   5   9  1   
 11   5  29  1   
 12   6  10  1   
 13   6  30  1   
 14   6  31  1   
 15   7  11  1   
 16   7  32  1   
 17   7  33  1   
 18   8  10  1   
 19   8  34  1   
 20   8  35  1   
 21   9  11  1   
 22   9  36  1   
 23   9  37  1   
 24  11  12  am  
 25  12  13  2   
 26  12  14  1   
 27  14  15  1   
 28  14  38  1   
 29  14  39  1   
 30  15  16  1   
 31  15  17  2   
 32  16  18  ar  
 33  16  19  ar  
 34  17  20  1   
 35  17  40  1   
 36  18  21  ar  
 37  18  22  1   
 38  19  20  1   
 39  19  23  ar  
 40  21  24  ar  
 41  21  41  1   
 42  22  42  1   
 43  22  43  1   
 44  22  44  1   
 45  23  24  ar  
 46  23  25  1   
 47  24  26  1   
 48  25  45  1   
 49  25  46  1   
 50  25  47  1   
 51  26  48  1   
 52  26  49  1   
 53  26  50  1   
@<TRIPOS>SUBSTRUCTURE
  1 ****  15 GROUP 4 **** **** 0

# MOE 2024.06 (io_trps.svl 2023.06)
