@<TRIPOS>MOLECULE
NONAME
54 57 1 0 0 
SMALL
USER_CHARGES


@<TRIPOS>ATOM
  1 O       -1.3820     0.1690     0.5790 O.2   1 <1>  -0.5700 
  2 C       -2.1920     1.0620     0.7490 C.2   1 <1>   0.5440 
  3 N       -3.4940     0.7060     1.0130 N.am  1 <1>  -0.6600 
  4 C       -1.7800     2.4370     0.6490 C.ar  1 <1>   0.0860 
  5 C       -3.8030    -0.6710     1.5020 C.3   1 <1>   0.1400 
  6 C       -4.6440     1.3430     0.3060 C.3   1 <1>   0.1400 
  7 C       -2.3780     3.4580     1.3650 C.ar  1 <1>   0.1600 
  8 C       -0.7400     2.8330    -0.1710 C.ar  1 <1>   0.1600 
  9 C       -4.1360    -1.5690     0.2870 C.3   1 <1>   0.4230 
 10 C       -5.0410     0.4590    -0.8870 C.3   1 <1>  -0.1600 
 11 N       -2.0200     4.7160     1.2680 N.ar  1 <1>  -0.6200 
 12 N       -0.3550     4.0800    -0.2940 N.ar  1 <1>  -0.6200 
 13 N       -4.3520    -3.0160     0.6250 N.4   1 <1>  -0.9590 
 14 C       -5.3650    -1.0010    -0.4580 C.3   1 <1>  -0.1060 
 15 C       -1.0170     4.9750     0.4360 C.ar  1 <1>   0.7200 
 16 C       -4.5480    -3.8460    -0.5900 C.3   1 <1>   0.3430 
 17 C       -3.3540    -3.6060     1.5560 C.3   1 <1>   0.2630 
 18 C       -6.5750    -1.0340     0.4970 C.2   1 <1>   0.9060 
 19 C       -5.6390    -1.8440    -1.7270 C.3   1 <1>  -0.1600 
 20 N       -0.6980     6.2930     0.3530 N.pl3 1 <1>  -0.6000 
 21 C       -5.7470    -3.3400    -1.3970 C.3   1 <1>  -0.1600 
 22 O       -6.6580    -1.9540     1.3270 O.co2 1 <1>  -0.9000 
 23 O       -7.4150    -0.1390     0.4410 O.co2 1 <1>  -0.9000 
 24 C        0.2780     6.9990    -0.3610 C.ar  1 <1>   0.1000 
 25 C       -0.0110     8.2880    -0.7960 C.ar  1 <1>  -0.1500 
 26 C        1.5390     6.4770    -0.6350 C.ar  1 <1>  -0.1500 
 27 C        0.9250     9.0320    -1.4910 C.ar  1 <1>  -0.1500 
 28 C        2.4780     7.2170    -1.3310 C.ar  1 <1>  -0.1500 
 29 C        2.1730     8.4960    -1.7610 C.ar  1 <1>  -0.1500 
 30 H       -2.9470    -1.0510     2.0280 H     1 <1>   0.0800 
 31 H       -4.6310    -0.6270     2.1900 H     1 <1>   0.0800 
 32 H       -5.4750     1.4470     0.9870 H     1 <1>   0.0800 
 33 H       -4.3850     2.3240    -0.0510 H     1 <1>   0.0800 
 34 H       -3.1820     3.2180     2.0410 H     1 <1>   0.1500 
 35 H       -0.2160     2.0860    -0.7450 H     1 <1>   0.1500 
 36 H       -3.2890    -1.5100    -0.3740 H     1 <1>   0.0800 
 37 H       -5.9060     0.8940    -1.3610 H     1 <1>   0.0800 
 38 H       -4.2420     0.4730    -1.6060 H     1 <1>   0.0800 
 39 H       -5.2930    -2.9680     1.1030 H     1 <1>   0.4500 
 40 H       -3.6610    -3.8060    -1.2010 H     1 <1>   0.0800 
 41 H       -4.7230    -4.8710    -0.3070 H     1 <1>   0.0800 
 42 H       -2.3660    -3.5510     1.1290 H     1 <1>   0.0800 
 43 H       -3.5950    -4.6370     1.7520 H     1 <1>   0.0800 
 44 H       -3.3600    -3.0740     2.4930 H     1 <1>   0.0800 
 45 H       -6.5570    -1.5110    -2.1840 H     1 <1>   0.0800 
 46 H       -4.8450    -1.7000    -2.4400 H     1 <1>   0.0800 
 47 H       -1.3580     6.8530     0.8820 H     1 <1>   0.4000 
 48 H       -5.8210    -3.9030    -2.3100 H     1 <1>   0.0800 
 49 H       -6.6480    -3.5260    -0.8370 H     1 <1>   0.0800 
 50 H       -0.9780     8.7100    -0.5940 H     1 <1>   0.1500 
 51 H        1.7900     5.4880    -0.2990 H     1 <1>   0.1500 
 52 H        0.6850    10.0260    -1.8240 H     1 <1>   0.1500 
 53 H        3.4470     6.7960    -1.5370 H     1 <1>   0.1500 
 54 H        2.9030     9.0720    -2.3030 H     1 <1>   0.1500 
@<TRIPOS>BOND
  1   1   2  2   
  2   2   3  am  
  3   2   4  1   
  4   3   5  1   
  5   3   6  1   
  6   4   7  ar  
  7   4   8  ar  
  8   5   9  1   
  9   5  30  1   
 10   5  31  1   
 11   6  10  1   
 12   6  32  1   
 13   6  33  1   
 14   7  11  ar  
 15   7  34  1   
 16   8  12  ar  
 17   8  35  1   
 18   9  13  1   
 19   9  14  1   
 20   9  36  1   
 21  10  14  1   
 22  10  37  1   
 23  10  38  1   
 24  11  15  ar  
 25  12  15  ar  
 26  13  16  1   
 27  13  17  1   
 28  13  39  1   
 29  14  18  1   
 30  14  19  1   
 31  15  20  1   
 32  16  21  1   
 33  16  40  1   
 34  16  41  1   
 35  17  42  1   
 36  17  43  1   
 37  17  44  1   
 38  18  22  ar  
 39  18  23  ar  
 40  19  21  1   
 41  19  45  1   
 42  19  46  1   
 43  20  24  1   
 44  20  47  1   
 45  21  48  1   
 46  21  49  1   
 47  24  25  ar  
 48  24  26  ar  
 49  25  27  ar  
 50  25  50  1   
 51  26  28  ar  
 52  26  51  1   
 53  27  29  ar  
 54  27  52  1   
 55  28  29  ar  
 56  28  53  1   
 57  29  54  1   
@<TRIPOS>SUBSTRUCTURE
  1 ****   4 GROUP 4 **** **** 0

# MOE 2024.06 (io_trps.svl 2023.06)
