@<TRIPOS>MOLECULE
NONAME
57 61 1 0 0 
SMALL
USER_CHARGES


@<TRIPOS>ATOM
  1 O       -3.6390    -1.8360    -1.0220 O.2   1 <1>  -0.5700 
  2 C       -2.7580    -1.9750    -0.2080 C.2   1 <1>   0.5690 
  3 N       -2.6950    -2.9810     0.6970 N.am  1 <1>  -0.6600 
  4 C       -1.6040    -1.0250    -0.0600 C.3   1 <1>  -0.0990 
  5 C       -1.4810    -2.8850     1.5360 C.3   1 <1>   0.1400 
  6 C       -3.4650    -4.2610     0.6630 C.3   1 <1>   0.1400 
  7 C       -0.9260    -1.4850     1.2400 C.3   1 <1>  -0.1600 
  8 C       -4.9230    -4.0820     1.1310 C.3   1 <1>   0.3430 
  9 N       -5.6950    -3.2060     0.2020 N.4   1 <1>  -0.9590 
 10 C       -6.7360    -2.3960     0.9130 C.3   1 <1>   0.3430 
 11 C       -6.2570    -3.9430    -0.9630 C.3   1 <1>   0.3430 
 12 C       -7.3830    -1.3580    -0.0200 C.3   1 <1>   0.1430 
 13 C       -6.8810    -2.9530    -1.9510 C.3   1 <1>  -0.1600 
 14 C       -8.4980    -0.6650     0.7260 C.ar  1 <1>   0.1670 
 15 C       -7.9340    -2.0480    -1.2860 C.3   1 <1>  -0.1600 
 16 C       -6.4310    -0.1810    -0.3660 C.3   1 <1>  -0.1600 
 17 N       -9.4160    -1.2790     1.4300 N.ar  1 <1>  -0.6200 
 18 C       -8.4330     0.6870     0.5950 C.ar  1 <1>  -0.1440 
 19 C       -7.2660     1.1100    -0.2610 C.3   1 <1>  -0.0170 
 20 C      -10.3190    -0.4820     2.0210 C.ar  1 <1>   0.6200 
 21 C       -9.3900     1.4320     1.2330 C.ar  1 <1>   0.1600 
 22 N      -10.3310     0.8570     1.9470 N.ar  1 <1>  -0.6200 
 23 C      -11.3630    -1.1210     2.8100 C.ar  1 <1>   0.0000 
 24 C      -11.9030    -0.5080     3.9430 C.ar  1 <1>  -0.1500 
 25 C      -11.8720    -2.3780     2.4690 C.ar  1 <1>  -0.1500 
 26 C      -12.8920    -1.1130     4.6970 C.ar  1 <1>  -0.1500 
 27 C      -12.8600    -2.9900     3.2190 C.ar  1 <1>  -0.1500 
 28 C      -13.3730    -2.3580     4.3370 C.ar  1 <1>  -0.1500 
 29 H       -1.9470    -0.0080     0.0040 H     1 <1>   0.0800 
 30 H       -0.9460    -1.1380    -0.9020 H     1 <1>   0.0800 
 31 H       -0.7740    -3.6420     1.2380 H     1 <1>   0.0800 
 32 H       -1.7200    -2.9970     2.5800 H     1 <1>   0.0800 
 33 H       -2.9810    -4.9770     1.3050 H     1 <1>   0.0800 
 34 H       -3.4480    -4.6600    -0.3370 H     1 <1>   0.0800 
 35 H       -1.1960    -0.8240     2.0450 H     1 <1>   0.0800 
 36 H        0.1470    -1.4970     1.1530 H     1 <1>   0.0800 
 37 H       -4.9030    -3.6430     2.1150 H     1 <1>   0.0800 
 38 H       -5.4030    -5.0430     1.2070 H     1 <1>   0.0800 
 39 H       -5.0020    -2.5370    -0.1990 H     1 <1>   0.4500 
 40 H       -6.2980    -1.8830     1.7530 H     1 <1>   0.0800 
 41 H       -7.5080    -3.0480     1.2880 H     1 <1>   0.0800 
 42 H       -7.0100    -4.6380    -0.6260 H     1 <1>   0.0800 
 43 H       -5.4770    -4.4960    -1.4610 H     1 <1>   0.0800 
 44 H       -7.3430    -3.5050    -2.7500 H     1 <1>   0.0800 
 45 H       -6.0980    -2.3590    -2.3910 H     1 <1>   0.0800 
 46 H       -8.2830    -1.3100    -1.9880 H     1 <1>   0.0800 
 47 H       -8.7830    -2.6510    -1.0100 H     1 <1>   0.0800 
 48 H       -5.9810    -0.2720    -1.3390 H     1 <1>   0.0800 
 49 H       -5.6410    -0.1270     0.3630 H     1 <1>   0.0800 
 50 H       -7.6210     1.4150    -1.2310 H     1 <1>   0.0800 
 51 H       -6.7060     1.9110     0.1910 H     1 <1>   0.0800 
 52 H       -9.3860     2.5070     1.1610 H     1 <1>   0.1500 
 53 H      -11.5420     0.4630     4.2380 H     1 <1>   0.1500 
 54 H      -11.4890    -2.8820     1.6000 H     1 <1>   0.1500 
 55 H      -13.2880    -0.6150     5.5650 H     1 <1>   0.1500 
 56 H      -13.2330    -3.9580     2.9320 H     1 <1>   0.1500 
 57 H      -14.1420    -2.8310     4.9220 H     1 <1>   0.1500 
@<TRIPOS>BOND
  1   1   2  2   
  2   2   3  am  
  3   2   4  1   
  4   3   5  1   
  5   3   6  1   
  6   4   7  1   
  7   4  29  1   
  8   4  30  1   
  9   5   7  1   
 10   5  31  1   
 11   5  32  1   
 12   6   8  1   
 13   6  33  1   
 14   6  34  1   
 15   7  35  1   
 16   7  36  1   
 17   8   9  1   
 18   8  37  1   
 19   8  38  1   
 20   9  10  1   
 21   9  11  1   
 22   9  39  1   
 23  10  12  1   
 24  10  40  1   
 25  10  41  1   
 26  11  13  1   
 27  11  42  1   
 28  11  43  1   
 29  12  14  1   
 30  12  15  1   
 31  12  16  1   
 32  13  15  1   
 33  13  44  1   
 34  13  45  1   
 35  14  17  ar  
 36  14  18  ar  
 37  15  46  1   
 38  15  47  1   
 39  16  19  1   
 40  16  48  1   
 41  16  49  1   
 42  17  20  ar  
 43  18  19  1   
 44  18  21  ar  
 45  19  50  1   
 46  19  51  1   
 47  20  22  ar  
 48  20  23  1   
 49  21  22  ar  
 50  21  52  1   
 51  23  24  ar  
 52  23  25  ar  
 53  24  26  ar  
 54  24  53  1   
 55  25  27  ar  
 56  25  54  1   
 57  26  28  ar  
 58  26  55  1   
 59  27  28  ar  
 60  27  56  1   
 61  28  57  1   
@<TRIPOS>SUBSTRUCTURE
  1 ****  10 GROUP 4 **** **** 0

# MOE 2024.06 (io_trps.svl 2023.06)
