@<TRIPOS>MOLECULE
NONAME
31 33 1 0 0 
SMALL
USER_CHARGES


@<TRIPOS>ATOM
  1 CL      -0.7400    -0.3050     1.5080 Cl    1 <1>  -0.1770 
  2 C       -1.9330    -1.0860     0.4960 C.ar  1 <1>   0.1770 
  3 C       -2.7940    -0.3410    -0.2920 C.ar  1 <1>   0.1900 
  4 C       -2.0110    -2.4650     0.4870 C.ar  1 <1>  -0.1500 
  5 F       -2.7240     0.9620    -0.2890 F     1 <1>  -0.1900 
  6 C       -3.7390    -0.9540    -1.0940 C.ar  1 <1>  -0.1500 
  7 C       -2.9560    -3.1180    -0.3070 C.ar  1 <1>   0.0860 
  8 C       -3.8100    -2.3380    -1.0950 C.ar  1 <1>  -0.1500 
  9 C       -3.0310    -4.5640    -0.3130 C.2   1 <1>   0.5440 
 10 O       -2.0550    -5.2040    -0.6560 O.2   1 <1>  -0.5700 
 11 N       -4.1710    -5.2180     0.0680 N.am  1 <1>  -0.6600 
 12 C       -5.3430    -4.5870     0.7380 C.3   1 <1>   0.2350 
 13 C       -4.2790    -6.7020     0.1570 C.3   1 <1>   0.2350 
 14 C       -6.4070    -5.6650     0.7960 C.3   1 <1>  -0.2420 
 15 C       -5.7450    -6.9790     0.4510 C.3   1 <1>  -0.2420 
 16 C       -7.4950    -5.2740     1.7990 C.2   1 <1>   0.9470 
 17 C       -6.8150    -6.4160    -0.4480 C.3   1 <1>  -0.2000 
 18 C       -5.9270    -8.3780     1.0450 C.2   1 <1>   0.9470 
 19 O       -8.6730    -5.1950     1.4240 O.co2 1 <1>  -0.9000 
 20 O       -7.1530    -4.8590     2.9150 O.co2 1 <1>  -0.9000 
 21 O       -6.6170    -9.2120     0.4410 O.co2 1 <1>  -0.9000 
 22 O       -5.2580    -8.7000     2.0360 O.co2 1 <1>  -0.9000 
 23 H       -1.3410    -3.0470     1.0940 H     1 <1>   0.1500 
 24 H       -4.4000    -0.3590    -1.7000 H     1 <1>   0.1500 
 25 H       -4.5370    -2.8380    -1.7140 H     1 <1>   0.1500 
 26 H       -5.0640    -4.2880     1.7340 H     1 <1>   0.0800 
 27 H       -5.7110    -3.7380     0.1920 H     1 <1>   0.0800 
 28 H       -3.9740    -7.1670    -0.7630 H     1 <1>   0.0800 
 29 H       -3.6610    -7.0560     0.9650 H     1 <1>   0.0800 
 30 H       -6.5470    -6.0320    -1.4140 H     1 <1>   0.1000 
 31 H       -7.7740    -6.9080    -0.4490 H     1 <1>   0.1000 
@<TRIPOS>BOND
  1   1   2  1   
  2   2   3  ar  
  3   2   4  ar  
  4   3   5  1   
  5   3   6  ar  
  6   4   7  ar  
  7   4  23  1   
  8   6   8  ar  
  9   6  24  1   
 10   7   8  ar  
 11   7   9  1   
 12   8  25  1   
 13   9  10  2   
 14   9  11  am  
 15  11  12  1   
 16  11  13  1   
 17  12  14  1   
 18  12  26  1   
 19  12  27  1   
 20  13  15  1   
 21  13  28  1   
 22  13  29  1   
 23  14  15  1   
 24  14  16  1   
 25  14  17  1   
 26  15  17  1   
 27  15  18  1   
 28  16  19  ar  
 29  16  20  ar  
 30  17  30  1   
 31  17  31  1   
 32  18  21  ar  
 33  18  22  ar  
@<TRIPOS>SUBSTRUCTURE
  1 ****  12 GROUP 4 **** **** 0

# MOE 2024.06 (io_trps.svl 2023.06)
