@<TRIPOS>MOLECULE
NONAME
49 51 1 0 0 
SMALL
USER_CHARGES


@<TRIPOS>ATOM
  1 F       -0.3280     0.7480    -1.6860 F     1 <1>  -0.1900 
  2 C       -1.3520     1.3450    -1.1420 C.ar  1 <1>   0.1900 
  3 C       -1.3850     2.7120    -1.0980 C.ar  1 <1>  -0.1500 
  4 C       -2.3740     0.5540    -0.6270 C.ar  1 <1>  -0.1500 
  5 C       -2.4830     3.3790    -0.5140 C.ar  1 <1>   0.0000 
  6 C       -3.4530     1.1770    -0.0520 C.ar  1 <1>  -0.1500 
  7 C       -3.5240     2.5800     0.0130 C.ar  1 <1>   0.3610 
  8 C       -2.5880     4.8050    -0.4360 C.ar  1 <1>   0.1000 
  9 N       -4.6100     3.1960     0.5940 N.ar  1 <1>  -0.1790 
 10 N       -1.6120     5.5890    -0.9540 N.pl3 1 <1>  -0.8690 
 11 C       -3.7250     5.3350     0.1800 C.ar  1 <1>  -0.1500 
 12 C       -4.7190     4.5330     0.6830 C.ar  1 <1>   0.2180 
 13 C       -1.5380     7.0730    -1.0950 C.3   1 <1>   0.2090 
 14 C       -5.9590     5.1110     1.3460 C.3   1 <1>  -0.0970 
 15 C       -0.6640     7.6830     0.0220 C.3   1 <1>   0.3430 
 16 N       -0.2410     9.1110    -0.2290 N.4   1 <1>  -0.9590 
 17 C        0.7060     9.6290     0.8310 C.3   1 <1>   0.4230 
 18 C       -1.4280    10.0160    -0.3610 C.3   1 <1>   0.3430 
 19 C        1.1740    11.0420     0.4340 C.3   1 <1>  -0.1600 
 20 C        1.9300     8.7040     1.0640 C.3   1 <1>   0.1200 
 21 C       -0.9840    11.4100    -0.7970 C.3   1 <1>  -0.1600 
 22 C        0.0090    12.0090     0.2000 C.3   1 <1>  -0.1600 
 23 O        2.6890     9.1920     2.1180 O.3   1 <1>  -0.6800 
 24 H       -0.5610     3.2580    -1.5180 H     1 <1>   0.1500 
 25 H       -2.2920    -0.5190    -0.6910 H     1 <1>   0.1500 
 26 H       -4.2500     0.5750     0.3500 H     1 <1>   0.1500 
 27 H       -5.3510     2.5970     0.9650 H     1 <1>   0.4570 
 28 H       -0.8250     5.1170    -1.4240 H     1 <1>   0.4000 
 29 H       -3.8300     6.3990     0.2610 H     1 <1>   0.1500 
 30 H       -2.5270     7.4940    -1.0700 H     1 <1>   0.0800 
 31 H       -1.1040     7.2960    -2.0550 H     1 <1>   0.0800 
 32 H       -6.0370     4.7700     2.3640 H     1 <1>   0.0800 
 33 H       -6.8450     4.8150     0.8100 H     1 <1>   0.0800 
 34 H       -5.9220     6.1860     1.3570 H     1 <1>   0.0800 
 35 H        0.2140     7.0660     0.1050 H     1 <1>   0.0800 
 36 H       -1.2000     7.6230     0.9550 H     1 <1>   0.0800 
 37 H        0.2770     9.1640    -1.1160 H     1 <1>   0.4500 
 38 H        0.1720     9.6970     1.7650 H     1 <1>   0.0800 
 39 H       -1.9410    10.0860     0.5850 H     1 <1>   0.0800 
 40 H       -2.1170     9.6290    -1.0930 H     1 <1>   0.0800 
 41 H        1.7850    10.9870    -0.4500 H     1 <1>   0.0800 
 42 H        1.7920    11.4460     1.2190 H     1 <1>   0.0800 
 43 H        2.5590     8.6710     0.1910 H     1 <1>   0.0800 
 44 H        1.6280     7.7100     1.3400 H     1 <1>   0.0800 
 45 H       -1.8470    12.0500    -0.8640 H     1 <1>   0.0800 
 46 H       -0.5430    11.3620    -1.7780 H     1 <1>   0.0800 
 47 H        0.3820    12.9500    -0.1720 H     1 <1>   0.0800 
 48 H       -0.4900    12.2040     1.1350 H     1 <1>   0.0800 
 49 H        3.4890     8.6480     2.2790 H     1 <1>   0.4000 
@<TRIPOS>BOND
  1   1   2  1   
  2   2   3  ar  
  3   2   4  ar  
  4   3   5  ar  
  5   3  24  1   
  6   4   6  ar  
  7   4  25  1   
  8   5   7  ar  
  9   5   8  ar  
 10   6   7  ar  
 11   6  26  1   
 12   7   9  ar  
 13   8  10  1   
 14   8  11  ar  
 15   9  12  ar  
 16   9  27  1   
 17  10  13  1   
 18  10  28  1   
 19  11  12  ar  
 20  11  29  1   
 21  12  14  1   
 22  13  15  1   
 23  13  30  1   
 24  13  31  1   
 25  14  32  1   
 26  14  33  1   
 27  14  34  1   
 28  15  16  1   
 29  15  35  1   
 30  15  36  1   
 31  16  17  1   
 32  16  18  1   
 33  16  37  1   
 34  17  19  1   
 35  17  20  1   
 36  17  38  1   
 37  18  21  1   
 38  18  39  1   
 39  18  40  1   
 40  19  22  1   
 41  19  41  1   
 42  19  42  1   
 43  20  23  1   
 44  20  43  1   
 45  20  44  1   
 46  21  22  1   
 47  21  45  1   
 48  21  46  1   
 49  22  47  1   
 50  22  48  1   
 51  23  49  1   
@<TRIPOS>SUBSTRUCTURE
  1 ****  10 GROUP 4 **** **** 0

# MOE 2024.06 (io_trps.svl 2023.06)
