@<TRIPOS>MOLECULE
NONAME
45 46 1 0 0 
SMALL
USER_CHARGES


@<TRIPOS>ATOM
  1 O       -0.8330     0.1650    -0.1170 O.2   1 <1>  -0.5700 
  2 C       -1.9300     0.6680    -0.2030 C.2   1 <1>   0.5690 
  3 N       -3.0220    -0.0760    -0.5880 N.am  1 <1>  -0.6600 
  4 C       -2.0480     2.1720     0.1060 C.3   1 <1>  -0.0190 
  5 C       -2.8690    -1.5380    -0.8430 C.3   1 <1>   0.3200 
  6 C       -4.3750     0.4820    -0.8840 C.3   1 <1>   0.1400 
  7 C       -1.6480     2.9940    -1.1380 C.3   1 <1>  -0.1600 
  8 C       -1.2480     2.5400     1.3740 C.3   1 <1>  -0.1600 
  9 C       -3.5680    -2.3260     0.2460 C.2   1 <1>  -0.3320 
 10 C       -5.2540     0.5410     0.3720 C.3   1 <1>   0.1200 
 11 C       -2.1410     4.4490    -1.0840 C.3   1 <1>  -0.1600 
 12 C       -1.3140     4.0190     1.7870 C.3   1 <1>  -0.1600 
 13 N       -4.7860    -2.9040     0.1640 N.pl3 1 <1>   0.0480 
 14 C       -3.1000    -2.5940     1.4850 C.2   1 <1>   0.0770 
 15 O       -6.5440     0.8940    -0.0020 O.3   1 <1>  -0.6800 
 16 C       -1.1890     5.4300    -0.3830 C.3   1 <1>  -0.1600 
 17 C       -0.4680     4.9160     0.8720 C.3   1 <1>  -0.1600 
 18 C       -4.9710    -3.4800     1.3730 C.2   1 <1>   0.0360 
 19 C       -5.7450    -2.9040    -0.9560 C.3   1 <1>   0.0160 
 20 N       -3.9840    -3.3200     2.1930 N.2   1 <1>  -0.5650 
 21 H       -3.0710     2.3890     0.3330 H     1 <1>   0.0800 
 22 H       -1.8290    -1.8160    -0.8510 H     1 <1>   0.0800 
 23 H       -3.2660    -1.7830    -1.8120 H     1 <1>   0.0800 
 24 H       -4.8560    -0.1380    -1.6200 H     1 <1>   0.0800 
 25 H       -4.2760     1.4670    -1.3050 H     1 <1>   0.0800 
 26 H       -2.1000     2.5310    -1.9990 H     1 <1>   0.0800 
 27 H       -0.5820     2.9550    -1.2860 H     1 <1>   0.0800 
 28 H       -0.2170     2.2560     1.2450 H     1 <1>   0.0800 
 29 H       -1.6310     1.9470     2.1870 H     1 <1>   0.0800 
 30 H       -4.8920     1.2660     1.0800 H     1 <1>   0.0800 
 31 H       -5.3090    -0.4180     0.8530 H     1 <1>   0.0800 
 32 H       -3.1050     4.4870    -0.6070 H     1 <1>   0.0800 
 33 H       -2.2830     4.8010    -2.0920 H     1 <1>   0.0800 
 34 H       -0.9100     4.0930     2.7820 H     1 <1>   0.0800 
 35 H       -2.3320     4.3660     1.8300 H     1 <1>   0.0800 
 36 H       -2.1560    -2.2910     1.9080 H     1 <1>   0.1500 
 37 H       -6.6140     1.8560    -0.1610 H     1 <1>   0.4000 
 38 H       -1.7550     6.3080    -0.1200 H     1 <1>   0.0800 
 39 H       -0.4380     5.7440    -1.0870 H     1 <1>   0.0800 
 40 H        0.4230     4.3880     0.5790 H     1 <1>   0.0800 
 41 H       -0.1430     5.7740     1.4370 H     1 <1>   0.0800 
 42 H       -5.8690    -4.0200     1.6160 H     1 <1>   0.1500 
 43 H       -5.2200    -3.0570    -1.8810 H     1 <1>   0.0800 
 44 H       -6.2630    -1.9620    -0.9810 H     1 <1>   0.0800 
 45 H       -6.4570    -3.6960    -0.8180 H     1 <1>   0.0800 
@<TRIPOS>BOND
  1   1   2  2   
  2   2   3  am  
  3   2   4  1   
  4   3   5  1   
  5   3   6  1   
  6   4   7  1   
  7   4   8  1   
  8   4  21  1   
  9   5   9  1   
 10   5  22  1   
 11   5  23  1   
 12   6  10  1   
 13   6  24  1   
 14   6  25  1   
 15   7  11  1   
 16   7  26  1   
 17   7  27  1   
 18   8  12  1   
 19   8  28  1   
 20   8  29  1   
 21   9  13  1   
 22   9  14  2   
 23  10  15  1   
 24  10  30  1   
 25  10  31  1   
 26  11  16  1   
 27  11  32  1   
 28  11  33  1   
 29  12  17  1   
 30  12  34  1   
 31  12  35  1   
 32  13  18  1   
 33  13  19  1   
 34  14  20  1   
 35  14  36  1   
 36  15  37  1   
 37  16  17  1   
 38  16  38  1   
 39  16  39  1   
 40  17  40  1   
 41  17  41  1   
 42  18  20  2   
 43  18  42  1   
 44  19  43  1   
 45  19  44  1   
 46  19  45  1   
@<TRIPOS>SUBSTRUCTURE
  1 ****   3 GROUP 4 **** **** 0

# MOE 2024.06 (io_trps.svl 2023.06)
