@<TRIPOS>MOLECULE
NONAME
19 19 1 0 0 
SMALL
USER_CHARGES


@<TRIPOS>ATOM
  1 O        0.8290     7.4920     0.1190 O.3   1 <1>  -0.6800 
  2 C       -0.3800     6.8540    -0.0740 C.3   1 <1>   0.1200 
  3 C       -0.2590     5.4360     0.4990 C.3   1 <1>  -0.0800 
  4 C       -1.5110     4.5920     0.2620 C.3   1 <1>   0.3430 
  5 C        0.8890     4.6240    -0.1060 C.3   1 <1>  -0.1600 
  6 N       -1.0330     3.2550    -0.1960 N.4   1 <1>  -0.9060 
  7 C        0.4330     3.1840     0.0190 C.3   1 <1>   0.3430 
  8 H        0.7990     8.4220    -0.1860 H     1 <1>   0.4000 
  9 H       -1.1430     7.4180     0.4370 H     1 <1>   0.0800 
 10 H       -0.5850     6.8390    -1.1320 H     1 <1>   0.0800 
 11 H       -0.1160     5.5150     1.5640 H     1 <1>   0.0800 
 12 H       -2.1350     5.0420    -0.4940 H     1 <1>   0.0800 
 13 H       -2.0740     4.5060     1.1780 H     1 <1>   0.0800 
 14 H        1.8180     4.7960     0.4110 H     1 <1>   0.0800 
 15 H        1.0260     4.8680    -1.1460 H     1 <1>   0.0800 
 16 H       -1.5170     2.4910     0.2930 H     1 <1>   0.4500 
 17 H       -1.2250     3.1530    -1.2000 H     1 <1>   0.4500 
 18 H        0.6410     2.8290     1.0170 H     1 <1>   0.0800 
 19 H        0.9190     2.5440    -0.7000 H     1 <1>   0.0800 
@<TRIPOS>BOND
  1   1   2  1   
  2   1   8  1   
  3   2   3  1   
  4   2   9  1   
  5   2  10  1   
  6   3   4  1   
  7   3   5  1   
  8   3  11  1   
  9   4   6  1   
 10   4  12  1   
 11   4  13  1   
 12   5   7  1   
 13   5  14  1   
 14   5  15  1   
 15   6   7  1   
 16   6  16  1   
 17   6  17  1   
 18   7  18  1   
 19   7  19  1   
@<TRIPOS>SUBSTRUCTURE
  1 ****   3 GROUP 4 **** **** 0

# MOE 2024.06 (io_trps.svl 2023.06)
