@<TRIPOS>MOLECULE
NONAME
48 50 1 0 0 
SMALL
USER_CHARGES


@<TRIPOS>ATOM
  1 O       -0.2420     0.2140     0.3730 O.2   1 <1>  -0.5700 
  2 C       -1.2860     0.8330     0.3140 C.2   1 <1>   0.5440 
  3 N       -2.4640     0.1330     0.1760 N.am  1 <1>  -0.6600 
  4 C       -1.2550     2.2700     0.3740 C.ar  1 <1>   0.0860 
  5 C       -3.7090     0.6760    -0.4310 C.3   1 <1>   0.1400 
  6 C       -2.4950    -1.3550     0.1650 C.3   1 <1>   0.1400 
  7 C       -2.1530     3.0140     1.1170 C.ar  1 <1>   0.1600 
  8 C       -0.3080     3.0100    -0.3080 C.ar  1 <1>   0.1600 
  9 C       -4.4610    -0.5460    -0.9580 C.3   1 <1>   0.2000 
 10 C       -3.9490    -1.7250    -0.1360 C.3   1 <1>  -0.0800 
 11 N       -2.1490     4.3240     1.1550 N.ar  1 <1>  -0.6200 
 12 N       -0.2700     4.3210    -0.2920 N.ar  1 <1>  -0.6200 
 13 O       -5.8310    -0.4100    -0.7960 O.3   1 <1>  -0.6800 
 14 C       -4.1200    -3.0720    -0.8590 C.3   1 <1>  -0.0170 
 15 C       -1.2030     4.9200     0.4420 C.ar  1 <1>   0.7200 
 16 C       -3.6650    -4.2360     0.0060 C.ar  1 <1>   0.1670 
 17 N       -1.2250     6.2640     0.4990 N.pl3 1 <1>  -0.8690 
 18 N       -2.3670    -4.4960     0.0060 N.ar  1 <1>  -0.6200 
 19 C       -4.5990    -4.9540     0.7380 C.ar  1 <1>  -0.1500 
 20 C       -0.2650     7.2030    -0.0820 C.3   1 <1>   0.2890 
 21 C       -1.9840    -5.5100     0.7650 C.ar  1 <1>   0.1600 
 22 C       -4.1870    -6.0070     1.5260 C.ar  1 <1>  -0.1500 
 23 C        0.5010     7.8570     1.0590 C.3   1 <1>  -0.2400 
 24 C       -1.0480     8.2320    -0.8880 C.3   1 <1>  -0.2400 
 25 C       -2.8370    -6.2850     1.5320 C.ar  1 <1>  -0.1500 
 26 H       -4.2860     1.1750     0.3270 H     1 <1>   0.0800 
 27 H       -3.4780     1.3550    -1.2330 H     1 <1>   0.0800 
 28 H       -1.8380    -1.7170    -0.6090 H     1 <1>   0.0800 
 29 H       -2.1720    -1.7540     1.1120 H     1 <1>   0.0800 
 30 H       -2.8960     2.4990     1.7010 H     1 <1>   0.1500 
 31 H        0.4380     2.4870    -0.8830 H     1 <1>   0.1500 
 32 H       -4.2520    -0.6790    -2.0060 H     1 <1>   0.0800 
 33 H       -4.4680    -1.7590     0.8060 H     1 <1>   0.0800 
 34 H       -6.0590    -0.3390     0.1510 H     1 <1>   0.4000 
 35 H       -3.5550    -3.0750    -1.7750 H     1 <1>   0.0800 
 36 H       -5.1550    -3.2050    -1.1190 H     1 <1>   0.0800 
 37 H       -1.9330     6.6550     1.1130 H     1 <1>   0.4000 
 38 H       -5.6410    -4.6930     0.6950 H     1 <1>   0.1500 
 39 H        0.4230     6.6860    -0.7310 H     1 <1>   0.0800 
 40 H       -0.9310    -5.7370     0.7770 H     1 <1>   0.1500 
 41 H       -4.8850    -6.5850     2.1070 H     1 <1>   0.1500 
 42 H       -0.1680     8.3810     1.7170 H     1 <1>   0.0800 
 43 H        1.2170     8.5550     0.6660 H     1 <1>   0.0800 
 44 H        1.0320     7.1060     1.6160 H     1 <1>   0.0800 
 45 H       -1.7390     8.7620    -0.2600 H     1 <1>   0.0800 
 46 H       -1.5880     7.7390    -1.6770 H     1 <1>   0.0800 
 47 H       -0.3710     8.9390    -1.3320 H     1 <1>   0.0800 
 48 H       -2.4470    -7.0920     2.1240 H     1 <1>   0.1500 
@<TRIPOS>BOND
  1   1   2  2   
  2   2   3  am  
  3   2   4  1   
  4   3   5  1   
  5   3   6  1   
  6   4   7  ar  
  7   4   8  ar  
  8   5   9  1   
  9   5  26  1   
 10   5  27  1   
 11   6  10  1   
 12   6  28  1   
 13   6  29  1   
 14   7  11  ar  
 15   7  30  1   
 16   8  12  ar  
 17   8  31  1   
 18   9  10  1   
 19   9  13  1   
 20   9  32  1   
 21  10  14  1   
 22  10  33  1   
 23  11  15  ar  
 24  12  15  ar  
 25  13  34  1   
 26  14  16  1   
 27  14  35  1   
 28  14  36  1   
 29  15  17  1   
 30  16  18  ar  
 31  16  19  ar  
 32  17  20  1   
 33  17  37  1   
 34  18  21  ar  
 35  19  22  ar  
 36  19  38  1   
 37  20  23  1   
 38  20  24  1   
 39  20  39  1   
 40  21  25  ar  
 41  21  40  1   
 42  22  25  ar  
 43  22  41  1   
 44  23  42  1   
 45  23  43  1   
 46  23  44  1   
 47  24  45  1   
 48  24  46  1   
 49  24  47  1   
 50  25  48  1   
@<TRIPOS>SUBSTRUCTURE
  1 ****   3 GROUP 4 **** **** 0

# MOE 2024.06 (io_trps.svl 2023.06)
