@<TRIPOS>MOLECULE
NONAME
39 39 1 0 0 
SMALL
USER_CHARGES


@<TRIPOS>ATOM
  1 O       -0.4040     0.0820    -0.1110 O.2   1 <1>  -0.5700 
  2 C       -1.4410     0.5710     0.2730 C.2   1 <1>   0.5690 
  3 N       -2.4950    -0.2110     0.6770 N.am  1 <1>  -0.6600 
  4 C       -1.5480     2.0880     0.3130 C.3   1 <1>  -0.0990 
  5 C       -2.3660    -1.6990     0.6570 C.3   1 <1>   0.3200 
  6 C       -3.7500     0.3340     1.2840 C.3   1 <1>   0.1400 
  7 C       -0.3320     2.7820    -0.2960 C.3   1 <1>   0.1200 
  8 C       -3.5340    -2.3340    -0.0730 C.2   1 <1>  -0.3320 
  9 C       -4.8030     0.6560     0.2150 C.3   1 <1>   0.1200 
 10 O       -0.5460     4.1550    -0.2230 O.3   1 <1>  -0.5600 
 11 N       -4.7050    -2.6780     0.4970 N.pl3 1 <1>   0.0330 
 12 C       -3.6390    -2.6710    -1.3770 C.2   1 <1>   0.0770 
 13 O       -6.0300     0.8160     0.8430 O.3   1 <1>  -0.6800 
 14 C        0.5020     4.9110    -0.7270 C.3   1 <1>   0.1200 
 15 C       -5.4510    -3.1950    -0.5020 C.2   1 <1>   0.0070 
 16 N       -4.8450    -3.2080    -1.6430 N.2   1 <1>  -0.5650 
 17 C        0.1220     6.3780    -0.5810 C.3   1 <1>  -0.2400 
 18 C       -6.8610    -3.7010    -0.2940 C.3   1 <1>  -0.0600 
 19 H       -1.6420     2.4000     1.3360 H     1 <1>   0.0800 
 20 H       -2.4190     2.3910    -0.2350 H     1 <1>   0.0800 
 21 H       -2.3130    -2.0680     1.6660 H     1 <1>   0.0800 
 22 H       -1.4580    -1.9920     0.1590 H     1 <1>   0.0800 
 23 H       -3.5350     1.2240     1.8480 H     1 <1>   0.0800 
 24 H       -4.1510    -0.3910     1.9700 H     1 <1>   0.0800 
 25 H       -0.2130     2.5010    -1.3290 H     1 <1>   0.0800 
 26 H        0.5600     2.5360     0.2560 H     1 <1>   0.0800 
 27 H       -4.8970    -0.1430    -0.4990 H     1 <1>   0.0800 
 28 H       -4.5630     1.5700    -0.2970 H     1 <1>   0.0800 
 29 H       -4.9920    -2.5600     1.4730 H     1 <1>   0.2700 
 30 H       -2.9000    -2.5500    -2.1520 H     1 <1>   0.1500 
 31 H       -6.7230     1.0200     0.1830 H     1 <1>   0.4000 
 32 H        0.6480     4.6570    -1.7640 H     1 <1>   0.0800 
 33 H        1.3940     4.6910    -0.1640 H     1 <1>   0.0800 
 34 H       -0.7760     6.5830    -1.1370 H     1 <1>   0.0800 
 35 H        0.9120     7.0000    -0.9610 H     1 <1>   0.0800 
 36 H       -0.0360     6.6160     0.4550 H     1 <1>   0.0800 
 37 H       -7.4860    -2.9110     0.0790 H     1 <1>   0.0800 
 38 H       -6.8600    -4.5180     0.4040 H     1 <1>   0.0800 
 39 H       -7.2640    -4.0470    -1.2290 H     1 <1>   0.0800 
@<TRIPOS>BOND
  1   1   2  2   
  2   2   3  am  
  3   2   4  1   
  4   3   5  1   
  5   3   6  1   
  6   4   7  1   
  7   4  19  1   
  8   4  20  1   
  9   5   8  1   
 10   5  21  1   
 11   5  22  1   
 12   6   9  1   
 13   6  23  1   
 14   6  24  1   
 15   7  10  1   
 16   7  25  1   
 17   7  26  1   
 18   8  11  1   
 19   8  12  2   
 20   9  13  1   
 21   9  27  1   
 22   9  28  1   
 23  10  14  1   
 24  11  15  1   
 25  11  29  1   
 26  12  16  1   
 27  12  30  1   
 28  13  31  1   
 29  14  17  1   
 30  14  32  1   
 31  14  33  1   
 32  15  16  2   
 33  15  18  1   
 34  17  34  1   
 35  17  35  1   
 36  17  36  1   
 37  18  37  1   
 38  18  38  1   
 39  18  39  1   
@<TRIPOS>SUBSTRUCTURE
  1 ****   3 GROUP 4 **** **** 0

# MOE 2024.06 (io_trps.svl 2023.06)
