@<TRIPOS>MOLECULE
NONAME
56 59 1 0 0 
SMALL
USER_CHARGES


@<TRIPOS>ATOM
  1 O        0.4200     1.4140     0.6440 O.2   1 <1>  -0.5700 
  2 C        0.8110     0.3100     0.3340 C.2   1 <1>   0.5690 
  3 N        1.5040     0.0980    -0.8320 N.am  1 <1>  -0.6600 
  4 C        0.5110    -0.8370     1.3140 C.3   1 <1>   0.1710 
  5 C        1.8820     1.2420    -1.7140 C.3   1 <1>   0.3210 
  6 C        2.0450    -1.2170    -1.2820 C.3   1 <1>   0.0600 
  7 N       -0.3960    -1.9020     0.8010 N.3   1 <1>  -0.8100 
  8 C        3.3610     1.5670    -1.5690 C.2   1 <1>   0.1080 
  9 C       -0.5890    -2.9620     1.8150 C.3   1 <1>   0.1100 
 10 C       -1.7130    -1.3350     0.4200 C.3   1 <1>   0.1100 
 11 N        4.2840     1.2370    -2.4340 N.2   1 <1>  -0.7070 
 12 C        3.9050     2.2510    -0.4890 C.2   1 <1>  -0.1810 
 13 C       -1.5300    -4.0750     1.3180 C.3   1 <1>   0.2090 
 14 C       -2.6840    -2.4140    -0.0960 C.3   1 <1>   0.2090 
 15 N        5.4380     1.7140    -1.9090 N.pl3 1 <1>   0.3000 
 16 C        5.2070     2.3260    -0.7340 C.2   1 <1>  -0.3320 
 17 C        3.5230     2.8960     0.8120 C.3   1 <1>   0.0210 
 18 N       -2.8470    -3.5130     0.8990 N.pl3 1 <1>  -0.8380 
 19 C        5.9900     3.0350     0.3340 C.3   1 <1>   0.0200 
 20 C        4.8660     3.5040     1.2930 C.3   1 <1>  -0.1600 
 21 C       -3.8460    -4.4390     0.6240 C.ar  1 <1>   0.1000 
 22 C       -3.7570    -5.3150    -0.4520 C.ar  1 <1>  -0.1500 
 23 C       -4.9660    -4.4960     1.4400 C.ar  1 <1>  -0.1500 
 24 C       -4.7620    -6.2320    -0.7120 C.ar  1 <1>  -0.1440 
 25 C       -5.9750    -5.4070     1.1910 C.ar  1 <1>  -0.1500 
 26 C       -5.8740    -6.2740     0.1160 C.ar  1 <1>  -0.1500 
 27 C       -4.6610    -7.1870    -1.8870 C.3   1 <1>  -0.0970 
 28 H        0.0830    -0.4080     2.2030 H     1 <1>   0.0800 
 29 H        1.4500    -1.2800     1.5900 H     1 <1>   0.0800 
 30 H        1.3070     2.1170    -1.4690 H     1 <1>   0.0800 
 31 H        1.6750     0.9880    -2.7380 H     1 <1>   0.0800 
 32 H        1.7340    -2.0180    -0.6380 H     1 <1>   0.0800 
 33 H        3.1210    -1.1800    -1.2920 H     1 <1>   0.0800 
 34 H        1.6970    -1.4270    -2.2780 H     1 <1>   0.0800 
 35 H       -1.0050    -2.5380     2.7130 H     1 <1>   0.0800 
 36 H        0.3640    -3.3990     2.0590 H     1 <1>   0.0800 
 37 H       -1.5800    -0.6010    -0.3560 H     1 <1>   0.0800 
 38 H       -2.1610    -0.8460     1.2670 H     1 <1>   0.0800 
 39 H       -1.6880    -4.7910     2.1050 H     1 <1>   0.0800 
 40 H       -1.0720    -4.5810     0.4870 H     1 <1>   0.0800 
 41 H       -2.3050    -2.8150    -1.0200 H     1 <1>   0.0800 
 42 H       -3.6440    -1.9690    -0.2910 H     1 <1>   0.0800 
 43 H        6.3460     1.6020    -2.3740 H     1 <1>   0.2700 
 44 H        3.1600     2.1510     1.4980 H     1 <1>   0.0800 
 45 H        2.7720     3.6510     0.6610 H     1 <1>   0.0800 
 46 H        6.5350     3.8700    -0.0700 H     1 <1>   0.0800 
 47 H        6.6600     2.3520     0.8250 H     1 <1>   0.0800 
 48 H        5.0780     3.2020     2.3030 H     1 <1>   0.0800 
 49 H        4.7970     4.5770     1.2610 H     1 <1>   0.0800 
 50 H       -2.8900    -5.2690    -1.0820 H     1 <1>   0.1500 
 51 H       -5.0310    -3.8170     2.2700 H     1 <1>   0.1500 
 52 H       -6.8390    -5.4420     1.8310 H     1 <1>   0.1500 
 53 H       -6.6620    -6.9810    -0.0740 H     1 <1>   0.1500 
 54 H       -3.7770    -6.9920    -2.4660 H     1 <1>   0.0800 
 55 H       -5.5200    -7.0740    -2.5240 H     1 <1>   0.0800 
 56 H       -4.6230    -8.2000    -1.5300 H     1 <1>   0.0800 
@<TRIPOS>BOND
  1   1   2  2   
  2   2   3  am  
  3   2   4  1   
  4   3   5  1   
  5   3   6  1   
  6   4   7  1   
  7   4  28  1   
  8   4  29  1   
  9   5   8  1   
 10   5  30  1   
 11   5  31  1   
 12   6  32  1   
 13   6  33  1   
 14   6  34  1   
 15   7   9  1   
 16   7  10  1   
 17   8  11  2   
 18   8  12  1   
 19   9  13  1   
 20   9  35  1   
 21   9  36  1   
 22  10  14  1   
 23  10  37  1   
 24  10  38  1   
 25  11  15  1   
 26  12  16  2   
 27  12  17  1   
 28  13  18  1   
 29  13  39  1   
 30  13  40  1   
 31  14  18  1   
 32  14  41  1   
 33  14  42  1   
 34  15  16  1   
 35  15  43  1   
 36  16  19  1   
 37  17  20  1   
 38  17  44  1   
 39  17  45  1   
 40  18  21  1   
 41  19  20  1   
 42  19  46  1   
 43  19  47  1   
 44  20  48  1   
 45  20  49  1   
 46  21  22  ar  
 47  21  23  ar  
 48  22  24  ar  
 49  22  50  1   
 50  23  25  ar  
 51  23  51  1   
 52  24  26  ar  
 53  24  27  1   
 54  25  26  ar  
 55  25  52  1   
 56  26  53  1   
 57  27  54  1   
 58  27  55  1   
 59  27  56  1   
@<TRIPOS>SUBSTRUCTURE
  1 ****   7 GROUP 4 **** **** 0

# MOE 2024.06 (io_trps.svl 2023.06)
