@<TRIPOS>MOLECULE
NONAME
46 49 1 0 0 
SMALL
USER_CHARGES


@<TRIPOS>ATOM
  1 O       -0.4200     1.4330     2.7750 O.co2 1 <1>  -0.9000 
  2 C       -0.4830     2.6040     2.3780 C.2   1 <1>   0.9790 
  3 O        0.0950     3.4830     3.0530 O.co2 1 <1>  -0.9000 
  4 C       -1.1720     2.9560     1.1680 C.ar  1 <1>  -0.1790 
  5 C       -0.5390     3.3240    -0.0490 C.ar  1 <1>   0.4100 
  6 C       -2.5600     2.9600     1.2350 C.ar  1 <1>  -0.1500 
  7 N       -1.2440     3.7780    -1.0940 N.ar  1 <1>  -0.6200 
  8 N        0.8470     3.3020    -0.3050 N.pl3 1 <1>  -0.8380 
  9 C       -3.2500     3.3770     0.1280 C.ar  1 <1>  -0.1430 
 10 C       -2.5520     3.7720    -0.9770 C.ar  1 <1>   0.1670 
 11 C        1.9210     3.1580     0.7250 C.3   1 <1>   0.2090 
 12 C        1.4510     3.7480    -1.6050 C.3   1 <1>   0.2090 
 13 C       -4.7400     3.4750    -0.0800 C.3   1 <1>  -0.0160 
 14 C       -3.4830     4.2050    -2.0790 C.3   1 <1>  -0.0160 
 15 C        2.4520     4.5160     1.2810 C.3   1 <1>   0.4230 
 16 C        1.9390     5.2110    -1.5160 C.3   1 <1>  -0.0800 
 17 C       -4.8650     4.2590    -1.3990 C.3   1 <1>  -0.1600 
 18 N        1.6930     5.8100     0.9700 N.4   1 <1>  -0.9590 
 19 C        3.9150     4.6950     0.8220 C.3   1 <1>   0.1200 
 20 C        3.4690     5.3960    -1.4360 C.3   1 <1>   0.1200 
 21 C        1.1830     5.9850    -0.4310 C.3   1 <1>   0.3430 
 22 C        0.5280     5.9350     1.8960 C.3   1 <1>   0.2630 
 23 O        4.0840     4.5040    -0.5580 O.3   1 <1>  -0.5600 
 24 H       -3.0640     2.6460     2.1340 H     1 <1>   0.1500 
 25 H        1.6540     2.5020     1.5230 H     1 <1>   0.0800 
 26 H        2.7360     2.6270     0.2680 H     1 <1>   0.0800 
 27 H        2.2700     3.0970    -1.8620 H     1 <1>   0.0800 
 28 H        0.7370     3.6520    -2.4040 H     1 <1>   0.0800 
 29 H       -5.1520     2.4860    -0.1810 H     1 <1>   0.0800 
 30 H       -5.2180     3.9890     0.7360 H     1 <1>   0.0800 
 31 H       -3.1960     5.1630    -2.4730 H     1 <1>   0.0800 
 32 H       -3.4650     3.4670    -2.8610 H     1 <1>   0.0800 
 33 H        2.4760     4.4080     2.3540 H     1 <1>   0.0800 
 34 H        1.6440     5.6620    -2.4450 H     1 <1>   0.0800 
 35 H       -5.1030     5.2840    -1.1730 H     1 <1>   0.0800 
 36 H       -5.6350     3.8520    -2.0310 H     1 <1>   0.0800 
 37 H        2.3350     6.5760     1.1780 H     1 <1>   0.4500 
 38 H        4.5200     3.9490     1.3070 H     1 <1>   0.0800 
 39 H        4.2990     5.6610     1.0930 H     1 <1>   0.0800 
 40 H        3.7350     6.4020    -1.1590 H     1 <1>   0.0800 
 41 H        3.8920     5.1980    -2.4060 H     1 <1>   0.0800 
 42 H        0.1520     5.6740    -0.4720 H     1 <1>   0.0800 
 43 H        1.2030     7.0340    -0.6760 H     1 <1>   0.0800 
 44 H       -0.2370     5.2290     1.6220 H     1 <1>   0.0800 
 45 H        0.1090     6.9260     1.8530 H     1 <1>   0.0800 
 46 H        0.8230     5.7200     2.9100 H     1 <1>   0.0800 
@<TRIPOS>BOND
  1   1   2  ar  
  2   2   3  ar  
  3   2   4  1   
  4   4   5  ar  
  5   4   6  ar  
  6   5   7  ar  
  7   5   8  1   
  8   6   9  ar  
  9   6  24  1   
 10   7  10  ar  
 11   8  11  1   
 12   8  12  1   
 13   9  10  ar  
 14   9  13  1   
 15  10  14  1   
 16  11  15  1   
 17  11  25  1   
 18  11  26  1   
 19  12  16  1   
 20  12  27  1   
 21  12  28  1   
 22  13  17  1   
 23  13  29  1   
 24  13  30  1   
 25  14  17  1   
 26  14  31  1   
 27  14  32  1   
 28  15  18  1   
 29  15  19  1   
 30  15  33  1   
 31  16  20  1   
 32  16  21  1   
 33  16  34  1   
 34  17  35  1   
 35  17  36  1   
 36  18  21  1   
 37  18  22  1   
 38  18  37  1   
 39  19  23  1   
 40  19  38  1   
 41  19  39  1   
 42  20  23  1   
 43  20  40  1   
 44  20  41  1   
 45  21  42  1   
 46  21  43  1   
 47  22  44  1   
 48  22  45  1   
 49  22  46  1   
@<TRIPOS>SUBSTRUCTURE
  1 ****   5 GROUP 4 **** **** 0

# MOE 2024.06 (io_trps.svl 2023.06)
