@<TRIPOS>MOLECULE
NONAME
46 48 1 0 0 
SMALL
USER_CHARGES


@<TRIPOS>ATOM
  1 O       -2.6460    -0.2850    -2.6740 O.2   1 <1>  -0.5700 
  2 C       -2.5440    -0.7560    -1.5700 C.2   1 <1>   0.5690 
  3 N       -2.2580     0.0070    -0.4730 N.am  1 <1>  -0.6600 
  4 C       -2.7960    -2.2350    -1.4250 C.3   1 <1>  -0.0190 
  5 C       -2.2020    -0.5490     0.9090 C.3   1 <1>   0.2200 
  6 C       -1.9300     1.4600    -0.6050 C.3   1 <1>   0.0600 
  7 C       -1.5750    -2.9870    -0.8540 C.3   1 <1>   0.1200 
  8 C       -4.1350    -2.4350    -0.7080 C.3   1 <1>   0.3430 
  9 C       -1.0810    -1.6090     1.0330 C.3   1 <1>   0.1200 
 10 C       -3.6020    -1.0470     1.3650 C.3   1 <1>   0.3430 
 11 O       -1.4570    -2.8680     0.5370 O.3   1 <1>  -0.5600 
 12 N       -4.0370    -2.3660     0.7870 N.4   1 <1>  -0.9590 
 13 C       -5.2310    -2.9330     1.4700 C.3   1 <1>   0.4860 
 14 C       -5.4130    -4.3690     1.0110 C.ar  1 <1>  -0.1440 
 15 C       -6.4570    -4.7660     0.1720 C.ar  1 <1>  -0.1440 
 16 C       -4.4840    -5.3010     1.4520 C.ar  1 <1>  -0.1500 
 17 C       -6.5530    -6.1050    -0.2060 C.ar  1 <1>  -0.1440 
 18 C       -7.5000    -3.7600    -0.3250 C.3   1 <1>  -0.0970 
 19 C       -4.5780    -6.6200     1.0630 C.ar  1 <1>  -0.1500 
 20 C       -5.6090    -7.0170     0.2380 C.ar  1 <1>  -0.1500 
 21 C       -7.6750    -6.6300    -1.0940 C.3   1 <1>  -0.0970 
 22 H       -2.9320    -2.6050    -2.4260 H     1 <1>   0.0800 
 23 H       -1.9330     0.2610     1.5630 H     1 <1>   0.0800 
 24 H       -2.6410     2.0520    -0.0540 H     1 <1>   0.0800 
 25 H       -1.9590     1.7720    -1.6360 H     1 <1>   0.0800 
 26 H       -0.9410     1.6500    -0.2260 H     1 <1>   0.0800 
 27 H       -0.6620    -2.6410    -1.3130 H     1 <1>   0.0800 
 28 H       -1.6740    -4.0380    -1.0670 H     1 <1>   0.0800 
 29 H       -4.5040    -3.4090    -0.9880 H     1 <1>   0.0800 
 30 H       -4.8440    -1.7050    -1.0660 H     1 <1>   0.0800 
 31 H       -0.8430    -1.7500     2.0730 H     1 <1>   0.0800 
 32 H       -0.1850    -1.2830     0.5310 H     1 <1>   0.0800 
 33 H       -4.3290    -0.2870     1.1290 H     1 <1>   0.0800 
 34 H       -3.5720    -1.1430     2.4380 H     1 <1>   0.0800 
 35 H       -3.2490    -3.0140     0.9900 H     1 <1>   0.4500 
 36 H       -5.0820    -2.9280     2.5370 H     1 <1>   0.0800 
 37 H       -6.1050    -2.3450     1.2520 H     1 <1>   0.0800 
 38 H       -3.6750    -5.0170     2.1050 H     1 <1>   0.1500 
 39 H       -7.8790    -4.0360    -1.2910 H     1 <1>   0.0800 
 40 H       -7.0990    -2.7710    -0.4310 H     1 <1>   0.0800 
 41 H       -8.3260    -3.7290     0.3640 H     1 <1>   0.0800 
 42 H       -3.8550    -7.3420     1.4040 H     1 <1>   0.1500 
 43 H       -5.6730    -8.0520    -0.0540 H     1 <1>   0.1500 
 44 H       -7.6750    -7.7050    -1.1240 H     1 <1>   0.0800 
 45 H       -7.5540    -6.2670    -2.0980 H     1 <1>   0.0800 
 46 H       -8.6310    -6.3140    -0.7160 H     1 <1>   0.0800 
@<TRIPOS>BOND
  1   1   2  2   
  2   2   3  am  
  3   2   4  1   
  4   3   5  1   
  5   3   6  1   
  6   4   7  1   
  7   4   8  1   
  8   4  22  1   
  9   5   9  1   
 10   5  10  1   
 11   5  23  1   
 12   6  24  1   
 13   6  25  1   
 14   6  26  1   
 15   7  11  1   
 16   7  27  1   
 17   7  28  1   
 18   8  12  1   
 19   8  29  1   
 20   8  30  1   
 21   9  11  1   
 22   9  31  1   
 23   9  32  1   
 24  10  12  1   
 25  10  33  1   
 26  10  34  1   
 27  12  13  1   
 28  12  35  1   
 29  13  14  1   
 30  13  36  1   
 31  13  37  1   
 32  14  15  ar  
 33  14  16  ar  
 34  15  17  ar  
 35  15  18  1   
 36  16  19  ar  
 37  16  38  1   
 38  17  20  ar  
 39  17  21  1   
 40  18  39  1   
 41  18  40  1   
 42  18  41  1   
 43  19  20  ar  
 44  19  42  1   
 45  20  43  1   
 46  21  44  1   
 47  21  45  1   
 48  21  46  1   
@<TRIPOS>SUBSTRUCTURE
  1 ****   8 GROUP 4 **** **** 0

# MOE 2024.06 (io_trps.svl 2023.06)
