@<TRIPOS>MOLECULE
NONAME
41 44 1 0 0 
SMALL
USER_CHARGES


@<TRIPOS>ATOM
  1 O       -0.0750     0.8690     1.8890 O.2   1 <1>  -0.5700 
  2 C       -0.5610     1.7720     1.2510 C.2   1 <1>   0.5690 
  3 N       -1.7700     1.6410     0.6100 N.am  1 <1>  -0.6600 
  4 C        0.2400     3.0500     1.1960 C.3   1 <1>   0.1570 
  5 C       -2.4040     2.6660    -0.2890 C.3   1 <1>   0.1400 
  6 C       -2.5660     0.3840     0.7170 C.3   1 <1>   0.1400 
  7 N        0.9530     3.1150    -0.0800 N.pl3 1 <1>   0.3140 
  8 C       -3.8170     3.0360     0.2040 C.3   1 <1>   0.1440 
  9 C       -3.9760     0.7030     1.2280 C.3   1 <1>  -0.1600 
 10 N        0.8620     4.1370    -0.9000 N.2   1 <1>  -0.4180 
 11 C        1.7710     2.2360    -0.6270 C.2   1 <1>   0.0360 
 12 C       -4.4300     4.0270    -0.7680 C.ar  1 <1>   0.1660 
 13 C       -4.6720     1.7570     0.3490 C.3   1 <1>  -0.1600 
 14 C       -3.7670     3.8540     1.5240 C.3   1 <1>  -0.1600 
 15 N        1.6120     3.8600    -1.9070 N.2   1 <1>   0.0000 
 16 N        2.1890     2.6720    -1.7510 N.2   1 <1>  -0.3380 
 17 N       -4.8800     3.7400    -1.9670 N.ar  1 <1>  -0.6200 
 18 C       -4.4550     5.2890    -0.2490 C.ar  1 <1>  -0.1440 
 19 C       -3.8620     5.3400     1.1360 C.3   1 <1>  -0.0170 
 20 C       -5.3640     4.7820    -2.6250 C.ar  1 <1>   0.7200 
 21 C       -4.9890     6.2900    -1.0250 C.ar  1 <1>   0.1600 
 22 N       -5.4590     6.0430    -2.2270 N.ar  1 <1>  -0.6200 
 23 N       -5.8450     4.5240    -3.8420 N.pl3 1 <1>  -0.9000 
 24 H        0.9580     3.0610     1.9930 H     1 <1>   0.0800 
 25 H       -0.4020     3.9030     1.2960 H     1 <1>   0.0800 
 26 H       -2.4790     2.2520    -1.2810 H     1 <1>   0.0800 
 27 H       -1.8070     3.5560    -0.3630 H     1 <1>   0.0800 
 28 H       -2.0930    -0.3160     1.3860 H     1 <1>   0.0800 
 29 H       -2.6250    -0.0760    -0.2550 H     1 <1>   0.0800 
 30 H       -3.9090     1.0500     2.2440 H     1 <1>   0.0800 
 31 H       -4.5600    -0.2000     1.2320 H     1 <1>   0.0800 
 32 H        2.0320     1.2950    -0.1770 H     1 <1>   0.1500 
 33 H       -4.8330     1.3360    -0.6290 H     1 <1>   0.0800 
 34 H       -5.6390     2.0000     0.7540 H     1 <1>   0.0800 
 35 H       -2.8890     3.6490     2.1090 H     1 <1>   0.0800 
 36 H       -4.6280     3.6150     2.1230 H     1 <1>   0.0800 
 37 H       -2.8850     5.7900     1.0940 H     1 <1>   0.0800 
 38 H       -4.4890     5.8880     1.8180 H     1 <1>   0.0800 
 39 H       -5.0320     7.3010    -0.6570 H     1 <1>   0.1500 
 40 H       -6.4820     5.2240    -4.2120 H     1 <1>   0.4000 
 41 H       -6.0690     3.5510    -4.0240 H     1 <1>   0.4000 
@<TRIPOS>BOND
  1   1   2  2   
  2   2   3  am  
  3   2   4  1   
  4   3   5  1   
  5   3   6  1   
  6   4   7  1   
  7   4  24  1   
  8   4  25  1   
  9   5   8  1   
 10   5  26  1   
 11   5  27  1   
 12   6   9  1   
 13   6  28  1   
 14   6  29  1   
 15   7  10  1   
 16   7  11  1   
 17   8  12  1   
 18   8  13  1   
 19   8  14  1   
 20   9  13  1   
 21   9  30  1   
 22   9  31  1   
 23  10  15  2   
 24  11  16  2   
 25  11  32  1   
 26  12  17  ar  
 27  12  18  ar  
 28  13  33  1   
 29  13  34  1   
 30  14  19  1   
 31  14  35  1   
 32  14  36  1   
 33  15  16  1   
 34  17  20  ar  
 35  18  19  1   
 36  18  21  ar  
 37  19  37  1   
 38  19  38  1   
 39  20  22  ar  
 40  20  23  1   
 41  21  22  ar  
 42  21  39  1   
 43  23  40  1   
 44  23  41  1   
@<TRIPOS>SUBSTRUCTURE
  1 ****   5 GROUP 4 **** **** 0

# MOE 2024.06 (io_trps.svl 2023.06)
