@<TRIPOS>MOLECULE
NONAME
58 62 1 0 0 
SMALL
USER_CHARGES


@<TRIPOS>ATOM
  1 O       -2.1080     2.0310    -2.9220 O.2   1 <1>  -0.5700 
  2 C       -2.5550     2.0510    -1.7840 C.2   1 <1>   0.7160 
  3 N       -3.6540     1.2520    -1.5110 N.am  1 <1>  -0.6600 
  4 C       -1.9210     2.9030    -0.7760 C.2   1 <1>   0.1410 
  5 C       -4.0170     0.0840    -2.3570 C.3   1 <1>   0.1400 
  6 C       -4.5030     1.3880    -0.3000 C.3   1 <1>   0.1400 
  7 N       -1.7500     2.5290     0.5260 N.2   1 <1>  -0.5650 
  8 C       -1.3860     4.1530    -0.9350 C.2   1 <1>  -0.3320 
  9 C       -3.8480    -1.1910    -1.5270 C.3   1 <1>  -0.1600 
 10 C       -4.3280     0.1380     0.5650 C.3   1 <1>  -0.1600 
 11 C       -1.1430     3.5180     1.1160 C.2   1 <1>   0.1340 
 12 N       -0.8980     4.5300     0.2500 N.pl3 1 <1>   0.0330 
 13 C       -1.3000     5.0350    -2.1720 C.3   1 <1>  -0.0600 
 14 C       -4.6560    -1.1450    -0.2200 C.3   1 <1>   0.4240 
 15 C       -0.7610     3.5560     2.5110 C.ar  1 <1>   0.0530 
 16 O       -6.0040    -1.0750    -0.6260 O.3   1 <1>  -0.5600 
 17 C       -4.3790    -2.4060     0.6290 C.ar  1 <1>  -0.1430 
 18 C       -0.5530     2.3730     3.2190 C.ar  1 <1>  -0.1500 
 19 C       -0.5880     4.7560     3.2050 C.ar  1 <1>  -0.1500 
 20 C       -6.9740    -1.4760     0.2900 C.3   1 <1>   0.1200 
 21 C       -5.4050    -3.2760     0.9850 C.ar  1 <1>  -0.1430 
 22 C       -3.0890    -2.6920     1.0610 C.ar  1 <1>  -0.1500 
 23 C       -0.1820     2.3800     4.5510 C.ar  1 <1>  -0.1500 
 24 C       -0.2150     4.7710     4.5370 C.ar  1 <1>  -0.1500 
 25 C       -6.8220    -2.9730     0.5420 C.3   1 <1>  -0.0170 
 26 C       -5.1440    -4.4080     1.7410 C.ar  1 <1>  -0.1500 
 27 C       -2.8270    -3.8190     1.8180 C.ar  1 <1>  -0.1500 
 28 C       -0.0100     3.5820     5.2130 C.ar  1 <1>  -0.1500 
 29 C       -3.8480    -4.6870     2.1610 C.ar  1 <1>   0.0830 
 30 O       -3.5070    -5.7720     2.9020 O.3   1 <1>  -0.3630 
 31 C       -4.4670    -6.7320     3.2800 C.3   1 <1>   0.0400 
 32 H       -3.3910     0.0320    -3.2310 H     1 <1>   0.0800 
 33 H       -5.0390     0.1850    -2.6820 H     1 <1>   0.0800 
 34 H       -5.5330     1.4810    -0.6030 H     1 <1>   0.0800 
 35 H       -4.2470     2.2690     0.2600 H     1 <1>   0.0800 
 36 H       -2.8030    -1.3080    -1.3110 H     1 <1>   0.0800 
 37 H       -4.1560    -2.0450    -2.1010 H     1 <1>   0.0800 
 38 H       -4.9420     0.2070     1.4420 H     1 <1>   0.0800 
 39 H       -3.3070     0.1080     0.8990 H     1 <1>   0.0800 
 40 H       -0.4120     5.3990     0.4790 H     1 <1>   0.2700 
 41 H       -1.8230     4.5870    -2.9980 H     1 <1>   0.0800 
 42 H       -0.2730     5.1710    -2.4580 H     1 <1>   0.0800 
 43 H       -1.7410     5.9960    -1.9770 H     1 <1>   0.0800 
 44 H       -0.6870     1.4340     2.7100 H     1 <1>   0.1500 
 45 H       -0.7540     5.6920     2.7060 H     1 <1>   0.1500 
 46 H       -7.9380    -1.2620    -0.1360 H     1 <1>   0.0800 
 47 H       -6.8570    -0.9160     1.2010 H     1 <1>   0.0800 
 48 H       -2.2720    -2.0370     0.8130 H     1 <1>   0.1500 
 49 H       -0.0280     1.4500     5.0700 H     1 <1>   0.1500 
 50 H       -0.0870     5.7070     5.0520 H     1 <1>   0.1500 
 51 H       -7.0430    -3.5120    -0.3620 H     1 <1>   0.0800 
 52 H       -7.5230    -3.2770     1.2980 H     1 <1>   0.0800 
 53 H       -5.9550    -5.0620     1.9950 H     1 <1>   0.1500 
 54 H       -1.8260    -4.0340     2.1460 H     1 <1>   0.1500 
 55 H        0.2800     3.5910     6.2500 H     1 <1>   0.1500 
 56 H       -3.9680    -7.4990     3.8440 H     1 <1>   0.0800 
 57 H       -4.9040    -7.1560     2.3940 H     1 <1>   0.0800 
 58 H       -5.2140    -6.2570     3.8910 H     1 <1>   0.0800 
@<TRIPOS>BOND
  1   1   2  2   
  2   2   3  am  
  3   2   4  1   
  4   3   5  1   
  5   3   6  1   
  6   4   7  1   
  7   4   8  2   
  8   5   9  1   
  9   5  32  1   
 10   5  33  1   
 11   6  10  1   
 12   6  34  1   
 13   6  35  1   
 14   7  11  2   
 15   8  12  1   
 16   8  13  1   
 17   9  14  1   
 18   9  36  1   
 19   9  37  1   
 20  10  14  1   
 21  10  38  1   
 22  10  39  1   
 23  11  12  1   
 24  11  15  1   
 25  12  40  1   
 26  13  41  1   
 27  13  42  1   
 28  13  43  1   
 29  14  16  1   
 30  14  17  1   
 31  15  18  ar  
 32  15  19  ar  
 33  16  20  1   
 34  17  21  ar  
 35  17  22  ar  
 36  18  23  ar  
 37  18  44  1   
 38  19  24  ar  
 39  19  45  1   
 40  20  25  1   
 41  20  46  1   
 42  20  47  1   
 43  21  25  1   
 44  21  26  ar  
 45  22  27  ar  
 46  22  48  1   
 47  23  28  ar  
 48  23  49  1   
 49  24  28  ar  
 50  24  50  1   
 51  25  51  1   
 52  25  52  1   
 53  26  29  ar  
 54  26  53  1   
 55  27  29  ar  
 56  27  54  1   
 57  28  55  1   
 58  29  30  1   
 59  30  31  1   
 60  31  56  1   
 61  31  57  1   
 62  31  58  1   
@<TRIPOS>SUBSTRUCTURE
  1 ****  10 GROUP 4 **** **** 0

# MOE 2024.06 (io_trps.svl 2023.06)
