@<TRIPOS>MOLECULE
NONAME
44 46 1 0 0 
SMALL
USER_CHARGES


@<TRIPOS>ATOM
  1 O       -1.6780     0.4580     1.6930 O.2   1 <1>  -0.5700 
  2 C       -2.0020     0.9460     0.6220 C.2   1 <1>   0.5440 
  3 N       -2.5410     0.0800    -0.3130 N.am  1 <1>  -0.6600 
  4 C       -1.8220     2.3900     0.4080 C.ar  1 <1>   0.3960 
  5 C       -3.2490     0.4500    -1.5660 C.3   1 <1>   0.1400 
  6 C       -2.5840    -1.3940    -0.1230 C.3   1 <1>   0.1400 
  7 N       -1.7650     2.9210    -0.8170 N.ar  1 <1>  -0.6200 
  8 C       -1.6990     3.2290     1.5030 C.ar  1 <1>  -0.1500 
  9 C       -4.1460    -0.7500    -1.8600 C.3   1 <1>   0.2000 
 10 C       -3.3280    -1.9380    -1.3480 C.3   1 <1>  -0.0800 
 11 C       -1.5950     4.2240    -0.8970 C.ar  1 <1>   0.4760 
 12 C       -1.5280     4.5750     1.3000 C.ar  1 <1>   0.1660 
 13 O       -5.2980    -0.6170    -1.0980 O.3   1 <1>  -0.6800 
 14 C       -4.1260    -3.2240    -1.0690 C.3   1 <1>   0.0210 
 15 N       -1.4770     5.0850     0.0950 N.ar  1 <1>  -0.6200 
 16 C       -1.5310     4.8130    -2.2850 C.3   1 <1>  -0.0970 
 17 C       -1.3890     5.5370     2.4600 C.3   1 <1>  -0.0970 
 18 C       -3.2120    -4.3270    -0.5730 C.2   1 <1>   0.1080 
 19 N       -2.2820    -4.8550    -1.3070 N.2   1 <1>  -0.7070 
 20 C       -3.2540    -4.8830     0.7010 C.2   1 <1>  -0.1500 
 21 N       -1.7010    -5.7730    -0.5120 N.pl3 1 <1>   0.3000 
 22 C       -2.2710    -5.8070     0.7110 C.2   1 <1>  -0.3320 
 23 C       -1.8350    -6.7350     1.8290 C.3   1 <1>  -0.0600 
 24 H       -3.8210     1.3550    -1.4580 H     1 <1>   0.0800 
 25 H       -2.5240     0.5720    -2.3520 H     1 <1>   0.0800 
 26 H       -1.5880    -1.8000    -0.0590 H     1 <1>   0.0800 
 27 H       -3.1160    -1.6170     0.7850 H     1 <1>   0.0800 
 28 H       -1.7360     2.8230     2.4960 H     1 <1>   0.1500 
 29 H       -4.4240    -0.8320    -2.8970 H     1 <1>   0.0800 
 30 H       -2.5840    -2.1670    -2.0920 H     1 <1>   0.0800 
 31 H       -5.0340    -0.3910    -0.1830 H     1 <1>   0.4000 
 32 H       -4.6040    -3.5540    -1.9740 H     1 <1>   0.0800 
 33 H       -4.8910    -3.0460    -0.3360 H     1 <1>   0.0800 
 34 H       -0.6530     5.4250    -2.3740 H     1 <1>   0.0800 
 35 H       -2.4000     5.4190    -2.4550 H     1 <1>   0.0800 
 36 H       -1.4910     4.0360    -3.0260 H     1 <1>   0.0800 
 37 H       -1.4400     5.0210     3.4010 H     1 <1>   0.0800 
 38 H       -2.1780     6.2660     2.4200 H     1 <1>   0.0800 
 39 H       -0.4450     6.0470     2.3930 H     1 <1>   0.0800 
 40 H       -3.9340    -4.6120     1.4890 H     1 <1>   0.1500 
 41 H       -0.9200    -6.3570    -0.8330 H     1 <1>   0.2700 
 42 H       -2.4420    -6.5710     2.7020 H     1 <1>   0.0800 
 43 H       -0.8080    -6.5500     2.0870 H     1 <1>   0.0800 
 44 H       -1.9420    -7.7610     1.5250 H     1 <1>   0.0800 
@<TRIPOS>BOND
  1   1   2  2   
  2   2   3  am  
  3   2   4  1   
  4   3   5  1   
  5   3   6  1   
  6   4   7  ar  
  7   4   8  ar  
  8   5   9  1   
  9   5  24  1   
 10   5  25  1   
 11   6  10  1   
 12   6  26  1   
 13   6  27  1   
 14   7  11  ar  
 15   8  12  ar  
 16   8  28  1   
 17   9  10  1   
 18   9  13  1   
 19   9  29  1   
 20  10  14  1   
 21  10  30  1   
 22  11  15  ar  
 23  11  16  1   
 24  12  15  ar  
 25  12  17  1   
 26  13  31  1   
 27  14  18  1   
 28  14  32  1   
 29  14  33  1   
 30  16  34  1   
 31  16  35  1   
 32  16  36  1   
 33  17  37  1   
 34  17  38  1   
 35  17  39  1   
 36  18  19  2   
 37  18  20  1   
 38  19  21  1   
 39  20  22  2   
 40  20  40  1   
 41  21  22  1   
 42  21  41  1   
 43  22  23  1   
 44  23  42  1   
 45  23  43  1   
 46  23  44  1   
@<TRIPOS>SUBSTRUCTURE
  1 ****   3 GROUP 4 **** **** 0

# MOE 2024.06 (io_trps.svl 2023.06)
