@<TRIPOS>MOLECULE
NONAME
56 58 1 0 0 
SMALL
USER_CHARGES


@<TRIPOS>ATOM
  1 N       -0.3030     0.3550     0.5670 N.ar  1 <1>  -0.6200 
  2 C       -0.6920     1.6060     0.5870 C.ar  1 <1>   0.7710 
  3 C       -1.2290    -0.5840     0.5000 C.ar  1 <1>   0.4100 
  4 N       -1.9840     1.9750     0.5320 N.ar  1 <1>  -0.1790 
  5 N        0.3080     2.4940     0.6760 N.pl3 1 <1>  -0.8690 
  6 N       -0.7830    -1.8650     0.5350 N.pl3 1 <1>  -0.8380 
  7 C       -2.6080    -0.2660     0.3960 C.ar  1 <1>  -0.1430 
  8 C       -2.9630     1.0430     0.4240 C.ar  1 <1>   0.2110 
  9 C        0.4250     3.9920     0.6300 C.3   1 <1>   0.2090 
 10 C       -1.2340    -2.8500     1.5570 C.3   1 <1>   0.1290 
 11 C        0.4410    -2.2870    -0.2060 C.3   1 <1>   0.1290 
 12 C       -3.6740    -1.3470     0.2190 C.3   1 <1>  -0.0970 
 13 C        1.7650     4.5170     0.0030 C.3   1 <1>   0.5030 
 14 N        1.8690     6.0250     0.0040 N.4   1 <1>  -0.9590 
 15 C        3.0250     3.9570     0.6900 C.3   1 <1>  -0.1600 
 16 C        2.0020     4.0050    -1.4290 C.3   1 <1>  -0.1600 
 17 C        1.8820     6.6600     1.3660 C.3   1 <1>   0.3430 
 18 C        0.9050     6.7420    -0.8970 C.3   1 <1>   0.3430 
 19 C        4.1700     4.1490    -0.3150 C.3   1 <1>  -0.1600 
 20 C        3.5020     4.1820    -1.6950 C.3   1 <1>  -0.1600 
 21 C        2.3200     8.1200     1.2570 C.3   1 <1>  -0.1600 
 22 C        1.3220     8.2050    -1.0480 C.3   1 <1>  -0.1600 
 23 C        1.4200     8.9150     0.3060 C.3   1 <1>  -0.1600 
 24 H       -2.1960     2.9620     0.5870 H     1 <1>   0.4570 
 25 H        1.2050     2.0020     0.7950 H     1 <1>   0.4000 
 26 H       -3.9890     1.3670     0.3560 H     1 <1>   0.1500 
 27 H        0.3550     4.3580     1.6400 H     1 <1>   0.0800 
 28 H       -0.3980     4.3900     0.0640 H     1 <1>   0.0800 
 29 H       -1.8870    -2.3800     2.2720 H     1 <1>   0.0800 
 30 H       -0.3840    -3.2450     2.0870 H     1 <1>   0.0800 
 31 H       -1.7550    -3.6610     1.0790 H     1 <1>   0.0800 
 32 H        0.6660    -1.5850    -0.9900 H     1 <1>   0.0800 
 33 H        0.2870    -3.2560    -0.6480 H     1 <1>   0.0800 
 34 H        1.2780    -2.3340     0.4690 H     1 <1>   0.0800 
 35 H       -3.3450    -2.0760    -0.5030 H     1 <1>   0.0800 
 36 H       -4.6020    -0.9300    -0.1320 H     1 <1>   0.0800 
 37 H       -3.8620    -1.8480     1.1510 H     1 <1>   0.0800 
 38 H        2.8010     6.2010    -0.3930 H     1 <1>   0.4500 
 39 H        2.9130     2.8980     0.8380 H     1 <1>   0.0800 
 40 H        3.2510     4.3790     1.6500 H     1 <1>   0.0800 
 41 H        1.3930     4.4590    -2.1870 H     1 <1>   0.0800 
 42 H        1.7970     2.9480    -1.4630 H     1 <1>   0.0800 
 43 H        2.5650     6.1500     2.0230 H     1 <1>   0.0800 
 44 H        0.8980     6.6160     1.8030 H     1 <1>   0.0800 
 45 H       -0.0890     6.6960    -0.4840 H     1 <1>   0.0800 
 46 H        0.8890     6.2960    -1.8760 H     1 <1>   0.0800 
 47 H        4.8810     3.3410    -0.2450 H     1 <1>   0.0800 
 48 H        4.6910     5.0740    -0.1320 H     1 <1>   0.0800 
 49 H        3.6980     5.1240    -2.1800 H     1 <1>   0.0800 
 50 H        3.8760     3.3920    -2.3280 H     1 <1>   0.0800 
 51 H        3.3410     8.1650     0.9210 H     1 <1>   0.0800 
 52 H        2.2860     8.5710     2.2350 H     1 <1>   0.0800 
 53 H        0.6000     8.7150    -1.6630 H     1 <1>   0.0800 
 54 H        2.2680     8.2570    -1.5590 H     1 <1>   0.0800 
 55 H        1.8160     9.9090     0.1710 H     1 <1>   0.0800 
 56 H        0.4360     9.0130     0.7350 H     1 <1>   0.0800 
@<TRIPOS>BOND
  1   1   2  ar  
  2   1   3  ar  
  3   2   4  ar  
  4   2   5  1   
  5   3   6  1   
  6   3   7  ar  
  7   4   8  ar  
  8   4  24  1   
  9   5   9  1   
 10   5  25  1   
 11   6  10  1   
 12   6  11  1   
 13   7   8  ar  
 14   7  12  1   
 15   8  26  1   
 16   9  13  1   
 17   9  27  1   
 18   9  28  1   
 19  10  29  1   
 20  10  30  1   
 21  10  31  1   
 22  11  32  1   
 23  11  33  1   
 24  11  34  1   
 25  12  35  1   
 26  12  36  1   
 27  12  37  1   
 28  13  14  1   
 29  13  15  1   
 30  13  16  1   
 31  14  17  1   
 32  14  18  1   
 33  14  38  1   
 34  15  19  1   
 35  15  39  1   
 36  15  40  1   
 37  16  20  1   
 38  16  41  1   
 39  16  42  1   
 40  17  21  1   
 41  17  43  1   
 42  17  44  1   
 43  18  22  1   
 44  18  45  1   
 45  18  46  1   
 46  19  20  1   
 47  19  47  1   
 48  19  48  1   
 49  20  49  1   
 50  20  50  1   
 51  21  23  1   
 52  21  51  1   
 53  21  52  1   
 54  22  23  1   
 55  22  53  1   
 56  22  54  1   
 57  23  55  1   
 58  23  56  1   
@<TRIPOS>SUBSTRUCTURE
  1 ****   5 GROUP 4 **** **** 0

# MOE 2024.06 (io_trps.svl 2023.06)
