@<TRIPOS>MOLECULE
NONAME
54 56 1 0 0 
SMALL
USER_CHARGES


@<TRIPOS>ATOM
  1 O       -1.0370    -0.1200     2.3750 O.2   1 <1>  -0.5700 
  2 C       -1.7910     0.7870     2.1210 C.2   1 <1>   0.5690 
  3 N       -3.0710     0.5420     1.6990 N.am  1 <1>  -0.6600 
  4 C       -1.2580     2.1980     2.3270 C.3   1 <1>  -0.0990 
  5 C       -3.6760    -0.8190     1.8860 C.3   1 <1>   0.3210 
  6 C       -3.9370     1.5240     0.9970 C.3   1 <1>   0.1400 
  7 C       -0.6080     2.9090     1.1180 C.3   1 <1>   0.0630 
  8 C       -4.0560    -1.4750     0.5600 C.2   1 <1>   0.0460 
  9 C       -3.6530     1.4700    -0.5160 C.3   1 <1>   0.3430 
 10 C       -1.5050     3.8000     0.2780 C.ar  1 <1>  -0.1440 
 11 C        0.0700     2.0000     0.0690 C.3   1 <1>  -0.1600 
 12 N       -5.2330    -1.2070    -0.0540 N.2   1 <1>  -0.5650 
 13 C       -3.3420    -2.3810    -0.1500 C.2   1 <1>  -0.3320 
 14 N       -4.3290     2.5520    -1.3000 N.4   1 <1>  -0.9590 
 15 C       -1.1570     3.7220    -1.0490 C.ar  1 <1>  -0.1440 
 16 C       -2.5050     4.6690     0.6840 C.ar  1 <1>  -0.1500 
 17 C       -0.0170     2.7550    -1.2670 C.3   1 <1>  -0.0170 
 18 C       -5.2210    -1.9780    -1.0930 C.2   1 <1>   0.0360 
 19 N       -4.0970    -2.7150    -1.2110 N.pl3 1 <1>   0.0330 
 20 C       -1.9710    -2.9840     0.1130 C.3   1 <1>  -0.0600 
 21 C       -5.7970     2.6320    -1.0300 C.3   1 <1>   0.2630 
 22 C       -4.0800     2.3300    -2.7520 C.3   1 <1>   0.2630 
 23 C       -1.7900     4.5020    -2.0000 C.ar  1 <1>  -0.1500 
 24 C       -3.1570     5.4450    -0.2620 C.ar  1 <1>  -0.1500 
 25 C       -2.7990     5.3650    -1.6000 C.ar  1 <1>  -0.1500 
 26 H       -0.4950     2.1120     3.0800 H     1 <1>   0.0800 
 27 H       -2.0210     2.8120     2.7630 H     1 <1>   0.0800 
 28 H       -4.5590    -0.7340     2.4940 H     1 <1>   0.0800 
 29 H       -2.9960    -1.4650     2.4120 H     1 <1>   0.0800 
 30 H       -3.7540     2.5090     1.3770 H     1 <1>   0.0800 
 31 H       -4.9670     1.2760     1.1850 H     1 <1>   0.0800 
 32 H        0.1510     3.5650     1.5120 H     1 <1>   0.0800 
 33 H       -3.9620     0.5150    -0.8980 H     1 <1>   0.0800 
 34 H       -2.5890     1.5510    -0.6600 H     1 <1>   0.0800 
 35 H       -0.4580     1.0710    -0.0420 H     1 <1>   0.0800 
 36 H        1.0890     1.7810     0.3380 H     1 <1>   0.0800 
 37 H       -3.8610     3.4450    -1.0350 H     1 <1>   0.4500 
 38 H       -2.7610     4.7660     1.7260 H     1 <1>   0.1500 
 39 H       -0.2020     2.0870    -2.0900 H     1 <1>   0.0800 
 40 H        0.8900     3.3070    -1.4460 H     1 <1>   0.0800 
 41 H       -6.0230    -2.0480    -1.8080 H     1 <1>   0.1500 
 42 H       -3.8780    -3.4010    -1.9400 H     1 <1>   0.2700 
 43 H       -1.5140    -2.5350     0.9770 H     1 <1>   0.0800 
 44 H       -1.3230    -2.8200    -0.7300 H     1 <1>   0.0800 
 45 H       -2.0560    -4.0420     0.2850 H     1 <1>   0.0800 
 46 H       -6.2640     1.6810    -1.2310 H     1 <1>   0.0800 
 47 H       -6.2520     3.3830    -1.6560 H     1 <1>   0.0800 
 48 H       -5.9770     2.8930     0.0000 H     1 <1>   0.0800 
 49 H       -4.5250     1.4000    -3.0690 H     1 <1>   0.0800 
 50 H       -3.0200     2.2900    -2.9440 H     1 <1>   0.0800 
 51 H       -4.5040     3.1340    -3.3310 H     1 <1>   0.0800 
 52 H       -1.4870     4.4560    -3.0330 H     1 <1>   0.1500 
 53 H       -3.9260     6.1340     0.0480 H     1 <1>   0.1500 
 54 H       -3.2900     5.9910    -2.3260 H     1 <1>   0.1500 
@<TRIPOS>BOND
  1   1   2  2   
  2   2   3  am  
  3   2   4  1   
  4   3   5  1   
  5   3   6  1   
  6   4   7  1   
  7   4  26  1   
  8   4  27  1   
  9   5   8  1   
 10   5  28  1   
 11   5  29  1   
 12   6   9  1   
 13   6  30  1   
 14   6  31  1   
 15   7  10  1   
 16   7  11  1   
 17   7  32  1   
 18   8  12  1   
 19   8  13  2   
 20   9  14  1   
 21   9  33  1   
 22   9  34  1   
 23  10  15  ar  
 24  10  16  ar  
 25  11  17  1   
 26  11  35  1   
 27  11  36  1   
 28  12  18  2   
 29  13  19  1   
 30  13  20  1   
 31  14  21  1   
 32  14  22  1   
 33  14  37  1   
 34  15  17  1   
 35  15  23  ar  
 36  16  24  ar  
 37  16  38  1   
 38  17  39  1   
 39  17  40  1   
 40  18  19  1   
 41  18  41  1   
 42  19  42  1   
 43  20  43  1   
 44  20  44  1   
 45  20  45  1   
 46  21  46  1   
 47  21  47  1   
 48  21  48  1   
 49  22  49  1   
 50  22  50  1   
 51  22  51  1   
 52  23  25  ar  
 53  23  52  1   
 54  24  25  ar  
 55  24  53  1   
 56  25  54  1   
@<TRIPOS>SUBSTRUCTURE
  1 ****   9 GROUP 4 **** **** 0

# MOE 2024.06 (io_trps.svl 2023.06)
