@<TRIPOS>MOLECULE
NONAME
54 56 1 0 0 
SMALL
USER_CHARGES


@<TRIPOS>ATOM
  1 O        1.5400     0.9610     2.3790 O.2   1 <1>  -0.5700 
  2 C        2.0620    -0.0510     1.9730 C.2   1 <1>   0.5690 
  3 N        3.4040    -0.1020     1.6860 N.am  1 <1>  -0.6600 
  4 C        1.1540    -1.2570     1.7660 C.3   1 <1>   0.0440 
  5 C        4.1450    -1.3040     1.1720 C.3   1 <1>   0.1400 
  6 C        4.2520     1.1150     1.8260 C.3   1 <1>   0.1400 
  7 C        1.0430    -1.6510     0.2970 C.ar  1 <1>  -0.1440 
  8 C        4.4610    -1.2210    -0.3320 C.3   1 <1>   0.1400 
  9 C        4.1920     1.9870     0.5640 C.3   1 <1>  -0.1600 
 10 C        0.8260    -0.6810    -0.6740 C.ar  1 <1>   0.1600 
 11 C        1.1700    -2.9680    -0.0970 C.ar  1 <1>  -0.1500 
 12 N        5.1670     0.0480    -0.6850 N.am  1 <1>  -0.6600 
 13 C        4.2510     1.2220    -0.7660 C.3   1 <1>   0.1400 
 14 N        0.7510    -0.9150    -1.9740 N.ar  1 <1>  -0.6200 
 15 C        1.0830    -3.2300    -1.4470 C.ar  1 <1>  -0.1500 
 16 C        6.5320     0.0760    -0.8190 C.2   1 <1>   0.5690 
 17 C        0.8780    -2.1830    -2.3300 C.ar  1 <1>   0.1600 
 18 O        7.1990    -0.9250    -0.6950 O.2   1 <1>  -0.5700 
 19 C        7.2850     1.3650    -1.0830 C.3   1 <1>  -0.0990 
 20 C        7.9490     1.8650     0.2020 C.3   1 <1>   0.0210 
 21 C        8.4690     3.2740     0.0120 C.2   1 <1>   0.1080 
 22 N        7.6970     4.3060     0.1510 N.2   1 <1>  -0.7070 
 23 C        9.7740     3.6300    -0.3280 C.2   1 <1>  -0.1810 
 24 N        8.4960     5.3600    -0.0930 N.pl3 1 <1>   0.3000 
 25 C        9.7580     4.9800    -0.3860 C.2   1 <1>  -0.3320 
 26 C       10.9240     2.6690    -0.5710 C.3   1 <1>  -0.0590 
 27 C       10.8600     5.9760    -0.7030 C.3   1 <1>  -0.0600 
 28 H        0.1720    -1.0160     2.1310 H     1 <1>   0.0800 
 29 H        1.5240    -2.0730     2.3560 H     1 <1>   0.0800 
 30 H        3.5840    -2.2000     1.3590 H     1 <1>   0.0800 
 31 H        5.0730    -1.4000     1.7100 H     1 <1>   0.0800 
 32 H        5.2700     0.8200     2.0100 H     1 <1>   0.0800 
 33 H        3.9250     1.6920     2.6750 H     1 <1>   0.0800 
 34 H        3.5530    -1.2990    -0.9020 H     1 <1>   0.0800 
 35 H        5.0710    -2.0660    -0.6040 H     1 <1>   0.0800 
 36 H        4.9960     2.7000     0.5990 H     1 <1>   0.0800 
 37 H        3.2800     2.5570     0.5850 H     1 <1>   0.0800 
 38 H        0.7150     0.3460    -0.3660 H     1 <1>   0.1500 
 39 H        1.3280    -3.7640     0.6110 H     1 <1>   0.1500 
 40 H        4.5440     1.8810    -1.5630 H     1 <1>   0.0800 
 41 H        3.2600     0.8750    -1.0050 H     1 <1>   0.0800 
 42 H        1.1720    -4.2350    -1.8180 H     1 <1>   0.1500 
 43 H        0.8130    -2.4000    -3.3830 H     1 <1>   0.1500 
 44 H        6.6410     2.1250    -1.4740 H     1 <1>   0.0800 
 45 H        8.0420     1.1770    -1.8220 H     1 <1>   0.0800 
 46 H        8.7480     1.2040     0.4850 H     1 <1>   0.0800 
 47 H        7.2350     1.8760     1.0040 H     1 <1>   0.0800 
 48 H        8.1520     6.3250    -0.0510 H     1 <1>   0.2700 
 49 H       10.6470     1.9490    -1.3200 H     1 <1>   0.0800 
 50 H       11.1640     2.1500     0.3400 H     1 <1>   0.0800 
 51 H       11.7990     3.1920    -0.9080 H     1 <1>   0.0800 
 52 H       11.7910     5.4730    -0.8890 H     1 <1>   0.0800 
 53 H       10.9990     6.6490     0.1250 H     1 <1>   0.0800 
 54 H       10.6020     6.5460    -1.5780 H     1 <1>   0.0800 
@<TRIPOS>BOND
  1   1   2  2   
  2   2   3  am  
  3   2   4  1   
  4   3   5  1   
  5   3   6  1   
  6   4   7  1   
  7   4  28  1   
  8   4  29  1   
  9   5   8  1   
 10   5  30  1   
 11   5  31  1   
 12   6   9  1   
 13   6  32  1   
 14   6  33  1   
 15   7  10  ar  
 16   7  11  ar  
 17   8  12  1   
 18   8  34  1   
 19   8  35  1   
 20   9  13  1   
 21   9  36  1   
 22   9  37  1   
 23  10  14  ar  
 24  10  38  1   
 25  11  15  ar  
 26  11  39  1   
 27  12  13  1   
 28  12  16  am  
 29  13  40  1   
 30  13  41  1   
 31  14  17  ar  
 32  15  17  ar  
 33  15  42  1   
 34  16  18  2   
 35  16  19  1   
 36  17  43  1   
 37  19  20  1   
 38  19  44  1   
 39  19  45  1   
 40  20  21  1   
 41  20  46  1   
 42  20  47  1   
 43  21  22  2   
 44  21  23  1   
 45  22  24  1   
 46  23  25  2   
 47  23  26  1   
 48  24  25  1   
 49  24  48  1   
 50  25  27  1   
 51  26  49  1   
 52  26  50  1   
 53  26  51  1   
 54  27  52  1   
 55  27  53  1   
 56  27  54  1   
@<TRIPOS>SUBSTRUCTURE
  1 ****  12 GROUP 4 **** **** 0

# MOE 2024.06 (io_trps.svl 2023.06)
