@<TRIPOS>MOLECULE
NONAME
41 43 1 0 0 
SMALL
USER_CHARGES


@<TRIPOS>ATOM
  1 O       -1.4750     0.5870    -1.2810 O.2   1 <1>  -0.5700 
  2 C       -1.3800     0.4100    -0.0810 C.2   1 <1>   0.7160 
  3 N       -1.6280    -0.8390     0.4060 N.am  1 <1>  -0.7300 
  4 C       -1.0290     1.4790     0.8400 C.2   1 <1>   0.1410 
  5 C       -1.9730    -2.0440    -0.3810 C.3   1 <1>   0.2200 
  6 N       -0.9840     1.2970     2.1990 N.2   1 <1>  -0.5650 
  7 C       -0.7020     2.7720     0.5960 C.2   1 <1>  -0.0400 
  8 C       -3.4430    -2.4070    -0.2230 C.3   1 <1>  -0.0800 
  9 C       -1.3130    -3.2610     0.2540 C.3   1 <1>   0.1200 
 10 C       -0.6470     2.4480     2.6500 C.2   1 <1>   0.3280 
 11 O       -0.4670     3.3620     1.7310 O.3   1 <1>  -0.2800 
 12 C       -0.5690     3.5820    -0.6840 C.3   1 <1>   0.0200 
 13 C       -3.4580    -3.2220     1.0740 C.3   1 <1>   0.1200 
 14 C       -4.4350    -1.2290    -0.2400 C.3   1 <1>  -0.0160 
 15 O       -2.1400    -3.6190     1.3200 O.3   1 <1>  -0.5600 
 16 C       -1.6660     4.6460    -0.7760 C.3   1 <1>  -0.2400 
 17 C       -5.8700    -1.7290    -0.1650 C.ar  1 <1>  -0.1440 
 18 C       -6.5780    -1.7500     1.0190 C.ar  1 <1>  -0.1500 
 19 C       -6.5370    -2.1890    -1.2820 C.ar  1 <1>  -0.1500 
 20 C       -7.8800    -2.2230     1.0300 C.ar  1 <1>   0.1600 
 21 C       -7.8400    -2.6420    -1.1630 C.ar  1 <1>   0.1600 
 22 N       -8.5280    -2.6720    -0.0330 N.ar  1 <1>  -0.6200 
 23 H       -1.5580    -0.9700     1.4200 H     1 <1>   0.3700 
 24 H       -1.6860    -1.9190    -1.4120 H     1 <1>   0.0800 
 25 H       -3.7030    -3.0760    -1.0240 H     1 <1>   0.0800 
 26 H       -0.3200    -3.0580     0.6150 H     1 <1>   0.0800 
 27 H       -1.2920    -4.0860    -0.4360 H     1 <1>   0.0800 
 28 H       -0.5040     2.7190     3.6820 H     1 <1>   0.1500 
 29 H        0.3960     4.0560    -0.6980 H     1 <1>   0.0800 
 30 H       -0.6290     2.9380    -1.5420 H     1 <1>   0.0800 
 31 H       -4.0790    -4.0970     0.9910 H     1 <1>   0.0800 
 32 H       -3.7770    -2.6280     1.9130 H     1 <1>   0.0800 
 33 H       -4.3010    -0.6630    -1.1460 H     1 <1>   0.0800 
 34 H       -4.2470    -0.5650     0.5860 H     1 <1>   0.0800 
 35 H       -1.6020     5.3200     0.0600 H     1 <1>   0.0800 
 36 H       -2.6350     4.1790    -0.7710 H     1 <1>   0.0800 
 37 H       -1.5590     5.2100    -1.6850 H     1 <1>   0.0800 
 38 H       -6.1320    -1.4040     1.9340 H     1 <1>   0.1500 
 39 H       -6.0560    -2.2000    -2.2430 H     1 <1>   0.1500 
 40 H       -8.4160    -2.2330     1.9630 H     1 <1>   0.1500 
 41 H       -8.3450    -2.9970    -2.0460 H     1 <1>   0.1500 
@<TRIPOS>BOND
  1   1   2  2   
  2   2   3  am  
  3   2   4  1   
  4   3   5  1   
  5   3  23  1   
  6   4   6  1   
  7   4   7  2   
  8   5   8  1   
  9   5   9  1   
 10   5  24  1   
 11   6  10  2   
 12   7  11  1   
 13   7  12  1   
 14   8  13  1   
 15   8  14  1   
 16   8  25  1   
 17   9  15  1   
 18   9  26  1   
 19   9  27  1   
 20  10  11  1   
 21  10  28  1   
 22  12  16  1   
 23  12  29  1   
 24  12  30  1   
 25  13  15  1   
 26  13  31  1   
 27  13  32  1   
 28  14  17  1   
 29  14  33  1   
 30  14  34  1   
 31  16  35  1   
 32  16  36  1   
 33  16  37  1   
 34  17  18  ar  
 35  17  19  ar  
 36  18  20  ar  
 37  18  38  1   
 38  19  21  ar  
 39  19  39  1   
 40  20  22  ar  
 41  20  40  1   
 42  21  22  ar  
 43  21  41  1   
@<TRIPOS>SUBSTRUCTURE
  1 ****  14 GROUP 4 **** **** 0

# MOE 2024.06 (io_trps.svl 2023.06)
