@<TRIPOS>MOLECULE
NONAME
54 57 1 0 0 
SMALL
USER_CHARGES


@<TRIPOS>ATOM
  1 O        0.3010     1.3680     1.2090 O.3   1 <1>  -0.0190 
  2 N        0.8860     0.4480     1.9190 N.2   1 <1>  -0.4100 
  3 C        0.8710     1.5160     0.0430 C.2   1 <1>  -0.0400 
  4 C        1.8440    -0.0070     1.1950 C.2   1 <1>   0.1080 
  5 C        1.8880     0.6450    -0.0340 C.2   1 <1>  -0.1500 
  6 C        0.3430     2.5510    -0.9320 C.3   1 <1>   0.0200 
  7 C        2.7920    -1.1030     1.6310 C.3   1 <1>  -0.0590 
  8 C        0.3950     3.9600    -0.3240 C.3   1 <1>  -0.0800 
  9 C       -0.0330     5.0490    -1.3000 C.3   1 <1>   0.2000 
 10 C        1.7950     4.3940     0.1120 C.3   1 <1>   0.2090 
 11 O       -1.4170     5.1360    -1.3470 O.3   1 <1>  -0.6800 
 12 C        0.6050     6.3280    -0.7630 C.3   1 <1>   0.2090 
 13 N        1.8190     5.8810    -0.0220 N.pl3 1 <1>  -0.8380 
 14 C        2.9710     6.6020     0.0250 C.ar  1 <1>   0.4100 
 15 N        4.0580     5.9940    -0.4080 N.ar  1 <1>  -0.6200 
 16 C        3.0060     7.9350     0.5110 C.ar  1 <1>  -0.1430 
 17 C        5.1950     6.6690    -0.4360 C.ar  1 <1>   0.7710 
 18 C        4.1910     8.6020     0.4660 C.ar  1 <1>   0.2180 
 19 C        1.7570     8.5960     1.1000 C.3   1 <1>  -0.0160 
 20 N        5.2660     7.9400    -0.0180 N.ar  1 <1>  -0.1790 
 21 N        6.3270     6.0650    -0.8980 N.pl3 1 <1>  -0.8380 
 22 C        4.3900    10.0350     0.9530 C.3   1 <1>  -0.0170 
 23 C        2.0840     9.8300     1.9500 C.3   1 <1>  -0.1600 
 24 C        6.3410     4.6000    -1.2260 C.3   1 <1>   0.1290 
 25 C        7.6380     6.7200    -1.2050 C.3   1 <1>   0.1290 
 26 C        3.0590    10.7530     1.2140 C.3   1 <1>  -0.1600 
 27 H        2.5860     0.4640    -0.8290 H     1 <1>   0.1500 
 28 H        0.9260     2.5160    -1.8350 H     1 <1>   0.0800 
 29 H       -0.6740     2.3060    -1.1840 H     1 <1>   0.0800 
 30 H        2.7880    -1.8980     0.9080 H     1 <1>   0.0800 
 31 H        2.4840    -1.4970     2.5830 H     1 <1>   0.0800 
 32 H        3.7870    -0.7090     1.7230 H     1 <1>   0.0800 
 33 H       -0.2320     3.9960     0.5500 H     1 <1>   0.0800 
 34 H        0.3300     4.8540    -2.2950 H     1 <1>   0.0800 
 35 H        2.5360     3.9580    -0.5360 H     1 <1>   0.0800 
 36 H        1.9950     4.0990     1.1280 H     1 <1>   0.0800 
 37 H       -1.7910     5.1760    -0.4460 H     1 <1>   0.4000 
 38 H       -0.0690     6.8150    -0.0810 H     1 <1>   0.0800 
 39 H        0.8690     6.9910    -1.5690 H     1 <1>   0.0800 
 40 H        1.1080     8.8910     0.2950 H     1 <1>   0.0800 
 41 H        1.2260     7.8880     1.7140 H     1 <1>   0.0800 
 42 H        6.1860     8.3540    -0.0550 H     1 <1>   0.4570 
 43 H        4.9560    10.0120     1.8680 H     1 <1>   0.0800 
 44 H        4.9490    10.6020     0.2280 H     1 <1>   0.0800 
 45 H        1.1740    10.3620     2.1710 H     1 <1>   0.0800 
 46 H        2.5150     9.5190     2.8870 H     1 <1>   0.0800 
 47 H        7.2930     4.1690    -0.9660 H     1 <1>   0.0800 
 48 H        6.1720     4.4610    -2.2810 H     1 <1>   0.0800 
 49 H        5.5800     4.0660    -0.6820 H     1 <1>   0.0800 
 50 H        8.0330     6.3280    -2.1290 H     1 <1>   0.0800 
 51 H        8.3450     6.5090    -0.4190 H     1 <1>   0.0800 
 52 H        7.5400     7.7840    -1.3210 H     1 <1>   0.0800 
 53 H        3.2340    11.6420     1.7970 H     1 <1>   0.0800 
 54 H        2.6200    11.0560     0.2780 H     1 <1>   0.0800 
@<TRIPOS>BOND
  1   1   2  1   
  2   1   3  1   
  3   2   4  2   
  4   3   5  2   
  5   3   6  1   
  6   4   5  1   
  7   4   7  1   
  8   5  27  1   
  9   6   8  1   
 10   6  28  1   
 11   6  29  1   
 12   7  30  1   
 13   7  31  1   
 14   7  32  1   
 15   8   9  1   
 16   8  10  1   
 17   8  33  1   
 18   9  11  1   
 19   9  12  1   
 20   9  34  1   
 21  10  13  1   
 22  10  35  1   
 23  10  36  1   
 24  11  37  1   
 25  12  13  1   
 26  12  38  1   
 27  12  39  1   
 28  13  14  1   
 29  14  15  ar  
 30  14  16  ar  
 31  15  17  ar  
 32  16  18  ar  
 33  16  19  1   
 34  17  20  ar  
 35  17  21  1   
 36  18  20  ar  
 37  18  22  1   
 38  19  23  1   
 39  19  40  1   
 40  19  41  1   
 41  20  42  1   
 42  21  24  1   
 43  21  25  1   
 44  22  26  1   
 45  22  43  1   
 46  22  44  1   
 47  23  26  1   
 48  23  45  1   
 49  23  46  1   
 50  24  47  1   
 51  24  48  1   
 52  24  49  1   
 53  25  50  1   
 54  25  51  1   
 55  25  52  1   
 56  26  53  1   
 57  26  54  1   
@<TRIPOS>SUBSTRUCTURE
  1 ****  13 GROUP 4 **** **** 0

# MOE 2024.06 (io_trps.svl 2023.06)
