@<TRIPOS>MOLECULE
NONAME
59 63 1 0 0 
SMALL
USER_CHARGES


@<TRIPOS>ATOM
  1 O        0.0410    -0.1620     0.8940 O.2   1 <1>  -0.5700 
  2 C        0.9510    -0.9260     0.6350 C.2   1 <1>   0.5440 
  3 N        2.0580    -0.4450    -0.0250 N.am  1 <1>  -0.6600 
  4 C        0.8460    -2.3190     1.0180 C.ar  1 <1>   0.0860 
  5 C        3.0490    -1.2830    -0.7360 C.3   1 <1>   0.1400 
  6 C        2.1760     0.9730    -0.4310 C.3   1 <1>   0.1400 
  7 C       -0.2490    -3.0910     0.6860 C.ar  1 <1>  -0.1500 
  8 C        1.8290    -2.9770     1.7460 C.ar  1 <1>  -0.1500 
  9 C        3.6010    -0.3810    -1.8330 C.3   1 <1>  -0.1600 
 10 C        3.4370     1.0340    -1.2840 C.3   1 <1>  -0.1600 
 11 C       -0.3250    -4.4270     1.0550 C.ar  1 <1>   0.4100 
 12 C        1.6740    -4.3090     2.0690 C.ar  1 <1>   0.1600 
 13 N        0.6300    -5.0470     1.7380 N.ar  1 <1>  -0.6200 
 14 N       -1.4420    -5.1630     0.7130 N.pl3 1 <1>  -0.8380 
 15 C       -2.7220    -4.7880     1.3640 C.3   1 <1>   0.2090 
 16 C       -1.2780    -6.6140     0.4430 C.3   1 <1>   0.2090 
 17 C       -3.8920    -5.2820     0.5140 C.3   1 <1>  -0.1600 
 18 C       -2.4480    -7.1170    -0.4040 C.3   1 <1>  -0.1600 
 19 C       -3.7960    -6.7950     0.2580 C.3   1 <1>   0.1000 
 20 C       -4.9540    -7.3140    -0.5950 C.2   1 <1>   0.0070 
 21 N       -5.6870    -6.5770    -1.3600 N.2   1 <1>  -0.3380 
 22 N       -5.3400    -8.5980    -0.6480 N.pl3 1 <1>   0.0480 
 23 N       -6.5820    -7.3740    -1.9410 N.2   1 <1>  -0.3380 
 24 C       -6.3600    -8.5660    -1.5090 C.2   1 <1>   0.0060 
 25 C       -4.8060    -9.7830     0.0570 C.3   1 <1>   0.0960 
 26 C       -7.1580    -9.7820    -1.9350 C.3   1 <1>   0.0200 
 27 C       -4.2950   -10.8450    -0.9270 C.3   1 <1>  -0.1600 
 28 C       -6.2770   -10.8510    -2.5970 C.3   1 <1>  -0.1600 
 29 C       -5.4110   -11.6530    -1.6110 C.3   1 <1>  -0.1600 
 30 H        2.5930    -2.1680    -1.1480 H     1 <1>   0.0800 
 31 H        3.8330    -1.5580    -0.0520 H     1 <1>   0.0800 
 32 H        2.2430     1.6110     0.4340 H     1 <1>   0.0800 
 33 H        1.3100     1.2450    -1.0110 H     1 <1>   0.0800 
 34 H       -1.0570    -2.6580     0.1280 H     1 <1>   0.1500 
 35 H        2.7060    -2.4410     2.0590 H     1 <1>   0.1500 
 36 H        3.0000    -0.5000    -2.7180 H     1 <1>   0.0800 
 37 H        4.6240    -0.6150    -2.0690 H     1 <1>   0.0800 
 38 H        4.2730     1.2820    -0.6530 H     1 <1>   0.0800 
 39 H        3.3550     1.7710    -2.0630 H     1 <1>   0.0800 
 40 H        2.4500    -4.7980     2.6340 H     1 <1>   0.1500 
 41 H       -2.7830    -3.7180     1.4760 H     1 <1>   0.0800 
 42 H       -2.7620    -5.2310     2.3440 H     1 <1>   0.0800 
 43 H       -1.2350    -7.1450     1.3800 H     1 <1>   0.0800 
 44 H       -0.3510    -6.7790    -0.0810 H     1 <1>   0.0800 
 45 H       -3.8870    -4.7500    -0.4220 H     1 <1>   0.0800 
 46 H       -4.8180    -5.0580     1.0130 H     1 <1>   0.0800 
 47 H       -2.3460    -8.1750    -0.5500 H     1 <1>   0.0800 
 48 H       -2.4030    -6.6470    -1.3720 H     1 <1>   0.0800 
 49 H       -3.8380    -7.2830     1.2150 H     1 <1>   0.0800 
 50 H       -5.5800   -10.1940     0.6800 H     1 <1>   0.0800 
 51 H       -3.9970    -9.4770     0.6930 H     1 <1>   0.0800 
 52 H       -7.9010    -9.4600    -2.6450 H     1 <1>   0.0800 
 53 H       -7.6780   -10.1920    -1.0880 H     1 <1>   0.0800 
 54 H       -3.6850   -11.5370    -0.3740 H     1 <1>   0.0800 
 55 H       -3.6610   -10.3830    -1.6660 H     1 <1>   0.0800 
 56 H       -5.6530   -10.3860    -3.3420 H     1 <1>   0.0800 
 57 H       -6.9230   -11.5420    -3.1100 H     1 <1>   0.0800 
 58 H       -6.0410   -12.1060    -0.8640 H     1 <1>   0.0800 
 59 H       -4.9480   -12.4550    -2.1600 H     1 <1>   0.0800 
@<TRIPOS>BOND
  1   1   2  2   
  2   2   3  am  
  3   2   4  1   
  4   3   5  1   
  5   3   6  1   
  6   4   7  ar  
  7   4   8  ar  
  8   5   9  1   
  9   5  30  1   
 10   5  31  1   
 11   6  10  1   
 12   6  32  1   
 13   6  33  1   
 14   7  11  ar  
 15   7  34  1   
 16   8  12  ar  
 17   8  35  1   
 18   9  10  1   
 19   9  36  1   
 20   9  37  1   
 21  10  38  1   
 22  10  39  1   
 23  11  13  ar  
 24  11  14  1   
 25  12  13  ar  
 26  12  40  1   
 27  14  15  1   
 28  14  16  1   
 29  15  17  1   
 30  15  41  1   
 31  15  42  1   
 32  16  18  1   
 33  16  43  1   
 34  16  44  1   
 35  17  19  1   
 36  17  45  1   
 37  17  46  1   
 38  18  19  1   
 39  18  47  1   
 40  18  48  1   
 41  19  20  1   
 42  19  49  1   
 43  20  21  2   
 44  20  22  1   
 45  21  23  1   
 46  22  24  1   
 47  22  25  1   
 48  23  24  2   
 49  24  26  1   
 50  25  27  1   
 51  25  50  1   
 52  25  51  1   
 53  26  28  1   
 54  26  52  1   
 55  26  53  1   
 56  27  29  1   
 57  27  54  1   
 58  27  55  1   
 59  28  29  1   
 60  28  56  1   
 61  28  57  1   
 62  29  58  1   
 63  29  59  1   
@<TRIPOS>SUBSTRUCTURE
  1 ****  14 GROUP 4 **** **** 0

# MOE 2024.06 (io_trps.svl 2023.06)
