@<TRIPOS>MOLECULE
NONAME
33 34 1 0 0 
SMALL
USER_CHARGES


@<TRIPOS>ATOM
  1 O        3.1940    -0.0470    -2.6590 O.3   1 <1>  -0.8500 
  2 C        3.4840     0.9980    -2.0570 C.2   1 <1>  -0.1500 
  3 C        4.5370     1.8080    -2.4460 C.2   1 <1>  -0.1360 
  4 C        2.7370     1.3980    -0.9170 C.2   1 <1>  -0.1500 
  5 C        4.8470     2.9770    -1.7600 C.2   1 <1>   0.6160 
  6 C        3.0210     2.5410    -0.2420 C.2   1 <1>  -0.0290 
  7 O        5.8220     3.6900    -2.0730 O.2   1 <1>  -0.5700 
  8 N        4.0640     3.3730    -0.6640 N.am  1 <1>  -0.4690 
  9 C        2.2120     2.9220     0.9890 C.3   1 <1>  -0.1020 
 10 C        4.4160     4.6520     0.0350 C.3   1 <1>   0.2010 
 11 C        5.5160     4.4600     1.0730 C.2   1 <1>   0.5690 
 12 O        5.2940     4.7200     2.2340 O.2   1 <1>  -0.5700 
 13 N        6.7300     4.0100     0.6780 N.am  1 <1>  -0.7300 
 14 C        7.8400     3.6610     1.5910 C.3   1 <1>   0.3200 
 15 C        9.1560     3.4350     0.8560 C.2   1 <1>   0.2980 
 16 O       10.2030     3.1020     1.5710 O.3   1 <1>  -0.0190 
 17 N        9.3640     3.5290    -0.4000 N.2   1 <1>  -0.5650 
 18 N       11.1540     2.9700     0.6960 N.2   1 <1>  -0.4100 
 19 C       10.6480     3.2210    -0.4440 C.2   1 <1>   0.3350 
 20 C       11.3890     3.1850    -1.7580 C.3   1 <1>  -0.0590 
 21 H        5.1240     1.5170    -3.2900 H     1 <1>   0.1500 
 22 H        1.9470     0.7280    -0.6380 H     1 <1>   0.1500 
 23 H        2.8630     3.0490     1.8350 H     1 <1>   0.0800 
 24 H        1.5050     2.1470     1.2220 H     1 <1>   0.0800 
 25 H        1.6680     3.8300     0.8090 H     1 <1>   0.0800 
 26 H        3.5500     5.0650     0.5140 H     1 <1>   0.0800 
 27 H        4.7480     5.3740    -0.6870 H     1 <1>   0.0800 
 28 H        6.8770     3.7730    -0.3190 H     1 <1>   0.3700 
 29 H        7.5790     2.7620     2.1210 H     1 <1>   0.0800 
 30 H        7.9680     4.4520     2.3090 H     1 <1>   0.0800 
 31 H       10.9270     2.4670    -2.4100 H     1 <1>   0.0800 
 32 H       12.4150     2.9080    -1.5960 H     1 <1>   0.0800 
 33 H       11.3520     4.1540    -2.2170 H     1 <1>   0.0800 
@<TRIPOS>BOND
  1   1   2  1   
  2   2   3  2   
  3   2   4  1   
  4   3   5  1   
  5   3  21  1   
  6   4   6  2   
  7   4  22  1   
  8   5   7  2   
  9   5   8  am  
 10   6   8  1   
 11   6   9  1   
 12   8  10  1   
 13   9  23  1   
 14   9  24  1   
 15   9  25  1   
 16  10  11  1   
 17  10  26  1   
 18  10  27  1   
 19  11  12  2   
 20  11  13  am  
 21  13  14  1   
 22  13  28  1   
 23  14  15  1   
 24  14  29  1   
 25  14  30  1   
 26  15  16  1   
 27  15  17  2   
 28  16  18  1   
 29  17  19  1   
 30  18  19  2   
 31  19  20  1   
 32  20  31  1   
 33  20  32  1   
 34  20  33  1   
@<TRIPOS>SUBSTRUCTURE
  1 ****  13 GROUP 4 **** **** 0

# MOE 2024.06 (io_trps.svl 2023.06)
