@<TRIPOS>MOLECULE
NONAME
57 60 1 0 0 
SMALL
USER_CHARGES


@<TRIPOS>ATOM
  1 O        2.7820    -4.5630     1.5060 O.2   1 <1>  -0.5700 
  2 C        2.1190    -3.6130     1.1520 C.2   1 <1>   0.5440 
  3 N        2.8040    -2.5220     0.7120 N.am  1 <1>  -0.7300 
  4 C        0.6720    -3.6480     1.2090 C.ar  1 <1>   0.0860 
  5 C        3.0470    -2.1620    -0.7080 C.3   1 <1>   0.3000 
  6 C       -0.0740    -2.4780     1.3350 C.ar  1 <1>   0.1600 
  7 C       -0.0390    -4.8390     1.1450 C.ar  1 <1>  -0.1500 
  8 C        4.3450    -2.8560    -1.2310 C.3   1 <1>   0.2000 
  9 C        3.2570    -0.6390    -0.7330 C.3   1 <1>  -0.1600 
 10 C        1.8140    -2.5290    -1.5550 C.3   1 <1>  -0.2400 
 11 N       -1.3950    -2.3980     1.3800 N.ar  1 <1>  -0.6200 
 12 C       -1.4140    -4.7790     1.1960 C.ar  1 <1>  -0.1500 
 13 O        4.5200    -2.5560    -2.5930 O.3   1 <1>  -0.6800 
 14 C        5.6120    -2.4410    -0.3930 C.3   1 <1>   0.2800 
 15 C        4.6880    -0.2070    -0.3720 C.3   1 <1>   0.1200 
 16 C       -2.0420    -3.5490     1.3100 C.ar  1 <1>   0.1670 
 17 O        5.3720    -1.2290     0.2920 O.3   1 <1>  -0.5600 
 18 C        5.9000    -3.4760     0.7300 C.3   1 <1>  -0.1600 
 19 C        6.8870    -2.2270    -1.2460 C.3   1 <1>  -0.1600 
 20 C       -3.5520    -3.4620     1.3650 C.3   1 <1>  -0.0970 
 21 C        7.2090    -4.2540     0.5700 C.3   1 <1>   0.1400 
 22 C        8.1280    -2.0800    -0.3650 C.3   1 <1>   0.1400 
 23 N        8.3650    -3.3270     0.4150 N.am  1 <1>  -0.6600 
 24 C        9.6330    -3.7380     0.7690 C.2   1 <1>   0.7160 
 25 O        9.8310    -4.9210     0.9770 O.2   1 <1>  -0.5700 
 26 C       10.7370    -2.8120     0.8810 C.2   1 <1>  -0.0860 
 27 C       12.0450    -3.0410     0.5890 C.2   1 <1>  -0.0100 
 28 C       10.7210    -1.4760     1.3390 C.2   1 <1>  -0.1500 
 29 O       12.7820    -1.9780     0.8090 O.3   1 <1>  -0.2800 
 30 C       11.9920    -1.0310     1.2650 C.2   1 <1>  -0.0100 
 31 H        3.6780    -2.3620     1.2260 H     1 <1>   0.3700 
 32 H        0.4610    -1.5470     1.4010 H     1 <1>   0.1500 
 33 H        0.4800    -5.7780     1.0600 H     1 <1>   0.1500 
 34 H        4.2150    -3.9230    -1.1910 H     1 <1>   0.0800 
 35 H        2.5560    -0.1630    -0.0700 H     1 <1>   0.0800 
 36 H        3.0460    -0.2570    -1.7160 H     1 <1>   0.0800 
 37 H        1.9530    -2.2260    -2.5770 H     1 <1>   0.0800 
 38 H        0.9350    -2.0320    -1.1890 H     1 <1>   0.0800 
 39 H        1.6550    -3.5920    -1.5560 H     1 <1>   0.0800 
 40 H       -1.9930    -5.6830     1.1470 H     1 <1>   0.1500 
 41 H        4.6460    -1.5980    -2.7140 H     1 <1>   0.4000 
 42 H        4.6620     0.6460     0.2850 H     1 <1>   0.0800 
 43 H        5.2430     0.0650    -1.2520 H     1 <1>   0.0800 
 44 H        5.9290    -2.9880     1.6890 H     1 <1>   0.0800 
 45 H        5.1180    -4.2070     0.7790 H     1 <1>   0.0800 
 46 H        7.0350    -3.0660    -1.9050 H     1 <1>   0.0800 
 47 H        6.7920    -1.3580    -1.8680 H     1 <1>   0.0800 
 48 H       -4.0010    -4.4360     1.3030 H     1 <1>   0.0800 
 49 H       -3.9070    -2.8630     0.5460 H     1 <1>   0.0800 
 50 H       -3.8510    -2.9990     2.2870 H     1 <1>   0.0800 
 51 H        7.1560    -4.8930    -0.2960 H     1 <1>   0.0800 
 52 H        7.3600    -4.8810     1.4340 H     1 <1>   0.0800 
 53 H        7.9860    -1.2590     0.3170 H     1 <1>   0.0800 
 54 H        8.9840    -1.8700    -0.9830 H     1 <1>   0.0800 
 55 H       12.5110    -3.9390     0.2230 H     1 <1>   0.1500 
 56 H        9.8490    -0.9500     1.6840 H     1 <1>   0.1500 
 57 H       12.4190    -0.0750     1.5160 H     1 <1>   0.1500 
@<TRIPOS>BOND
  1   1   2  2   
  2   2   3  am  
  3   2   4  1   
  4   3   5  1   
  5   3  31  1   
  6   4   6  ar  
  7   4   7  ar  
  8   5   8  1   
  9   5   9  1   
 10   5  10  1   
 11   6  11  ar  
 12   6  32  1   
 13   7  12  ar  
 14   7  33  1   
 15   8  13  1   
 16   8  14  1   
 17   8  34  1   
 18   9  15  1   
 19   9  35  1   
 20   9  36  1   
 21  10  37  1   
 22  10  38  1   
 23  10  39  1   
 24  11  16  ar  
 25  12  16  ar  
 26  12  40  1   
 27  13  41  1   
 28  14  17  1   
 29  14  18  1   
 30  14  19  1   
 31  15  17  1   
 32  15  42  1   
 33  15  43  1   
 34  16  20  1   
 35  18  21  1   
 36  18  44  1   
 37  18  45  1   
 38  19  22  1   
 39  19  46  1   
 40  19  47  1   
 41  20  48  1   
 42  20  49  1   
 43  20  50  1   
 44  21  23  1   
 45  21  51  1   
 46  21  52  1   
 47  22  23  1   
 48  22  53  1   
 49  22  54  1   
 50  23  24  am  
 51  24  25  2   
 52  24  26  1   
 53  26  27  2   
 54  26  28  1   
 55  27  29  1   
 56  27  55  1   
 57  28  30  2   
 58  28  56  1   
 59  29  30  1   
 60  30  57  1   
@<TRIPOS>SUBSTRUCTURE
  1 ****  14 GROUP 4 **** **** 0

# MOE 2024.06 (io_trps.svl 2023.06)
