@<TRIPOS>MOLECULE
NONAME
42 43 1 0 0 
SMALL
USER_CHARGES


@<TRIPOS>ATOM
  1 F        4.3580     2.6780    -0.5010 F     1 <1>  -0.3400 
  2 C        3.3100     2.3890    -1.2780 C.3   1 <1>   0.9600 
  3 F        3.1950     3.4390    -2.0810 F     1 <1>  -0.3400 
  4 O        2.1400     2.3950    -0.4640 O.3   1 <1>  -0.3630 
  5 C        3.5740     1.1130    -2.1310 C.3   1 <1>   0.6000 
  6 C        2.1410     1.8540     0.7740 C.ar  1 <1>   0.0830 
  7 F        2.4560     0.6220    -2.6710 F     1 <1>  -0.3400 
  8 F        4.0650     0.1010    -1.4120 F     1 <1>  -0.3400 
  9 C        2.1480     2.6880     1.9000 C.ar  1 <1>   0.0860 
 10 C        2.0730     0.4740     0.9130 C.ar  1 <1>  -0.1500 
 11 C        2.1920     4.1280     1.7950 C.2   1 <1>   0.5440 
 12 C        2.1070     2.0830     3.1560 C.ar  1 <1>  -0.1500 
 13 C        2.0440    -0.0990     2.1710 C.ar  1 <1>  -0.1500 
 14 O        1.2720     4.8110     2.2000 O.2   1 <1>  -0.5700 
 15 N        3.2830     4.7460     1.2650 N.am  1 <1>  -0.7300 
 16 C        2.0630     0.7090     3.2950 C.ar  1 <1>  -0.1500 
 17 C        3.3310     6.1380     0.8320 C.3   1 <1>   0.4010 
 18 C        4.3450     6.2210    -0.2960 C.2   1 <1>  -0.1810 
 19 C        3.7270     7.0290     2.0050 C.3   1 <1>  -0.2400 
 20 C        5.6440     5.8390    -0.3770 C.2   1 <1>  -0.3320 
 21 C        4.0600     6.7500    -1.5490 C.2   1 <1>   0.1390 
 22 N        6.0610     6.1530    -1.6240 N.pl3 1 <1>   0.3140 
 23 C        6.5430     5.1850     0.6650 C.3   1 <1>  -0.0600 
 24 N        5.0800     6.7130    -2.3470 N.2   1 <1>  -0.7070 
 25 C        7.3990     5.9530    -2.1960 C.3   1 <1>   0.0160 
 26 H        4.2660     1.3070    -2.9290 H     1 <1>   0.0800 
 27 H        2.0270    -0.1610     0.0470 H     1 <1>   0.1500 
 28 H        2.1060     2.7110     4.0310 H     1 <1>   0.1500 
 29 H        1.9990    -1.1690     2.2770 H     1 <1>   0.1500 
 30 H        4.0170     4.1870     0.8270 H     1 <1>   0.3700 
 31 H        2.0350     0.2650     4.2760 H     1 <1>   0.1500 
 32 H        2.3580     6.4290     0.4710 H     1 <1>   0.0800 
 33 H        4.6800     6.7390     2.4030 H     1 <1>   0.0800 
 34 H        2.9820     6.9650     2.7780 H     1 <1>   0.0800 
 35 H        3.7890     8.0490     1.6740 H     1 <1>   0.0800 
 36 H        3.1010     7.1470    -1.8400 H     1 <1>   0.1500 
 37 H        6.0090     5.0000     1.5770 H     1 <1>   0.0800 
 38 H        7.3770     5.8280     0.8870 H     1 <1>   0.0800 
 39 H        6.9140     4.2450     0.2970 H     1 <1>   0.0800 
 40 H        7.6410     4.9080    -2.1700 H     1 <1>   0.0800 
 41 H        8.1130     6.5130    -1.6230 H     1 <1>   0.0800 
 42 H        7.4020     6.3000    -3.2130 H     1 <1>   0.0800 
@<TRIPOS>BOND
  1   1   2  1   
  2   2   3  1   
  3   2   4  1   
  4   2   5  1   
  5   4   6  1   
  6   5   7  1   
  7   5   8  1   
  8   5  26  1   
  9   6   9  ar  
 10   6  10  ar  
 11   9  11  1   
 12   9  12  ar  
 13  10  13  ar  
 14  10  27  1   
 15  11  14  2   
 16  11  15  am  
 17  12  16  ar  
 18  12  28  1   
 19  13  16  ar  
 20  13  29  1   
 21  15  17  1   
 22  15  30  1   
 23  16  31  1   
 24  17  18  1   
 25  17  19  1   
 26  17  32  1   
 27  18  20  2   
 28  18  21  1   
 29  19  33  1   
 30  19  34  1   
 31  19  35  1   
 32  20  22  1   
 33  20  23  1   
 34  21  24  2   
 35  21  36  1   
 36  22  24  1   
 37  22  25  1   
 38  23  37  1   
 39  23  38  1   
 40  23  39  1   
 41  25  40  1   
 42  25  41  1   
 43  25  42  1   
@<TRIPOS>SUBSTRUCTURE
  1 ****   1 GROUP 4 **** **** 0

# MOE 2024.06 (io_trps.svl 2023.06)
