@<TRIPOS>MOLECULE
NONAME
43 45 1 0 0 
SMALL
USER_CHARGES


@<TRIPOS>ATOM
  1 S       -0.6170     0.6210     2.3720 S.o2  1 <1>   1.4470 
  2 O       -0.2900    -0.3400     3.4030 O.2   1 <1>  -0.6500 
  3 O       -1.2730     1.8540     2.7560 O.2   1 <1>  -0.6500 
  4 N       -1.6310    -0.1550     1.2580 N.am  1 <1>  -0.8490 
  5 C        0.8670     1.0330     1.4090 C.ar  1 <1>  -0.0090 
  6 C       -1.0530    -1.4200     0.7430 C.3   1 <1>   0.1960 
  7 C       -2.9860    -0.3380     1.7720 C.3   1 <1>   0.1960 
  8 C        1.0120     2.2890     0.8310 C.ar  1 <1>  -0.1500 
  9 C        1.8840     0.0900     1.2130 C.ar  1 <1>  -0.1500 
 10 C       -2.0960    -2.4110     0.2060 C.3   1 <1>  -0.1860 
 11 C       -3.9290    -0.7050     0.6190 C.3   1 <1>  -0.1600 
 12 C        2.1470     2.5860     0.0920 C.ar  1 <1>   0.1170 
 13 C        3.0160     0.3790     0.4700 C.ar  1 <1>  -0.1500 
 14 C       -1.4480    -3.3700    -0.7720 C.2   1 <1>   0.9060 
 15 C       -3.2770    -1.6520    -0.3980 C.3   1 <1>   0.2000 
 16 N        2.5370     3.7460    -0.5670 N.am  1 <1>  -0.4770 
 17 C        3.1410     1.6410    -0.0880 C.ar  1 <1>   0.1170 
 18 O       -0.2180    -3.4890    -0.7690 O.co2 1 <1>  -0.9000 
 19 O       -2.1710    -4.0220    -1.5360 O.co2 1 <1>  -0.9000 
 20 O       -4.2220    -2.5630    -0.8160 O.3   1 <1>  -0.6800 
 21 C        3.7560     3.4980    -1.1400 C.2   1 <1>   0.6900 
 22 C        1.7830     5.0160    -0.6300 C.3   1 <1>   0.0600 
 23 N        4.1420     2.2150    -0.8610 N.am  1 <1>  -0.4770 
 24 O        4.4000     4.3000    -1.8020 O.2   1 <1>  -0.5700 
 25 C        5.3740     1.5500    -1.3340 C.3   1 <1>   0.0600 
 26 H       -0.3690    -1.1640    -0.0500 H     1 <1>   0.0800 
 27 H       -0.4880    -1.9270     1.5070 H     1 <1>   0.0800 
 28 H       -2.9850    -1.1160     2.5180 H     1 <1>   0.0800 
 29 H       -3.3410     0.5690     2.2330 H     1 <1>   0.0800 
 30 H        0.2460     3.0340     0.9540 H     1 <1>   0.1500 
 31 H        1.7810    -0.8900     1.6510 H     1 <1>   0.1500 
 32 H       -2.4480    -3.0060     1.0260 H     1 <1>   0.0800 
 33 H       -4.2220     0.1930     0.1090 H     1 <1>   0.0800 
 34 H       -4.8120    -1.1540     1.0370 H     1 <1>   0.0800 
 35 H        3.7850    -0.3580     0.3230 H     1 <1>   0.1500 
 36 H       -2.9420    -1.1030    -1.2620 H     1 <1>   0.0800 
 37 H       -3.7020    -3.2970    -1.2620 H     1 <1>   0.4000 
 38 H        0.8350     4.8480    -1.1090 H     1 <1>   0.0800 
 39 H        2.3390     5.7440    -1.1950 H     1 <1>   0.0800 
 40 H        1.6230     5.3890     0.3660 H     1 <1>   0.0800 
 41 H        5.1160     0.6620    -1.8830 H     1 <1>   0.0800 
 42 H        5.9880     1.2870    -0.4910 H     1 <1>   0.0800 
 43 H        5.9250     2.2140    -1.9770 H     1 <1>   0.0800 
@<TRIPOS>BOND
  1   1   2  2   
  2   1   3  2   
  3   1   4  am  
  4   1   5  1   
  5   4   6  1   
  6   4   7  1   
  7   5   8  ar  
  8   5   9  ar  
  9   6  10  1   
 10   6  26  1   
 11   6  27  1   
 12   7  11  1   
 13   7  28  1   
 14   7  29  1   
 15   8  12  ar  
 16   8  30  1   
 17   9  13  ar  
 18   9  31  1   
 19  10  14  1   
 20  10  15  1   
 21  10  32  1   
 22  11  15  1   
 23  11  33  1   
 24  11  34  1   
 25  12  16  1   
 26  12  17  ar  
 27  13  17  ar  
 28  13  35  1   
 29  14  18  ar  
 30  14  19  ar  
 31  15  20  1   
 32  15  36  1   
 33  16  21  am  
 34  16  22  1   
 35  17  23  1   
 36  20  37  1   
 37  21  23  am  
 38  21  24  2   
 39  22  38  1   
 40  22  39  1   
 41  22  40  1   
 42  23  25  1   
 43  25  41  1   
 44  25  42  1   
 45  25  43  1   
@<TRIPOS>SUBSTRUCTURE
  1 ****   5 GROUP 4 **** **** 0

# MOE 2024.06 (io_trps.svl 2023.06)
