@<TRIPOS>MOLECULE
NONAME
46 49 1 0 0 
SMALL
USER_CHARGES


@<TRIPOS>ATOM
  1 S       -0.7700     0.3650     0.4360 S.o2  1 <1>   1.0900 
  2 O       -1.1630     1.5040     1.2310 O.2   1 <1>  -0.6500 
  3 O        0.6160     0.0050     0.2490 O.2   1 <1>  -0.6500 
  4 C       -1.6310    -1.0910     0.9550 C.3   1 <1>  -0.0550 
  5 C       -1.5430     0.4240    -1.1730 C.3   1 <1>  -0.0550 
  6 C       -1.7870    -1.9070    -0.3260 C.3   1 <1>   0.1760 
  7 C       -2.2230    -0.9320    -1.4390 C.3   1 <1>  -0.1600 
  8 N       -2.7580    -3.0140    -0.1430 N.pl3 1 <1>   0.3140 
  9 N       -3.9990    -2.7750     0.3190 N.2   1 <1>  -0.7070 
 10 C       -2.5630    -4.3380    -0.3790 C.2   1 <1>  -0.3320 
 11 C       -4.5650    -3.9390     0.3850 C.2   1 <1>   0.1080 
 12 C       -3.7130    -4.9630    -0.0410 C.2   1 <1>   0.0630 
 13 C       -1.2670    -4.9370    -0.9070 C.3   1 <1>  -0.0600 
 14 C       -5.9920    -4.0960     0.8620 C.3   1 <1>  -0.0590 
 15 N       -3.9650    -6.3560    -0.1410 N.am  1 <1>  -0.4930 
 16 C       -4.5420    -7.1980     0.7730 C.2   1 <1>   0.5440 
 17 O       -4.9230    -6.7660     1.8430 O.2   1 <1>  -0.5700 
 18 C       -4.7080    -8.6060     0.4620 C.ar  1 <1>   0.0860 
 19 C       -5.7950    -9.3190     0.9260 C.ar  1 <1>  -0.1500 
 20 C       -3.7660    -9.3020    -0.3240 C.ar  1 <1>  -0.1500 
 21 C       -5.9990   -10.6720     0.6310 C.ar  1 <1>   0.3100 
 22 C       -3.9340   -10.6270    -0.6300 C.ar  1 <1>  -0.1500 
 23 N       -7.1040   -11.3000     1.1160 N.ar  1 <1>  -0.6200 
 24 C       -5.0460   -11.3480    -0.1720 C.ar  1 <1>   0.3100 
 25 C       -7.1900   -12.5480     0.7780 C.ar  1 <1>   0.1600 
 26 N       -5.1750   -12.6570    -0.5060 N.ar  1 <1>  -0.6200 
 27 C       -6.2400   -13.2170    -0.0210 C.ar  1 <1>   0.1600 
 28 H       -2.5990    -0.8210     1.3360 H     1 <1>   0.0800 
 29 H       -1.0830    -1.6290     1.7030 H     1 <1>   0.0800 
 30 H       -0.8040     0.6290    -1.9250 H     1 <1>   0.0800 
 31 H       -2.2800     1.2050    -1.2010 H     1 <1>   0.0800 
 32 H       -0.8280    -2.3210    -0.5810 H     1 <1>   0.0800 
 33 H       -1.9580    -1.3150    -2.4090 H     1 <1>   0.0800 
 34 H       -3.2910    -0.7920    -1.4000 H     1 <1>   0.0800 
 35 H       -1.0350    -4.5320    -1.8760 H     1 <1>   0.0800 
 36 H       -1.3500    -6.0050    -0.9940 H     1 <1>   0.0800 
 37 H       -0.4570    -4.7200    -0.2320 H     1 <1>   0.0800 
 38 H       -6.5460    -3.1990     0.6610 H     1 <1>   0.0800 
 39 H       -5.9950    -4.2790     1.9210 H     1 <1>   0.0800 
 40 H       -6.4640    -4.9200     0.3610 H     1 <1>   0.0800 
 41 H       -3.6590    -6.7690    -1.0170 H     1 <1>   0.3700 
 42 H       -6.5300    -8.8320     1.5420 H     1 <1>   0.1500 
 43 H       -2.8920    -8.7840    -0.6800 H     1 <1>   0.1500 
 44 H       -3.2150   -11.1570    -1.2290 H     1 <1>   0.1500 
 45 H       -8.0360   -13.1150     1.1240 H     1 <1>   0.1500 
 46 H       -6.4150   -14.2560    -0.2390 H     1 <1>   0.1500 
@<TRIPOS>BOND
  1   1   2  2   
  2   1   3  2   
  3   1   4  1   
  4   1   5  1   
  5   4   6  1   
  6   4  28  1   
  7   4  29  1   
  8   5   7  1   
  9   5  30  1   
 10   5  31  1   
 11   6   7  1   
 12   6   8  1   
 13   6  32  1   
 14   7  33  1   
 15   7  34  1   
 16   8   9  1   
 17   8  10  1   
 18   9  11  2   
 19  10  12  2   
 20  10  13  1   
 21  11  12  1   
 22  11  14  1   
 23  12  15  1   
 24  13  35  1   
 25  13  36  1   
 26  13  37  1   
 27  14  38  1   
 28  14  39  1   
 29  14  40  1   
 30  15  16  am  
 31  15  41  1   
 32  16  17  2   
 33  16  18  1   
 34  18  19  ar  
 35  18  20  ar  
 36  19  21  ar  
 37  19  42  1   
 38  20  22  ar  
 39  20  43  1   
 40  21  23  ar  
 41  21  24  ar  
 42  22  24  ar  
 43  22  44  1   
 44  23  25  ar  
 45  24  26  ar  
 46  25  27  ar  
 47  25  45  1   
 48  26  27  ar  
 49  27  46  1   
@<TRIPOS>SUBSTRUCTURE
  1 ****  15 GROUP 4 **** **** 0

# MOE 2024.06 (io_trps.svl 2023.06)
