@<TRIPOS>MOLECULE
NONAME
51 54 1 0 0 
SMALL
USER_CHARGES


@<TRIPOS>ATOM
  1 O       -0.2850     0.1180    -1.4790 O.2   1 <1>  -0.5700 
  2 C        0.7650    -0.3470    -1.8550 C.2   1 <1>   0.5690 
  3 N        1.9090     0.4050    -1.8730 N.am  1 <1>  -0.6600 
  4 C        0.7920    -1.8010    -2.3190 C.3   1 <1>  -0.0990 
  5 C        1.9270     1.7630    -1.2360 C.3   1 <1>   0.3200 
  6 C        3.2130    -0.0320    -2.4530 C.3   1 <1>   0.0600 
  7 C       -0.3880    -2.6440    -1.7960 C.3   1 <1>  -0.1600 
  8 C        2.9530     1.8500    -0.1150 C.2   1 <1>   0.2980 
  9 C       -0.2920    -4.1080    -2.2480 C.3   1 <1>   0.0200 
 10 O        2.7500     1.1510     0.9740 O.3   1 <1>  -0.0190 
 11 N        4.0220     2.5430    -0.1320 N.2   1 <1>  -0.5650 
 12 C       -1.4250    -4.9410    -1.6790 C.2   1 <1>   0.2980 
 13 N        3.7790     1.4230     1.7160 N.2   1 <1>  -0.4100 
 14 C        4.5090     2.2370     1.0620 C.2   1 <1>   0.4300 
 15 O       -2.6390    -4.7400    -2.1170 O.3   1 <1>  -0.0190 
 16 N       -1.3040    -5.8420    -0.7950 N.2   1 <1>  -0.5650 
 17 C        5.8240     2.8310     1.5450 C.3   1 <1>  -0.0140 
 18 N       -3.3580    -5.5880    -1.4510 N.2   1 <1>  -0.4100 
 19 C       -2.5740    -6.2400    -0.6660 C.2   1 <1>   0.4620 
 20 C        6.0940     3.0700     3.0020 C.3   1 <1>  -0.2000 
 21 C        5.8690     4.2310     2.0810 C.3   1 <1>  -0.2000 
 22 C       -2.9790    -7.2870     0.2590 C.ar  1 <1>   0.0540 
 23 C       -4.3120    -7.6890     0.3610 C.ar  1 <1>  -0.1500 
 24 C       -2.0590    -7.9350     1.0860 C.ar  1 <1>  -0.1500 
 25 C       -4.7060    -8.6830     1.2380 C.ar  1 <1>  -0.1500 
 26 C       -2.4480    -8.9290     1.9650 C.ar  1 <1>  -0.1500 
 27 C       -3.7760    -9.3100     2.0480 C.ar  1 <1>  -0.1440 
 28 C       -4.2050   -10.4020     3.0110 C.3   1 <1>  -0.0970 
 29 H        1.7060    -2.2510    -1.9770 H     1 <1>   0.0800 
 30 H        0.7880    -1.8070    -3.3930 H     1 <1>   0.0800 
 31 H        0.9620     2.0130    -0.8320 H     1 <1>   0.0800 
 32 H        2.1650     2.4960    -1.9860 H     1 <1>   0.0800 
 33 H        3.0640    -0.7650    -3.2260 H     1 <1>   0.0800 
 34 H        3.8320    -0.4530    -1.6790 H     1 <1>   0.0800 
 35 H        3.7250     0.8120    -2.8850 H     1 <1>   0.0800 
 36 H       -1.3140    -2.2210    -2.1480 H     1 <1>   0.0800 
 37 H       -0.4000    -2.6050    -0.7190 H     1 <1>   0.0800 
 38 H        0.6400    -4.5290    -1.9140 H     1 <1>   0.0800 
 39 H       -0.3230    -4.1680    -3.3200 H     1 <1>   0.0800 
 40 H        6.6480     2.5100     0.9350 H     1 <1>   0.1000 
 41 H        7.0850     2.8850     3.3770 H     1 <1>   0.1000 
 42 H        5.3280     2.8180     3.7150 H     1 <1>   0.1000 
 43 H        4.9470     4.7800     2.1550 H     1 <1>   0.1000 
 44 H        6.7030     4.8560     1.8120 H     1 <1>   0.1000 
 45 H       -5.0530    -7.2150    -0.2590 H     1 <1>   0.1500 
 46 H       -1.0220    -7.6550     1.0400 H     1 <1>   0.1500 
 47 H       -5.7430    -8.9670     1.2870 H     1 <1>   0.1500 
 48 H       -1.7100    -9.4070     2.5850 H     1 <1>   0.1500 
 49 H       -5.2150   -10.2380     3.3400 H     1 <1>   0.0800 
 50 H       -3.5650   -10.4130     3.8750 H     1 <1>   0.0800 
 51 H       -4.1480   -11.3590     2.5240 H     1 <1>   0.0800 
@<TRIPOS>BOND
  1   1   2  2   
  2   2   3  am  
  3   2   4  1   
  4   3   5  1   
  5   3   6  1   
  6   4   7  1   
  7   4  29  1   
  8   4  30  1   
  9   5   8  1   
 10   5  31  1   
 11   5  32  1   
 12   6  33  1   
 13   6  34  1   
 14   6  35  1   
 15   7   9  1   
 16   7  36  1   
 17   7  37  1   
 18   8  10  1   
 19   8  11  2   
 20   9  12  1   
 21   9  38  1   
 22   9  39  1   
 23  10  13  1   
 24  11  14  1   
 25  12  15  1   
 26  12  16  2   
 27  13  14  2   
 28  14  17  1   
 29  15  18  1   
 30  16  19  1   
 31  17  20  1   
 32  17  21  1   
 33  17  40  1   
 34  18  19  2   
 35  19  22  1   
 36  20  21  1   
 37  20  41  1   
 38  20  42  1   
 39  21  43  1   
 40  21  44  1   
 41  22  23  ar  
 42  22  24  ar  
 43  23  25  ar  
 44  23  45  1   
 45  24  26  ar  
 46  24  46  1   
 47  25  27  ar  
 48  25  47  1   
 49  26  27  ar  
 50  26  48  1   
 51  27  28  1   
 52  28  49  1   
 53  28  50  1   
 54  28  51  1   
@<TRIPOS>SUBSTRUCTURE
  1 ****   7 GROUP 4 **** **** 0

# MOE 2024.06 (io_trps.svl 2023.06)
