@<TRIPOS>MOLECULE
NONAME
48 50 1 0 0 
SMALL
USER_CHARGES


@<TRIPOS>ATOM
  1 O        2.2360    -0.1240     1.4980 O.3   1 <1>  -0.5600 
  2 C        1.4400    -0.7190     0.5130 C.3   1 <1>   0.1200 
  3 C        3.1350     0.8490     1.0220 C.3   1 <1>   0.1200 
  4 C        2.3070    -1.5180    -0.4850 C.3   1 <1>   0.3430 
  5 C        3.8800     0.4000    -0.2590 C.3   1 <1>   0.3430 
  6 N        3.7340    -1.0720    -0.4700 N.4   1 <1>  -0.9590 
  7 C        4.5750    -1.6610    -1.5450 C.3   1 <1>   0.3430 
  8 C        6.0110    -1.8740    -1.0210 C.3   1 <1>   0.1100 
  9 N        6.0480    -2.0380     0.4650 N.3   1 <1>  -0.8100 
 10 C        7.2330    -1.3590     1.0670 C.3   1 <1>   0.2910 
 11 C        6.0020    -3.4570     0.8860 C.3   1 <1>   0.2900 
 12 C        7.1810     0.1660     0.9420 C.2   1 <1>   0.3350 
 13 C        4.6490    -4.0900     0.5980 C.2   1 <1>  -0.0400 
 14 N        6.5330     0.9420     1.7190 N.2   1 <1>  -0.4100 
 15 N        7.8200     0.8120    -0.0260 N.2   1 <1>  -0.5650 
 16 O        4.3840    -4.5540    -0.6110 O.3   1 <1>  -0.2800 
 17 C        3.6000    -4.3040     1.4220 C.2   1 <1>  -0.1500 
 18 O        6.7350     2.1560     1.3070 O.3   1 <1>  -0.0190 
 19 C        7.5180     2.0130     0.2670 C.2   1 <1>   0.2980 
 20 C        3.1780    -5.0870    -0.5790 C.2   1 <1>  -0.0100 
 21 C        2.6340    -4.9600     0.6490 C.2   1 <1>  -0.1500 
 22 C        7.9830     3.2510    -0.4780 C.3   1 <1>   0.0200 
 23 C        6.8270     3.9570    -1.1990 C.3   1 <1>  -0.2400 
 24 H        0.8890     0.0540     0.0070 H     1 <1>   0.0800 
 25 H        0.7380    -1.3730     1.0010 H     1 <1>   0.0800 
 26 H        3.8430     1.0400     1.8090 H     1 <1>   0.0800 
 27 H        2.5900     1.7580     0.8380 H     1 <1>   0.0800 
 28 H        1.8920    -1.4070    -1.4730 H     1 <1>   0.0800 
 29 H        2.2610    -2.5630    -0.2290 H     1 <1>   0.0800 
 30 H        4.9200     0.6650    -0.1760 H     1 <1>   0.0800 
 31 H        3.4740     0.9290    -1.1040 H     1 <1>   0.0800 
 32 H        4.1570    -1.4830     0.3880 H     1 <1>   0.4500 
 33 H        4.5800    -1.0360    -2.4220 H     1 <1>   0.0800 
 34 H        4.1750    -2.6210    -1.8250 H     1 <1>   0.0800 
 35 H        6.5840    -1.0160    -1.3210 H     1 <1>   0.0800 
 36 H        6.4540    -2.7250    -1.5110 H     1 <1>   0.0800 
 37 H        8.1390    -1.7200     0.6110 H     1 <1>   0.0800 
 38 H        7.2780    -1.5870     2.1180 H     1 <1>   0.0800 
 39 H        6.1640    -3.5140     1.9500 H     1 <1>   0.0800 
 40 H        6.7810    -4.0240     0.4030 H     1 <1>   0.0800 
 41 H        3.4970    -4.0510     2.4640 H     1 <1>   0.1500 
 42 H        2.7850    -5.5440    -1.4720 H     1 <1>   0.1500 
 43 H        1.6730    -5.2930     1.0010 H     1 <1>   0.1500 
 44 H        8.7300     2.9650    -1.1970 H     1 <1>   0.0800 
 45 H        8.4420     3.9260     0.2230 H     1 <1>   0.0800 
 46 H        6.3720     3.2930    -1.9110 H     1 <1>   0.0800 
 47 H        7.1960     4.8220    -1.7220 H     1 <1>   0.0800 
 48 H        6.0830     4.2780    -0.4910 H     1 <1>   0.0800 
@<TRIPOS>BOND
  1   1   2  1   
  2   1   3  1   
  3   2   4  1   
  4   2  24  1   
  5   2  25  1   
  6   3   5  1   
  7   3  26  1   
  8   3  27  1   
  9   4   6  1   
 10   4  28  1   
 11   4  29  1   
 12   5   6  1   
 13   5  30  1   
 14   5  31  1   
 15   6   7  1   
 16   6  32  1   
 17   7   8  1   
 18   7  33  1   
 19   7  34  1   
 20   8   9  1   
 21   8  35  1   
 22   8  36  1   
 23   9  10  1   
 24   9  11  1   
 25  10  12  1   
 26  10  37  1   
 27  10  38  1   
 28  11  13  1   
 29  11  39  1   
 30  11  40  1   
 31  12  14  2   
 32  12  15  1   
 33  13  16  1   
 34  13  17  2   
 35  14  18  1   
 36  15  19  2   
 37  16  20  1   
 38  17  21  1   
 39  17  41  1   
 40  18  19  1   
 41  19  22  1   
 42  20  21  2   
 43  20  42  1   
 44  21  43  1   
 45  22  23  1   
 46  22  44  1   
 47  22  45  1   
 48  23  46  1   
 49  23  47  1   
 50  23  48  1   
@<TRIPOS>SUBSTRUCTURE
  1 ****   6 GROUP 4 **** **** 0

# MOE 2024.06 (io_trps.svl 2023.06)
