@<TRIPOS>MOLECULE
NONAME
46 48 1 0 0 
SMALL
USER_CHARGES


@<TRIPOS>ATOM
  1 CL       0.9740    -0.2060     0.6330 Cl    1 <1>  -0.1770 
  2 C        0.5060    -1.8750     0.4590 C.ar  1 <1>   0.1770 
  3 C        0.7390    -2.7600     1.4940 C.ar  1 <1>  -0.1500 
  4 C       -0.0920    -2.2960    -0.7130 C.ar  1 <1>  -0.1500 
  5 C        0.3610    -4.0830     1.3510 C.ar  1 <1>  -0.1500 
  6 C       -0.4650    -3.6220    -0.8450 C.ar  1 <1>  -0.1500 
  7 C       -0.2560    -4.5450     0.1850 C.ar  1 <1>   0.0860 
  8 C       -0.6580    -5.9350     0.0550 C.2   1 <1>   0.5440 
  9 O       -0.0250    -6.8180     0.6060 O.2   1 <1>  -0.5700 
 10 N       -1.7800    -6.3140    -0.6520 N.am  1 <1>  -0.6600 
 11 C       -1.9260    -7.7350    -1.0630 C.3   1 <1>   0.1400 
 12 C       -3.0790    -5.6210    -0.4390 C.3   1 <1>   0.1400 
 13 C       -2.6520    -8.5010     0.0640 C.3   1 <1>   0.4230 
 14 C       -3.8380    -6.3580     0.6730 C.3   1 <1>  -0.1600 
 15 N       -2.6760   -10.0110    -0.1280 N.4   1 <1>  -0.9590 
 16 C       -4.0440    -7.8770     0.3920 C.3   1 <1>   0.0000 
 17 C       -3.7020   -10.7180     0.7050 C.3   1 <1>   0.3430 
 18 C       -2.7530   -10.4820    -1.5500 C.3   1 <1>   0.2630 
 19 C       -4.6180    -8.5490     1.6740 C.3   1 <1>  -0.1600 
 20 C       -5.0150    -8.0770    -0.8070 C.3   1 <1>   0.1200 
 21 C       -4.0110    -9.9320     1.9780 C.3   1 <1>  -0.1600 
 22 O       -6.1870    -7.3580    -0.6430 O.3   1 <1>  -0.6800 
 23 H        1.2120    -2.4130     2.3960 H     1 <1>   0.1500 
 24 H       -0.2580    -1.5910    -1.5090 H     1 <1>   0.1500 
 25 H        0.5470    -4.7780     2.1530 H     1 <1>   0.1500 
 26 H       -0.9210    -3.9510    -1.7630 H     1 <1>   0.1500 
 27 H       -2.4670    -7.7740    -1.9890 H     1 <1>   0.0800 
 28 H       -0.9490    -8.1580    -1.2210 H     1 <1>   0.0800 
 29 H       -2.9190    -4.5970    -0.1450 H     1 <1>   0.0800 
 30 H       -3.6480    -5.6170    -1.3540 H     1 <1>   0.0800 
 31 H       -2.0530    -8.3240     0.9430 H     1 <1>   0.0800 
 32 H       -3.2740    -6.2300     1.5820 H     1 <1>   0.0800 
 33 H       -4.7830    -5.8680     0.8310 H     1 <1>   0.0800 
 34 H       -1.7590   -10.3170     0.2350 H     1 <1>   0.4500 
 35 H       -4.6150   -10.8290     0.1430 H     1 <1>   0.0800 
 36 H       -3.3490   -11.7050     0.9610 H     1 <1>   0.0800 
 37 H       -3.6710   -10.1520    -2.0080 H     1 <1>   0.0800 
 38 H       -2.7190   -11.5590    -1.5880 H     1 <1>   0.0800 
 39 H       -1.9230   -10.0990    -2.1210 H     1 <1>   0.0800 
 40 H       -4.4450    -7.9280     2.5380 H     1 <1>   0.0800 
 41 H       -5.6870    -8.6480     1.5920 H     1 <1>   0.0800 
 42 H       -5.2870    -9.1100    -0.9270 H     1 <1>   0.0800 
 43 H       -4.5800    -7.7320    -1.7270 H     1 <1>   0.0800 
 44 H       -4.7020   -10.4950     2.5830 H     1 <1>   0.0800 
 45 H       -3.1070    -9.8230     2.5530 H     1 <1>   0.0800 
 46 H       -6.6920    -7.6450     0.1440 H     1 <1>   0.4000 
@<TRIPOS>BOND
  1   1   2  1   
  2   2   3  ar  
  3   2   4  ar  
  4   3   5  ar  
  5   3  23  1   
  6   4   6  ar  
  7   4  24  1   
  8   5   7  ar  
  9   5  25  1   
 10   6   7  ar  
 11   6  26  1   
 12   7   8  1   
 13   8   9  2   
 14   8  10  am  
 15  10  11  1   
 16  10  12  1   
 17  11  13  1   
 18  11  27  1   
 19  11  28  1   
 20  12  14  1   
 21  12  29  1   
 22  12  30  1   
 23  13  15  1   
 24  13  16  1   
 25  13  31  1   
 26  14  16  1   
 27  14  32  1   
 28  14  33  1   
 29  15  17  1   
 30  15  18  1   
 31  15  34  1   
 32  16  19  1   
 33  16  20  1   
 34  17  21  1   
 35  17  35  1   
 36  17  36  1   
 37  18  37  1   
 38  18  38  1   
 39  18  39  1   
 40  19  21  1   
 41  19  40  1   
 42  19  41  1   
 43  20  22  1   
 44  20  42  1   
 45  20  43  1   
 46  21  44  1   
 47  21  45  1   
 48  22  46  1   
@<TRIPOS>SUBSTRUCTURE
  1 ****  10 GROUP 4 **** **** 0

# MOE 2024.06 (io_trps.svl 2023.06)
