@<TRIPOS>MOLECULE
NONAME
54 56 1 0 0 
SMALL
USER_CHARGES


@<TRIPOS>ATOM
  1 S       -0.0720     0.2950     1.6730 S.o2  1 <1>   1.4470 
  2 O        0.1300    -1.1170     1.9200 O.2   1 <1>  -0.6500 
  3 O       -0.1240     1.1840     2.8160 O.2   1 <1>  -0.6500 
  4 N       -1.5330     0.4350     0.8290 N.am  1 <1>  -0.8490 
  5 C        1.1830     0.8730     0.5000 C.ar  1 <1>  -0.0090 
  6 C       -1.6170    -0.4540    -0.3600 C.3   1 <1>   0.1960 
  7 C       -2.6910     0.3350     1.7370 C.3   1 <1>   0.1960 
  8 C        1.2100     2.1870     0.0400 C.ar  1 <1>   0.0820 
  9 C        2.1560     0.0040     0.0200 C.ar  1 <1>  -0.1500 
 10 C       -2.6460    -1.5790    -0.1860 C.3   1 <1>   0.2000 
 11 C       -3.9850     0.2630     0.9250 C.3   1 <1>  -0.1600 
 12 O        0.2850     3.0770     0.4520 O.3   1 <1>  -0.3630 
 13 C        2.1670     2.6100    -0.8710 C.ar  1 <1>  -0.1500 
 14 C        3.1200     0.4130    -0.8870 C.ar  1 <1>   0.0820 
 15 O       -2.6420    -2.4260    -1.2840 O.3   1 <1>  -0.6800 
 16 C       -4.0750    -1.0400     0.0680 C.3   1 <1>  -0.1060 
 17 C        0.6920     3.9920     1.4450 C.3   1 <1>   0.0400 
 18 C        3.1240     1.7290    -1.3350 C.ar  1 <1>  -0.1500 
 19 O        4.0140    -0.5250    -1.2870 O.3   1 <1>  -0.3620 
 20 C       -4.7540    -2.2060     0.7910 C.2   1 <1>   0.9060 
 21 C       -4.8370    -0.7160    -1.2530 C.3   1 <1>  -0.0160 
 22 C        5.0210    -0.2210    -2.2270 C.3   1 <1>   0.0400 
 23 O       -5.0580    -2.1160     1.9850 O.co2 1 <1>  -0.9000 
 24 O       -4.9120    -3.2610     0.1570 O.co2 1 <1>  -0.9000 
 25 C       -6.1550     0.0340    -1.0610 C.ar  1 <1>  -0.1440 
 26 C       -7.2490    -0.6040    -0.4990 C.ar  1 <1>  -0.1500 
 27 C       -6.2750     1.3600    -1.4550 C.ar  1 <1>  -0.1500 
 28 C       -8.4450     0.0720    -0.3270 C.ar  1 <1>  -0.1500 
 29 C       -7.4700     2.0380    -1.2860 C.ar  1 <1>  -0.1500 
 30 C       -8.5570     1.3940    -0.7200 C.ar  1 <1>  -0.1500 
 31 H       -1.9080     0.1440    -1.2050 H     1 <1>   0.0800 
 32 H       -0.6590    -0.8930    -0.5790 H     1 <1>   0.0800 
 33 H       -2.6100    -0.5420     2.3600 H     1 <1>   0.0800 
 34 H       -2.7150     1.1990     2.3790 H     1 <1>   0.0800 
 35 H        2.1690    -1.0200     0.3520 H     1 <1>   0.1500 
 36 H       -2.3280    -2.1770     0.6540 H     1 <1>   0.0800 
 37 H       -4.8320     0.3280     1.5860 H     1 <1>   0.0800 
 38 H       -4.0120     1.1360     0.2980 H     1 <1>   0.0800 
 39 H        2.1530     3.6290    -1.2160 H     1 <1>   0.1500 
 40 H       -3.3710    -3.0790    -1.1090 H     1 <1>   0.4000 
 41 H       -0.1610     4.5820     1.7260 H     1 <1>   0.0800 
 42 H        1.4650     4.6230     1.0460 H     1 <1>   0.0800 
 43 H        1.0540     3.4460     2.2990 H     1 <1>   0.0800 
 44 H        3.8540     2.0800    -2.0390 H     1 <1>   0.1500 
 45 H       -4.1960    -0.1320    -1.8880 H     1 <1>   0.0800 
 46 H       -5.0510    -1.6250    -1.7880 H     1 <1>   0.0800 
 47 H        5.5990    -1.1120    -2.3960 H     1 <1>   0.0800 
 48 H        5.6520     0.5520    -1.8250 H     1 <1>   0.0800 
 49 H        4.5590     0.0940    -3.1450 H     1 <1>   0.0800 
 50 H       -7.1710    -1.6330    -0.1880 H     1 <1>   0.1500 
 51 H       -5.4350     1.8680    -1.8920 H     1 <1>   0.1500 
 52 H       -9.2810    -0.4370     0.1170 H     1 <1>   0.1500 
 53 H       -7.5530     3.0650    -1.5930 H     1 <1>   0.1500 
 54 H       -9.4850     1.9180    -0.5850 H     1 <1>   0.1500 
@<TRIPOS>BOND
  1   1   2  2   
  2   1   3  2   
  3   1   4  am  
  4   1   5  1   
  5   4   6  1   
  6   4   7  1   
  7   5   8  ar  
  8   5   9  ar  
  9   6  10  1   
 10   6  31  1   
 11   6  32  1   
 12   7  11  1   
 13   7  33  1   
 14   7  34  1   
 15   8  12  1   
 16   8  13  ar  
 17   9  14  ar  
 18   9  35  1   
 19  10  15  1   
 20  10  16  1   
 21  10  36  1   
 22  11  16  1   
 23  11  37  1   
 24  11  38  1   
 25  12  17  1   
 26  13  18  ar  
 27  13  39  1   
 28  14  18  ar  
 29  14  19  1   
 30  15  40  1   
 31  16  20  1   
 32  16  21  1   
 33  17  41  1   
 34  17  42  1   
 35  17  43  1   
 36  18  44  1   
 37  19  22  1   
 38  20  23  ar  
 39  20  24  ar  
 40  21  25  1   
 41  21  45  1   
 42  21  46  1   
 43  22  47  1   
 44  22  48  1   
 45  22  49  1   
 46  25  26  ar  
 47  25  27  ar  
 48  26  28  ar  
 49  26  50  1   
 50  27  29  ar  
 51  27  51  1   
 52  28  30  ar  
 53  28  52  1   
 54  29  30  ar  
 55  29  53  1   
 56  30  54  1   
@<TRIPOS>SUBSTRUCTURE
  1 ****   6 GROUP 4 **** **** 0

# MOE 2024.06 (io_trps.svl 2023.06)
