@<TRIPOS>MOLECULE
NONAME
47 48 1 0 0 
SMALL
USER_CHARGES


@<TRIPOS>ATOM
  1 S       -0.2660     0.3790     0.0750 S.o2  1 <1>   1.3330 
  2 O       -0.7070     0.0840     1.4200 O.2   1 <1>  -0.6500 
  3 O       -0.6280     1.6400    -0.5320 O.2   1 <1>  -0.6500 
  4 N       -0.8260    -0.8690    -0.9310 N.am  1 <1>  -0.8490 
  5 C        1.5140     0.2020    -0.0470 C.3   1 <1>  -0.0550 
  6 C       -0.8890    -2.1730    -0.2610 C.3   1 <1>   0.1160 
  7 C       -2.1250    -0.5570    -1.5350 C.3   1 <1>   0.1160 
  8 C        2.3030     1.2720     0.7350 C.3   1 <1>  -0.0800 
  9 C        3.7850     1.1980     0.4070 C.3   1 <1>   0.2200 
 10 C        2.3170     0.9880     2.2360 C.3   1 <1>   0.1200 
 11 N        4.4080     2.5120     0.6720 N.am  1 <1>  -0.7300 
 12 C        4.2990     0.1600     1.4050 C.3   1 <1>   0.1200 
 13 O        3.3580     0.0820     2.4370 O.3   1 <1>  -0.5600 
 14 C        4.9090     3.3800    -0.2540 C.2   1 <1>   0.7160 
 15 O        4.8510     3.0550    -1.4290 O.2   1 <1>  -0.5700 
 16 C        5.4830     4.6400     0.2070 C.2   1 <1>   0.2030 
 17 N        5.5990     4.9630     1.4860 N.2   1 <1>  -0.7070 
 18 C        5.9880     5.6820    -0.5970 C.2   1 <1>  -0.1810 
 19 N        6.1650     6.1750     1.4980 N.pl3 1 <1>   0.3000 
 20 C        6.4150     6.6360     0.2570 C.2   1 <1>  -0.3320 
 21 C        6.0250     5.6990    -2.1170 C.3   1 <1>  -0.0590 
 22 C        7.0590     7.9890     0.0050 C.3   1 <1>   0.0200 
 23 C        6.0750     9.1150     0.3210 C.3   1 <1>  -0.2400 
 24 H        1.8020    -0.7730     0.2940 H     1 <1>   0.0800 
 25 H        1.7780     0.2770    -1.0840 H     1 <1>   0.0800 
 26 H       -1.1580    -2.9390    -0.9670 H     1 <1>   0.0800 
 27 H       -1.6200    -2.1540     0.5310 H     1 <1>   0.0800 
 28 H        0.0690    -2.4220     0.1620 H     1 <1>   0.0800 
 29 H       -2.4420    -1.3610    -2.1760 H     1 <1>   0.0800 
 30 H       -2.0490     0.3380    -2.1310 H     1 <1>   0.0800 
 31 H       -2.8650    -0.3990    -0.7680 H     1 <1>   0.0800 
 32 H        1.8980     2.2460     0.5150 H     1 <1>   0.0800 
 33 H        3.9760     0.8990    -0.6100 H     1 <1>   0.0800 
 34 H        1.4030     0.5640     2.6130 H     1 <1>   0.0800 
 35 H        2.5500     1.8810     2.7910 H     1 <1>   0.0800 
 36 H        4.4860     2.8160     1.6470 H     1 <1>   0.3700 
 37 H        5.2580     0.4270     1.8160 H     1 <1>   0.0800 
 38 H        4.3570    -0.8110     0.9480 H     1 <1>   0.0800 
 39 H        6.3730     6.6770     2.3690 H     1 <1>   0.2700 
 40 H        6.6660     4.9140    -2.4760 H     1 <1>   0.0800 
 41 H        6.3880     6.6380    -2.4880 H     1 <1>   0.0800 
 42 H        5.0350     5.5410    -2.5070 H     1 <1>   0.0800 
 43 H        7.9410     8.0900     0.6130 H     1 <1>   0.0800 
 44 H        7.3660     8.0660    -1.0230 H     1 <1>   0.0800 
 45 H        5.7880     9.0900     1.3560 H     1 <1>   0.0800 
 46 H        5.1910     9.0090    -0.2850 H     1 <1>   0.0800 
 47 H        6.5250    10.0680     0.1100 H     1 <1>   0.0800 
@<TRIPOS>BOND
  1   1   2  2   
  2   1   3  2   
  3   1   4  am  
  4   1   5  1   
  5   4   6  1   
  6   4   7  1   
  7   5   8  1   
  8   5  24  1   
  9   5  25  1   
 10   6  26  1   
 11   6  27  1   
 12   6  28  1   
 13   7  29  1   
 14   7  30  1   
 15   7  31  1   
 16   8   9  1   
 17   8  10  1   
 18   8  32  1   
 19   9  11  1   
 20   9  12  1   
 21   9  33  1   
 22  10  13  1   
 23  10  34  1   
 24  10  35  1   
 25  11  14  am  
 26  11  36  1   
 27  12  13  1   
 28  12  37  1   
 29  12  38  1   
 30  14  15  2   
 31  14  16  1   
 32  16  17  2   
 33  16  18  1   
 34  17  19  1   
 35  18  20  2   
 36  18  21  1   
 37  19  20  1   
 38  19  39  1   
 39  20  22  1   
 40  21  40  1   
 41  21  41  1   
 42  21  42  1   
 43  22  23  1   
 44  22  43  1   
 45  22  44  1   
 46  23  45  1   
 47  23  46  1   
 48  23  47  1   
@<TRIPOS>SUBSTRUCTURE
  1 ****  11 GROUP 4 **** **** 0

# MOE 2024.06 (io_trps.svl 2023.06)
