@<TRIPOS>MOLECULE
NONAME
49 52 1 0 0 
SMALL
USER_CHARGES


@<TRIPOS>ATOM
  1 S       -1.5430     1.4990     0.3280 S.3   1 <1>  -0.0800 
  2 C       -0.5690     2.9650     0.4490 C.ar  1 <1>   0.2970 
  3 C       -0.4080     0.7780    -0.8150 C.2   1 <1>  -0.1100 
  4 N       -0.9050     3.9970     1.1920 N.ar  1 <1>  -0.5670 
  5 C        0.5520     2.8600    -0.3350 C.ar  1 <1>   0.0000 
  6 C        0.6180     1.6140    -1.0550 C.2   1 <1>  -0.1500 
  7 C       -0.0320     4.9820     1.1150 C.ar  1 <1>   0.4770 
  8 C        1.4010     3.9660    -0.3020 C.ar  1 <1>   0.4100 
  9 N        1.0930     5.0340     0.4160 N.ar  1 <1>  -0.6200 
 10 C       -0.3440     6.2160     1.9280 C.3   1 <1>  -0.0960 
 11 N        2.5910     3.9930    -0.9980 N.pl3 1 <1>  -0.8380 
 12 C        3.0780     5.2620    -1.6130 C.3   1 <1>   0.2090 
 13 C        3.6580     3.0060    -0.6920 C.3   1 <1>   0.2090 
 14 C        4.1060     5.9290    -0.6900 C.3   1 <1>  -0.0190 
 15 C        4.7140     3.6490     0.2160 C.3   1 <1>  -0.1600 
 16 C        4.6130     7.2180    -1.3190 C.2   1 <1>   0.4480 
 17 C        5.2610     4.9620    -0.3690 C.3   1 <1>  -0.1600 
 18 O        4.8610     7.2910    -2.4860 O.2   1 <1>  -0.5700 
 19 C        4.7910     8.4000    -0.3780 C.3   1 <1>  -0.0990 
 20 C        5.3030     9.6640    -1.0810 C.3   1 <1>  -0.0170 
 21 C        5.4400    10.7990    -0.0800 C.ar  1 <1>  -0.1430 
 22 C        4.3670    11.6390     0.1760 C.ar  1 <1>  -0.1500 
 23 C        6.6370    11.0010     0.5910 C.ar  1 <1>  -0.1500 
 24 C        4.4880    12.6680     1.0930 C.ar  1 <1>  -0.1500 
 25 C        6.7590    12.0300     1.5080 C.ar  1 <1>  -0.1500 
 26 C        5.6840    12.8640     1.7600 C.ar  1 <1>  -0.1500 
 27 H       -0.6450    -0.2030    -1.1870 H     1 <1>   0.1500 
 28 H        1.4390     1.4230    -1.7220 H     1 <1>   0.1500 
 29 H       -1.2680     6.0950     2.4630 H     1 <1>   0.0800 
 30 H       -0.4270     7.0630     1.2730 H     1 <1>   0.0800 
 31 H        0.4480     6.3890     2.6320 H     1 <1>   0.0800 
 32 H        2.2490     5.9280    -1.7830 H     1 <1>   0.0800 
 33 H        3.5260     5.0410    -2.5670 H     1 <1>   0.0800 
 34 H        4.1110     2.6810    -1.6130 H     1 <1>   0.0800 
 35 H        3.2400     2.1460    -0.1970 H     1 <1>   0.0800 
 36 H        3.5980     6.1780     0.2240 H     1 <1>   0.0800 
 37 H        5.5220     2.9550     0.3660 H     1 <1>   0.0800 
 38 H        4.2650     3.8410     1.1750 H     1 <1>   0.0800 
 39 H        5.9370     5.4160     0.3340 H     1 <1>   0.0800 
 40 H        5.8090     4.7510    -1.2720 H     1 <1>   0.0800 
 41 H        5.4840     8.1240     0.3960 H     1 <1>   0.0800 
 42 H        3.8450     8.6180     0.0830 H     1 <1>   0.0800 
 43 H        4.6200     9.9490    -1.8630 H     1 <1>   0.0800 
 44 H        6.2560     9.4650    -1.5410 H     1 <1>   0.0800 
 45 H        3.4330    11.4950    -0.3380 H     1 <1>   0.1500 
 46 H        7.4780    10.3580     0.4020 H     1 <1>   0.1500 
 47 H        3.6520    13.3170     1.2870 H     1 <1>   0.1500 
 48 H        7.6900    12.1820     2.0250 H     1 <1>   0.1500 
 49 H        5.7790    13.6650     2.4730 H     1 <1>   0.1500 
@<TRIPOS>BOND
  1   1   2  1   
  2   1   3  1   
  3   2   4  ar  
  4   2   5  ar  
  5   3   6  2   
  6   3  27  1   
  7   4   7  ar  
  8   5   6  1   
  9   5   8  ar  
 10   6  28  1   
 11   7   9  ar  
 12   7  10  1   
 13   8   9  ar  
 14   8  11  1   
 15  10  29  1   
 16  10  30  1   
 17  10  31  1   
 18  11  12  1   
 19  11  13  1   
 20  12  14  1   
 21  12  32  1   
 22  12  33  1   
 23  13  15  1   
 24  13  34  1   
 25  13  35  1   
 26  14  16  1   
 27  14  17  1   
 28  14  36  1   
 29  15  17  1   
 30  15  37  1   
 31  15  38  1   
 32  16  18  2   
 33  16  19  1   
 34  17  39  1   
 35  17  40  1   
 36  19  20  1   
 37  19  41  1   
 38  19  42  1   
 39  20  21  1   
 40  20  43  1   
 41  20  44  1   
 42  21  22  ar  
 43  21  23  ar  
 44  22  24  ar  
 45  22  45  1   
 46  23  25  ar  
 47  23  46  1   
 48  24  26  ar  
 49  24  47  1   
 50  25  26  ar  
 51  25  48  1   
 52  26  49  1   
@<TRIPOS>SUBSTRUCTURE
  1 ****  14 GROUP 4 **** **** 0

# MOE 2024.06 (io_trps.svl 2023.06)
