@<TRIPOS>MOLECULE
Untitled Document
54 56 1 0 0 
SMALL
USER_CHARGES


@<TRIPOS>ATOM
  1 O       -0.3030     1.7590    -0.4940 O.2   1 <1>  -0.5700 
  2 C        0.0470     2.9190    -0.4460 C.2   1 <1>   0.6160 
  3 N       -0.8890     3.9130    -0.4450 N.am  1 <1>  -0.7300 
  4 C        1.4490     3.2450    -0.3520 C.2   1 <1>   0.0140 
  5 C       -2.3570     3.7250    -0.5360 C.3   1 <1>   0.1400 
  6 C        2.3330     2.3920     0.2590 C.2   1 <1>   0.2290 
  7 C        1.9350     4.4770    -0.8530 C.2   1 <1>  -0.1500 
  8 C       -2.8800     4.3610    -1.8250 C.3   1 <1>   0.1200 
  9 N        3.6570     2.7450     0.4370 N.pl3 1 <1>  -0.6290 
 10 C        3.2250     4.8860    -0.6270 C.2   1 <1>   0.1090 
 11 O       -4.2630     4.2730    -1.8530 O.3   1 <1>  -0.6800 
 12 C        4.0960     3.9560     0.0200 C.cat 1 <1>   0.7910 
 13 C        4.7400     2.0970     0.9990 C.2   1 <1>   0.1820 
 14 N        3.6210     6.1820    -1.0080 N.pl3 1 <1>  -0.8690 
 15 N        5.3980     4.0720     0.3140 N.pl3 1 <1>  -0.7000 
 16 C        5.8110     2.9210     0.9190 C.2   1 <1>   0.1820 
 17 C        4.6110     0.6960     1.5710 C.3   1 <1>  -0.0720 
 18 C        3.1890     7.3090    -0.1210 C.3   1 <1>   0.3530 
 19 C        7.2510     2.7510     1.3630 C.3   1 <1>  -0.0720 
 20 C        1.6590     7.3410    -0.0110 C.ar  1 <1>  -0.1430 
 21 C        0.8910     7.8290    -1.0710 C.ar  1 <1>  -0.1430 
 22 C        1.0160     6.8540     1.1310 C.ar  1 <1>  -0.1430 
 23 C       -0.4920     7.7980    -0.9910 C.ar  1 <1>  -0.1500 
 24 C        1.5110     8.4080    -2.3380 C.3   1 <1>  -0.0970 
 25 C       -0.3680     6.8370     1.1900 C.ar  1 <1>  -0.1500 
 26 C        1.7760     6.3340     2.3470 C.3   1 <1>  -0.0970 
 27 C       -1.1220     7.3020     0.1320 C.ar  1 <1>  -0.1500 
 28 H       -0.5890     4.8840    -0.2880 H     1 <1>   0.3700 
 29 H       -2.8220     4.1950     0.3140 H     1 <1>   0.0800 
 30 H       -2.5950     2.6750    -0.5270 H     1 <1>   0.0800 
 31 H        2.0060     1.4320     0.6290 H     1 <1>   0.1500 
 32 H        1.2570     5.1120    -1.3960 H     1 <1>   0.1500 
 33 H       -2.4890     3.8560    -2.6910 H     1 <1>   0.0800 
 34 H       -2.6210     5.4050    -1.8620 H     1 <1>   0.0800 
 35 H       -4.5500     3.3440    -1.9560 H     1 <1>   0.4000 
 36 H        3.2840     6.4180    -1.9500 H     1 <1>   0.4000 
 37 H        5.9360     4.9050     0.0620 H     1 <1>   0.4500 
 38 H        3.8890     0.6900     2.3680 H     1 <1>   0.0800 
 39 H        5.5510     0.3510     1.9590 H     1 <1>   0.0800 
 40 H        4.2890     0.0160     0.8030 H     1 <1>   0.0800 
 41 H        3.5440     8.2390    -0.5300 H     1 <1>   0.0800 
 42 H        3.6510     7.2010     0.8430 H     1 <1>   0.0800 
 43 H        7.4020     1.7900     1.8190 H     1 <1>   0.0800 
 44 H        7.5080     3.5120     2.0780 H     1 <1>   0.0800 
 45 H        7.9080     2.8340     0.5160 H     1 <1>   0.0800 
 46 H       -1.0960     8.1690    -1.8020 H     1 <1>   0.1500 
 47 H        2.0290     7.6460    -2.8900 H     1 <1>   0.0800 
 48 H        2.1970     9.1990    -2.0930 H     1 <1>   0.0800 
 49 H        0.7550     8.8240    -2.9800 H     1 <1>   0.0800 
 50 H       -0.8750     6.4690     2.0660 H     1 <1>   0.1500 
 51 H        2.4420     5.5390     2.0710 H     1 <1>   0.0800 
 52 H        1.1000     5.9540     3.0930 H     1 <1>   0.0800 
 53 H        2.3410     7.1320     2.7940 H     1 <1>   0.0800 
 54 H       -2.1980     7.2910     0.1870 H     1 <1>   0.1500 
@<TRIPOS>BOND
  1   1   2  2   
  2   2   3  am  
  3   2   4  1   
  4   3   5  1   
  5   3  28  1   
  6   4   6  2   
  7   4   7  1   
  8   5   8  1   
  9   5  29  1   
 10   5  30  1   
 11   6   9  1   
 12   6  31  1   
 13   7  10  2   
 14   7  32  1   
 15   8  11  1   
 16   8  33  1   
 17   8  34  1   
 18   9  12  ar  
 19   9  13  1   
 20  10  12  1   
 21  10  14  1   
 22  11  35  1   
 23  12  15  ar  
 24  13  16  2   
 25  13  17  1   
 26  14  18  1   
 27  14  36  1   
 28  15  16  1   
 29  15  37  1   
 30  16  19  1   
 31  17  38  1   
 32  17  39  1   
 33  17  40  1   
 34  18  20  1   
 35  18  41  1   
 36  18  42  1   
 37  19  43  1   
 38  19  44  1   
 39  19  45  1   
 40  20  21  ar  
 41  20  22  ar  
 42  21  23  ar  
 43  21  24  1   
 44  22  25  ar  
 45  22  26  1   
 46  23  27  ar  
 47  23  46  1   
 48  24  47  1   
 49  24  48  1   
 50  24  49  1   
 51  25  27  ar  
 52  25  50  1   
 53  26  51  1   
 54  26  52  1   
 55  26  53  1   
 56  27  54  1   
@<TRIPOS>SUBSTRUCTURE
  1 ****   7 GROUP 4 **** **** 0

# MOE 2024.06 (io_trps.svl 2023.06)
