@<TRIPOS>MOLECULE
NONAME
61 64 1 0 0 
SMALL
USER_CHARGES


@<TRIPOS>ATOM
  1 O        1.2470    -1.7820    -2.2800 O.3   1 <1>  -0.6800 
  2 C        0.5580    -2.1280    -1.1250 C.3   1 <1>   0.1200 
  3 C        1.4090    -1.8730     0.1530 C.3   1 <1>   0.0000 
  4 C        2.8550    -2.4440     0.0710 C.3   1 <1>   0.4230 
  5 C        1.4860    -0.3450     0.4220 C.3   1 <1>  -0.1600 
  6 C        0.6860    -2.5400     1.3580 C.3   1 <1>  -0.1600 
  7 N        2.8970    -3.9550    -0.1560 N.4   1 <1>  -0.9590 
  8 C        3.7790    -1.5940    -0.8630 C.3   1 <1>   0.3430 
  9 C        2.3470     0.4250    -0.5830 C.3   1 <1>   0.3430 
 10 C        1.2300    -3.9400     1.7140 C.3   1 <1>  -0.1600 
 11 C        1.7640    -4.6990     0.4980 C.3   1 <1>   0.3430 
 12 C        2.9860    -4.3860    -1.5940 C.3   1 <1>   0.2630 
 13 N        3.7470    -0.1090    -0.5730 N.4   1 <1>  -0.9590 
 14 C        4.6080     0.6510    -1.5370 C.3   1 <1>   0.4860 
 15 C        4.7330     2.0800    -1.0620 C.ar  1 <1>  -0.1430 
 16 C        4.0100     3.0980    -1.6440 C.ar  1 <1>   0.1600 
 17 C        5.5640     2.4250    -0.0200 C.ar  1 <1>   0.1600 
 18 N        4.0660     4.3280    -1.2040 N.ar  1 <1>  -0.6200 
 19 N        5.6370     3.6470     0.4360 N.ar  1 <1>  -0.6200 
 20 C        4.8710     4.5430    -0.1760 C.ar  1 <1>   0.7200 
 21 N        4.8850     5.8100     0.2740 N.pl3 1 <1>  -0.8690 
 22 C        6.0320     6.4170     0.9650 C.3   1 <1>   0.3530 
 23 C        6.1410     7.8610     0.5080 C.ar  1 <1>  -0.1430 
 24 C        6.8280     8.1740    -0.6550 C.ar  1 <1>  -0.1500 
 25 C        5.5510     8.8780     1.2440 C.ar  1 <1>  -0.1500 
 26 C        6.9290     9.4880    -1.0760 C.ar  1 <1>  -0.1500 
 27 C        5.6520    10.1930     0.8240 C.ar  1 <1>  -0.1500 
 28 C        6.3420    10.4990    -0.3350 C.ar  1 <1>  -0.1500 
 29 H        0.6390    -1.8080    -3.0560 H     1 <1>   0.4000 
 30 H       -0.3500    -1.5460    -1.0940 H     1 <1>   0.0800 
 31 H        0.2780    -3.1630    -1.2130 H     1 <1>   0.0800 
 32 H        3.2580    -2.2920     1.0580 H     1 <1>   0.0800 
 33 H        1.8800    -0.1530     1.4060 H     1 <1>   0.0800 
 34 H        0.4930     0.0730     0.4050 H     1 <1>   0.0800 
 35 H        0.7700    -1.9340     2.2450 H     1 <1>   0.0800 
 36 H       -0.3710    -2.6130     1.1540 H     1 <1>   0.0800 
 37 H        3.7470    -4.3070     0.3130 H     1 <1>   0.4500 
 38 H        3.4740    -1.7510    -1.8830 H     1 <1>   0.0800 
 39 H        4.7910    -1.9510    -0.7600 H     1 <1>   0.0800 
 40 H        2.3470     1.4720    -0.3150 H     1 <1>   0.0800 
 41 H        1.9220     0.3360    -1.5710 H     1 <1>   0.0800 
 42 H        0.4420    -4.5170     2.1690 H     1 <1>   0.0800 
 43 H        2.0140    -3.8580     2.4470 H     1 <1>   0.0800 
 44 H        0.9560    -4.8280    -0.2050 H     1 <1>   0.0800 
 45 H        2.0930    -5.6820     0.7990 H     1 <1>   0.0800 
 46 H        2.1240    -4.0460    -2.1450 H     1 <1>   0.0800 
 47 H        3.0260    -5.4620    -1.6590 H     1 <1>   0.0800 
 48 H        3.8720    -3.9890    -2.0600 H     1 <1>   0.0800 
 49 H        4.1270     0.0790     0.3660 H     1 <1>   0.4500 
 50 H        5.5910     0.2100    -1.5870 H     1 <1>   0.0800 
 51 H        4.1750     0.6270    -2.5240 H     1 <1>   0.0800 
 52 H        3.3620     2.9120    -2.4850 H     1 <1>   0.1500 
 53 H        6.1860     1.6900     0.4640 H     1 <1>   0.1500 
 54 H        4.3990     6.4630    -0.3400 H     1 <1>   0.4000 
 55 H        5.8760     6.3680     2.0280 H     1 <1>   0.0800 
 56 H        6.9390     5.8870     0.7270 H     1 <1>   0.0800 
 57 H        7.2830     7.3930    -1.2400 H     1 <1>   0.1500 
 58 H        5.0080     8.6490     2.1440 H     1 <1>   0.1500 
 59 H        7.4640     9.7240    -1.9800 H     1 <1>   0.1500 
 60 H        5.1930    10.9780     1.4000 H     1 <1>   0.1500 
 61 H        6.4210    11.5210    -0.6620 H     1 <1>   0.1500 
@<TRIPOS>BOND
  1   1   2  1   
  2   1  29  1   
  3   2   3  1   
  4   2  30  1   
  5   2  31  1   
  6   3   4  1   
  7   3   5  1   
  8   3   6  1   
  9   4   7  1   
 10   4   8  1   
 11   4  32  1   
 12   5   9  1   
 13   5  33  1   
 14   5  34  1   
 15   6  10  1   
 16   6  35  1   
 17   6  36  1   
 18   7  11  1   
 19   7  12  1   
 20   7  37  1   
 21   8  13  1   
 22   8  38  1   
 23   8  39  1   
 24   9  13  1   
 25   9  40  1   
 26   9  41  1   
 27  10  11  1   
 28  10  42  1   
 29  10  43  1   
 30  11  44  1   
 31  11  45  1   
 32  12  46  1   
 33  12  47  1   
 34  12  48  1   
 35  13  14  1   
 36  13  49  1   
 37  14  15  1   
 38  14  50  1   
 39  14  51  1   
 40  15  16  ar  
 41  15  17  ar  
 42  16  18  ar  
 43  16  52  1   
 44  17  19  ar  
 45  17  53  1   
 46  18  20  ar  
 47  19  20  ar  
 48  20  21  1   
 49  21  22  1   
 50  21  54  1   
 51  22  23  1   
 52  22  55  1   
 53  22  56  1   
 54  23  24  ar  
 55  23  25  ar  
 56  24  26  ar  
 57  24  57  1   
 58  25  27  ar  
 59  25  58  1   
 60  26  28  ar  
 61  26  59  1   
 62  27  28  ar  
 63  27  60  1   
 64  28  61  1   
@<TRIPOS>SUBSTRUCTURE
  1 ****  15 GROUP 4 **** **** 0

# MOE 2024.06 (io_trps.svl 2023.06)
