@<TRIPOS>MOLECULE
NONAME
56 58 1 0 0 
SMALL
USER_CHARGES


@<TRIPOS>ATOM
  1 O        1.2640     0.5230     0.6060 O.3   1 <1>  -0.2800 
  2 C        1.2690    -0.7530     0.3920 C.2   1 <1>   0.2980 
  3 C        0.9800     1.0290    -0.5500 C.2   1 <1>   0.2980 
  4 N        1.0020    -1.0370    -0.8280 N.2   1 <1>  -0.3380 
  5 C        1.5770    -1.7040     1.5490 C.3   1 <1>   0.1000 
  6 N        0.8110     0.1300    -1.4450 N.2   1 <1>  -0.3380 
  7 C        0.8860     2.5390    -0.7370 C.3   1 <1>   0.2900 
  8 C        1.7860    -3.1510     1.0770 C.3   1 <1>  -0.2400 
  9 C        0.4610    -1.6550     2.6020 C.3   1 <1>  -0.2400 
 10 N        2.1970     3.2330    -0.6050 N.3   1 <1>  -0.8100 
 11 C        2.0290     4.6830    -0.6330 C.3   1 <1>   0.1100 
 12 C        3.1510     2.7770    -1.6190 C.3   1 <1>   0.1100 
 13 C        3.3560     5.3340    -0.2510 C.3   1 <1>  -0.1600 
 14 C        4.5270     3.3430    -1.2820 C.3   1 <1>  -0.1600 
 15 C        4.4980     4.8740    -1.1700 C.3   1 <1>   0.4230 
 16 N        5.8080     5.3660    -0.6440 N.4   1 <1>  -0.9590 
 17 C        5.8940     6.8470    -0.3960 C.3   1 <1>   0.3430 
 18 C        7.0170     4.9220    -1.4220 C.3   1 <1>   0.3430 
 19 C        7.1940     7.2150     0.3620 C.3   1 <1>   0.1100 
 20 C        8.3340     5.3870    -0.7520 C.3   1 <1>   0.1100 
 21 N        8.0960     6.0500     0.5500 N.3   1 <1>  -0.8100 
 22 C        9.3750     6.4320     1.1870 C.3   1 <1>   0.1100 
 23 C        9.1930     6.7610     2.6740 C.3   1 <1>   0.1200 
 24 O       10.4260     7.0800     3.2210 O.3   1 <1>  -0.6800 
 25 H        2.4910    -1.3660     2.0060 H     1 <1>   0.0800 
 26 H        0.2070     2.9170     0.0070 H     1 <1>   0.0800 
 27 H        0.4660     2.7400    -1.7070 H     1 <1>   0.0800 
 28 H        0.8900    -3.5290     0.6170 H     1 <1>   0.0800 
 29 H        2.0450    -3.7840     1.9060 H     1 <1>   0.0800 
 30 H        2.5820    -3.1910     0.3540 H     1 <1>   0.0800 
 31 H       -0.4720    -1.9700     2.1690 H     1 <1>   0.0800 
 32 H        0.3450    -0.6520     2.9720 H     1 <1>   0.0800 
 33 H        0.6960    -2.2990     3.4300 H     1 <1>   0.0800 
 34 H        1.2760     4.9740     0.0820 H     1 <1>   0.0800 
 35 H        1.7110     5.0030    -1.6130 H     1 <1>   0.0800 
 36 H        2.8330     3.0920    -2.6000 H     1 <1>   0.0800 
 37 H        3.2140     1.7000    -1.6150 H     1 <1>   0.0800 
 38 H        3.5730     5.0710     0.7700 H     1 <1>   0.0800 
 39 H        3.2220     6.3970    -0.3160 H     1 <1>   0.0800 
 40 H        5.2000     3.0310    -2.0580 H     1 <1>   0.0800 
 41 H        4.8440     2.9080    -0.3500 H     1 <1>   0.0800 
 42 H        4.3280     5.2830    -2.1530 H     1 <1>   0.0800 
 43 H        5.9550     4.9530     0.2900 H     1 <1>   0.4500 
 44 H        5.0570     7.1790     0.1940 H     1 <1>   0.0800 
 45 H        5.8670     7.3770    -1.3330 H     1 <1>   0.0800 
 46 H        6.9740     5.3070    -2.4270 H     1 <1>   0.0800 
 47 H        7.0380     3.8470    -1.4850 H     1 <1>   0.0800 
 48 H        6.9200     7.6160     1.3230 H     1 <1>   0.0800 
 49 H        7.7050     7.9950    -0.1770 H     1 <1>   0.0800 
 50 H        8.8510     6.0600    -1.4160 H     1 <1>   0.0800 
 51 H        8.9670     4.5270    -0.6080 H     1 <1>   0.0800 
 52 H        9.8020     7.2810     0.6790 H     1 <1>   0.0800 
 53 H       10.0630     5.6070     1.1140 H     1 <1>   0.0800 
 54 H        8.7900     5.9200     3.2110 H     1 <1>   0.0800 
 55 H        8.5570     7.6180     2.8060 H     1 <1>   0.0800 
 56 H       10.9860     6.2840     3.3170 H     1 <1>   0.4000 
@<TRIPOS>BOND
  1   1   2  1   
  2   1   3  1   
  3   2   4  2   
  4   2   5  1   
  5   3   6  2   
  6   3   7  1   
  7   4   6  1   
  8   5   8  1   
  9   5   9  1   
 10   5  25  1   
 11   7  10  1   
 12   7  26  1   
 13   7  27  1   
 14   8  28  1   
 15   8  29  1   
 16   8  30  1   
 17   9  31  1   
 18   9  32  1   
 19   9  33  1   
 20  10  11  1   
 21  10  12  1   
 22  11  13  1   
 23  11  34  1   
 24  11  35  1   
 25  12  14  1   
 26  12  36  1   
 27  12  37  1   
 28  13  15  1   
 29  13  38  1   
 30  13  39  1   
 31  14  15  1   
 32  14  40  1   
 33  14  41  1   
 34  15  16  1   
 35  15  42  1   
 36  16  17  1   
 37  16  18  1   
 38  16  43  1   
 39  17  19  1   
 40  17  44  1   
 41  17  45  1   
 42  18  20  1   
 43  18  46  1   
 44  18  47  1   
 45  19  21  1   
 46  19  48  1   
 47  19  49  1   
 48  20  21  1   
 49  20  50  1   
 50  20  51  1   
 51  21  22  1   
 52  22  23  1   
 53  22  52  1   
 54  22  53  1   
 55  23  24  1   
 56  23  54  1   
 57  23  55  1   
 58  24  56  1   
@<TRIPOS>SUBSTRUCTURE
  1 ****  14 GROUP 4 **** **** 0

# MOE 2024.06 (io_trps.svl 2023.06)
