@<TRIPOS>MOLECULE
NONAME
57 61 1 0 0 
SMALL
USER_CHARGES


@<TRIPOS>ATOM
  1 O       -2.6330     3.1230    -1.2810 O.2   1 <1>  -0.5700 
  2 C       -2.1960     3.2370    -0.1410 C.2   1 <1>   0.6160 
  3 N       -1.6340     4.4540     0.2560 N.am  1 <1>  -0.4690 
  4 C       -2.2850     2.1690     0.8050 C.2   1 <1>   0.0290 
  5 C       -1.2050     4.6330     1.5590 C.2   1 <1>  -0.0290 
  6 C       -1.5010     5.5580    -0.7460 C.3   1 <1>   0.0600 
  7 C       -2.8260     0.9040     0.3960 C.2   1 <1>   0.6160 
  8 C       -1.8340     2.3710     2.0820 C.2   1 <1>  -0.1500 
  9 C       -1.2990     3.6160     2.4590 C.2   1 <1>  -0.1500 
 10 C       -0.6260     5.9760     1.9850 C.3   1 <1>  -0.1020 
 11 O       -2.0580    -0.0270     0.2330 O.2   1 <1>  -0.5700 
 12 N       -4.1870     0.6740     0.2890 N.am  1 <1>  -0.6600 
 13 C       -5.2220     1.7530     0.3810 C.3   1 <1>   0.1400 
 14 C       -4.7420    -0.7120     0.2200 C.3   1 <1>   0.1400 
 15 C       -6.2520     1.6560    -0.7620 C.3   1 <1>   0.1430 
 16 C       -5.7810    -0.8330    -0.9010 C.3   1 <1>  -0.1600 
 17 C       -7.2810     2.7530    -0.5620 C.ar  1 <1>   0.1670 
 18 C       -6.8730     0.2450    -0.7870 C.3   1 <1>  -0.1600 
 19 C       -5.6380     2.0340    -2.1350 C.3   1 <1>  -0.1600 
 20 N       -8.2350     2.7510     0.3380 N.ar  1 <1>  -0.6200 
 21 C       -7.0870     3.7810    -1.4320 C.ar  1 <1>  -0.1440 
 22 C       -5.9110     3.5320    -2.3440 C.3   1 <1>  -0.0170 
 23 C       -9.0340     3.8270     0.3460 C.ar  1 <1>   0.6200 
 24 C       -7.9430     4.8490    -1.3580 C.ar  1 <1>   0.1600 
 25 N       -8.9170     4.8800    -0.4770 N.ar  1 <1>  -0.6200 
 26 C      -10.1120     3.8550     1.3270 C.ar  1 <1>   0.0000 
 27 C      -11.2880     4.5770     1.1040 C.ar  1 <1>  -0.1500 
 28 C      -10.0220     3.1600     2.5380 C.ar  1 <1>  -0.1500 
 29 C      -12.3130     4.6060     2.0320 C.ar  1 <1>  -0.1500 
 30 C      -11.0430     3.1840     3.4700 C.ar  1 <1>  -0.1500 
 31 C      -12.1930     3.9090     3.2190 C.ar  1 <1>  -0.1500 
 32 H       -1.6850     5.2090    -1.7460 H     1 <1>   0.0800 
 33 H       -0.5050     5.9590    -0.7190 H     1 <1>   0.0800 
 34 H       -2.2080     6.3360    -0.5180 H     1 <1>   0.0800 
 35 H       -1.8770     1.5800     2.8120 H     1 <1>   0.1500 
 36 H       -0.9660     3.7340     3.4760 H     1 <1>   0.1500 
 37 H        0.2790     6.1800     1.4430 H     1 <1>   0.0800 
 38 H       -0.3910     5.9730     3.0340 H     1 <1>   0.0800 
 39 H       -1.3360     6.7630     1.8050 H     1 <1>   0.0800 
 40 H       -4.7690     2.7270     0.3600 H     1 <1>   0.0800 
 41 H       -5.7360     1.6540     1.3220 H     1 <1>   0.0800 
 42 H       -5.2030    -0.9430     1.1650 H     1 <1>   0.0800 
 43 H       -3.9580    -1.4310     0.0520 H     1 <1>   0.0800 
 44 H       -6.2330    -1.8080    -0.8550 H     1 <1>   0.0800 
 45 H       -5.2780    -0.7550    -1.8480 H     1 <1>   0.0800 
 46 H       -7.5670     0.1590    -1.6040 H     1 <1>   0.0800 
 47 H       -7.4260     0.0890     0.1240 H     1 <1>   0.0800 
 48 H       -6.1490     1.4960    -2.9140 H     1 <1>   0.0800 
 49 H       -4.5920     1.7970    -2.2030 H     1 <1>   0.0800 
 50 H       -6.1390     3.7540    -3.3710 H     1 <1>   0.0800 
 51 H       -5.0670     4.1180    -2.0210 H     1 <1>   0.0800 
 52 H       -7.8290     5.6850    -2.0260 H     1 <1>   0.1500 
 53 H      -11.4010     5.1260     0.1850 H     1 <1>   0.1500 
 54 H       -9.1340     2.5910     2.7530 H     1 <1>   0.1500 
 55 H      -13.2060     5.1730     1.8290 H     1 <1>   0.1500 
 56 H      -10.9420     2.6390     4.3920 H     1 <1>   0.1500 
 57 H      -12.9890     3.9300     3.9430 H     1 <1>   0.1500 
@<TRIPOS>BOND
  1   1   2  2   
  2   2   3  am  
  3   2   4  1   
  4   3   5  1   
  5   3   6  1   
  6   4   7  1   
  7   4   8  2   
  8   5   9  2   
  9   5  10  1   
 10   6  32  1   
 11   6  33  1   
 12   6  34  1   
 13   7  11  2   
 14   7  12  am  
 15   8   9  1   
 16   8  35  1   
 17   9  36  1   
 18  10  37  1   
 19  10  38  1   
 20  10  39  1   
 21  12  13  1   
 22  12  14  1   
 23  13  15  1   
 24  13  40  1   
 25  13  41  1   
 26  14  16  1   
 27  14  42  1   
 28  14  43  1   
 29  15  17  1   
 30  15  18  1   
 31  15  19  1   
 32  16  18  1   
 33  16  44  1   
 34  16  45  1   
 35  17  20  ar  
 36  17  21  ar  
 37  18  46  1   
 38  18  47  1   
 39  19  22  1   
 40  19  48  1   
 41  19  49  1   
 42  20  23  ar  
 43  21  22  1   
 44  21  24  ar  
 45  22  50  1   
 46  22  51  1   
 47  23  25  ar  
 48  23  26  1   
 49  24  25  ar  
 50  24  52  1   
 51  26  27  ar  
 52  26  28  ar  
 53  27  29  ar  
 54  27  53  1   
 55  28  30  ar  
 56  28  54  1   
 57  29  31  ar  
 58  29  55  1   
 59  30  31  ar  
 60  30  56  1   
 61  31  57  1   
@<TRIPOS>SUBSTRUCTURE
  1 ****  13 GROUP 4 **** **** 0

# MOE 2024.06 (io_trps.svl 2023.06)
