@<TRIPOS>MOLECULE
NONAME
54 56 1 0 0 
SMALL
USER_CHARGES


@<TRIPOS>ATOM
  1 O       -0.4380     0.1700     0.3770 O.2   1 <1>  -0.5700 
  2 C       -1.3700     0.8600     0.7420 C.2   1 <1>   0.5440 
  3 N       -2.6040     0.2710     0.9110 N.am  1 <1>  -0.6600 
  4 C       -1.1670     2.2800     0.9660 C.ar  1 <1>   0.0860 
  5 C       -2.7710    -1.2170     0.9370 C.3   1 <1>   0.1400 
  6 C       -3.8920     0.9910     0.6780 C.3   1 <1>   0.1400 
  7 C       -0.4500     3.0540     0.0570 C.ar  1 <1>  -0.1500 
  8 C       -1.6780     2.9210     2.0960 C.ar  1 <1>  -0.1500 
  9 C       -3.5770    -1.7000    -0.2800 C.3   1 <1>   0.3440 
 10 C       -4.6500     0.3890    -0.5290 C.3   1 <1>   0.2000 
 11 C       -0.2600     4.4110     0.2460 C.ar  1 <1>   0.0820 
 12 C       -1.4970     4.2770     2.2980 C.ar  1 <1>  -0.1500 
 13 O       -4.7890    -0.9950    -0.3560 O.3   1 <1>  -0.5600 
 14 C       -3.8560    -3.1970    -0.1820 C.ar  1 <1>  -0.1440 
 15 C       -6.0590     0.9960    -0.7280 C.3   1 <1>  -0.0800 
 16 O        0.4470     5.0660    -0.7070 O.3   1 <1>  -0.3620 
 17 C       -0.7910     5.0280     1.3750 C.ar  1 <1>  -0.1500 
 18 C       -4.9950    -3.6860     0.4460 C.ar  1 <1>  -0.1500 
 19 C       -2.9470    -4.0970    -0.7190 C.ar  1 <1>  -0.1500 
 20 C       -6.7940     0.3410    -1.9100 C.3   1 <1>  -0.2400 
 21 C       -6.0100     2.5160    -0.9630 C.3   1 <1>  -0.2400 
 22 C        0.7090     6.4610    -0.6020 C.3   1 <1>   0.1810 
 23 C       -5.2190    -5.0490     0.5350 C.ar  1 <1>  -0.1500 
 24 C       -3.1690    -5.4610    -0.6310 C.ar  1 <1>  -0.1500 
 25 C        1.5280     6.9720    -1.7820 C.2   1 <1>   0.5690 
 26 C       -4.3060    -5.9380    -0.0030 C.ar  1 <1>  -0.1500 
 27 O        1.6900     8.1580    -1.9130 O.2   1 <1>  -0.5700 
 28 N        2.0720     6.1170    -2.6710 N.am  1 <1>  -0.8000 
 29 H       -1.8140    -1.7090     0.9460 H     1 <1>   0.0800 
 30 H       -3.2890    -1.5010     1.8350 H     1 <1>   0.0800 
 31 H       -4.5070     0.9150     1.5580 H     1 <1>   0.0800 
 32 H       -3.7040     2.0320     0.4890 H     1 <1>   0.0800 
 33 H       -0.0310     2.5800    -0.8130 H     1 <1>   0.1500 
 34 H       -2.2200     2.3410     2.8230 H     1 <1>   0.1500 
 35 H       -3.0210    -1.5030    -1.1810 H     1 <1>   0.0800 
 36 H       -4.0750     0.5530    -1.4250 H     1 <1>   0.0800 
 37 H       -1.9020     4.7490     3.1770 H     1 <1>   0.1500 
 38 H       -6.6310     0.8150     0.1670 H     1 <1>   0.0800 
 39 H       -0.6660     6.0790     1.5580 H     1 <1>   0.1500 
 40 H       -5.7130    -3.0020     0.8650 H     1 <1>   0.1500 
 41 H       -2.0570    -3.7410    -1.2090 H     1 <1>   0.1500 
 42 H       -6.2430     0.4790    -2.8230 H     1 <1>   0.0800 
 43 H       -7.7740     0.7670    -2.0290 H     1 <1>   0.0800 
 44 H       -6.9120    -0.7160    -1.7400 H     1 <1>   0.0800 
 45 H       -5.3880     2.7490    -1.8100 H     1 <1>   0.0800 
 46 H       -5.6300     3.0320    -0.1000 H     1 <1>   0.0800 
 47 H       -6.9990     2.8940    -1.1550 H     1 <1>   0.0800 
 48 H       -0.2300     6.9820    -0.5750 H     1 <1>   0.0800 
 49 H        1.2550     6.6370     0.3060 H     1 <1>   0.0800 
 50 H       -6.1060    -5.4150     1.0230 H     1 <1>   0.1500 
 51 H       -2.4580    -6.1510    -1.0510 H     1 <1>   0.1500 
 52 H       -4.4810    -6.9970     0.0660 H     1 <1>   0.1500 
 53 H        2.6150     6.4670    -3.4600 H     1 <1>   0.3700 
 54 H        1.9410     5.1060    -2.5990 H     1 <1>   0.3700 
@<TRIPOS>BOND
  1   1   2  2   
  2   2   3  am  
  3   2   4  1   
  4   3   5  1   
  5   3   6  1   
  6   4   7  ar  
  7   4   8  ar  
  8   5   9  1   
  9   5  29  1   
 10   5  30  1   
 11   6  10  1   
 12   6  31  1   
 13   6  32  1   
 14   7  11  ar  
 15   7  33  1   
 16   8  12  ar  
 17   8  34  1   
 18   9  13  1   
 19   9  14  1   
 20   9  35  1   
 21  10  13  1   
 22  10  15  1   
 23  10  36  1   
 24  11  16  1   
 25  11  17  ar  
 26  12  17  ar  
 27  12  37  1   
 28  14  18  ar  
 29  14  19  ar  
 30  15  20  1   
 31  15  21  1   
 32  15  38  1   
 33  16  22  1   
 34  17  39  1   
 35  18  23  ar  
 36  18  40  1   
 37  19  24  ar  
 38  19  41  1   
 39  20  42  1   
 40  20  43  1   
 41  20  44  1   
 42  21  45  1   
 43  21  46  1   
 44  21  47  1   
 45  22  25  1   
 46  22  48  1   
 47  22  49  1   
 48  23  26  ar  
 49  23  50  1   
 50  24  26  ar  
 51  24  51  1   
 52  25  27  2   
 53  25  28  am  
 54  26  52  1   
 55  28  53  1   
 56  28  54  1   
@<TRIPOS>SUBSTRUCTURE
  1 ****   3 GROUP 4 **** **** 0

# MOE 2024.06 (io_trps.svl 2023.06)
