@<TRIPOS>MOLECULE
NONAME
50 51 1 0 0 
SMALL
USER_CHARGES


@<TRIPOS>ATOM
  1 F       -0.0720    -0.5070    -0.6420 F     1 <1>  -0.1900 
  2 C       -0.1670    -1.8010    -0.4850 C.ar  1 <1>   0.1900 
  3 C        0.7900    -2.4550     0.2660 C.ar  1 <1>  -0.1500 
  4 C       -1.2180    -2.4700    -1.0760 C.ar  1 <1>  -0.1500 
  5 C        0.6960    -3.8280     0.4390 C.ar  1 <1>  -0.1440 
  6 C       -1.3080    -3.8390    -0.9040 C.ar  1 <1>  -0.1500 
  7 C       -0.3630    -4.5340    -0.1470 C.ar  1 <1>   0.1170 
  8 C        1.7620    -4.5240     1.2780 C.3   1 <1>  -0.0960 
  9 N       -0.4340    -5.9290     0.0230 N.am  1 <1>  -0.5470 
 10 C       -1.5220    -6.7650     0.0130 C.2   1 <1>   0.5690 
 11 O       -2.6600    -6.3860    -0.1350 O.2   1 <1>  -0.5700 
 12 C       -1.3280    -8.2810     0.1990 C.3   1 <1>   0.4040 
 13 N       -2.4920    -9.0930    -0.3330 N.4   1 <1>  -0.9590 
 14 C       -2.5700   -10.4480     0.2820 C.3   1 <1>   0.3430 
 15 C       -2.5050    -9.1100    -1.8320 C.3   1 <1>   0.2630 
 16 C       -3.9320   -11.0820     0.0050 C.3   1 <1>  -0.1600 
 17 C       -4.0970   -12.4050     0.7610 C.3   1 <1>   0.0210 
 18 C       -5.4580   -12.9920     0.4460 C.2   1 <1>  -0.1810 
 19 C       -5.7640   -13.8940    -0.5730 C.2   1 <1>   0.1080 
 20 C       -6.6360   -12.7630     1.0690 C.2   1 <1>  -0.3320 
 21 N       -7.0200   -14.2010    -0.5930 N.2   1 <1>  -0.7070 
 22 C       -4.7910   -14.4900    -1.5650 C.3   1 <1>  -0.0590 
 23 N       -7.5600   -13.5060     0.4220 N.pl3 1 <1>   0.3000 
 24 C       -6.9810   -11.8810     2.2570 C.3   1 <1>  -0.0600 
 25 H        1.5880    -1.8830     0.7040 H     1 <1>   0.1500 
 26 H       -1.9450    -1.9280    -1.6540 H     1 <1>   0.1500 
 27 H       -2.1230    -4.3590    -1.3700 H     1 <1>   0.1500 
 28 H        2.4390    -3.8070     1.7080 H     1 <1>   0.0800 
 29 H        2.3360    -5.1980     0.6670 H     1 <1>   0.0800 
 30 H        1.3050    -5.0690     2.0840 H     1 <1>   0.0800 
 31 H        0.4730    -6.3310     0.2570 H     1 <1>   0.3700 
 32 H       -1.2220    -8.4630     1.2540 H     1 <1>   0.0800 
 33 H       -0.4190    -8.5850    -0.2900 H     1 <1>   0.0800 
 34 H       -3.3300    -8.5500    -0.0460 H     1 <1>   0.4500 
 35 H       -2.4400   -10.3660     1.3500 H     1 <1>   0.0800 
 36 H       -1.7860   -11.0800    -0.1060 H     1 <1>   0.0800 
 37 H       -1.6490    -9.6440    -2.2120 H     1 <1>   0.0800 
 38 H       -2.4850    -8.1010    -2.2150 H     1 <1>   0.0800 
 39 H       -3.4000    -9.5870    -2.1950 H     1 <1>   0.0800 
 40 H       -4.0490   -11.2790    -1.0450 H     1 <1>   0.0800 
 41 H       -4.7170   -10.4150     0.3180 H     1 <1>   0.0800 
 42 H       -4.0210   -12.2440     1.8220 H     1 <1>   0.0800 
 43 H       -3.3310   -13.1060     0.4770 H     1 <1>   0.0800 
 44 H       -4.2000   -13.7170    -2.0180 H     1 <1>   0.0800 
 45 H       -5.3320   -15.0080    -2.3360 H     1 <1>   0.0800 
 46 H       -4.1490   -15.1910    -1.0650 H     1 <1>   0.0800 
 47 H       -8.5600   -13.5640     0.6480 H     1 <1>   0.2700 
 48 H       -6.1110   -11.3640     2.6160 H     1 <1>   0.0800 
 49 H       -7.3760   -12.4800     3.0580 H     1 <1>   0.0800 
 50 H       -7.7190   -11.1510     1.9740 H     1 <1>   0.0800 
@<TRIPOS>BOND
  1   1   2  1   
  2   2   3  ar  
  3   2   4  ar  
  4   3   5  ar  
  5   3  25  1   
  6   4   6  ar  
  7   4  26  1   
  8   5   7  ar  
  9   5   8  1   
 10   6   7  ar  
 11   6  27  1   
 12   7   9  1   
 13   8  28  1   
 14   8  29  1   
 15   8  30  1   
 16   9  10  am  
 17   9  31  1   
 18  10  11  2   
 19  10  12  1   
 20  12  13  1   
 21  12  32  1   
 22  12  33  1   
 23  13  14  1   
 24  13  15  1   
 25  13  34  1   
 26  14  16  1   
 27  14  35  1   
 28  14  36  1   
 29  15  37  1   
 30  15  38  1   
 31  15  39  1   
 32  16  17  1   
 33  16  40  1   
 34  16  41  1   
 35  17  18  1   
 36  17  42  1   
 37  17  43  1   
 38  18  19  1   
 39  18  20  2   
 40  19  21  2   
 41  19  22  1   
 42  20  23  1   
 43  20  24  1   
 44  21  23  1   
 45  22  44  1   
 46  22  45  1   
 47  22  46  1   
 48  23  47  1   
 49  24  48  1   
 50  24  49  1   
 51  24  50  1   
@<TRIPOS>SUBSTRUCTURE
  1 ****  13 GROUP 4 **** **** 0

# MOE 2024.06 (io_trps.svl 2023.06)
