@<TRIPOS>MOLECULE
NONAME
50 53 1 0 0 
SMALL
USER_CHARGES


@<TRIPOS>ATOM
  1 S       -1.4320     0.9200     0.2480 S.3   1 <1>  -0.1120 
  2 C       -0.6280     2.3160    -0.5590 C.2   1 <1>   0.2420 
  3 C       -2.7120     0.3230    -0.8690 C.2   1 <1>   0.1960 
  4 N       -1.0600     2.9150    -1.6130 N.2   1 <1>  -0.3380 
  5 N        0.5010     2.8400    -0.0820 N.pl3 1 <1>   0.0480 
  6 O       -3.6220    -0.4700    -0.3430 O.3   1 <1>  -0.2800 
  7 C       -2.9240     0.5240    -2.1860 C.2   1 <1>  -0.1500 
  8 N       -0.1800     3.8880    -1.8690 N.2   1 <1>  -0.3380 
  9 C        0.7300     3.8260    -0.9550 C.2   1 <1>   0.0360 
 10 C        1.2960     2.4420     1.0950 C.3   1 <1>   0.0160 
 11 C       -4.4600    -0.7900    -1.3160 C.2   1 <1>  -0.0400 
 12 C       -4.0800    -0.2120    -2.4810 C.2   1 <1>  -0.1500 
 13 C       -5.6390    -1.6930    -1.0020 C.3   1 <1>   0.5230 
 14 N       -6.6990    -0.9250    -0.2880 N.4   1 <1>  -0.9590 
 15 C       -6.2470    -0.3490     1.0170 C.3   1 <1>   0.3430 
 16 C       -7.9920    -1.6450    -0.1780 C.3   1 <1>   0.3430 
 17 C       -7.3970     0.3570     1.7450 C.3   1 <1>  -0.1600 
 18 C       -9.1040    -0.6780     0.2470 C.3   1 <1>  -0.1600 
 19 C       -8.5850     0.6460     0.8210 C.3   1 <1>   0.4180 
 20 O       -8.1320     1.3950    -0.2850 O.3   1 <1>  -0.5600 
 21 C       -9.7060     1.3780     1.5470 C.2   1 <1>  -0.2880 
 22 C       -8.0090     2.7840    -0.1150 C.3   1 <1>   0.1200 
 23 C      -10.0890     2.6250     1.2630 C.2   1 <1>  -0.2760 
 24 C       -9.3750     3.4160     0.1830 C.3   1 <1>  -0.0220 
 25 C      -11.2320     3.3510     1.9510 C.3   1 <1>  -0.1020 
 26 H       -2.3570     1.1090    -2.8890 H     1 <1>   0.1500 
 27 H        1.5780     4.4840    -0.8910 H     1 <1>   0.1500 
 28 H        0.6910     2.5260     1.9790 H     1 <1>   0.0800 
 29 H        2.1540     3.0830     1.1870 H     1 <1>   0.0800 
 30 H        1.6210     1.4240     0.9780 H     1 <1>   0.0800 
 31 H       -4.5320    -0.2670    -3.4570 H     1 <1>   0.1500 
 32 H       -5.3060    -2.5230    -0.4000 H     1 <1>   0.0800 
 33 H       -6.0350    -2.0780    -1.9270 H     1 <1>   0.0800 
 34 H       -6.9100    -0.0820    -0.8580 H     1 <1>   0.4500 
 35 H       -5.4680     0.3730     0.8280 H     1 <1>   0.0800 
 36 H       -5.8360    -1.1210     1.6470 H     1 <1>   0.0800 
 37 H       -7.9010    -2.4320     0.5540 H     1 <1>   0.0800 
 38 H       -8.2550    -2.0920    -1.1230 H     1 <1>   0.0800 
 39 H       -7.0410     1.2660     2.1940 H     1 <1>   0.0800 
 40 H       -7.7300    -0.2690     2.5520 H     1 <1>   0.0800 
 41 H       -9.7080    -1.1770     0.9820 H     1 <1>   0.0800 
 42 H       -9.7480    -0.4670    -0.5890 H     1 <1>   0.0800 
 43 H      -10.1750     0.7890     2.3160 H     1 <1>   0.1500 
 44 H       -7.5990     3.1960    -1.0200 H     1 <1>   0.0800 
 45 H       -7.3250     2.9750     0.6930 H     1 <1>   0.0800 
 46 H       -9.9730     3.4380    -0.7110 H     1 <1>   0.0800 
 47 H       -9.2190     4.4300     0.5060 H     1 <1>   0.0800 
 48 H      -11.9790     3.6330     1.2300 H     1 <1>   0.0800 
 49 H      -10.8700     4.2380     2.4400 H     1 <1>   0.0800 
 50 H      -11.6940     2.7200     2.6890 H     1 <1>   0.0800 
@<TRIPOS>BOND
  1   1   2  1   
  2   1   3  1   
  3   2   4  2   
  4   2   5  1   
  5   3   6  1   
  6   3   7  2   
  7   4   8  1   
  8   5   9  1   
  9   5  10  1   
 10   6  11  1   
 11   7  12  1   
 12   7  26  1   
 13   8   9  2   
 14   9  27  1   
 15  10  28  1   
 16  10  29  1   
 17  10  30  1   
 18  11  12  2   
 19  11  13  1   
 20  12  31  1   
 21  13  14  1   
 22  13  32  1   
 23  13  33  1   
 24  14  15  1   
 25  14  16  1   
 26  14  34  1   
 27  15  17  1   
 28  15  35  1   
 29  15  36  1   
 30  16  18  1   
 31  16  37  1   
 32  16  38  1   
 33  17  19  1   
 34  17  39  1   
 35  17  40  1   
 36  18  19  1   
 37  18  41  1   
 38  18  42  1   
 39  19  20  1   
 40  19  21  1   
 41  20  22  1   
 42  21  23  2   
 43  21  43  1   
 44  22  24  1   
 45  22  44  1   
 46  22  45  1   
 47  23  24  1   
 48  23  25  1   
 49  24  46  1   
 50  24  47  1   
 51  25  48  1   
 52  25  49  1   
 53  25  50  1   
@<TRIPOS>SUBSTRUCTURE
  1 ****   6 GROUP 4 **** **** 0

# MOE 2024.06 (io_trps.svl 2023.06)
