@<TRIPOS>MOLECULE
NONAME
54 55 1 0 0 
SMALL
USER_CHARGES


@<TRIPOS>ATOM
  1 O       -1.4550     0.9930     0.1230 O.co2 1 <1>  -0.9000 
  2 C       -0.7120     1.6140    -0.6530 C.2   1 <1>   0.9060 
  3 O       -0.3840     1.1210    -1.7390 O.co2 1 <1>  -0.9000 
  4 C       -0.1720     3.0090    -0.2800 C.3   1 <1>  -0.1060 
  5 C       -0.9490     3.6430     0.9130 C.3   1 <1>   0.2000 
  6 C       -0.3600     3.8900    -1.5480 C.3   1 <1>   0.1400 
  7 C        1.3380     2.8550     0.0700 C.3   1 <1>  -0.1600 
  8 O       -1.1030     2.7480     1.9490 O.3   1 <1>  -0.6800 
  9 C       -2.3340     4.1350     0.4920 C.3   1 <1>  -0.1600 
 10 N       -0.8740     5.2540    -1.2110 N.am  1 <1>  -0.6600 
 11 C        2.0960     4.1530     0.4000 C.3   1 <1>  -0.1600 
 12 C       -2.2340     5.2140    -0.5970 C.3   1 <1>   0.1400 
 13 C       -0.3030     6.3770    -1.7670 C.2   1 <1>   0.5690 
 14 C        3.5890     3.8780     0.5940 C.3   1 <1>  -0.2400 
 15 O        0.1260     6.3210    -2.9000 O.2   1 <1>  -0.5700 
 16 C       -0.2170     7.7350    -0.9940 C.3   1 <1>   0.3410 
 17 O        0.9100     8.5120    -1.4180 O.3   1 <1>  -0.3630 
 18 C       -0.1290     7.5830     0.5430 C.3   1 <1>  -0.2400 
 19 C       -1.4240     8.6200    -1.3430 C.3   1 <1>  -0.2400 
 20 C        2.1710     8.2170    -1.0180 C.ar  1 <1>   0.0820 
 21 C        2.7450     8.9700    -0.0040 C.ar  1 <1>  -0.1500 
 22 C        2.9030     7.2090    -1.6270 C.ar  1 <1>  -0.1500 
 23 C        4.0320     8.6990     0.4300 C.ar  1 <1>  -0.1440 
 24 C        4.1890     6.9350    -1.1970 C.ar  1 <1>  -0.1500 
 25 C        4.7490     7.6740    -0.1680 C.ar  1 <1>  -0.1500 
 26 C        4.6540     9.5120     1.5500 C.3   1 <1>  -0.0970 
 27 H       -0.4120     4.4840     1.3090 H     1 <1>   0.0800 
 28 H       -1.0730     3.4320    -2.2140 H     1 <1>   0.0800 
 29 H        0.5670     3.9580    -2.0930 H     1 <1>   0.0800 
 30 H        1.4220     2.1820     0.9070 H     1 <1>   0.0800 
 31 H        1.8230     2.3750    -0.7630 H     1 <1>   0.0800 
 32 H       -1.3390     1.8780     1.5020 H     1 <1>   0.4000 
 33 H       -2.9050     3.3060     0.1110 H     1 <1>   0.0800 
 34 H       -2.8540     4.5340     1.3430 H     1 <1>   0.0800 
 35 H        1.9720     4.8660    -0.3940 H     1 <1>   0.0800 
 36 H        1.7130     4.5880     1.3060 H     1 <1>   0.0800 
 37 H       -2.4900     6.1660    -0.1780 H     1 <1>   0.0800 
 38 H       -2.9520     4.9980    -1.3700 H     1 <1>   0.0800 
 39 H        4.0170     3.4860    -0.3120 H     1 <1>   0.0800 
 40 H        3.7380     3.1660     1.3860 H     1 <1>   0.0800 
 41 H        4.0990     4.7890     0.8500 H     1 <1>   0.0800 
 42 H       -1.0350     7.1900     0.9560 H     1 <1>   0.0800 
 43 H        0.0510     8.5370     1.0030 H     1 <1>   0.0800 
 44 H        0.6670     6.9070     0.8020 H     1 <1>   0.0800 
 45 H       -2.3420     8.1630    -1.0320 H     1 <1>   0.0800 
 46 H       -1.4640     8.7650    -2.4080 H     1 <1>   0.0800 
 47 H       -1.3360     9.5770    -0.8610 H     1 <1>   0.0800 
 48 H        2.1750     9.7660     0.4370 H     1 <1>   0.1500 
 49 H        2.4800     6.6440    -2.4350 H     1 <1>   0.1500 
 50 H        4.7510     6.1470    -1.6650 H     1 <1>   0.1500 
 51 H        5.7490     7.4510     0.1610 H     1 <1>   0.1500 
 52 H        5.7020     9.6650     1.3620 H     1 <1>   0.0800 
 53 H        4.5390     8.9910     2.4840 H     1 <1>   0.0800 
 54 H        4.1800    10.4740     1.6280 H     1 <1>   0.0800 
@<TRIPOS>BOND
  1   1   2  ar  
  2   2   3  ar  
  3   2   4  1   
  4   4   5  1   
  5   4   6  1   
  6   4   7  1   
  7   5   8  1   
  8   5   9  1   
  9   5  27  1   
 10   6  10  1   
 11   6  28  1   
 12   6  29  1   
 13   7  11  1   
 14   7  30  1   
 15   7  31  1   
 16   8  32  1   
 17   9  12  1   
 18   9  33  1   
 19   9  34  1   
 20  10  12  1   
 21  10  13  am  
 22  11  14  1   
 23  11  35  1   
 24  11  36  1   
 25  12  37  1   
 26  12  38  1   
 27  13  15  2   
 28  13  16  1   
 29  14  39  1   
 30  14  40  1   
 31  14  41  1   
 32  16  17  1   
 33  16  18  1   
 34  16  19  1   
 35  17  20  1   
 36  18  42  1   
 37  18  43  1   
 38  18  44  1   
 39  19  45  1   
 40  19  46  1   
 41  19  47  1   
 42  20  21  ar  
 43  20  22  ar  
 44  21  23  ar  
 45  21  48  1   
 46  22  24  ar  
 47  22  49  1   
 48  23  25  ar  
 49  23  26  1   
 50  24  25  ar  
 51  24  50  1   
 52  25  51  1   
 53  26  52  1   
 54  26  53  1   
 55  26  54  1   
@<TRIPOS>SUBSTRUCTURE
  1 ****  10 GROUP 4 **** **** 0

# MOE 2024.06 (io_trps.svl 2023.06)
