@<TRIPOS>MOLECULE
NONAME
45 47 1 0 0 
SMALL
USER_CHARGES


@<TRIPOS>ATOM
  1 O       -0.8930    -1.1900    -0.8560 O.2   1 <1>  -0.5700 
  2 C        0.1630    -1.4530    -0.3080 C.2   1 <1>   0.8410 
  3 N        0.5800    -0.6570     0.7280 N.2   1 <1>  -0.6610 
  4 N        0.9220    -2.5380    -0.7200 N.am  1 <1>  -0.4690 
  5 C        1.6920    -0.9490     1.2980 C.2   1 <1>   0.3760 
  6 C        2.1060    -2.8330    -0.0950 C.2   1 <1>  -0.0410 
  7 C        0.4460    -3.4220    -1.8340 C.3   1 <1>   0.2010 
  8 C        2.5070    -2.0390     0.9240 C.2   1 <1>  -0.1360 
  9 C        0.2040    -4.8590    -1.3760 C.2   1 <1>   0.5690 
 10 O        1.1090    -5.6530    -1.5120 O.2   1 <1>  -0.5700 
 11 N       -0.9940    -5.2340    -0.8320 N.am  1 <1>  -0.6600 
 12 C       -2.1500    -4.3490    -0.5660 C.3   1 <1>   0.1400 
 13 C       -1.2640    -6.6110    -0.3690 C.3   1 <1>   0.1400 
 14 C       -3.0270    -5.1170     0.4310 C.3   1 <1>  -0.0800 
 15 C       -2.6930    -6.6010     0.1840 C.3   1 <1>  -0.0800 
 16 C       -4.5470    -4.7670     0.4170 C.3   1 <1>   0.2800 
 17 C       -3.7020    -7.2420    -0.7810 C.3   1 <1>  -0.1600 
 18 O       -4.9380    -4.3700    -0.8480 O.3   1 <1>  -0.6800 
 19 C       -5.3750    -6.0200     0.7550 C.3   1 <1>  -0.1600 
 20 C       -4.9060    -3.6160     1.3830 C.3   1 <1>  -0.1600 
 21 C       -5.1330    -7.2010    -0.2120 C.3   1 <1>  -0.1600 
 22 C       -4.2080    -2.2710     1.1110 C.3   1 <1>  -0.2400 
 23 H        2.0340    -0.3350     2.1120 H     1 <1>   0.0600 
 24 H        2.6730    -3.6890    -0.4330 H     1 <1>   0.1500 
 25 H       -0.4560    -3.0390    -2.2750 H     1 <1>   0.0800 
 26 H        1.1960    -3.4350    -2.6030 H     1 <1>   0.0800 
 27 H        3.4210    -2.2090     1.4610 H     1 <1>   0.1500 
 28 H       -1.8340    -3.4110    -0.1510 H     1 <1>   0.0800 
 29 H       -2.6590    -4.1730    -1.4970 H     1 <1>   0.0800 
 30 H       -1.1510    -7.3070    -1.1820 H     1 <1>   0.0800 
 31 H       -0.5620    -6.8590     0.4090 H     1 <1>   0.0800 
 32 H       -2.6490    -4.8900     1.4120 H     1 <1>   0.0800 
 33 H       -2.7160    -7.1500     1.1090 H     1 <1>   0.0800 
 34 H       -3.6800    -6.7000    -1.7120 H     1 <1>   0.0800 
 35 H       -3.4270    -8.2610    -0.9910 H     1 <1>   0.0800 
 36 H       -5.8870    -4.1510    -0.8370 H     1 <1>   0.4000 
 37 H       -5.1030    -6.3370     1.7470 H     1 <1>   0.0800 
 38 H       -6.4240    -5.7840     0.7810 H     1 <1>   0.0800 
 39 H       -5.9700    -3.4590     1.3540 H     1 <1>   0.0800 
 40 H       -4.6670    -3.9200     2.3860 H     1 <1>   0.0800 
 41 H       -5.3410    -8.1200     0.3090 H     1 <1>   0.0800 
 42 H       -5.8220    -7.1340    -1.0360 H     1 <1>   0.0800 
 43 H       -4.3510    -1.9600     0.0910 H     1 <1>   0.0800 
 44 H       -3.1530    -2.3360     1.3060 H     1 <1>   0.0800 
 45 H       -4.6150    -1.5110     1.7540 H     1 <1>   0.0800 
@<TRIPOS>BOND
  1   1   2  2   
  2   2   3  1   
  3   2   4  am  
  4   3   5  2   
  5   4   6  1   
  6   4   7  1   
  7   5   8  1   
  8   5  23  1   
  9   6   8  2   
 10   6  24  1   
 11   7   9  1   
 12   7  25  1   
 13   7  26  1   
 14   8  27  1   
 15   9  10  2   
 16   9  11  am  
 17  11  12  1   
 18  11  13  1   
 19  12  14  1   
 20  12  28  1   
 21  12  29  1   
 22  13  15  1   
 23  13  30  1   
 24  13  31  1   
 25  14  15  1   
 26  14  16  1   
 27  14  32  1   
 28  15  17  1   
 29  15  33  1   
 30  16  18  1   
 31  16  19  1   
 32  16  20  1   
 33  17  21  1   
 34  17  34  1   
 35  17  35  1   
 36  18  36  1   
 37  19  21  1   
 38  19  37  1   
 39  19  38  1   
 40  20  22  1   
 41  20  39  1   
 42  20  40  1   
 43  21  41  1   
 44  21  42  1   
 45  22  43  1   
 46  22  44  1   
 47  22  45  1   
@<TRIPOS>SUBSTRUCTURE
  1 ****  12 GROUP 4 **** **** 0

# MOE 2024.06 (io_trps.svl 2023.06)
