@<TRIPOS>MOLECULE
Untitled Document
43 45 1 0 0 
SMALL
USER_CHARGES


@<TRIPOS>ATOM
  1 O       -0.7690     2.7610     3.0490 O.2   1 <1>  -0.5700 
  2 C       -0.4410     2.9680     1.9050 C.2   1 <1>   0.5690 
  3 N       -1.1960     2.5200     0.8460 N.am  1 <1>  -0.6600 
  4 C        0.8230     3.7740     1.7050 C.3   1 <1>   0.1010 
  5 C       -2.4110     1.6690     1.0660 C.3   1 <1>   0.1400 
  6 C       -0.9390     2.7840    -0.5970 C.3   1 <1>   0.1400 
  7 C        1.8820     2.9270     1.1070 C.1   1 <1>   0.3570 
  8 C       -3.6690     2.3410     0.4760 C.3   1 <1>   0.2890 
  9 C       -2.1460     3.5170    -1.1930 C.3   1 <1>  -0.1600 
 10 N        2.6950     2.3110     0.6050 N.1   1 <1>  -0.5570 
 11 N       -4.8960     1.4890     0.6310 N.pl3 1 <1>  -0.8380 
 12 C       -3.4570     2.7280    -1.0070 C.3   1 <1>  -0.0800 
 13 C       -4.8050     0.1170     0.5250 C.ar  1 <1>   0.4100 
 14 C       -5.8810     2.0230     1.6090 C.3   1 <1>   0.1290 
 15 C       -4.6290     3.5550    -1.5660 C.3   1 <1>  -0.2400 
 16 N       -4.5480    -0.5580     1.6230 N.ar  1 <1>  -0.6200 
 17 C       -4.9710    -0.5440    -0.7010 C.ar  1 <1>   0.0000 
 18 C       -4.4290    -1.8850     1.4910 C.ar  1 <1>   0.4700 
 19 C       -4.8190    -1.9130    -0.6920 C.ar  1 <1>   0.1050 
 20 C       -5.2830    -0.1950    -2.0360 C.2   1 <1>  -0.1500 
 21 N       -4.5390    -2.6150     0.4080 N.ar  1 <1>  -0.5670 
 22 N       -5.0080    -2.3950    -1.9500 N.pl3 1 <1>   0.0330 
 23 C       -5.2940    -1.3350    -2.7690 C.2   1 <1>  -0.3020 
 24 H        0.6240     4.6160     1.0730 H     1 <1>   0.0800 
 25 H        1.1690     4.1380     2.6540 H     1 <1>   0.0800 
 26 H       -2.2490     0.7190     0.5880 H     1 <1>   0.0800 
 27 H       -2.5710     1.4920     2.1150 H     1 <1>   0.0800 
 28 H       -0.0550     3.3780    -0.7420 H     1 <1>   0.0800 
 29 H       -0.7930     1.8450    -1.1050 H     1 <1>   0.0800 
 30 H       -3.8160     3.2500     1.0340 H     1 <1>   0.0800 
 31 H       -2.2290     4.4830    -0.7260 H     1 <1>   0.0800 
 32 H       -1.9700     3.6750    -2.2420 H     1 <1>   0.0800 
 33 H       -3.3710     1.8180    -1.5740 H     1 <1>   0.0800 
 34 H       -6.2590     2.9710     1.2680 H     1 <1>   0.0800 
 35 H       -5.4120     2.1460     2.5700 H     1 <1>   0.0800 
 36 H       -6.7050     1.3370     1.7110 H     1 <1>   0.0800 
 37 H       -4.7310     4.4800    -1.0270 H     1 <1>   0.0800 
 38 H       -5.5520     3.0100    -1.4750 H     1 <1>   0.0800 
 39 H       -4.4710     3.7760    -2.6060 H     1 <1>   0.0800 
 40 H       -4.2120    -2.4140     2.4030 H     1 <1>   0.1500 
 41 H       -5.4750     0.8110    -2.3620 H     1 <1>   0.1500 
 42 H       -4.9520    -3.3870    -2.1970 H     1 <1>   0.2700 
 43 H       -5.4920    -1.4610    -3.8200 H     1 <1>   0.1500 
@<TRIPOS>BOND
  1   1   2  2   
  2   2   3  am  
  3   2   4  1   
  4   3   5  1   
  5   3   6  1   
  6   4   7  1   
  7   4  24  1   
  8   4  25  1   
  9   5   8  1   
 10   5  26  1   
 11   5  27  1   
 12   6   9  1   
 13   6  28  1   
 14   6  29  1   
 15   7  10  3   
 16   8  11  1   
 17   8  12  1   
 18   8  30  1   
 19   9  12  1   
 20   9  31  1   
 21   9  32  1   
 22  11  13  1   
 23  11  14  1   
 24  12  15  1   
 25  12  33  1   
 26  13  16  ar  
 27  13  17  ar  
 28  14  34  1   
 29  14  35  1   
 30  14  36  1   
 31  15  37  1   
 32  15  38  1   
 33  15  39  1   
 34  16  18  ar  
 35  17  19  ar  
 36  17  20  1   
 37  18  21  ar  
 38  18  40  1   
 39  19  21  ar  
 40  19  22  1   
 41  20  23  2   
 42  20  41  1   
 43  22  23  1   
 44  22  42  1   
 45  23  43  1   
@<TRIPOS>SUBSTRUCTURE
  1 ****   5 GROUP 4 **** **** 0

# MOE 2024.06 (io_trps.svl 2023.06)
