@<TRIPOS>MOLECULE
NONAME
54 56 1 0 0 
SMALL
USER_CHARGES


@<TRIPOS>ATOM
  1 O       -0.4960     1.0570     0.4070 O.2   1 <1>  -0.5700 
  2 C       -0.4500     2.2210     0.1020 C.2   1 <1>   0.5690 
  3 N       -1.2040     3.1360     0.7470 N.am  1 <1>  -0.7300 
  4 C        0.4390     2.6820    -1.0520 C.3   1 <1>   0.1810 
  5 C       -1.2820     4.5660     0.3640 C.3   1 <1>   0.3640 
  6 O        0.7490     4.0570    -0.9710 O.3   1 <1>  -0.5600 
  7 C       -2.7470     4.8940     0.0760 C.ar  1 <1>  -0.1440 
  8 C       -0.3790     4.9200    -0.8540 C.3   1 <1>   0.2610 
  9 C       -3.5160     4.0820    -0.7490 C.ar  1 <1>  -0.1500 
 10 C       -3.3300     6.0200     0.6400 C.ar  1 <1>  -0.1500 
 11 C        0.1080     6.3740    -0.7660 C.2   1 <1>   0.5690 
 12 C       -4.8410     4.3900    -1.0050 C.ar  1 <1>  -0.1500 
 13 C       -4.6550     6.3290     0.3850 C.ar  1 <1>  -0.1500 
 14 O       -0.6360     7.2540    -0.4020 O.2   1 <1>  -0.5700 
 15 N        1.4000     6.6480    -1.1040 N.am  1 <1>  -0.7300 
 16 C       -5.4110     5.5150    -0.4380 C.ar  1 <1>  -0.1500 
 17 C        2.0690     7.9520    -1.2470 C.3   1 <1>   0.3000 
 18 C        1.5890     8.9170    -0.1070 C.3   1 <1>   0.3430 
 19 C        1.6960     8.4640    -2.6430 C.3   1 <1>  -0.2400 
 20 C        3.5690     7.6410    -1.1960 C.3   1 <1>  -0.2400 
 21 N        2.3770    10.1670     0.2190 N.4   1 <1>  -0.9590 
 22 C        2.6830    11.0830    -0.9270 C.3   1 <1>   0.3430 
 23 C        3.5870     9.9460     1.0850 C.3   1 <1>   0.3430 
 24 C        3.3320    12.3970    -0.4310 C.3   1 <1>   0.1200 
 25 C        4.3030    11.2790     1.4010 C.3   1 <1>   0.1200 
 26 O        3.5460    12.3720     0.9560 O.3   1 <1>  -0.5600 
 27 H       -1.8510     2.8140     1.4690 H     1 <1>   0.3700 
 28 H       -0.0560     2.4950    -1.9870 H     1 <1>   0.0800 
 29 H        1.3630     2.1330    -1.0290 H     1 <1>   0.0800 
 30 H       -0.9560     5.1460     1.2110 H     1 <1>   0.0800 
 31 H       -0.9530     4.8200    -1.7580 H     1 <1>   0.0800 
 32 H       -3.0930     3.1990    -1.1970 H     1 <1>   0.1500 
 33 H       -2.7580     6.6700     1.2790 H     1 <1>   0.1500 
 34 H       -5.4290     3.7540    -1.6440 H     1 <1>   0.1500 
 35 H       -5.0970     7.2060     0.8260 H     1 <1>   0.1500 
 36 H        1.9560     5.8320    -1.3900 H     1 <1>   0.3700 
 37 H       -6.4420     5.7560    -0.6360 H     1 <1>   0.1500 
 38 H        1.5140     8.3280     0.7910 H     1 <1>   0.0800 
 39 H        0.5850     9.2150    -0.3610 H     1 <1>   0.0800 
 40 H        2.2540     9.3390    -2.9110 H     1 <1>   0.0800 
 41 H        0.6470     8.7010    -2.6860 H     1 <1>   0.0800 
 42 H        1.9030     7.7120    -3.3850 H     1 <1>   0.0800 
 43 H        4.1510     8.5230    -1.3860 H     1 <1>   0.0800 
 44 H        3.8280     6.9190    -1.9510 H     1 <1>   0.0800 
 45 H        3.8410     7.2420    -0.2350 H     1 <1>   0.0800 
 46 H        1.7710    10.7480     0.8220 H     1 <1>   0.4500 
 47 H        3.3610    10.6020    -1.6120 H     1 <1>   0.0800 
 48 H        1.7810    11.3160    -1.4690 H     1 <1>   0.0800 
 49 H        3.2910     9.4820     2.0120 H     1 <1>   0.0800 
 50 H        4.2850     9.2850     0.6020 H     1 <1>   0.0800 
 51 H        2.6870    13.2320    -0.6460 H     1 <1>   0.0800 
 52 H        4.2740    12.5670    -0.9230 H     1 <1>   0.0800 
 53 H        5.2700    11.3150     0.9300 H     1 <1>   0.0800 
 54 H        4.4430    11.3830     2.4640 H     1 <1>   0.0800 
@<TRIPOS>BOND
  1   1   2  2   
  2   2   3  am  
  3   2   4  1   
  4   3   5  1   
  5   3  27  1   
  6   4   6  1   
  7   4  28  1   
  8   4  29  1   
  9   5   7  1   
 10   5   8  1   
 11   5  30  1   
 12   6   8  1   
 13   7   9  ar  
 14   7  10  ar  
 15   8  11  1   
 16   8  31  1   
 17   9  12  ar  
 18   9  32  1   
 19  10  13  ar  
 20  10  33  1   
 21  11  14  2   
 22  11  15  am  
 23  12  16  ar  
 24  12  34  1   
 25  13  16  ar  
 26  13  35  1   
 27  15  17  1   
 28  15  36  1   
 29  16  37  1   
 30  17  18  1   
 31  17  19  1   
 32  17  20  1   
 33  18  21  1   
 34  18  38  1   
 35  18  39  1   
 36  19  40  1   
 37  19  41  1   
 38  19  42  1   
 39  20  43  1   
 40  20  44  1   
 41  20  45  1   
 42  21  22  1   
 43  21  23  1   
 44  21  46  1   
 45  22  24  1   
 46  22  47  1   
 47  22  48  1   
 48  23  25  1   
 49  23  49  1   
 50  23  50  1   
 51  24  26  1   
 52  24  51  1   
 53  24  52  1   
 54  25  26  1   
 55  25  53  1   
 56  25  54  1   
@<TRIPOS>SUBSTRUCTURE
  1 ****  11 GROUP 4 **** **** 0

# MOE 2024.06 (io_trps.svl 2023.06)
