@<TRIPOS>MOLECULE
NONAME
44 47 1 0 0 
SMALL
USER_CHARGES


@<TRIPOS>ATOM
  1 O        0.5060     0.0070     0.3930 O.3   1 <1>  -0.2800 
  2 C        0.6550    -1.0220    -0.3770 C.2   1 <1>   0.2980 
  3 C        1.3560     0.8700    -0.0650 C.2   1 <1>   0.2980 
  4 N        1.5530    -0.8280    -1.2680 N.2   1 <1>  -0.3380 
  5 C       -0.2030    -2.2650    -0.1430 C.3   1 <1>   0.1000 
  6 N        2.0080     0.4090    -1.0670 N.2   1 <1>  -0.3380 
  7 C        1.4470     2.2340     0.6240 C.3   1 <1>   0.2900 
  8 C        0.2950    -3.4780    -0.9450 C.3   1 <1>  -0.2400 
  9 C       -1.6710    -1.9810    -0.4880 C.3   1 <1>  -0.2400 
 10 N        2.5410     3.1220     0.1510 N.3   1 <1>  -0.8100 
 11 C        2.3570     4.5260     0.6420 C.3   1 <1>   0.5140 
 12 C        3.8900     2.5770     0.4450 C.3   1 <1>   0.1100 
 13 C        1.1540     5.1590    -0.0500 C.ar  1 <1>  -0.1440 
 14 C        3.6220     5.3640     0.4180 C.2   1 <1>   0.0460 
 15 C        4.9900     3.3700    -0.2860 C.3   1 <1>   0.0200 
 16 C        0.9660     5.0020    -1.4150 C.ar  1 <1>   0.1600 
 17 C        0.2310     5.9000     0.6650 C.ar  1 <1>  -0.1500 
 18 N        3.7390     6.6940     0.6280 N.2   1 <1>  -0.5650 
 19 C        4.7900     4.8440    -0.0060 C.2   1 <1>  -0.3320 
 20 N       -0.0540     5.4950    -2.1050 N.ar  1 <1>  -0.6200 
 21 C       -0.8310     6.4270    -0.0380 C.ar  1 <1>  -0.1500 
 22 C        4.9650     6.9480     0.2950 C.2   1 <1>   0.0360 
 23 N        5.6620     5.8610    -0.1060 N.pl3 1 <1>   0.0330 
 24 C       -0.9240     6.1970    -1.4000 C.ar  1 <1>   0.1600 
 25 H       -0.1380    -2.5090     0.9030 H     1 <1>   0.0800 
 26 H        1.5560     2.0730     1.6810 H     1 <1>   0.0800 
 27 H        0.5000     2.7190     0.4630 H     1 <1>   0.0800 
 28 H        0.2400    -3.2780    -2.0010 H     1 <1>   0.0800 
 29 H       -0.3010    -4.3460    -0.7250 H     1 <1>   0.0800 
 30 H        1.3180    -3.6930    -0.6920 H     1 <1>   0.0800 
 31 H       -1.7650    -1.7170    -1.5270 H     1 <1>   0.0800 
 32 H       -2.0400    -1.1630     0.1060 H     1 <1>   0.0800 
 33 H       -2.2790    -2.8460    -0.2920 H     1 <1>   0.0800 
 34 H        2.1810     4.5040     1.7030 H     1 <1>   0.0800 
 35 H        3.9580     1.5490     0.1360 H     1 <1>   0.0800 
 36 H        4.0690     2.6180     1.5070 H     1 <1>   0.0800 
 37 H        4.9260     3.1830    -1.3430 H     1 <1>   0.0800 
 38 H        5.9540     3.0470     0.0640 H     1 <1>   0.0800 
 39 H        1.6950     4.4330    -1.9690 H     1 <1>   0.1500 
 40 H        0.3370     6.0710     1.7220 H     1 <1>   0.1500 
 41 H       -1.5780     7.0150     0.4610 H     1 <1>   0.1500 
 42 H        5.4070     7.9280     0.3290 H     1 <1>   0.1500 
 43 H        6.6370     5.8270    -0.4150 H     1 <1>   0.2700 
 44 H       -1.7580     6.6140    -1.9380 H     1 <1>   0.1500 
@<TRIPOS>BOND
  1   1   2  1   
  2   1   3  1   
  3   2   4  2   
  4   2   5  1   
  5   3   6  2   
  6   3   7  1   
  7   4   6  1   
  8   5   8  1   
  9   5   9  1   
 10   5  25  1   
 11   7  10  1   
 12   7  26  1   
 13   7  27  1   
 14   8  28  1   
 15   8  29  1   
 16   8  30  1   
 17   9  31  1   
 18   9  32  1   
 19   9  33  1   
 20  10  11  1   
 21  10  12  1   
 22  11  13  1   
 23  11  14  1   
 24  11  34  1   
 25  12  15  1   
 26  12  35  1   
 27  12  36  1   
 28  13  16  ar  
 29  13  17  ar  
 30  14  18  1   
 31  14  19  2   
 32  15  19  1   
 33  15  37  1   
 34  15  38  1   
 35  16  20  ar  
 36  16  39  1   
 37  17  21  ar  
 38  17  40  1   
 39  18  22  2   
 40  19  23  1   
 41  20  24  ar  
 42  21  24  ar  
 43  21  41  1   
 44  22  23  1   
 45  22  42  1   
 46  23  43  1   
 47  24  44  1   
@<TRIPOS>SUBSTRUCTURE
  1 ****  10 GROUP 4 **** **** 0

# MOE 2024.06 (io_trps.svl 2023.06)
