@<TRIPOS>MOLECULE
NONAME
41 42 1 0 0 
SMALL
USER_CHARGES


@<TRIPOS>ATOM
  1 O       -0.2610     0.3540    -0.4710 O.3   1 <1>  -0.3630 
  2 C       -1.3750     1.0160    -0.0540 C.ar  1 <1>   0.0830 
  3 C       -0.2740    -1.0290    -0.7430 C.3   1 <1>   0.0400 
  4 C       -1.2580     2.3820     0.2100 C.ar  1 <1>  -0.1440 
  5 C       -2.6020     0.3780     0.1140 C.ar  1 <1>  -0.1500 
  6 C       -2.3790     3.0800     0.6440 C.ar  1 <1>  -0.1500 
  7 C        0.1060     3.0510     0.0120 C.3   1 <1>  -0.0160 
  8 C       -3.7070     1.0890     0.5440 C.ar  1 <1>  -0.1500 
  9 C       -3.5940     2.4400     0.8100 C.ar  1 <1>  -0.1500 
 10 C        0.1320     4.5780     0.1770 C.3   1 <1>  -0.1600 
 11 C        1.5270     5.1360    -0.0940 C.3   1 <1>   0.2090 
 12 N        1.4980     6.5970     0.0870 N.pl3 1 <1>  -0.8690 
 13 C        2.5970     7.3830     0.0240 C.ar  1 <1>   0.7200 
 14 N        2.3360     8.6590    -0.2160 N.ar  1 <1>  -0.6200 
 15 N        3.7870     6.8180     0.1890 N.ar  1 <1>  -0.6200 
 16 C        3.3780     9.4490    -0.2830 C.ar  1 <1>   0.1670 
 17 C        4.8140     7.6260     0.1180 C.ar  1 <1>   0.1670 
 18 C        4.6590     8.9730    -0.1200 C.ar  1 <1>  -0.1500 
 19 C        3.1120    10.9150    -0.5490 C.3   1 <1>  -0.0970 
 20 C        6.1840     7.0140     0.3090 C.3   1 <1>  -0.0970 
 21 H        0.7160    -1.3190    -1.0450 H     1 <1>   0.0800 
 22 H       -0.9700    -1.2210    -1.5410 H     1 <1>   0.0800 
 23 H       -0.5540    -1.5580     0.1500 H     1 <1>   0.0800 
 24 H       -2.7190    -0.6700    -0.0830 H     1 <1>   0.1500 
 25 H       -2.3320     4.1310     0.8630 H     1 <1>   0.1500 
 26 H        0.4540     2.8110    -0.9780 H     1 <1>   0.0800 
 27 H        0.7970     2.6130     0.7120 H     1 <1>   0.0800 
 28 H       -4.6520     0.5920     0.6730 H     1 <1>   0.1500 
 29 H       -4.4530     2.9940     1.1470 H     1 <1>   0.1500 
 30 H       -0.1500     4.8340     1.1830 H     1 <1>   0.0800 
 31 H       -0.5640     5.0200    -0.5140 H     1 <1>   0.0800 
 32 H        1.8370     4.9080    -1.1000 H     1 <1>   0.0800 
 33 H        2.2380     4.7050     0.5920 H     1 <1>   0.0800 
 34 H        0.6650     7.0840    -0.2330 H     1 <1>   0.4000 
 35 H        5.5060     9.6280    -0.1760 H     1 <1>   0.1500 
 36 H        2.4890    11.3130     0.2310 H     1 <1>   0.0800 
 37 H        2.6010    11.0220    -1.4880 H     1 <1>   0.0800 
 38 H        4.0280    11.4750    -0.5840 H     1 <1>   0.0800 
 39 H        6.3470     6.2600    -0.4400 H     1 <1>   0.0800 
 40 H        6.2390     6.5550     1.2790 H     1 <1>   0.0800 
 41 H        6.9560     7.7570     0.2300 H     1 <1>   0.0800 
@<TRIPOS>BOND
  1   1   2  1   
  2   1   3  1   
  3   2   4  ar  
  4   2   5  ar  
  5   3  21  1   
  6   3  22  1   
  7   3  23  1   
  8   4   6  ar  
  9   4   7  1   
 10   5   8  ar  
 11   5  24  1   
 12   6   9  ar  
 13   6  25  1   
 14   7  10  1   
 15   7  26  1   
 16   7  27  1   
 17   8   9  ar  
 18   8  28  1   
 19   9  29  1   
 20  10  11  1   
 21  10  30  1   
 22  10  31  1   
 23  11  12  1   
 24  11  32  1   
 25  11  33  1   
 26  12  13  1   
 27  12  34  1   
 28  13  14  ar  
 29  13  15  ar  
 30  14  16  ar  
 31  15  17  ar  
 32  16  18  ar  
 33  16  19  1   
 34  17  18  ar  
 35  17  20  1   
 36  18  35  1   
 37  19  36  1   
 38  19  37  1   
 39  19  38  1   
 40  20  39  1   
 41  20  40  1   
 42  20  41  1   
@<TRIPOS>SUBSTRUCTURE
  1 ****  11 GROUP 4 **** **** 0

# MOE 2024.06 (io_trps.svl 2023.06)
