@<TRIPOS>MOLECULE
NONAME
52 55 1 0 0 
SMALL
USER_CHARGES


@<TRIPOS>ATOM
  1 O       -0.0480     1.3210     1.4720 O.2   1 <1>  -0.5700 
  2 C       -0.2080     2.4420     1.0620 C.2   1 <1>   0.5690 
  3 N       -1.2230     3.2080     1.5150 N.am  1 <1>  -0.7300 
  4 C        0.7170     3.0090    -0.0140 C.3   1 <1>   0.1810 
  5 C       -1.5460     4.5570     0.9820 C.3   1 <1>   0.3640 
  6 O        0.7190     4.4180    -0.0260 O.3   1 <1>  -0.5600 
  7 C       -2.9900     4.5220     0.4830 C.ar  1 <1>  -0.1440 
  8 C       -0.5700     5.0210    -0.1390 C.3   1 <1>   0.2610 
  9 C       -3.4560     3.4800    -0.3100 C.ar  1 <1>  -0.1500 
 10 C       -3.8630     5.5480     0.8200 C.ar  1 <1>  -0.1500 
 11 C       -0.4320     6.5510    -0.1320 C.2   1 <1>   0.5690 
 12 C       -4.7670     3.4630    -0.7530 C.ar  1 <1>  -0.1500 
 13 C       -5.1740     5.5330     0.3760 C.ar  1 <1>  -0.1500 
 14 O       -1.4160     7.2460    -0.0430 O.2   1 <1>  -0.5700 
 15 N        0.8110     7.0970    -0.2270 N.am  1 <1>  -0.7300 
 16 C       -5.6280     4.4900    -0.4100 C.ar  1 <1>  -0.1500 
 17 C        1.1360     8.5440    -0.2920 C.3   1 <1>   0.1400 
 18 C        1.9470     8.9580     0.9330 C.3   1 <1>  -0.0170 
 19 C        2.3970    10.3960     0.7870 C.ar  1 <1>   0.4770 
 20 N        1.6730    11.3060     1.4270 N.ar  1 <1>  -0.6200 
 21 N        3.4650    10.5910     0.0260 N.ar  1 <1>  -0.6200 
 22 C        2.0620    12.5560     1.2950 C.ar  1 <1>   0.1670 
 23 C        3.8190    11.8480    -0.0830 C.ar  1 <1>   0.1670 
 24 C        3.1590    12.8720     0.5260 C.ar  1 <1>  -0.1430 
 25 C        1.2460    13.6020     2.0250 C.3   1 <1>  -0.0970 
 26 C        4.9950    12.3320    -0.8870 C.3   1 <1>  -0.0170 
 27 C        3.8080    14.2030     0.2150 C.3   1 <1>  -0.0170 
 28 C        4.8300    13.8640    -0.8860 C.3   1 <1>  -0.1600 
 29 H       -1.8830     2.8030     2.1800 H     1 <1>   0.3700 
 30 H        0.4080     2.6570    -0.9810 H     1 <1>   0.0800 
 31 H        1.7230     2.6800     0.1730 H     1 <1>   0.0800 
 32 H       -1.4770     5.2550     1.8000 H     1 <1>   0.0800 
 33 H       -0.9730     4.7370    -1.0940 H     1 <1>   0.0800 
 34 H       -2.8050     2.6690    -0.5860 H     1 <1>   0.1500 
 35 H       -3.5260     6.3750     1.4220 H     1 <1>   0.1500 
 36 H       -5.1190     2.6500    -1.3650 H     1 <1>   0.1500 
 37 H       -5.8390     6.3360     0.6420 H     1 <1>   0.1500 
 38 H        1.5990     6.4430    -0.2710 H     1 <1>   0.3700 
 39 H       -6.6470     4.4780    -0.7550 H     1 <1>   0.1500 
 40 H        1.7030     8.7360    -1.1870 H     1 <1>   0.0800 
 41 H        0.2300     9.1270    -0.3370 H     1 <1>   0.0800 
 42 H        2.8160     8.3340     1.0280 H     1 <1>   0.0800 
 43 H        1.3450     8.8560     1.8170 H     1 <1>   0.0800 
 44 H        1.6640    14.5830     1.9070 H     1 <1>   0.0800 
 45 H        1.2150    13.3630     3.0730 H     1 <1>   0.0800 
 46 H        0.2420    13.6020     1.6420 H     1 <1>   0.0800 
 47 H        5.9050    12.0380    -0.3960 H     1 <1>   0.0800 
 48 H        4.9700    11.9290    -1.8840 H     1 <1>   0.0800 
 49 H        3.0870    14.9220    -0.1310 H     1 <1>   0.0800 
 50 H        4.3050    14.5750     1.0940 H     1 <1>   0.0800 
 51 H        5.7700    14.3630    -0.7230 H     1 <1>   0.0800 
 52 H        4.4330    14.1710    -1.8380 H     1 <1>   0.0800 
@<TRIPOS>BOND
  1   1   2  2   
  2   2   3  am  
  3   2   4  1   
  4   3   5  1   
  5   3  29  1   
  6   4   6  1   
  7   4  30  1   
  8   4  31  1   
  9   5   7  1   
 10   5   8  1   
 11   5  32  1   
 12   6   8  1   
 13   7   9  ar  
 14   7  10  ar  
 15   8  11  1   
 16   8  33  1   
 17   9  12  ar  
 18   9  34  1   
 19  10  13  ar  
 20  10  35  1   
 21  11  14  2   
 22  11  15  am  
 23  12  16  ar  
 24  12  36  1   
 25  13  16  ar  
 26  13  37  1   
 27  15  17  1   
 28  15  38  1   
 29  16  39  1   
 30  17  18  1   
 31  17  40  1   
 32  17  41  1   
 33  18  19  1   
 34  18  42  1   
 35  18  43  1   
 36  19  20  ar  
 37  19  21  ar  
 38  20  22  ar  
 39  21  23  ar  
 40  22  24  ar  
 41  22  25  1   
 42  23  24  ar  
 43  23  26  1   
 44  24  27  1   
 45  25  44  1   
 46  25  45  1   
 47  25  46  1   
 48  26  28  1   
 49  26  47  1   
 50  26  48  1   
 51  27  28  1   
 52  27  49  1   
 53  27  50  1   
 54  28  51  1   
 55  28  52  1   
@<TRIPOS>SUBSTRUCTURE
  1 ****  15 GROUP 4 **** **** 0

# MOE 2024.06 (io_trps.svl 2023.06)
