@<TRIPOS>MOLECULE
NONAME
46 49 1 0 0 
SMALL
USER_CHARGES


@<TRIPOS>ATOM
  1 O        0.1700     0.9330     0.6630 O.2   1 <1>  -0.5700 
  2 C       -0.5580     1.9140     0.7150 C.2   1 <1>   0.7160 
  3 N       -1.8790     1.7470     0.3200 N.am  1 <1>  -0.6600 
  4 C        0.0090     3.1740     1.2020 C.2   1 <1>   0.2030 
  5 C       -2.9850     2.7040     0.6390 C.3   1 <1>   0.1400 
  6 C       -2.3450     0.5230    -0.3940 C.3   1 <1>   0.1400 
  7 N       -0.3830     4.4130     0.9380 N.2   1 <1>  -0.7070 
  8 C        1.1240     3.2110     2.0530 C.2   1 <1>  -0.1500 
  9 C       -3.7080     3.1570    -0.6420 C.3   1 <1>   0.1430 
 10 C       -3.0880     0.9140    -1.6790 C.3   1 <1>  -0.1600 
 11 N        0.4550     5.2120     1.6120 N.pl3 1 <1>   0.3000 
 12 C        1.3760     4.5110     2.2940 C.2   1 <1>  -0.3020 
 13 C       -4.8220     4.1070    -0.2440 C.ar  1 <1>   0.1670 
 14 C       -4.2230     1.9180    -1.4060 C.3   1 <1>  -0.1600 
 15 C       -2.8100     4.0560    -1.5350 C.3   1 <1>  -0.1600 
 16 N       -5.9440     3.7600     0.3370 N.ar  1 <1>  -0.6200 
 17 C       -4.5090     5.3980    -0.5430 C.ar  1 <1>  -0.1430 
 18 C       -3.1470     5.5140    -1.1800 C.3   1 <1>  -0.0170 
 19 C       -6.7770     4.7670     0.6110 C.ar  1 <1>   0.7200 
 20 C       -5.4270     6.3660    -0.2280 C.ar  1 <1>   0.1600 
 21 N       -6.5670     6.0620     0.3480 N.ar  1 <1>  -0.6200 
 22 N       -7.9680     4.4400     1.2300 N.pl3 1 <1>  -0.8380 
 23 C       -9.0910     5.4110     1.3420 C.3   1 <1>   0.1290 
 24 C       -8.2060     3.0990     1.8310 C.3   1 <1>   0.1290 
 25 H       -2.6320     3.5580     1.1830 H     1 <1>   0.0800 
 26 H       -3.6950     2.2030     1.2740 H     1 <1>   0.0800 
 27 H       -3.0030    -0.0290     0.2560 H     1 <1>   0.0800 
 28 H       -1.5150    -0.1150    -0.6450 H     1 <1>   0.0800 
 29 H        1.6470     2.3420     2.4150 H     1 <1>   0.1500 
 30 H       -3.4950     0.0280    -2.1330 H     1 <1>   0.0800 
 31 H       -2.3810     1.3360    -2.3710 H     1 <1>   0.0800 
 32 H        0.3790     6.2370     1.5900 H     1 <1>   0.2700 
 33 H        2.1420     4.9660     2.8950 H     1 <1>   0.1500 
 34 H       -4.6870     2.2180    -2.3290 H     1 <1>   0.0800 
 35 H       -4.9780     1.4340    -0.8110 H     1 <1>   0.0800 
 36 H       -3.0610     3.8990    -2.5690 H     1 <1>   0.0800 
 37 H       -1.7620     3.8500    -1.4100 H     1 <1>   0.0800 
 38 H       -3.1630     6.1410    -2.0540 H     1 <1>   0.0800 
 39 H       -2.4430     5.8980    -0.4630 H     1 <1>   0.0800 
 40 H       -5.2260     7.3990    -0.4470 H     1 <1>   0.1500 
 41 H       -9.0860     6.0910     0.5080 H     1 <1>   0.0800 
 42 H       -8.9860     5.9750     2.2530 H     1 <1>   0.0800 
 43 H      -10.0320     4.8920     1.3490 H     1 <1>   0.0800 
 44 H       -7.2820     2.6750     2.1840 H     1 <1>   0.0800 
 45 H       -8.6310     2.4440     1.0910 H     1 <1>   0.0800 
 46 H       -8.8800     3.1810     2.6660 H     1 <1>   0.0800 
@<TRIPOS>BOND
  1   1   2  2   
  2   2   3  am  
  3   2   4  1   
  4   3   5  1   
  5   3   6  1   
  6   4   7  2   
  7   4   8  1   
  8   5   9  1   
  9   5  25  1   
 10   5  26  1   
 11   6  10  1   
 12   6  27  1   
 13   6  28  1   
 14   7  11  1   
 15   8  12  2   
 16   8  29  1   
 17   9  13  1   
 18   9  14  1   
 19   9  15  1   
 20  10  14  1   
 21  10  30  1   
 22  10  31  1   
 23  11  12  1   
 24  11  32  1   
 25  12  33  1   
 26  13  16  ar  
 27  13  17  ar  
 28  14  34  1   
 29  14  35  1   
 30  15  18  1   
 31  15  36  1   
 32  15  37  1   
 33  16  19  ar  
 34  17  18  1   
 35  17  20  ar  
 36  18  38  1   
 37  18  39  1   
 38  19  21  ar  
 39  19  22  1   
 40  20  21  ar  
 41  20  40  1   
 42  22  23  1   
 43  22  24  1   
 44  23  41  1   
 45  23  42  1   
 46  23  43  1   
 47  24  44  1   
 48  24  45  1   
 49  24  46  1   
@<TRIPOS>SUBSTRUCTURE
  1 ****   5 GROUP 4 **** **** 0

# MOE 2024.06 (io_trps.svl 2023.06)
