@<TRIPOS>MOLECULE
NONAME
58 61 1 0 0 
SMALL
USER_CHARGES


@<TRIPOS>ATOM
  1 O       -0.0220     1.0280    -1.0000 O.2   1 <1>  -0.5700 
  2 C       -0.2560     1.9810    -0.2880 C.2   1 <1>   0.5690 
  3 N       -1.5590     2.3610    -0.0410 N.am  1 <1>  -0.6600 
  4 C        0.9230     2.7690     0.3180 C.3   1 <1>   0.2680 
  5 C       -2.6870     1.5300    -0.5620 C.3   1 <1>   0.1400 
  6 C       -1.9430     3.6330     0.6480 C.3   1 <1>   0.1400 
  7 C        1.2150     4.0790    -0.4300 C.ar  1 <1>  -0.1440 
  8 C        2.2070     1.9460     0.4900 C.ar  1 <1>  -0.1440 
  9 C       -3.9200     1.6790     0.3330 C.3   1 <1>  -0.1600 
 10 C       -3.2840     4.1390     0.1180 C.3   1 <1>  -0.1600 
 11 C        0.9020     4.2430    -1.7740 C.ar  1 <1>  -0.1500 
 12 C        1.8000     5.1350     0.2550 C.ar  1 <1>  -0.1500 
 13 C        3.0360     1.6820    -0.5920 C.ar  1 <1>  -0.1500 
 14 C        2.5620     1.4540     1.7400 C.ar  1 <1>  -0.1500 
 15 C       -4.4240     3.1400     0.4120 C.3   1 <1>   0.2800 
 16 C        1.1570     5.4430    -2.4150 C.ar  1 <1>  -0.1500 
 17 C        2.0550     6.3360    -0.3840 C.ar  1 <1>  -0.1500 
 18 C        4.1990     0.9490    -0.4290 C.ar  1 <1>  -0.1500 
 19 C        3.7240     0.7210     1.9050 C.ar  1 <1>  -0.1500 
 20 O       -4.7540     3.3520     1.7700 O.3   1 <1>  -0.5600 
 21 C       -5.6610     3.3500    -0.5180 C.3   1 <1>   0.2000 
 22 C        1.7310     6.4920    -1.7200 C.ar  1 <1>  -0.1500 
 23 C        4.5450     0.4680     0.8210 C.ar  1 <1>  -0.1500 
 24 C       -6.0520     3.7470     2.1150 C.3   1 <1>   0.1200 
 25 O       -5.3330     3.2450    -1.8750 O.3   1 <1>  -0.6800 
 26 C       -6.4580     4.6540    -0.2160 C.3   1 <1>   0.2800 
 27 C       -6.4400     4.9760     1.2890 C.3   1 <1>  -0.1600 
 28 O       -7.7710     4.4060    -0.5710 O.3   1 <1>  -0.6800 
 29 C       -6.0510     5.8870    -1.0370 C.3   1 <1>  -0.2400 
 30 H        0.6090     3.0440     1.3060 H     1 <1>   0.0800 
 31 H       -2.9200     1.8420    -1.5660 H     1 <1>   0.0800 
 32 H       -2.3920     0.4940    -0.5940 H     1 <1>   0.0800 
 33 H       -2.0200     3.4550     1.7080 H     1 <1>   0.0800 
 34 H       -1.2020     4.3930     0.4790 H     1 <1>   0.0800 
 35 H       -3.6560     1.3240     1.3130 H     1 <1>   0.0800 
 36 H       -4.6920     1.0350    -0.0450 H     1 <1>   0.0800 
 37 H       -3.1800     4.2950    -0.9400 H     1 <1>   0.0800 
 38 H       -3.5040     5.0890     0.5660 H     1 <1>   0.0800 
 39 H        0.4580     3.4400    -2.3380 H     1 <1>   0.1500 
 40 H        2.0650     5.0260     1.2920 H     1 <1>   0.1500 
 41 H        2.7740     2.0460    -1.5700 H     1 <1>   0.1500 
 42 H        1.9360     1.6360     2.5960 H     1 <1>   0.1500 
 43 H        0.9080     5.5590    -3.4550 H     1 <1>   0.1500 
 44 H        2.5080     7.1480     0.1570 H     1 <1>   0.1500 
 45 H        4.8300     0.7530    -1.2770 H     1 <1>   0.1500 
 46 H        3.9900     0.3440     2.8780 H     1 <1>   0.1500 
 47 H       -6.3260     2.5270    -0.3210 H     1 <1>   0.0800 
 48 H        1.9290     7.4250    -2.2180 H     1 <1>   0.1500 
 49 H        5.4480    -0.1020     0.9470 H     1 <1>   0.1500 
 50 H       -6.7250     2.9230     1.9430 H     1 <1>   0.0800 
 51 H       -6.0520     3.9810     3.1650 H     1 <1>   0.0800 
 52 H       -6.1520     3.3740    -2.3960 H     1 <1>   0.4000 
 53 H       -5.7120     5.7390     1.4970 H     1 <1>   0.0800 
 54 H       -7.3950     5.3480     1.6150 H     1 <1>   0.0800 
 55 H       -8.2970     5.2210    -0.4720 H     1 <1>   0.4000 
 56 H       -5.0170     6.1240    -0.8740 H     1 <1>   0.0800 
 57 H       -6.6340     6.7440    -0.7510 H     1 <1>   0.0800 
 58 H       -6.1840     5.7100    -2.0890 H     1 <1>   0.0800 
@<TRIPOS>BOND
  1   1   2  2   
  2   2   3  am  
  3   2   4  1   
  4   3   5  1   
  5   3   6  1   
  6   4   7  1   
  7   4   8  1   
  8   4  30  1   
  9   5   9  1   
 10   5  31  1   
 11   5  32  1   
 12   6  10  1   
 13   6  33  1   
 14   6  34  1   
 15   7  11  ar  
 16   7  12  ar  
 17   8  13  ar  
 18   8  14  ar  
 19   9  15  1   
 20   9  35  1   
 21   9  36  1   
 22  10  15  1   
 23  10  37  1   
 24  10  38  1   
 25  11  16  ar  
 26  11  39  1   
 27  12  17  ar  
 28  12  40  1   
 29  13  18  ar  
 30  13  41  1   
 31  14  19  ar  
 32  14  42  1   
 33  15  20  1   
 34  15  21  1   
 35  16  22  ar  
 36  16  43  1   
 37  17  22  ar  
 38  17  44  1   
 39  18  23  ar  
 40  18  45  1   
 41  19  23  ar  
 42  19  46  1   
 43  20  24  1   
 44  21  25  1   
 45  21  26  1   
 46  21  47  1   
 47  22  48  1   
 48  23  49  1   
 49  24  27  1   
 50  24  50  1   
 51  24  51  1   
 52  25  52  1   
 53  26  27  1   
 54  26  28  1   
 55  26  29  1   
 56  27  53  1   
 57  27  54  1   
 58  28  55  1   
 59  29  56  1   
 60  29  57  1   
 61  29  58  1   
@<TRIPOS>SUBSTRUCTURE
  1 ****   3 GROUP 4 **** **** 0

# MOE 2024.06 (io_trps.svl 2023.06)
