@<TRIPOS>MOLECULE
NONAME
51 53 1 0 0 
SMALL
USER_CHARGES


@<TRIPOS>ATOM
  1 O       -1.7740     1.1970     0.0460 O.2   1 <1>  -0.5700 
  2 C       -1.2850     2.2350     0.4120 C.2   1 <1>   0.5690 
  3 N       -2.0060     3.3760     0.4080 N.am  1 <1>  -0.7300 
  4 C        0.1820     2.2780     0.8520 C.3   1 <1>   0.1810 
  5 C       -1.4710     4.6890     0.8450 C.3   1 <1>   0.3640 
  6 O        0.5100     3.4370     1.5880 O.3   1 <1>  -0.5600 
  7 C       -1.8770     5.7490    -0.1780 C.ar  1 <1>  -0.1440 
  8 C        0.0710     4.6580     1.0080 C.3   1 <1>   0.2610 
  9 C       -1.7750     5.5140    -1.5440 C.ar  1 <1>  -0.1500 
 10 C       -2.3460     6.9800     0.2580 C.ar  1 <1>  -0.1500 
 11 C        0.5820     5.8660     1.8140 C.2   1 <1>   0.5690 
 12 C       -2.1370     6.4910    -2.4550 C.ar  1 <1>  -0.1500 
 13 C       -2.7080     7.9580    -0.6520 C.ar  1 <1>  -0.1500 
 14 O       -0.1840     6.4240     2.5710 O.2   1 <1>  -0.5700 
 15 N        1.8740     6.3180     1.6630 N.am  1 <1>  -0.6600 
 16 C       -2.6050     7.7140    -2.0090 C.ar  1 <1>  -0.1500 
 17 C        2.9480     5.6100     0.9190 C.3   1 <1>   0.1400 
 18 C        2.3200     7.6090     2.2490 C.3   1 <1>   0.1400 
 19 C        3.4140     6.4960    -0.2390 C.3   1 <1>  -0.1600 
 20 C        2.7950     8.5330     1.1220 C.3   1 <1>  -0.1600 
 21 C        3.8880     7.8760     0.2550 C.3   1 <1>  -0.0800 
 22 C        4.2830     8.7490    -0.9500 C.3   1 <1>  -0.1600 
 23 C        4.9190    10.0930    -0.5510 C.3   1 <1>  -0.0990 
 24 C        5.4450    10.8400    -1.7590 C.2   1 <1>   0.5690 
 25 O        6.5910    10.7030    -2.0960 O.2   1 <1>  -0.5700 
 26 N        4.6250    11.6480    -2.4520 N.am  1 <1>  -0.8000 
 27 H       -2.9830     3.3480     0.1120 H     1 <1>   0.3700 
 28 H        0.8150     2.2380    -0.0160 H     1 <1>   0.0800 
 29 H        0.3910     1.4270     1.4730 H     1 <1>   0.0800 
 30 H       -1.9220     4.9220     1.7950 H     1 <1>   0.0800 
 31 H        0.5010     4.7190     0.0270 H     1 <1>   0.0800 
 32 H       -1.4160     4.5680    -1.9110 H     1 <1>   0.1500 
 33 H       -2.4270     7.1890     1.3120 H     1 <1>   0.1500 
 34 H       -2.0580     6.3000    -3.5110 H     1 <1>   0.1500 
 35 H       -3.0700     8.9090    -0.3010 H     1 <1>   0.1500 
 36 H       -2.8890     8.4740    -2.7170 H     1 <1>   0.1500 
 37 H        3.7710     5.4250     1.5890 H     1 <1>   0.0800 
 38 H        2.6130     4.6590     0.5480 H     1 <1>   0.0800 
 39 H        1.5190     8.0830     2.7890 H     1 <1>   0.0800 
 40 H        3.1230     7.4230     2.9400 H     1 <1>   0.0800 
 41 H        4.2180     6.0010    -0.7540 H     1 <1>   0.0800 
 42 H        2.6010     6.6130    -0.9340 H     1 <1>   0.0800 
 43 H        1.9470     8.7910     0.5130 H     1 <1>   0.0800 
 44 H        3.1670     9.4370     1.5680 H     1 <1>   0.0800 
 45 H        4.7620     7.7250     0.8680 H     1 <1>   0.0800 
 46 H        4.9980     8.2090    -1.5480 H     1 <1>   0.0800 
 47 H        3.4200     8.9330    -1.5670 H     1 <1>   0.0800 
 48 H        5.7430     9.9180     0.1170 H     1 <1>   0.0800 
 49 H        4.2060    10.7160    -0.0450 H     1 <1>   0.0800 
 50 H        4.9900    12.1410    -3.2670 H     1 <1>   0.3700 
 51 H        3.6420    11.7940    -2.2280 H     1 <1>   0.3700 
@<TRIPOS>BOND
  1   1   2  2   
  2   2   3  am  
  3   2   4  1   
  4   3   5  1   
  5   3  27  1   
  6   4   6  1   
  7   4  28  1   
  8   4  29  1   
  9   5   7  1   
 10   5   8  1   
 11   5  30  1   
 12   6   8  1   
 13   7   9  ar  
 14   7  10  ar  
 15   8  11  1   
 16   8  31  1   
 17   9  12  ar  
 18   9  32  1   
 19  10  13  ar  
 20  10  33  1   
 21  11  14  2   
 22  11  15  am  
 23  12  16  ar  
 24  12  34  1   
 25  13  16  ar  
 26  13  35  1   
 27  15  17  1   
 28  15  18  1   
 29  16  36  1   
 30  17  19  1   
 31  17  37  1   
 32  17  38  1   
 33  18  20  1   
 34  18  39  1   
 35  18  40  1   
 36  19  21  1   
 37  19  41  1   
 38  19  42  1   
 39  20  21  1   
 40  20  43  1   
 41  20  44  1   
 42  21  22  1   
 43  21  45  1   
 44  22  23  1   
 45  22  46  1   
 46  22  47  1   
 47  23  24  1   
 48  23  48  1   
 49  23  49  1   
 50  24  25  2   
 51  24  26  am  
 52  26  50  1   
 53  26  51  1   
@<TRIPOS>SUBSTRUCTURE
  1 ****  15 GROUP 4 **** **** 0

# MOE 2024.06 (io_trps.svl 2023.06)
