@<TRIPOS>MOLECULE
NONAME
55 57 1 0 0 
SMALL
USER_CHARGES


@<TRIPOS>ATOM
  1 O        1.8400    -0.5060     2.3130 O.2   1 <1>  -0.5700 
  2 C        2.6160    -0.3320     1.4020 C.2   1 <1>   0.5690 
  3 N        3.4530    -1.3000     0.9450 N.am  1 <1>  -0.6600 
  4 C        2.6670     1.0050     0.6840 C.3   1 <1>  -0.0190 
  5 C        4.3420    -0.9900    -0.2040 C.3   1 <1>   0.2200 
  6 C        3.4710    -2.6960     1.4880 C.3   1 <1>   0.2010 
  7 C        3.9450     1.7530     1.1160 C.3   1 <1>   0.1100 
  8 C        2.5510     0.7700    -0.8380 C.3   1 <1>  -0.1600 
  9 C        5.4990    -0.0780     0.2750 C.3   1 <1>   0.1100 
 10 C        3.4820    -0.3700    -1.3260 C.3   1 <1>  -0.1600 
 11 C        3.0160    -3.7430     0.4650 C.2   1 <1>   0.5690 
 12 N        5.2080     1.3720     0.4270 N.3   1 <1>  -0.8100 
 13 O        3.8820    -4.4140    -0.0530 O.2   1 <1>  -0.5700 
 14 N        1.6870    -3.8970     0.1360 N.am  1 <1>  -0.6600 
 15 C        5.5690     2.1980    -0.7500 C.3   1 <1>   0.2900 
 16 C        1.2420    -4.8820    -0.8890 C.3   1 <1>   0.0600 
 17 C        0.5980    -3.0490     0.6980 C.3   1 <1>   0.0600 
 18 C        5.6260     3.6860    -0.4280 C.2   1 <1>   0.0060 
 19 N        4.8800     4.5640    -1.0230 N.2   1 <1>  -0.5650 
 20 N        6.4570     4.2210     0.5030 N.pl3 1 <1>   0.0480 
 21 C        5.2340     5.7290    -0.4530 C.2   1 <1>   0.0770 
 22 C        6.1940     5.5400     0.4770 C.2   1 <1>  -0.3020 
 23 C        7.4620     3.5550     1.3570 C.3   1 <1>   0.0960 
 24 C        8.7940     3.4810     0.6170 C.3   1 <1>   0.1200 
 25 O        9.7160     2.8450     1.4420 O.3   1 <1>  -0.5600 
 26 C       10.9880     2.7360     0.8900 C.3   1 <1>   0.0400 
 27 H        1.8240     1.5840     1.0130 H     1 <1>   0.0800 
 28 H        4.7750    -1.9070    -0.5680 H     1 <1>   0.0800 
 29 H        4.4740    -2.9330     1.7930 H     1 <1>   0.0800 
 30 H        2.8490    -2.7630     2.3610 H     1 <1>   0.0800 
 31 H        4.0830     1.5970     2.1730 H     1 <1>   0.0800 
 32 H        3.7700     2.8070     0.9890 H     1 <1>   0.0800 
 33 H        1.5350     0.4890    -1.0560 H     1 <1>   0.0800 
 34 H        2.7420     1.6860    -1.3680 H     1 <1>   0.0800 
 35 H        6.3190    -0.1930    -0.4130 H     1 <1>   0.0800 
 36 H        5.8440    -0.4540     1.2230 H     1 <1>   0.0800 
 37 H        4.1200    -0.0180    -2.1150 H     1 <1>   0.0800 
 38 H        2.8770    -1.1550    -1.7450 H     1 <1>   0.0800 
 39 H        6.5370     1.9000    -1.1100 H     1 <1>   0.0800 
 40 H        4.8670     2.0470    -1.5470 H     1 <1>   0.0800 
 41 H        0.5460    -5.5740    -0.4480 H     1 <1>   0.0800 
 42 H        2.0770    -5.4380    -1.2780 H     1 <1>   0.0800 
 43 H        0.7630    -4.3670    -1.7030 H     1 <1>   0.0800 
 44 H       -0.3540    -3.5360     0.5820 H     1 <1>   0.0800 
 45 H        0.5740    -2.1040     0.1830 H     1 <1>   0.0800 
 46 H        0.7570    -2.8700     1.7470 H     1 <1>   0.0800 
 47 H        4.7730     6.6570    -0.7470 H     1 <1>   0.1500 
 48 H        6.6890     6.2570     1.1060 H     1 <1>   0.1500 
 49 H        7.5780     4.1230     2.2610 H     1 <1>   0.0800 
 50 H        7.1240     2.5670     1.6060 H     1 <1>   0.0800 
 51 H        9.1550     4.4720     0.3960 H     1 <1>   0.0800 
 52 H        8.6920     2.9080    -0.2880 H     1 <1>   0.0800 
 53 H       11.6180     2.2300     1.6010 H     1 <1>   0.0800 
 54 H       11.3790     3.7200     0.6970 H     1 <1>   0.0800 
 55 H       10.9350     2.1620    -0.0190 H     1 <1>   0.0800 
@<TRIPOS>BOND
  1   1   2  2   
  2   2   3  am  
  3   2   4  1   
  4   3   5  1   
  5   3   6  1   
  6   4   7  1   
  7   4   8  1   
  8   4  27  1   
  9   5   9  1   
 10   5  10  1   
 11   5  28  1   
 12   6  11  1   
 13   6  29  1   
 14   6  30  1   
 15   7  12  1   
 16   7  31  1   
 17   7  32  1   
 18   8  10  1   
 19   8  33  1   
 20   8  34  1   
 21   9  12  1   
 22   9  35  1   
 23   9  36  1   
 24  10  37  1   
 25  10  38  1   
 26  11  13  2   
 27  11  14  am  
 28  12  15  1   
 29  14  16  1   
 30  14  17  1   
 31  15  18  1   
 32  15  39  1   
 33  15  40  1   
 34  16  41  1   
 35  16  42  1   
 36  16  43  1   
 37  17  44  1   
 38  17  45  1   
 39  17  46  1   
 40  18  19  2   
 41  18  20  1   
 42  19  21  1   
 43  20  22  1   
 44  20  23  1   
 45  21  22  2   
 46  21  47  1   
 47  22  48  1   
 48  23  24  1   
 49  23  49  1   
 50  23  50  1   
 51  24  25  1   
 52  24  51  1   
 53  24  52  1   
 54  25  26  1   
 55  26  53  1   
 56  26  54  1   
 57  26  55  1   
@<TRIPOS>SUBSTRUCTURE
  1 ****  12 GROUP 4 **** **** 0

# MOE 2024.06 (io_trps.svl 2023.06)
