@<TRIPOS>MOLECULE
NONAME
47 50 1 0 0 
SMALL
USER_CHARGES


@<TRIPOS>ATOM
  1 O        1.0810    -0.4920    -1.6510 O.2   1 <1>  -0.5700 
  2 C        1.8450    -0.8700    -0.7860 C.2   1 <1>   0.7150 
  3 N        2.7880     0.0150    -0.3070 N.am  1 <1>  -0.6600 
  4 C        1.7700    -2.2200    -0.2940 C.2   1 <1>  -0.2370 
  5 C        3.5080    -0.2270     1.0000 C.3   1 <1>   0.2200 
  6 C        2.9820     1.3190    -1.0200 C.3   1 <1>   0.1400 
  7 N        0.6010    -2.7890     0.1670 N.pl3 1 <1>   0.0480 
  8 C        2.7600    -3.1570    -0.1920 C.2   1 <1>  -0.1500 
  9 C        3.3840     0.9530     1.9780 C.3   1 <1>   0.1200 
 10 C        4.9930    -0.5840     0.7520 C.3   1 <1>   0.3430 
 11 C        4.2650     2.0870    -0.6510 C.3   1 <1>  -0.0800 
 12 C        0.8730    -4.0690     0.5830 C.ar  1 <1>  -0.1520 
 13 C       -0.7420    -2.1690     0.1300 C.3   1 <1>   0.0160 
 14 C        2.2220    -4.3240     0.3690 C.ar  1 <1>   0.0000 
 15 O        4.3880     1.8970     1.7480 O.3   1 <1>  -0.5600 
 16 N        5.4580    -0.1820    -0.6230 N.4   1 <1>  -0.9590 
 17 C        4.1480     2.7870     0.7110 C.3   1 <1>   0.1200 
 18 C        5.5880     1.3030    -0.7890 C.3   1 <1>   0.3430 
 19 C        0.0470    -5.0560     1.1350 C.ar  1 <1>  -0.1500 
 20 C        2.7620    -5.5710     0.7050 C.ar  1 <1>  -0.1500 
 21 C        6.7170    -0.8840    -1.0030 C.3   1 <1>   0.2630 
 22 C        0.5880    -6.2770     1.4650 C.ar  1 <1>  -0.1500 
 23 C        1.9470    -6.5350     1.2500 C.ar  1 <1>  -0.1500 
 24 H        3.0500    -1.0590     1.5050 H     1 <1>   0.0800 
 25 H        2.9900     1.1260    -2.0810 H     1 <1>   0.0800 
 26 H        2.1230     1.9420    -0.8270 H     1 <1>   0.0800 
 27 H        3.7870    -3.0720    -0.4910 H     1 <1>   0.1500 
 28 H        3.5310     0.5940     2.9820 H     1 <1>   0.0800 
 29 H        2.4130     1.4180     1.9270 H     1 <1>   0.0800 
 30 H        5.0960    -1.6500     0.8640 H     1 <1>   0.0800 
 31 H        5.6080    -0.1200     1.5070 H     1 <1>   0.0800 
 32 H        4.3270     2.8950    -1.3580 H     1 <1>   0.0800 
 33 H       -0.6690    -1.1290     0.3860 H     1 <1>   0.0800 
 34 H       -1.3920    -2.6590     0.8290 H     1 <1>   0.0800 
 35 H       -1.1430    -2.2640    -0.8630 H     1 <1>   0.0800 
 36 H        4.6860    -0.4700    -1.2480 H     1 <1>   0.4500 
 37 H        3.1810     3.2420     0.8500 H     1 <1>   0.0800 
 38 H        4.8930     3.5610     0.7900 H     1 <1>   0.0800 
 39 H        6.2980     1.6860    -0.0730 H     1 <1>   0.0800 
 40 H        5.9830     1.4990    -1.7720 H     1 <1>   0.0800 
 41 H       -0.9970    -4.8610     1.2970 H     1 <1>   0.1500 
 42 H        3.8040    -5.7610     0.5300 H     1 <1>   0.1500 
 43 H        7.5210    -0.5940    -0.3450 H     1 <1>   0.0800 
 44 H        6.9930    -0.6370    -2.0150 H     1 <1>   0.0800 
 45 H        6.5850    -1.9520    -0.9360 H     1 <1>   0.0800 
 46 H       -0.0300    -7.0480     1.8900 H     1 <1>   0.1500 
 47 H        2.3430    -7.5000     1.5140 H     1 <1>   0.1500 
@<TRIPOS>BOND
  1   1   2  2   
  2   2   3  am  
  3   2   4  1   
  4   3   5  1   
  5   3   6  1   
  6   4   7  1   
  7   4   8  2   
  8   5   9  1   
  9   5  10  1   
 10   5  24  1   
 11   6  11  1   
 12   6  25  1   
 13   6  26  1   
 14   7  12  1   
 15   7  13  1   
 16   8  14  1   
 17   8  27  1   
 18   9  15  1   
 19   9  28  1   
 20   9  29  1   
 21  10  16  1   
 22  10  30  1   
 23  10  31  1   
 24  11  17  1   
 25  11  18  1   
 26  11  32  1   
 27  12  14  ar  
 28  12  19  ar  
 29  13  33  1   
 30  13  34  1   
 31  13  35  1   
 32  14  20  ar  
 33  15  17  1   
 34  16  18  1   
 35  16  21  1   
 36  16  36  1   
 37  17  37  1   
 38  17  38  1   
 39  18  39  1   
 40  18  40  1   
 41  19  22  ar  
 42  19  41  1   
 43  20  23  ar  
 44  20  42  1   
 45  21  43  1   
 46  21  44  1   
 47  21  45  1   
 48  22  23  ar  
 49  22  46  1   
 50  23  47  1   
@<TRIPOS>SUBSTRUCTURE
  1 ****   4 GROUP 4 **** **** 0

# MOE 2024.06 (io_trps.svl 2023.06)
