@<TRIPOS>MOLECULE
NONAME
50 53 1 0 0 
SMALL
USER_CHARGES


@<TRIPOS>ATOM
  1 O        0.0490     0.8480    -0.5260 O.2   1 <1>  -0.5700 
  2 C       -0.0690     2.0310    -0.7430 C.2   1 <1>   0.5690 
  3 N       -0.7380     2.8690     0.1100 N.am  1 <1>  -0.6600 
  4 C        0.5460     2.5930    -2.0270 C.3   1 <1>   0.1810 
  5 C       -0.8830     4.3290    -0.1990 C.3   1 <1>   0.3640 
  6 C       -1.2520     2.4180     1.4360 C.3   1 <1>   0.0600 
  7 O        0.7870     3.9780    -1.9550 O.3   1 <1>  -0.5600 
  8 C       -2.3240     4.8200     0.0040 C.ar  1 <1>  -0.1440 
  9 C       -0.3570     4.7310    -1.5990 C.3   1 <1>   0.2610 
 10 C       -3.4590     4.2100    -0.5410 C.ar  1 <1>  -0.1440 
 11 C       -2.4860     5.9600     0.7840 C.ar  1 <1>  -0.1500 
 12 C       -0.0710     6.2350    -1.6470 C.2   1 <1>   0.5690 
 13 C       -4.7110     4.7510    -0.2870 C.ar  1 <1>  -0.1500 
 14 C       -3.4150     2.9550    -1.4090 C.3   1 <1>  -0.0960 
 15 C       -3.7380     6.4910     1.0280 C.ar  1 <1>  -0.1500 
 16 O       -0.6920     6.9110    -2.4350 O.2   1 <1>  -0.5700 
 17 N        0.8440     6.8050    -0.8080 N.am  1 <1>  -0.5100 
 18 C       -4.8550     5.8840     0.4910 C.ar  1 <1>  -0.1500 
 19 C        1.4690     8.1590    -0.9280 C.3   1 <1>   0.2250 
 20 C        2.0980     6.2620    -0.1940 C.3   1 <1>   0.2250 
 21 C        2.8520     7.4750    -0.7940 C.3   1 <1>   0.1080 
 22 C        3.8270     8.1590     0.1620 C.ar  1 <1>  -0.1080 
 23 C        3.9250     9.5340     0.2540 C.ar  1 <1>  -0.1500 
 24 C        4.6790     7.4370     0.9760 C.ar  1 <1>  -0.1500 
 25 C        4.8270    10.1020     1.1390 C.ar  1 <1>   0.1600 
 26 C        5.5460     8.1030     1.8260 C.ar  1 <1>   0.1600 
 27 N        5.6370     9.4180     1.9290 N.ar  1 <1>  -0.6200 
 28 H       -0.1100     2.4020    -2.8560 H     1 <1>   0.0800 
 29 H        1.4870     2.1070    -2.2120 H     1 <1>   0.0800 
 30 H       -0.2680     4.8350     0.5220 H     1 <1>   0.0800 
 31 H       -0.8120     3.0090     2.2200 H     1 <1>   0.0800 
 32 H       -1.0080     1.3840     1.6080 H     1 <1>   0.0800 
 33 H       -2.3220     2.5270     1.4740 H     1 <1>   0.0800 
 34 H       -1.1110     4.5340    -2.3370 H     1 <1>   0.0800 
 35 H       -1.6320     6.4580     1.2110 H     1 <1>   0.1500 
 36 H       -5.5940     4.2920    -0.6960 H     1 <1>   0.1500 
 37 H       -4.3480     2.8130    -1.9240 H     1 <1>   0.0800 
 38 H       -3.2400     2.0900    -0.7950 H     1 <1>   0.0800 
 39 H       -2.6440     3.0160    -2.1500 H     1 <1>   0.0800 
 40 H       -3.8440     7.3750     1.6310 H     1 <1>   0.1500 
 41 H       -5.8330     6.2910     0.6760 H     1 <1>   0.1500 
 42 H        1.2990     8.6100    -1.8900 H     1 <1>   0.0000 
 43 H        1.1990     8.7800    -0.0930 H     1 <1>   0.0000 
 44 H        2.0320     6.2710     0.8800 H     1 <1>   0.0000 
 45 H        2.4020     5.3200    -0.6100 H     1 <1>   0.0000 
 46 H        3.2920     7.2490    -1.7500 H     1 <1>   0.0000 
 47 H        3.3120    10.1770    -0.3520 H     1 <1>   0.1500 
 48 H        4.6840     6.3620     0.9590 H     1 <1>   0.1500 
 49 H        4.8860    11.1750     1.1980 H     1 <1>   0.1500 
 50 H        6.2010     7.5230     2.4540 H     1 <1>   0.1500 
@<TRIPOS>BOND
  1   1   2  2   
  2   2   3  am  
  3   2   4  1   
  4   3   5  1   
  5   3   6  1   
  6   4   7  1   
  7   4  28  1   
  8   4  29  1   
  9   5   8  1   
 10   5   9  1   
 11   5  30  1   
 12   6  31  1   
 13   6  32  1   
 14   6  33  1   
 15   7   9  1   
 16   8  10  ar  
 17   8  11  ar  
 18   9  12  1   
 19   9  34  1   
 20  10  13  ar  
 21  10  14  1   
 22  11  15  ar  
 23  11  35  1   
 24  12  16  2   
 25  12  17  am  
 26  13  18  ar  
 27  13  36  1   
 28  14  37  1   
 29  14  38  1   
 30  14  39  1   
 31  15  18  ar  
 32  15  40  1   
 33  17  19  1   
 34  17  20  1   
 35  18  41  1   
 36  19  21  1   
 37  19  42  1   
 38  19  43  1   
 39  20  21  1   
 40  20  44  1   
 41  20  45  1   
 42  21  22  1   
 43  21  46  1   
 44  22  23  ar  
 45  22  24  ar  
 46  23  25  ar  
 47  23  47  1   
 48  24  26  ar  
 49  24  48  1   
 50  25  27  ar  
 51  25  49  1   
 52  26  27  ar  
 53  26  50  1   
@<TRIPOS>SUBSTRUCTURE
  1 ****  17 GROUP 4 **** **** 0

# MOE 2024.06 (io_trps.svl 2023.06)
