@<TRIPOS>MOLECULE
NONAME
58 61 1 0 0 
SMALL
USER_CHARGES


@<TRIPOS>ATOM
  1 S        0.0950     1.5270     1.6900 S.3   1 <1>  -0.0800 
  2 C        0.6080     0.2100     0.6570 C.2   1 <1>  -0.1400 
  3 C        0.8590     2.7080     0.6490 C.2   1 <1>  -0.1100 
  4 C        1.3090     0.6870    -0.3930 C.2   1 <1>  -0.1500 
  5 C        0.1930    -1.1740     1.1260 C.3   1 <1>   0.5230 
  6 C        1.4610     2.1180    -0.4070 C.2   1 <1>  -0.1810 
  7 N       -0.3200    -1.9760    -0.0200 N.4   1 <1>  -0.9590 
  8 C        2.2520     2.7550    -1.5530 C.3   1 <1>   0.5240 
  9 C       -1.8060    -1.8760    -0.1230 C.3   1 <1>   0.4230 
 10 C        0.1220    -3.4000     0.1220 C.3   1 <1>   0.2630 
 11 N        2.4740     4.2290    -1.4300 N.4   1 <1>  -0.9590 
 12 C       -2.3680    -2.7120    -1.2650 C.3   1 <1>  -0.1600 
 13 C       -2.2820    -0.4630    -0.4540 C.3   1 <1>  -0.1600 
 14 C        3.2730     4.5880    -0.2180 C.3   1 <1>   0.3430 
 15 C        1.2060     5.0110    -1.5510 C.3   1 <1>   0.3430 
 16 C       -3.7470    -2.1050    -1.5490 C.3   1 <1>  -0.0800 
 17 C       -3.6510    -0.6260    -1.1370 C.3   1 <1>  -0.0800 
 18 C        3.6160     6.0780    -0.2500 C.3   1 <1>  -0.1600 
 19 C        1.5260     6.5060    -1.5960 C.3   1 <1>  -0.1600 
 20 C       -4.8630    -2.7240    -0.6840 C.3   1 <1>  -0.1600 
 21 C       -4.8360    -0.3720    -0.1910 C.3   1 <1>  -0.1600 
 22 C        2.3600     6.9490    -0.3860 C.3   1 <1>  -0.1600 
 23 C       -5.1910    -1.7210     0.4160 C.3   1 <1>   0.2000 
 24 O       -4.3580    -1.9510     1.4980 O.3   1 <1>  -0.6800 
 25 H        0.7610     3.7300     0.9700 H     1 <1>   0.1500 
 26 H        1.7450     0.0810    -1.1710 H     1 <1>   0.1500 
 27 H       -0.5690    -1.0910     1.8840 H     1 <1>   0.0800 
 28 H        1.0500    -1.6560     1.5680 H     1 <1>   0.0800 
 29 H        0.0720    -1.5760    -0.8770 H     1 <1>   0.4500 
 30 H        1.7350     2.5530    -2.4770 H     1 <1>   0.0800 
 31 H        3.2110     2.2660    -1.6100 H     1 <1>   0.0800 
 32 H       -2.2620    -2.2000     0.7970 H     1 <1>   0.0800 
 33 H       -0.3270    -3.8460     0.9950 H     1 <1>   0.0800 
 34 H        1.1940    -3.4560     0.2150 H     1 <1>   0.0800 
 35 H       -0.1730    -3.9730    -0.7430 H     1 <1>   0.0800 
 36 H        3.0500     4.5130    -2.2330 H     1 <1>   0.4500 
 37 H       -1.7580    -2.5960    -2.1440 H     1 <1>   0.0800 
 38 H       -2.4430    -3.7540    -1.0120 H     1 <1>   0.0800 
 39 H       -2.3530     0.1460     0.4290 H     1 <1>   0.0800 
 40 H       -1.6120    -0.0010    -1.1560 H     1 <1>   0.0800 
 41 H        2.7130     4.3730     0.6760 H     1 <1>   0.0800 
 42 H        4.1850     4.0120    -0.1890 H     1 <1>   0.0800 
 43 H        0.6800     4.7310    -2.4490 H     1 <1>   0.0800 
 44 H        0.5630     4.8130    -0.7100 H     1 <1>   0.0800 
 45 H       -3.9960    -2.2090    -2.5920 H     1 <1>   0.0800 
 46 H       -3.7170     0.0260    -1.9930 H     1 <1>   0.0800 
 47 H        4.1310     6.3400     0.6580 H     1 <1>   0.0800 
 48 H        4.2890     6.2750    -1.0670 H     1 <1>   0.0800 
 49 H        2.0530     6.7340    -2.5070 H     1 <1>   0.0800 
 50 H        0.6040     7.0620    -1.6140 H     1 <1>   0.0800 
 51 H       -4.6230    -3.6940    -0.2840 H     1 <1>   0.0800 
 52 H       -5.7390    -2.8310    -1.3000 H     1 <1>   0.0800 
 53 H       -5.6740    -0.0480    -0.7830 H     1 <1>   0.0800 
 54 H       -4.6470     0.3830     0.5520 H     1 <1>   0.0800 
 55 H        2.6420     7.9830    -0.4970 H     1 <1>   0.0800 
 56 H        1.7660     6.8680     0.5090 H     1 <1>   0.0800 
 57 H       -6.2150    -1.7890     0.7460 H     1 <1>   0.0800 
 58 H       -4.7090    -1.4770     2.2790 H     1 <1>   0.4000 
@<TRIPOS>BOND
  1   1   2  1   
  2   1   3  1   
  3   2   4  2   
  4   2   5  1   
  5   3   6  2   
  6   3  25  1   
  7   4   6  1   
  8   4  26  1   
  9   5   7  1   
 10   5  27  1   
 11   5  28  1   
 12   6   8  1   
 13   7   9  1   
 14   7  10  1   
 15   7  29  1   
 16   8  11  1   
 17   8  30  1   
 18   8  31  1   
 19   9  12  1   
 20   9  13  1   
 21   9  32  1   
 22  10  33  1   
 23  10  34  1   
 24  10  35  1   
 25  11  14  1   
 26  11  15  1   
 27  11  36  1   
 28  12  16  1   
 29  12  37  1   
 30  12  38  1   
 31  13  17  1   
 32  13  39  1   
 33  13  40  1   
 34  14  18  1   
 35  14  41  1   
 36  14  42  1   
 37  15  19  1   
 38  15  43  1   
 39  15  44  1   
 40  16  17  1   
 41  16  20  1   
 42  16  45  1   
 43  17  21  1   
 44  17  46  1   
 45  18  22  1   
 46  18  47  1   
 47  18  48  1   
 48  19  22  1   
 49  19  49  1   
 50  19  50  1   
 51  20  23  1   
 52  20  51  1   
 53  20  52  1   
 54  21  23  1   
 55  21  53  1   
 56  21  54  1   
 57  22  55  1   
 58  22  56  1   
 59  23  24  1   
 60  23  57  1   
 61  24  58  1   
@<TRIPOS>SUBSTRUCTURE
  1 ****   2 GROUP 4 **** **** 0

# MOE 2024.06 (io_trps.svl 2023.06)
