@<TRIPOS>MOLECULE
NONAME
39 40 1 0 0 
SMALL
USER_CHARGES


@<TRIPOS>ATOM
  1 CL       1.8350    -0.4260    -2.3340 Cl    1 <1>  -0.1770 
  2 C        2.5950     0.6970    -1.2300 C.ar  1 <1>   0.1770 
  3 C        2.3090     2.0510    -1.3100 C.ar  1 <1>   0.1600 
  4 C        3.4780     0.2220    -0.2850 C.ar  1 <1>  -0.1500 
  5 N        2.8340     2.9820    -0.5200 N.ar  1 <1>  -0.6200 
  6 C        4.0180     1.1860     0.5310 C.ar  1 <1>   0.1900 
  7 C        3.6900     2.5460     0.4030 C.ar  1 <1>   0.4100 
  8 F        4.8720     0.8090     1.4540 F     1 <1>  -0.1900 
  9 N        4.2420     3.4940     1.2460 N.pl3 1 <1>  -0.8690 
 10 C        4.4180     4.9100     0.8400 C.3   1 <1>   0.2890 
 11 C        5.8040     5.4230     1.2670 C.3   1 <1>   0.1400 
 12 C        3.3000     5.7380     1.4880 C.3   1 <1>  -0.1600 
 13 N        5.9350     6.8930     1.0050 N.am  1 <1>  -0.6600 
 14 C        3.5040     7.2420     1.2420 C.3   1 <1>  -0.1600 
 15 C        6.9340     7.3750     0.1880 C.2   1 <1>   0.5690 
 16 C        4.8930     7.7040     1.6960 C.3   1 <1>   0.1400 
 17 O        7.7900     6.6370    -0.2430 O.2   1 <1>  -0.5700 
 18 C        7.0030     8.8640    -0.2010 C.3   1 <1>  -0.0190 
 19 C        7.6870     9.0970    -1.5620 C.3   1 <1>  -0.2400 
 20 C        7.7270     9.6880     0.8770 C.3   1 <1>  -0.2400 
 21 H        1.6130     2.3800    -2.0630 H     1 <1>   0.1500 
 22 H        3.7230    -0.8200    -0.1950 H     1 <1>   0.1500 
 23 H        4.9810     3.1360     1.8550 H     1 <1>   0.4000 
 24 H        4.3500     4.9940    -0.2320 H     1 <1>   0.0800 
 25 H        6.5560     4.8720     0.7300 H     1 <1>   0.0800 
 26 H        5.9440     5.2510     2.3190 H     1 <1>   0.0800 
 27 H        3.2900     5.5500     2.5470 H     1 <1>   0.0800 
 28 H        2.3540     5.4290     1.0790 H     1 <1>   0.0800 
 29 H        2.7520     7.7970     1.7750 H     1 <1>   0.0800 
 30 H        3.3880     7.4580     0.1930 H     1 <1>   0.0800 
 31 H        5.0080     8.7540     1.5010 H     1 <1>   0.0800 
 32 H        4.9910     7.5600     2.7580 H     1 <1>   0.0800 
 33 H        6.0000     9.2310    -0.3060 H     1 <1>   0.0800 
 34 H        8.7150     8.7800    -1.5250 H     1 <1>   0.0800 
 35 H        7.6540    10.1370    -1.8310 H     1 <1>   0.0800 
 36 H        7.1860     8.5280    -2.3260 H     1 <1>   0.0800 
 37 H        8.7460     9.3540     0.9730 H     1 <1>   0.0800 
 38 H        7.2430     9.5710     1.8300 H     1 <1>   0.0800 
 39 H        7.7280    10.7320     0.6180 H     1 <1>   0.0800 
@<TRIPOS>BOND
  1   1   2  1   
  2   2   3  ar  
  3   2   4  ar  
  4   3   5  ar  
  5   3  21  1   
  6   4   6  ar  
  7   4  22  1   
  8   5   7  ar  
  9   6   7  ar  
 10   6   8  1   
 11   7   9  1   
 12   9  10  1   
 13   9  23  1   
 14  10  11  1   
 15  10  12  1   
 16  10  24  1   
 17  11  13  1   
 18  11  25  1   
 19  11  26  1   
 20  12  14  1   
 21  12  27  1   
 22  12  28  1   
 23  13  15  am  
 24  13  16  1   
 25  14  16  1   
 26  14  29  1   
 27  14  30  1   
 28  15  17  2   
 29  15  18  1   
 30  16  31  1   
 31  16  32  1   
 32  18  19  1   
 33  18  20  1   
 34  18  33  1   
 35  19  34  1   
 36  19  35  1   
 37  19  36  1   
 38  20  37  1   
 39  20  38  1   
 40  20  39  1   
@<TRIPOS>SUBSTRUCTURE
  1 ****  10 GROUP 4 **** **** 0

# MOE 2024.06 (io_trps.svl 2023.06)
