@<TRIPOS>MOLECULE
NONAME
49 53 1 0 0 
SMALL
USER_CHARGES


@<TRIPOS>ATOM
  1 S       -0.0630     0.5770    -1.8850 S.3   1 <1>  -0.0800 
  2 C       -1.1880     1.4600    -0.8640 C.2   1 <1>  -0.1400 
  3 C       -1.3690    -0.4120    -2.5240 C.2   1 <1>  -0.1100 
  4 C       -2.4380     1.0110    -1.0380 C.2   1 <1>  -0.1810 
  5 C       -0.7440     2.5720     0.0800 C.3   1 <1>   0.4600 
  6 C       -2.5510    -0.0600    -1.9800 C.2   1 <1>  -0.1500 
  7 C       -3.5700     1.6400    -0.2590 C.3   1 <1>   0.0210 
  8 O       -1.8550     2.9800     0.8540 O.3   1 <1>  -0.5600 
  9 C        0.2900     2.0510     1.0950 C.3   1 <1>  -0.1600 
 10 C       -0.2300     3.7900    -0.7050 C.3   1 <1>  -0.1600 
 11 C       -3.1250     3.0280     0.2410 C.3   1 <1>   0.1200 
 12 C        1.7180     2.4850     0.7600 C.3   1 <1>   0.1400 
 13 C        0.6010     4.7000     0.1950 C.3   1 <1>   0.1400 
 14 N        1.8170     3.9780     0.6910 N.am  1 <1>  -0.6600 
 15 C        2.9940     4.5970     1.0640 C.2   1 <1>   0.5690 
 16 O        3.9650     3.9450     1.3750 O.2   1 <1>  -0.5700 
 17 C        3.1760     6.1300     1.0950 C.3   1 <1>   0.2810 
 18 N        2.0130     6.8930     1.6440 N.am  1 <1>  -0.7300 
 19 C        3.5670     6.6560    -0.3000 C.3   1 <1>  -0.0170 
 20 C        1.7350     8.1800     1.3260 C.2   1 <1>   0.5440 
 21 C        3.4830     8.1760    -0.4210 C.ar  1 <1>  -0.1430 
 22 O        0.7860     8.6920     1.8810 O.2   1 <1>  -0.5700 
 23 C        2.5660     8.8830     0.3650 C.ar  1 <1>   0.0860 
 24 C        4.2960     8.8410    -1.3240 C.ar  1 <1>  -0.1500 
 25 C        2.4910    10.2650     0.2010 C.ar  1 <1>  -0.1500 
 26 C        4.2080    10.2140    -1.4640 C.ar  1 <1>  -0.1500 
 27 C        3.3020    10.9270    -0.7010 C.ar  1 <1>  -0.1500 
 28 H       -1.1100    -1.1620    -3.2490 H     1 <1>   0.1500 
 29 H       -3.5020    -0.5120    -2.2010 H     1 <1>   0.1500 
 30 H       -3.8270     1.0160     0.5780 H     1 <1>   0.0800 
 31 H       -4.4370     1.7480    -0.8850 H     1 <1>   0.0800 
 32 H        0.2490     0.9780     1.1380 H     1 <1>   0.0800 
 33 H        0.0590     2.4210     2.0780 H     1 <1>   0.0800 
 34 H       -1.0480     4.3370    -1.1310 H     1 <1>   0.0800 
 35 H        0.3910     3.4660    -1.5200 H     1 <1>   0.0800 
 36 H       -3.8240     3.4010     0.9680 H     1 <1>   0.0800 
 37 H       -3.0830     3.7220    -0.5800 H     1 <1>   0.0800 
 38 H        2.0190     2.0690    -0.1860 H     1 <1>   0.0800 
 39 H        2.3860     2.1050     1.5160 H     1 <1>   0.0800 
 40 H        0.0050     5.0120     1.0370 H     1 <1>   0.0800 
 41 H        0.8830     5.5760    -0.3610 H     1 <1>   0.0800 
 42 H        4.0050     6.3260     1.7530 H     1 <1>   0.0800 
 43 H        1.4710     6.4610     2.3950 H     1 <1>   0.3700 
 44 H        2.9230     6.2190    -1.0420 H     1 <1>   0.0800 
 45 H        4.5670     6.3240    -0.5170 H     1 <1>   0.0800 
 46 H        5.0010     8.2960    -1.9280 H     1 <1>   0.1500 
 47 H        1.7860    10.8220     0.7950 H     1 <1>   0.1500 
 48 H        4.8420    10.7280    -2.1660 H     1 <1>   0.1500 
 49 H        3.2280    11.9960    -0.8090 H     1 <1>   0.1500 
@<TRIPOS>BOND
  1   1   2  1   
  2   1   3  1   
  3   2   4  2   
  4   2   5  1   
  5   3   6  2   
  6   3  28  1   
  7   4   6  1   
  8   4   7  1   
  9   5   8  1   
 10   5   9  1   
 11   5  10  1   
 12   6  29  1   
 13   7  11  1   
 14   7  30  1   
 15   7  31  1   
 16   8  11  1   
 17   9  12  1   
 18   9  32  1   
 19   9  33  1   
 20  10  13  1   
 21  10  34  1   
 22  10  35  1   
 23  11  36  1   
 24  11  37  1   
 25  12  14  1   
 26  12  38  1   
 27  12  39  1   
 28  13  14  1   
 29  13  40  1   
 30  13  41  1   
 31  14  15  am  
 32  15  16  2   
 33  15  17  1   
 34  17  18  1   
 35  17  19  1   
 36  17  42  1   
 37  18  20  am  
 38  18  43  1   
 39  19  21  1   
 40  19  44  1   
 41  19  45  1   
 42  20  22  2   
 43  20  23  1   
 44  21  23  ar  
 45  21  24  ar  
 46  23  25  ar  
 47  24  26  ar  
 48  24  46  1   
 49  25  27  ar  
 50  25  47  1   
 51  26  27  ar  
 52  26  48  1   
 53  27  49  1   
@<TRIPOS>SUBSTRUCTURE
  1 ****  13 GROUP 4 **** **** 0

# MOE 2024.06 (io_trps.svl 2023.06)
