@<TRIPOS>MOLECULE
NONAME
60 64 1 0 0 
SMALL
USER_CHARGES


@<TRIPOS>ATOM
  1 O       -0.9920     0.7500    -0.0420 O.2   1 <1>  -0.5700 
  2 C       -2.1040     0.5920    -0.5150 C.2   1 <1>   0.5440 
  3 N       -2.7650    -0.5730    -0.1950 N.am  1 <1>  -0.6600 
  4 C       -2.6840     1.6340    -1.3680 C.ar  1 <1>   0.3960 
  5 C       -2.2940    -1.6880     0.6250 C.3   1 <1>   0.2200 
  6 C       -4.1320    -1.0040    -0.4240 C.3   1 <1>   0.2200 
  7 N       -3.4210     1.3000    -2.4460 N.ar  1 <1>  -0.6200 
  8 C       -2.4430     2.9700    -1.0330 C.ar  1 <1>  -0.1500 
  9 C       -2.5560    -2.8650    -0.3510 C.3   1 <1>   0.0610 
 10 C       -3.3370    -1.5980     1.7560 C.3   1 <1>  -0.1600 
 11 C       -3.8910    -2.3990    -1.0170 C.3   1 <1>  -0.1600 
 12 C       -4.6150    -1.1550     1.0210 C.3   1 <1>  -0.1600 
 13 C       -3.8920     2.3040    -3.1490 C.ar  1 <1>   0.3930 
 14 C       -2.9560     4.0040    -1.7870 C.ar  1 <1>  -0.1500 
 15 C       -2.6740    -4.2350     0.3360 C.2   1 <1>   0.5690 
 16 C       -1.4430    -2.9400    -1.4320 C.3   1 <1>  -0.0170 
 17 O       -4.6000     1.9380    -4.2000 O.3   1 <1>  -0.5320 
 18 C       -3.7060     3.6480    -2.8820 C.ar  1 <1>  -0.1500 
 19 O       -2.2000    -4.4250     1.4300 O.2   1 <1>  -0.5700 
 20 N       -3.3070    -5.2470    -0.3230 N.am  1 <1>  -0.7300 
 21 C       -0.0560    -3.2650    -0.8880 C.ar  1 <1>  -0.1440 
 22 C       -3.4080    -6.6380     0.1800 C.3   1 <1>   0.1400 
 23 C        0.3380    -4.5800    -0.6880 C.ar  1 <1>  -0.1500 
 24 C        0.8350    -2.2430    -0.5980 C.ar  1 <1>  -0.1500 
 25 C       -4.5880    -6.7690     1.1460 C.3   1 <1>   0.0200 
 26 C        1.6010    -4.8680    -0.2010 C.ar  1 <1>  -0.1500 
 27 C        2.0990    -2.5290    -0.1120 C.ar  1 <1>  -0.1500 
 28 C       -4.8040    -8.2080     1.5960 C.2   1 <1>  -0.3320 
 29 C        2.4840    -3.8420     0.0880 C.ar  1 <1>  -0.1500 
 30 N       -5.7530    -8.5560     2.4860 N.pl3 1 <1>   0.0330 
 31 C       -4.1720    -9.3570     1.2580 C.2   1 <1>   0.0770 
 32 C       -5.6380    -9.8930     2.6260 C.2   1 <1>   0.0360 
 33 N       -4.7000   -10.4130     1.9040 N.2   1 <1>  -0.5650 
 34 H       -1.2760    -1.5930     0.9640 H     1 <1>   0.0800 
 35 H       -4.7330    -0.3450    -1.0280 H     1 <1>   0.0800 
 36 H       -1.8420     3.1870    -0.1670 H     1 <1>   0.1500 
 37 H       -3.4730    -2.5170     2.2950 H     1 <1>   0.0800 
 38 H       -3.0280    -0.8420     2.4560 H     1 <1>   0.0800 
 39 H       -4.7210    -3.0440    -0.7960 H     1 <1>   0.0800 
 40 H       -3.7980    -2.3180    -2.0860 H     1 <1>   0.0800 
 41 H       -4.9550    -0.2050     1.3960 H     1 <1>   0.0800 
 42 H       -5.4090    -1.8740     1.1090 H     1 <1>   0.0800 
 43 H       -2.7750     5.0350    -1.5340 H     1 <1>   0.1500 
 44 H       -1.7030    -3.6880    -2.1580 H     1 <1>   0.0800 
 45 H       -1.3860    -2.0050    -1.9630 H     1 <1>   0.0800 
 46 H       -4.5940     0.9680    -4.2530 H     1 <1>   0.4500 
 47 H       -4.1440     4.3860    -3.5290 H     1 <1>   0.1500 
 48 H       -3.6960    -5.0780    -1.2510 H     1 <1>   0.3700 
 49 H       -3.5370    -7.3070    -0.6530 H     1 <1>   0.0800 
 50 H       -2.4970    -6.9010     0.6920 H     1 <1>   0.0800 
 51 H       -0.3370    -5.3880    -0.9030 H     1 <1>   0.1500 
 52 H        0.5500    -1.2150    -0.7460 H     1 <1>   0.1500 
 53 H       -5.4810    -6.4170     0.6630 H     1 <1>   0.0800 
 54 H       -4.3950    -6.1550     2.0090 H     1 <1>   0.0800 
 55 H        1.8950    -5.8910    -0.0430 H     1 <1>   0.1500 
 56 H        2.7790    -1.7260     0.1130 H     1 <1>   0.1500 
 57 H        3.4650    -4.0650     0.4680 H     1 <1>   0.1500 
 58 H       -6.4200    -7.9440     2.9640 H     1 <1>   0.2700 
 59 H       -3.3500    -9.4910     0.5750 H     1 <1>   0.1500 
 60 H       -6.2760   -10.4570     3.2840 H     1 <1>   0.1500 
@<TRIPOS>BOND
  1   1   2  2   
  2   2   3  am  
  3   2   4  1   
  4   3   5  1   
  5   3   6  1   
  6   4   7  ar  
  7   4   8  ar  
  8   5   9  1   
  9   5  10  1   
 10   5  34  1   
 11   6  11  1   
 12   6  12  1   
 13   6  35  1   
 14   7  13  ar  
 15   8  14  ar  
 16   8  36  1   
 17   9  11  1   
 18   9  15  1   
 19   9  16  1   
 20  10  12  1   
 21  10  37  1   
 22  10  38  1   
 23  11  39  1   
 24  11  40  1   
 25  12  41  1   
 26  12  42  1   
 27  13  17  1   
 28  13  18  ar  
 29  14  18  ar  
 30  14  43  1   
 31  15  19  2   
 32  15  20  am  
 33  16  21  1   
 34  16  44  1   
 35  16  45  1   
 36  17  46  1   
 37  18  47  1   
 38  20  22  1   
 39  20  48  1   
 40  21  23  ar  
 41  21  24  ar  
 42  22  25  1   
 43  22  49  1   
 44  22  50  1   
 45  23  26  ar  
 46  23  51  1   
 47  24  27  ar  
 48  24  52  1   
 49  25  28  1   
 50  25  53  1   
 51  25  54  1   
 52  26  29  ar  
 53  26  55  1   
 54  27  29  ar  
 55  27  56  1   
 56  28  30  1   
 57  28  31  2   
 58  29  57  1   
 59  30  32  1   
 60  30  58  1   
 61  31  33  1   
 62  31  59  1   
 63  32  33  2   
 64  32  60  1   
@<TRIPOS>SUBSTRUCTURE
  1 ****   9 GROUP 4 **** **** 0

# MOE 2024.06 (io_trps.svl 2023.06)
