@<TRIPOS>MOLECULE
NONAME
45 46 1 0 0 
SMALL
USER_CHARGES


@<TRIPOS>ATOM
  1 S        0.5250    -0.0200     0.7830 S.o2  1 <1>   1.3330 
  2 O        0.3880     0.8690     1.9140 O.2   1 <1>  -0.6500 
  3 O        0.7720    -1.4280     1.0080 O.2   1 <1>  -0.6500 
  4 N       -0.8740     0.1100    -0.1700 N.am  1 <1>  -0.8490 
  5 C        1.8070     0.6300    -0.2850 C.3   1 <1>  -0.0550 
  6 C       -2.0850     0.2780     0.6380 C.3   1 <1>   0.1160 
  7 C       -1.0490    -1.0020    -1.1100 C.3   1 <1>   0.1160 
  8 C        3.1810     0.7230     0.4010 C.3   1 <1>  -0.0800 
  9 C        4.2540     1.2750    -0.5290 C.3   1 <1>   0.2200 
 10 C        3.7670    -0.6130     0.8460 C.3   1 <1>   0.1200 
 11 N        4.4990     2.7000    -0.2160 N.am  1 <1>  -0.7300 
 12 C        5.4780     0.4000    -0.2540 C.3   1 <1>   0.1200 
 13 O        5.1430    -0.4190     0.8220 O.3   1 <1>  -0.5600 
 14 C        3.8940     3.7540    -0.8390 C.2   1 <1>   0.5440 
 15 O        3.1340     3.4920    -1.7520 O.2   1 <1>  -0.5700 
 16 C        4.1270     5.1360    -0.4490 C.ar  1 <1>   0.0860 
 17 C        4.8360     5.5350     0.6910 C.ar  1 <1>   0.1900 
 18 C        3.6250     6.1810    -1.2350 C.ar  1 <1>  -0.1500 
 19 F        5.3420     4.6420     1.4990 F     1 <1>  -0.1900 
 20 C        5.0460     6.8550     1.0360 C.ar  1 <1>  -0.1500 
 21 C        3.8210     7.5110    -0.9090 C.ar  1 <1>  -0.1500 
 22 C        4.5370     7.8590     0.2330 C.ar  1 <1>   0.0820 
 23 O        4.7730     9.1320     0.6180 O.3   1 <1>  -0.3620 
 24 C        4.3020    10.2350    -0.1260 C.3   1 <1>   0.0400 
 25 H        1.8860     0.0170    -1.1600 H     1 <1>   0.0800 
 26 H        1.5220     1.6150    -0.6020 H     1 <1>   0.0800 
 27 H       -2.9480     0.3740     0.0030 H     1 <1>   0.0800 
 28 H       -2.0070     1.1710     1.2360 H     1 <1>   0.0800 
 29 H       -2.2170    -0.5670     1.2940 H     1 <1>   0.0800 
 30 H       -1.8980    -0.8190    -1.7460 H     1 <1>   0.0800 
 31 H       -1.2030    -1.9260    -0.5760 H     1 <1>   0.0800 
 32 H       -0.1760    -1.1040    -1.7310 H     1 <1>   0.0800 
 33 H        3.0970     1.3440     1.2770 H     1 <1>   0.0800 
 34 H        3.9760     1.1710    -1.5650 H     1 <1>   0.0800 
 35 H        3.5290    -1.4060     0.1570 H     1 <1>   0.0800 
 36 H        3.4650    -0.8880     1.8430 H     1 <1>   0.0800 
 37 H        5.0410     2.8740     0.6360 H     1 <1>   0.3700 
 38 H        6.3510     0.9730     0.0010 H     1 <1>   0.0800 
 39 H        5.6850    -0.2360    -1.0970 H     1 <1>   0.0800 
 40 H        3.0670     5.9400    -2.1240 H     1 <1>   0.1500 
 41 H        5.5990     7.1090     1.9210 H     1 <1>   0.1500 
 42 H        3.4100     8.2650    -1.5550 H     1 <1>   0.1500 
 43 H        4.6140    11.1330     0.3760 H     1 <1>   0.0800 
 44 H        3.2280    10.1940    -0.1680 H     1 <1>   0.0800 
 45 H        4.7300    10.2000    -1.1120 H     1 <1>   0.0800 
@<TRIPOS>BOND
  1   1   2  2   
  2   1   3  2   
  3   1   4  am  
  4   1   5  1   
  5   4   6  1   
  6   4   7  1   
  7   5   8  1   
  8   5  25  1   
  9   5  26  1   
 10   6  27  1   
 11   6  28  1   
 12   6  29  1   
 13   7  30  1   
 14   7  31  1   
 15   7  32  1   
 16   8   9  1   
 17   8  10  1   
 18   8  33  1   
 19   9  11  1   
 20   9  12  1   
 21   9  34  1   
 22  10  13  1   
 23  10  35  1   
 24  10  36  1   
 25  11  14  am  
 26  11  37  1   
 27  12  13  1   
 28  12  38  1   
 29  12  39  1   
 30  14  15  2   
 31  14  16  1   
 32  16  17  ar  
 33  16  18  ar  
 34  17  19  1   
 35  17  20  ar  
 36  18  21  ar  
 37  18  40  1   
 38  20  22  ar  
 39  20  41  1   
 40  21  22  ar  
 41  21  42  1   
 42  22  23  1   
 43  23  24  1   
 44  24  43  1   
 45  24  44  1   
 46  24  45  1   
@<TRIPOS>SUBSTRUCTURE
  1 ****  14 GROUP 4 **** **** 0

# MOE 2024.06 (io_trps.svl 2023.06)
