@<TRIPOS>MOLECULE
NONAME
48 51 1 0 0 
SMALL
USER_CHARGES


@<TRIPOS>ATOM
  1 S       -0.9260    -0.9610     2.2280 S.3   1 <1>  -0.0800 
  2 C       -0.7260    -2.6040     1.6450 C.2   1 <1>  -0.1100 
  3 C       -2.0940    -0.6130     0.9660 C.2   1 <1>  -0.1100 
  4 C       -1.5090    -2.8320     0.5730 C.2   1 <1>  -0.1810 
  5 C       -2.2870    -1.6930     0.1860 C.2   1 <1>  -0.1500 
  6 C       -1.5990    -4.1410    -0.1910 C.3   1 <1>   0.0210 
  7 C       -2.9590    -4.8080     0.0360 C.3   1 <1>  -0.0990 
  8 C       -3.0290    -6.1370    -0.6770 C.2   1 <1>   0.5690 
  9 O       -3.2660    -6.1590    -1.8580 O.2   1 <1>  -0.5700 
 10 N       -2.8270    -7.2710     0.0340 N.am  1 <1>  -0.7300 
 11 C       -2.8140    -8.6410    -0.5320 C.3   1 <1>   0.2200 
 12 C       -4.1030    -9.3900    -0.2140 C.3   1 <1>  -0.0800 
 13 C       -1.8120    -9.4770     0.2510 C.3   1 <1>   0.1200 
 14 C       -3.8510    -9.8960     1.2130 C.3   1 <1>   0.1200 
 15 C       -5.3990    -8.5690    -0.3870 C.3   1 <1>  -0.0170 
 16 O       -2.4720    -9.8100     1.4350 O.3   1 <1>  -0.5600 
 17 C       -6.7220    -9.3180    -0.1900 C.ar  1 <1>  -0.1430 
 18 C       -7.9380    -8.5910    -0.1610 C.ar  1 <1>   0.0000 
 19 C       -6.8100   -10.6750    -0.0430 C.ar  1 <1>  -0.1500 
 20 C       -9.1400    -9.3110     0.0520 C.ar  1 <1>   0.3100 
 21 C       -8.0340    -7.1900    -0.3380 C.ar  1 <1>  -0.1500 
 22 C       -8.0530   -11.2900     0.1520 C.ar  1 <1>   0.1600 
 23 N       -9.1800   -10.6570     0.2070 N.ar  1 <1>  -0.6200 
 24 C      -10.3560    -8.6100     0.1010 C.ar  1 <1>  -0.1500 
 25 C       -9.2360    -6.5370    -0.2880 C.ar  1 <1>  -0.1500 
 26 C      -10.4130    -7.2530    -0.0630 C.ar  1 <1>  -0.1500 
 27 H       -0.0330    -3.2310     2.1770 H     1 <1>   0.1500 
 28 H       -2.5150     0.3760     0.9420 H     1 <1>   0.1500 
 29 H       -2.9520    -1.7340    -0.6590 H     1 <1>   0.1500 
 30 H       -1.4530    -3.9550    -1.2420 H     1 <1>   0.0800 
 31 H       -0.8170    -4.8020     0.1390 H     1 <1>   0.0800 
 32 H       -3.7410    -4.1760    -0.3430 H     1 <1>   0.0800 
 33 H       -3.1230    -4.9490     1.0880 H     1 <1>   0.0800 
 34 H       -2.6660    -7.2430     1.0450 H     1 <1>   0.3700 
 35 H       -2.5950    -8.6160    -1.5870 H     1 <1>   0.0800 
 36 H       -4.1450   -10.2390    -0.8720 H     1 <1>   0.0800 
 37 H       -0.9050    -8.9430     0.4760 H     1 <1>   0.0800 
 38 H       -1.5830   -10.3900    -0.2700 H     1 <1>   0.0800 
 39 H       -4.1570   -10.9190     1.3420 H     1 <1>   0.0800 
 40 H       -4.3380    -9.2760     1.9460 H     1 <1>   0.0800 
 41 H       -5.3990    -8.1420    -1.3760 H     1 <1>   0.0800 
 42 H       -5.3760    -7.7550     0.3160 H     1 <1>   0.0800 
 43 H       -5.9560   -11.3210    -0.0710 H     1 <1>   0.1500 
 44 H       -7.1450    -6.6160    -0.5220 H     1 <1>   0.1500 
 45 H       -8.0710   -12.3600     0.2650 H     1 <1>   0.1500 
 46 H      -11.2480    -9.1830     0.2710 H     1 <1>   0.1500 
 47 H       -9.2900    -5.4700    -0.4230 H     1 <1>   0.1500 
 48 H      -11.3530    -6.7290    -0.0230 H     1 <1>   0.1500 
@<TRIPOS>BOND
  1   1   2  1   
  2   1   3  1   
  3   2   4  2   
  4   2  27  1   
  5   3   5  2   
  6   3  28  1   
  7   4   5  1   
  8   4   6  1   
  9   5  29  1   
 10   6   7  1   
 11   6  30  1   
 12   6  31  1   
 13   7   8  1   
 14   7  32  1   
 15   7  33  1   
 16   8   9  2   
 17   8  10  am  
 18  10  11  1   
 19  10  34  1   
 20  11  12  1   
 21  11  13  1   
 22  11  35  1   
 23  12  14  1   
 24  12  15  1   
 25  12  36  1   
 26  13  16  1   
 27  13  37  1   
 28  13  38  1   
 29  14  16  1   
 30  14  39  1   
 31  14  40  1   
 32  15  17  1   
 33  15  41  1   
 34  15  42  1   
 35  17  18  ar  
 36  17  19  ar  
 37  18  20  ar  
 38  18  21  ar  
 39  19  22  ar  
 40  19  43  1   
 41  20  23  ar  
 42  20  24  ar  
 43  21  25  ar  
 44  21  44  1   
 45  22  23  ar  
 46  22  45  1   
 47  24  26  ar  
 48  24  46  1   
 49  25  26  ar  
 50  25  47  1   
 51  26  48  1   
@<TRIPOS>SUBSTRUCTURE
  1 ****  15 GROUP 4 **** **** 0

# MOE 2024.06 (io_trps.svl 2023.06)
