@<TRIPOS>MOLECULE
NONAME
44 45 1 0 0 
SMALL
USER_CHARGES


@<TRIPOS>ATOM
  1 CL       0.5400    -1.6030     3.3430 Cl    1 <1>  -0.1770 
  2 C        1.4600    -1.9510     1.9020 C.ar  1 <1>   0.1770 
  3 C        1.4900    -3.2440     1.4220 C.ar  1 <1>  -0.1500 
  4 C        2.1370    -0.9270     1.2690 C.ar  1 <1>  -0.1500 
  5 C        2.2160    -3.5540     0.2710 C.ar  1 <1>   0.0860 
  6 C        2.8620    -1.2070     0.1240 C.ar  1 <1>  -0.1440 
  7 C        2.2710    -4.9050    -0.2640 C.2   1 <1>   0.5440 
  8 C        2.8910    -2.5050    -0.3600 C.ar  1 <1>  -0.1500 
  9 C        3.6100    -0.0990    -0.5960 C.3   1 <1>  -0.0960 
 10 O        2.5640    -5.1080    -1.4250 O.2   1 <1>  -0.5700 
 11 N        1.9790    -5.9850     0.5170 N.am  1 <1>  -0.7300 
 12 C        2.0370    -7.4020     0.0830 C.3   1 <1>   0.2200 
 13 C        0.6430    -7.9310    -0.2160 C.3   1 <1>  -0.0800 
 14 C        2.4080    -8.2630     1.2810 C.3   1 <1>   0.1200 
 15 C        0.1220    -8.3150     1.1760 C.3   1 <1>   0.1200 
 16 C       -0.2600    -6.9670    -1.0160 C.3   1 <1>  -0.0550 
 17 O        1.2330    -8.3610     2.0250 O.3   1 <1>  -0.5600 
 18 S       -1.8180    -7.6830    -1.5430 S.o2  1 <1>   1.3330 
 19 O       -1.5450    -8.9950    -2.0860 O.2   1 <1>  -0.6500 
 20 O       -2.5470    -6.7180    -2.3330 O.2   1 <1>  -0.6500 
 21 N       -2.6790    -7.8930    -0.0920 N.am  1 <1>  -0.8490 
 22 C       -3.6610    -8.9790    -0.1860 C.3   1 <1>   0.1160 
 23 C       -3.3410    -6.6680     0.3720 C.3   1 <1>   0.1160 
 24 H        0.9400    -4.0000     1.9490 H     1 <1>   0.1500 
 25 H        2.0910     0.0690     1.6710 H     1 <1>   0.1500 
 26 H        3.4500    -2.7240    -1.2550 H     1 <1>   0.1500 
 27 H        4.4380    -0.5000    -1.1520 H     1 <1>   0.0800 
 28 H        3.9920     0.6170     0.1100 H     1 <1>   0.0800 
 29 H        2.9480     0.4050    -1.2770 H     1 <1>   0.0800 
 30 H        1.7620    -5.8740     1.5100 H     1 <1>   0.3700 
 31 H        2.7200    -7.5250    -0.7420 H     1 <1>   0.0800 
 32 H        0.7530    -8.8400    -0.7830 H     1 <1>   0.0800 
 33 H        3.1880    -7.8320     1.8830 H     1 <1>   0.0800 
 34 H        2.6880    -9.2540     0.9690 H     1 <1>   0.0800 
 35 H       -0.3580    -9.2800     1.1700 H     1 <1>   0.0800 
 36 H       -0.5550    -7.5760     1.5690 H     1 <1>   0.0800 
 37 H        0.2800    -6.6620    -1.8920 H     1 <1>   0.0800 
 38 H       -0.4530    -6.0840    -0.4400 H     1 <1>   0.0800 
 39 H       -4.1820    -9.0940     0.7490 H     1 <1>   0.0800 
 40 H       -3.1640    -9.9080    -0.4090 H     1 <1>   0.0800 
 41 H       -4.3730    -8.7720    -0.9680 H     1 <1>   0.0800 
 42 H       -3.7930    -6.8340     1.3350 H     1 <1>   0.0800 
 43 H       -4.1050    -6.3640    -0.3260 H     1 <1>   0.0800 
 44 H       -2.6240    -5.8710     0.4670 H     1 <1>   0.0800 
@<TRIPOS>BOND
  1   1   2  1   
  2   2   3  ar  
  3   2   4  ar  
  4   3   5  ar  
  5   3  24  1   
  6   4   6  ar  
  7   4  25  1   
  8   5   7  1   
  9   5   8  ar  
 10   6   8  ar  
 11   6   9  1   
 12   7  10  2   
 13   7  11  am  
 14   8  26  1   
 15   9  27  1   
 16   9  28  1   
 17   9  29  1   
 18  11  12  1   
 19  11  30  1   
 20  12  13  1   
 21  12  14  1   
 22  12  31  1   
 23  13  15  1   
 24  13  16  1   
 25  13  32  1   
 26  14  17  1   
 27  14  33  1   
 28  14  34  1   
 29  15  17  1   
 30  15  35  1   
 31  15  36  1   
 32  16  18  1   
 33  16  37  1   
 34  16  38  1   
 35  18  19  2   
 36  18  20  2   
 37  18  21  am  
 38  21  22  1   
 39  21  23  1   
 40  22  39  1   
 41  22  40  1   
 42  22  41  1   
 43  23  42  1   
 44  23  43  1   
 45  23  44  1   
@<TRIPOS>SUBSTRUCTURE
  1 ****  11 GROUP 4 **** **** 0

# MOE 2024.06 (io_trps.svl 2023.06)
