@<TRIPOS>MOLECULE
NONAME
34 36 1 0 0 
SMALL
USER_CHARGES


@<TRIPOS>ATOM
  1 F        0.5730    -1.0990     1.1870 F     1 <1>  -0.3400 
  2 C        0.0140    -1.4160     0.0210 C.3   1 <1>   0.7810 
  3 F       -1.2940    -1.3170     0.2400 F     1 <1>  -0.3400 
  4 C        0.3900    -2.8470    -0.3880 C.2   1 <1>   0.1080 
  5 N        1.1110    -3.1390    -1.4400 N.2   1 <1>  -0.7070 
  6 C        0.0170    -3.9890     0.3020 C.2   1 <1>  -0.1500 
  7 N        1.2110    -4.4790    -1.4290 N.pl3 1 <1>   0.3140 
  8 C        0.5550    -5.0370    -0.3830 C.2   1 <1>  -0.2370 
  9 C        1.9440    -5.1830    -2.4940 C.3   1 <1>   0.0160 
 10 C        0.5050    -6.4510    -0.1310 C.2   1 <1>   0.7150 
 11 O        1.5000    -7.1260    -0.3350 O.2   1 <1>  -0.5700 
 12 N       -0.6320    -7.0500     0.3320 N.am  1 <1>  -0.6600 
 13 C       -1.9950    -6.4510     0.2490 C.3   1 <1>   0.2350 
 14 C       -0.7480    -8.5180     0.5670 C.3   1 <1>   0.2350 
 15 C       -2.9240    -7.6040    -0.0800 C.3   1 <1>  -0.2420 
 16 C       -2.1530    -8.8860     0.1260 C.3   1 <1>  -0.2420 
 17 C       -4.3770    -7.2240     0.2220 C.2   1 <1>   0.9470 
 18 C       -2.6400    -8.5110    -1.2510 C.3   1 <1>  -0.2000 
 19 C       -2.5720   -10.2320     0.7210 C.2   1 <1>   0.9470 
 20 O       -4.6350    -6.6740     1.3020 O.co2 1 <1>  -0.9000 
 21 O       -5.2300    -7.3070    -0.6720 O.co2 1 <1>  -0.9000 
 22 O       -2.4670   -10.4050     1.9430 O.co2 1 <1>  -0.9000 
 23 O       -2.8500   -11.1720    -0.0370 O.co2 1 <1>  -0.9000 
 24 H        0.2950    -0.6760    -0.7050 H     1 <1>   0.0800 
 25 H       -0.5780    -4.0240     1.1990 H     1 <1>   0.1500 
 26 H        1.3180    -5.9530    -2.9050 H     1 <1>   0.0800 
 27 H        2.8310    -5.6220    -2.0760 H     1 <1>   0.0800 
 28 H        2.2130    -4.4840    -3.2630 H     1 <1>   0.0800 
 29 H       -2.2540    -6.0280     1.2040 H     1 <1>   0.0800 
 30 H       -2.0570    -5.6970    -0.5150 H     1 <1>   0.0800 
 31 H       -0.0180    -9.0740     0.0060 H     1 <1>   0.0800 
 32 H       -0.6250    -8.7190     1.6180 H     1 <1>   0.0800 
 33 H       -1.9320    -8.2110    -2.0000 H     1 <1>   0.1000 
 34 H       -3.4610    -9.0770    -1.6610 H     1 <1>   0.1000 
@<TRIPOS>BOND
  1   1   2  1   
  2   2   3  1   
  3   2   4  1   
  4   2  24  1   
  5   4   5  2   
  6   4   6  1   
  7   5   7  1   
  8   6   8  2   
  9   6  25  1   
 10   7   8  1   
 11   7   9  1   
 12   8  10  1   
 13   9  26  1   
 14   9  27  1   
 15   9  28  1   
 16  10  11  2   
 17  10  12  am  
 18  12  13  1   
 19  12  14  1   
 20  13  15  1   
 21  13  29  1   
 22  13  30  1   
 23  14  16  1   
 24  14  31  1   
 25  14  32  1   
 26  15  16  1   
 27  15  17  1   
 28  15  18  1   
 29  16  18  1   
 30  16  19  1   
 31  17  20  ar  
 32  17  21  ar  
 33  18  33  1   
 34  18  34  1   
 35  19  22  ar  
 36  19  23  ar  
@<TRIPOS>SUBSTRUCTURE
  1 ****  13 GROUP 4 **** **** 0

# MOE 2024.06 (io_trps.svl 2023.06)
