@<TRIPOS>MOLECULE
NONAME
43 46 1 0 0 
SMALL
USER_CHARGES


@<TRIPOS>ATOM
  1 O        0.1570    -0.1040    -1.1570 O.3   1 <1>  -0.0190 
  2 N        0.6160     1.0700    -0.8520 N.2   1 <1>  -0.4100 
  3 C        1.0740    -0.9320    -0.7230 C.2   1 <1>   0.2980 
  4 C        1.7520     0.9090    -0.2700 C.2   1 <1>   0.5150 
  5 N        2.0830    -0.3840    -0.1800 N.2   1 <1>  -0.5650 
  6 C        0.8660    -2.4310    -0.9320 C.3   1 <1>   0.2900 
  7 C        2.5850     1.9820     0.2290 C.2   1 <1>   0.1410 
  8 N       -0.1930    -3.0210    -0.0780 N.3   1 <1>  -0.8100 
  9 O        3.7670     1.7420     0.7920 O.3   1 <1>  -0.2800 
 10 C        2.3710     3.3270     0.2330 C.2   1 <1>  -0.1500 
 11 C       -1.5470    -2.5090    -0.3470 C.3   1 <1>   0.1100 
 12 C       -0.2720    -4.4890    -0.1990 C.3   1 <1>   0.1100 
 13 C        4.3040     2.8900     1.1510 C.2   1 <1>  -0.0100 
 14 C        3.4880     3.9150     0.8320 C.2   1 <1>  -0.1500 
 15 C       -2.4660    -3.5640     0.2550 C.3   1 <1>   0.2000 
 16 C       -1.7630    -4.8570    -0.1520 C.3   1 <1>  -0.0800 
 17 O       -2.4080    -3.4160     1.6290 O.3   1 <1>  -0.6800 
 18 C       -2.0750    -6.0890     0.7160 C.3   1 <1>   0.0210 
 19 C       -1.3380    -7.3170     0.2140 C.2   1 <1>   0.1080 
 20 N       -1.4660    -7.7780    -0.9930 N.2   1 <1>  -0.7070 
 21 C       -0.4540    -8.0750     0.9740 C.2   1 <1>  -0.1500 
 22 N       -0.6640    -8.8590    -1.0310 N.pl3 1 <1>   0.3000 
 23 C       -0.0370    -9.0580     0.1480 C.2   1 <1>  -0.3320 
 24 C        0.9330   -10.1930     0.4180 C.3   1 <1>  -0.0600 
 25 H        1.7970    -2.9220    -0.7080 H     1 <1>   0.0800 
 26 H        0.6400    -2.6100    -1.9690 H     1 <1>   0.0800 
 27 H        1.5130     3.8510    -0.1480 H     1 <1>   0.1500 
 28 H       -1.7070    -1.5430     0.1010 H     1 <1>   0.0800 
 29 H       -1.7180    -2.4480    -1.4090 H     1 <1>   0.0800 
 30 H        0.1560    -4.8380    -1.1250 H     1 <1>   0.0800 
 31 H        0.2640    -4.9380     0.6210 H     1 <1>   0.0800 
 32 H        5.2690     2.8850     1.6280 H     1 <1>   0.1500 
 33 H        3.6360     4.9680     0.9910 H     1 <1>   0.1500 
 34 H       -3.4900    -3.4980    -0.0690 H     1 <1>   0.0800 
 35 H       -2.0650    -5.0850    -1.1600 H     1 <1>   0.0800 
 36 H       -1.4670    -3.2320     1.8420 H     1 <1>   0.4000 
 37 H       -3.1310    -6.2880     0.6890 H     1 <1>   0.0800 
 38 H       -1.7980    -5.9080     1.7390 H     1 <1>   0.0800 
 39 H       -0.1830    -7.8940     1.9990 H     1 <1>   0.1500 
 40 H       -0.5700    -9.4410    -1.8720 H     1 <1>   0.2700 
 41 H        1.2960   -10.1370     1.4280 H     1 <1>   0.0800 
 42 H        1.7720   -10.1340    -0.2520 H     1 <1>   0.0800 
 43 H        0.4420   -11.1410     0.2840 H     1 <1>   0.0800 
@<TRIPOS>BOND
  1   1   2  1   
  2   1   3  1   
  3   2   4  2   
  4   3   5  2   
  5   3   6  1   
  6   4   5  1   
  7   4   7  1   
  8   6   8  1   
  9   6  25  1   
 10   6  26  1   
 11   7   9  1   
 12   7  10  2   
 13   8  11  1   
 14   8  12  1   
 15   9  13  1   
 16  10  14  1   
 17  10  27  1   
 18  11  15  1   
 19  11  28  1   
 20  11  29  1   
 21  12  16  1   
 22  12  30  1   
 23  12  31  1   
 24  13  14  2   
 25  13  32  1   
 26  14  33  1   
 27  15  16  1   
 28  15  17  1   
 29  15  34  1   
 30  16  18  1   
 31  16  35  1   
 32  17  36  1   
 33  18  19  1   
 34  18  37  1   
 35  18  38  1   
 36  19  20  2   
 37  19  21  1   
 38  20  22  1   
 39  21  23  2   
 40  21  39  1   
 41  22  23  1   
 42  22  40  1   
 43  23  24  1   
 44  24  41  1   
 45  24  42  1   
 46  24  43  1   
@<TRIPOS>SUBSTRUCTURE
  1 ****   8 GROUP 4 **** **** 0

# MOE 2024.06 (io_trps.svl 2023.06)
