@<TRIPOS>MOLECULE
NONAME
47 49 1 0 0 
SMALL
USER_CHARGES


@<TRIPOS>ATOM
  1 N       -0.6930    -0.0960     0.6690 N.2   1 <1>  -0.7070 
  2 N       -1.6370     0.5700    -0.0230 N.pl3 1 <1>   0.3140 
  3 C        0.3360     0.6960     0.6760 C.2   1 <1>   0.1390 
  4 C       -1.1850     1.7740    -0.4390 C.2   1 <1>  -0.3320 
  5 C       -2.9730    -0.0070    -0.2430 C.3   1 <1>   0.0960 
  6 C        0.0870     1.8820    -0.0030 C.2   1 <1>  -0.1500 
  7 C       -1.9830     2.7900    -1.2410 C.3   1 <1>  -0.0600 
  8 C       -2.9360    -1.5000     0.1060 C.3   1 <1>   0.3430 
  9 N       -4.2500    -2.2010    -0.0930 N.4   1 <1>  -0.9590 
 10 C       -5.2880    -1.7490     0.8800 C.3   1 <1>   0.3430 
 11 C       -4.0430    -3.6750     0.0050 C.3   1 <1>   0.3430 
 12 C       -6.6200    -2.4270     0.5570 C.3   1 <1>  -0.1600 
 13 C       -5.3440    -4.4060    -0.3310 C.3   1 <1>  -0.1600 
 14 C       -6.5130    -3.9610     0.5680 C.3   1 <1>  -0.0800 
 15 C       -7.8520    -4.5740     0.1140 C.3   1 <1>  -0.1600 
 16 C       -7.9150    -6.1060     0.2480 C.3   1 <1>   0.0960 
 17 N       -9.1710    -6.6170    -0.3300 N.pl3 1 <1>   0.3140 
 18 N       -9.3180    -6.7660    -1.6580 N.2   1 <1>  -0.7070 
 19 C      -10.2880    -6.9780     0.3320 C.2   1 <1>  -0.3020 
 20 C      -10.5250    -7.2200    -1.8090 C.2   1 <1>   0.1390 
 21 C      -11.1850    -7.3740    -0.5960 C.2   1 <1>  -0.1500 
 22 H        1.2710     0.4560     1.1550 H     1 <1>   0.1500 
 23 H       -3.2330     0.1310    -1.2760 H     1 <1>   0.0800 
 24 H       -3.6640     0.5200     0.3860 H     1 <1>   0.0800 
 25 H        0.7840     2.6920    -0.1310 H     1 <1>   0.1500 
 26 H       -2.8630     3.0900    -0.6990 H     1 <1>   0.0800 
 27 H       -2.2730     2.3770    -2.1900 H     1 <1>   0.0800 
 28 H       -1.3850     3.6650    -1.4230 H     1 <1>   0.0800 
 29 H       -2.6230    -1.6070     1.1330 H     1 <1>   0.0800 
 30 H       -2.1850    -1.9650    -0.5120 H     1 <1>   0.0800 
 31 H       -4.5980    -2.0140    -1.0440 H     1 <1>   0.4500 
 32 H       -5.4130    -0.6800     0.8260 H     1 <1>   0.0800 
 33 H       -4.9860    -2.0060     1.8830 H     1 <1>   0.0800 
 34 H       -3.7310    -3.9340     1.0050 H     1 <1>   0.0800 
 35 H       -3.2710    -3.9870    -0.6810 H     1 <1>   0.0800 
 36 H       -6.9650    -2.0840    -0.4040 H     1 <1>   0.0800 
 37 H       -7.3490    -2.1150     1.2860 H     1 <1>   0.0800 
 38 H       -5.1700    -5.4610    -0.2100 H     1 <1>   0.0800 
 39 H       -5.5850    -4.2390    -1.3670 H     1 <1>   0.0800 
 40 H       -6.3150    -4.2800     1.5790 H     1 <1>   0.0800 
 41 H       -8.0330    -4.3110    -0.9160 H     1 <1>   0.0800 
 42 H       -8.6520    -4.1570     0.7020 H     1 <1>   0.0800 
 43 H       -7.8640    -6.4000     1.2800 H     1 <1>   0.0800 
 44 H       -7.1100    -6.5710    -0.2870 H     1 <1>   0.0800 
 45 H      -10.3830    -6.9350     1.4010 H     1 <1>   0.1500 
 46 H      -10.9570    -7.4470    -2.7700 H     1 <1>   0.1500 
 47 H      -12.1890    -7.7320    -0.4600 H     1 <1>   0.1500 
@<TRIPOS>BOND
  1   1   2  1   
  2   1   3  2   
  3   2   4  1   
  4   2   5  1   
  5   3   6  1   
  6   3  22  1   
  7   4   6  2   
  8   4   7  1   
  9   5   8  1   
 10   5  23  1   
 11   5  24  1   
 12   6  25  1   
 13   7  26  1   
 14   7  27  1   
 15   7  28  1   
 16   8   9  1   
 17   8  29  1   
 18   8  30  1   
 19   9  10  1   
 20   9  11  1   
 21   9  31  1   
 22  10  12  1   
 23  10  32  1   
 24  10  33  1   
 25  11  13  1   
 26  11  34  1   
 27  11  35  1   
 28  12  14  1   
 29  12  36  1   
 30  12  37  1   
 31  13  14  1   
 32  13  38  1   
 33  13  39  1   
 34  14  15  1   
 35  14  40  1   
 36  15  16  1   
 37  15  41  1   
 38  15  42  1   
 39  16  17  1   
 40  16  43  1   
 41  16  44  1   
 42  17  18  1   
 43  17  19  1   
 44  18  20  2   
 45  19  21  2   
 46  19  45  1   
 47  20  21  1   
 48  20  46  1   
 49  21  47  1   
@<TRIPOS>SUBSTRUCTURE
  1 ****   9 GROUP 4 **** **** 0

# MOE 2024.06 (io_trps.svl 2023.06)
