@<TRIPOS>MOLECULE
NONAME
52 54 1 0 0 
SMALL
USER_CHARGES


@<TRIPOS>ATOM
  1 O       -0.2000     0.6870     0.6060 O.2   1 <1>  -0.5700 
  2 C       -0.0970     1.8830     0.7070 C.2   1 <1>   0.5690 
  3 N       -1.1660     2.6380     1.0440 N.am  1 <1>  -0.7300 
  4 C        1.2440     2.5650     0.4160 C.3   1 <1>   0.1810 
  5 C       -1.1120     4.1110     1.2040 C.3   1 <1>   0.3640 
  6 O        1.3180     3.8840     0.9130 O.3   1 <1>  -0.5600 
  7 C       -2.3250     4.7310     0.5160 C.ar  1 <1>  -0.1440 
  8 C        0.1960     4.7000     0.6130 C.3   1 <1>   0.2610 
  9 C       -2.9920     5.7910     1.1170 C.ar  1 <1>   0.1600 
 10 C       -2.7790     4.2780    -0.7110 C.ar  1 <1>  -0.1500 
 11 C        0.4240     6.1460     1.0840 C.2   1 <1>   0.5690 
 12 N       -4.0430     6.4130     0.6070 N.ar  1 <1>  -0.6200 
 13 C       -3.8730     4.9160    -1.2540 C.ar  1 <1>  -0.1500 
 14 O       -0.0990     6.4930     2.1220 O.2   1 <1>  -0.5700 
 15 N        1.1660     7.0300     0.3350 N.am  1 <1>  -0.6600 
 16 C       -4.4590     5.9620    -0.5640 C.ar  1 <1>   0.1600 
 17 C        2.0730     6.6260    -0.7800 C.3   1 <1>   0.2840 
 18 C        1.1920     8.4860     0.6780 C.3   1 <1>   0.1400 
 19 C        3.5270     6.8740    -0.4090 C.ar  1 <1>  -0.1430 
 20 C        0.3320     9.3140    -0.2970 C.3   1 <1>  -0.0800 
 21 C        4.0970     6.1950     0.6580 C.ar  1 <1>  -0.1500 
 22 C        4.2960     7.7760    -1.1290 C.ar  1 <1>  -0.1500 
 23 C        0.4050    10.7990     0.0810 C.3   1 <1>  -0.2400 
 24 C       -1.1370     8.8610    -0.3080 C.3   1 <1>  -0.2400 
 25 C        5.4210     6.4120     0.9990 C.ar  1 <1>  -0.1500 
 26 C        5.6200     7.9950    -0.7880 C.ar  1 <1>  -0.1500 
 27 C        6.1830     7.3130     0.2760 C.ar  1 <1>  -0.1500 
 28 H       -2.0490     2.1720     1.2600 H     1 <1>   0.3700 
 29 H        1.4060     2.5930    -0.6460 H     1 <1>   0.0800 
 30 H        2.0360     1.9990     0.8710 H     1 <1>   0.0800 
 31 H       -1.1520     4.3240     2.2590 H     1 <1>   0.0800 
 32 H        0.0890     4.7170    -0.4550 H     1 <1>   0.0800 
 33 H       -2.6420     6.1560     2.0690 H     1 <1>   0.1500 
 34 H       -2.3080     3.4600    -1.2300 H     1 <1>   0.1500 
 35 H       -4.2730     4.6070    -2.2020 H     1 <1>   0.1500 
 36 H       -5.3150     6.4530    -0.9960 H     1 <1>   0.1500 
 37 H        1.9650     5.5840    -1.0150 H     1 <1>   0.0800 
 38 H        1.8170     7.1840    -1.6630 H     1 <1>   0.0800 
 39 H        0.8260     8.6360     1.6790 H     1 <1>   0.0800 
 40 H        2.2070     8.8430     0.6620 H     1 <1>   0.0800 
 41 H        0.7350     9.2110    -1.2890 H     1 <1>   0.0800 
 42 H        3.5090     5.4960     1.2290 H     1 <1>   0.1500 
 43 H        3.8710     8.3150    -1.9570 H     1 <1>   0.1500 
 44 H        0.0020    10.9570     1.0670 H     1 <1>   0.0800 
 45 H       -0.1590    11.3910    -0.6180 H     1 <1>   0.0800 
 46 H        1.4250    11.1400     0.0680 H     1 <1>   0.0800 
 47 H       -1.5520     8.8980     0.6850 H     1 <1>   0.0800 
 48 H       -1.2250     7.8540    -0.6720 H     1 <1>   0.0800 
 49 H       -1.7240     9.4960    -0.9480 H     1 <1>   0.0800 
 50 H        5.8550     5.8820     1.8290 H     1 <1>   0.1500 
 51 H        6.2120     8.6960    -1.3500 H     1 <1>   0.1500 
 52 H        7.2120     7.4820     0.5420 H     1 <1>   0.1500 
@<TRIPOS>BOND
  1   1   2  2   
  2   2   3  am  
  3   2   4  1   
  4   3   5  1   
  5   3  28  1   
  6   4   6  1   
  7   4  29  1   
  8   4  30  1   
  9   5   7  1   
 10   5   8  1   
 11   5  31  1   
 12   6   8  1   
 13   7   9  ar  
 14   7  10  ar  
 15   8  11  1   
 16   8  32  1   
 17   9  12  ar  
 18   9  33  1   
 19  10  13  ar  
 20  10  34  1   
 21  11  14  2   
 22  11  15  am  
 23  12  16  ar  
 24  13  16  ar  
 25  13  35  1   
 26  15  17  1   
 27  15  18  1   
 28  16  36  1   
 29  17  19  1   
 30  17  37  1   
 31  17  38  1   
 32  18  20  1   
 33  18  39  1   
 34  18  40  1   
 35  19  21  ar  
 36  19  22  ar  
 37  20  23  1   
 38  20  24  1   
 39  20  41  1   
 40  21  25  ar  
 41  21  42  1   
 42  22  26  ar  
 43  22  43  1   
 44  23  44  1   
 45  23  45  1   
 46  23  46  1   
 47  24  47  1   
 48  24  48  1   
 49  24  49  1   
 50  25  27  ar  
 51  25  50  1   
 52  26  27  ar  
 53  26  51  1   
 54  27  52  1   
@<TRIPOS>SUBSTRUCTURE
  1 ****  11 GROUP 4 **** **** 0

# MOE 2024.06 (io_trps.svl 2023.06)
