@<TRIPOS>MOLECULE
NONAME
62 65 1 0 0 
SMALL
USER_CHARGES


@<TRIPOS>ATOM
  1 O        1.5450     1.4940    -1.8850 O.2   1 <1>  -0.5700 
  2 C        1.2820     1.5000    -0.7080 C.2   1 <1>   0.5690 
  3 N        2.2230     1.3150     0.2520 N.am  1 <1>  -0.7300 
  4 C       -0.1950     1.5580    -0.3130 C.3   1 <1>   0.4040 
  5 C        3.4750     0.5850    -0.0100 C.3   1 <1>   0.2840 
  6 N       -0.9490     0.3180    -0.7420 N.4   1 <1>  -0.9590 
  7 C        3.1390    -0.8970     0.0650 C.ar  1 <1>  -0.1440 
  8 C       -2.3920     0.4070    -0.3480 C.3   1 <1>   0.3430 
  9 C       -0.2960    -0.9270    -0.2240 C.3   1 <1>   0.3430 
 10 C        2.7100    -1.4780     1.2580 C.ar  1 <1>   0.0820 
 11 C        3.2400    -1.6780    -1.0770 C.ar  1 <1>  -0.1500 
 12 C       -3.2080    -0.8130    -0.8070 C.3   1 <1>   0.1430 
 13 C       -1.0470    -2.1640    -0.7220 C.3   1 <1>  -0.1600 
 14 O        2.5890    -0.6830     2.3530 O.3   1 <1>  -0.3630 
 15 C        2.3980    -2.8340     1.2930 C.ar  1 <1>  -0.1500 
 16 C        2.9250    -3.0240    -1.0370 C.ar  1 <1>  -0.1500 
 17 C       -4.5790    -0.6830    -0.1970 C.ar  1 <1>   0.1670 
 18 C       -2.5380    -2.1240    -0.3470 C.3   1 <1>  -0.1600 
 19 C       -3.5170    -0.8140    -2.3290 C.3   1 <1>  -0.1600 
 20 C        2.7330    -1.2310     3.6480 C.3   1 <1>   0.0400 
 21 C        2.5050    -3.6020     0.1480 C.ar  1 <1>  -0.1500 
 22 N       -4.7930    -0.3860     1.0580 N.ar  1 <1>  -0.6200 
 23 C       -5.5670    -0.8770    -1.1100 C.ar  1 <1>  -0.1440 
 24 C       -5.0070    -1.1860    -2.4760 C.3   1 <1>  -0.0170 
 25 C       -6.0800    -0.2870     1.3970 C.ar  1 <1>   0.7200 
 26 C       -6.8610    -0.7580    -0.6700 C.ar  1 <1>   0.1600 
 27 N       -7.1250    -0.4590     0.5810 N.ar  1 <1>  -0.6200 
 28 N       -6.3500     0.0350     2.7090 N.pl3 1 <1>  -0.8380 
 29 C       -7.6940     0.5210     3.1280 C.3   1 <1>   0.1290 
 30 C       -5.4310    -0.3240     3.8230 C.3   1 <1>   0.1290 
 31 H        1.9710     1.2460     1.2420 H     1 <1>   0.3700 
 32 H       -0.6300     2.4260    -0.7770 H     1 <1>   0.0800 
 33 H       -0.2630     1.6750     0.7540 H     1 <1>   0.0800 
 34 H        4.2110     0.8390     0.7340 H     1 <1>   0.0800 
 35 H        3.8620     0.8460    -0.9820 H     1 <1>   0.0800 
 36 H       -0.8740     0.2800    -1.7700 H     1 <1>   0.4500 
 37 H       -2.8380     1.2990    -0.7570 H     1 <1>   0.0800 
 38 H       -2.4630     0.4690     0.7260 H     1 <1>   0.0800 
 39 H       -0.2920    -0.9200     0.8540 H     1 <1>   0.0800 
 40 H        0.7260    -0.9800    -0.5640 H     1 <1>   0.0800 
 41 H        3.5660    -1.2410    -2.0060 H     1 <1>   0.1500 
 42 H       -0.5950    -3.0370    -0.2850 H     1 <1>   0.0800 
 43 H       -0.9250    -2.2470    -1.7880 H     1 <1>   0.0800 
 44 H        2.0690    -3.3070     2.1990 H     1 <1>   0.1500 
 45 H        3.0140    -3.6240    -1.9270 H     1 <1>   0.1500 
 46 H       -3.0510    -2.9720    -0.7690 H     1 <1>   0.0800 
 47 H       -2.6250    -2.2020     0.7250 H     1 <1>   0.0800 
 48 H       -2.8940    -1.4930    -2.8850 H     1 <1>   0.0800 
 49 H       -3.3820     0.1760    -2.7280 H     1 <1>   0.0800 
 50 H        2.8270    -0.4200     4.3490 H     1 <1>   0.0800 
 51 H        3.6220    -1.8380     3.6760 H     1 <1>   0.0800 
 52 H        1.8630    -1.8160     3.8850 H     1 <1>   0.0800 
 53 H        2.2690    -4.6530     0.1770 H     1 <1>   0.1500 
 54 H       -5.1220    -2.2360    -2.6830 H     1 <1>   0.0800 
 55 H       -5.4890    -0.6080    -3.2450 H     1 <1>   0.0800 
 56 H       -7.6870    -0.9040    -1.3460 H     1 <1>   0.1500 
 57 H       -8.1510     1.0910     2.3370 H     1 <1>   0.0800 
 58 H       -7.6060     1.1540     3.9940 H     1 <1>   0.0800 
 59 H       -8.3250    -0.3190     3.3620 H     1 <1>   0.0800 
 60 H       -4.6810    -1.0210     3.4920 H     1 <1>   0.0800 
 61 H       -5.9870    -0.7830     4.6230 H     1 <1>   0.0800 
 62 H       -4.9480     0.5630     4.1910 H     1 <1>   0.0800 
@<TRIPOS>BOND
  1   1   2  2   
  2   2   3  am  
  3   2   4  1   
  4   3   5  1   
  5   3  31  1   
  6   4   6  1   
  7   4  32  1   
  8   4  33  1   
  9   5   7  1   
 10   5  34  1   
 11   5  35  1   
 12   6   8  1   
 13   6   9  1   
 14   6  36  1   
 15   7  10  ar  
 16   7  11  ar  
 17   8  12  1   
 18   8  37  1   
 19   8  38  1   
 20   9  13  1   
 21   9  39  1   
 22   9  40  1   
 23  10  14  1   
 24  10  15  ar  
 25  11  16  ar  
 26  11  41  1   
 27  12  17  1   
 28  12  18  1   
 29  12  19  1   
 30  13  18  1   
 31  13  42  1   
 32  13  43  1   
 33  14  20  1   
 34  15  21  ar  
 35  15  44  1   
 36  16  21  ar  
 37  16  45  1   
 38  17  22  ar  
 39  17  23  ar  
 40  18  46  1   
 41  18  47  1   
 42  19  24  1   
 43  19  48  1   
 44  19  49  1   
 45  20  50  1   
 46  20  51  1   
 47  20  52  1   
 48  21  53  1   
 49  22  25  ar  
 50  23  24  1   
 51  23  26  ar  
 52  24  54  1   
 53  24  55  1   
 54  25  27  ar  
 55  25  28  1   
 56  26  27  ar  
 57  26  56  1   
 58  28  29  1   
 59  28  30  1   
 60  29  57  1   
 61  29  58  1   
 62  29  59  1   
 63  30  60  1   
 64  30  61  1   
 65  30  62  1   
@<TRIPOS>SUBSTRUCTURE
  1 ****   9 GROUP 4 **** **** 0

# MOE 2024.06 (io_trps.svl 2023.06)
