@<TRIPOS>MOLECULE
NONAME
51 53 1 0 0 
SMALL
USER_CHARGES


@<TRIPOS>ATOM
  1 F        0.3250     3.0050     0.9120 F     1 <1>  -0.1900 
  2 C       -0.9440     3.0490     0.6070 C.ar  1 <1>   0.1900 
  3 C       -1.8340     3.5580     1.5310 C.ar  1 <1>  -0.1500 
  4 C       -1.3490     2.5850    -0.6290 C.ar  1 <1>  -0.1500 
  5 C       -3.1770     3.6090     1.1980 C.ar  1 <1>  -0.1500 
  6 C       -2.6950     2.6370    -0.9500 C.ar  1 <1>  -0.1500 
  7 C       -3.6150     3.1520    -0.0420 C.ar  1 <1>  -0.1430 
  8 C       -5.1010     3.2270    -0.4000 C.3   1 <1>   0.3950 
  9 N       -5.4680     4.6830    -0.4160 N.3   1 <1>  -0.8100 
 10 C       -5.9530     2.3480     0.5560 C.2   1 <1>   0.5690 
 11 C       -6.9120     4.9140    -0.2000 C.3   1 <1>   0.1100 
 12 C       -4.9790     5.3790    -1.6460 C.3   1 <1>   0.1710 
 13 O       -5.7380     1.1640     0.6540 O.2   1 <1>  -0.5700 
 14 N       -6.9760     2.8990     1.2610 N.am  1 <1>  -0.7300 
 15 C       -7.3890     4.3180     1.1380 C.3   1 <1>   0.1400 
 16 C       -4.5820     6.8310    -1.3890 C.2   1 <1>   0.5690 
 17 O       -4.7010     7.6390    -2.2810 O.2   1 <1>  -0.5700 
 18 N       -4.0960     7.1080    -0.1500 N.am  1 <1>  -0.4930 
 19 C       -3.4970     8.2840     0.3630 C.2   1 <1>   0.0630 
 20 C       -2.2990     8.3410     1.0750 C.2   1 <1>   0.1080 
 21 C       -3.9240     9.5650     0.3050 C.2   1 <1>  -0.3320 
 22 N       -1.9950     9.5470     1.4360 N.2   1 <1>  -0.7070 
 23 C       -1.4190     7.1560     1.4060 C.3   1 <1>  -0.0590 
 24 N       -2.9910    10.3110     0.9500 N.pl3 1 <1>   0.3140 
 25 C       -5.1840    10.1310    -0.3360 C.3   1 <1>  -0.0600 
 26 C       -2.9800    11.7770     1.1400 C.3   1 <1>   0.0960 
 27 C       -2.3580    12.4890    -0.0690 C.3   1 <1>  -0.2400 
 28 H       -1.4820     3.9020     2.4870 H     1 <1>   0.1500 
 29 H       -0.6250     2.1910    -1.3200 H     1 <1>   0.1500 
 30 H       -3.8870     4.0010     1.9060 H     1 <1>   0.1500 
 31 H       -3.0210     2.2720    -1.9090 H     1 <1>   0.1500 
 32 H       -5.2520     2.8230    -1.3850 H     1 <1>   0.0800 
 33 H       -7.4780     4.4740    -1.0040 H     1 <1>   0.0800 
 34 H       -7.1100     5.9730    -0.1960 H     1 <1>   0.0800 
 35 H       -5.7280     5.3480    -2.4180 H     1 <1>   0.0800 
 36 H       -4.1010     4.8870    -2.0240 H     1 <1>   0.0800 
 37 H       -7.4840     2.2910     1.9060 H     1 <1>   0.3700 
 38 H       -8.4620     4.3860     1.1970 H     1 <1>   0.0800 
 39 H       -6.9690     4.8830     1.9530 H     1 <1>   0.0800 
 40 H       -4.0840     6.2920     0.4660 H     1 <1>   0.3700 
 41 H       -1.4080     6.4610     0.5860 H     1 <1>   0.0800 
 42 H       -1.7880     6.6670     2.2870 H     1 <1>   0.0800 
 43 H       -0.4140     7.4910     1.5870 H     1 <1>   0.0800 
 44 H       -5.8400     9.3370    -0.6400 H     1 <1>   0.0800 
 45 H       -4.9260    10.7070    -1.2070 H     1 <1>   0.0800 
 46 H       -5.7140    10.7550     0.3600 H     1 <1>   0.0800 
 47 H       -2.4070    11.9920     2.0230 H     1 <1>   0.0800 
 48 H       -3.9870    12.1140     1.2980 H     1 <1>   0.0800 
 49 H       -1.3470    12.1480    -0.2110 H     1 <1>   0.0800 
 50 H       -2.3430    13.5500     0.0980 H     1 <1>   0.0800 
 51 H       -2.9270    12.2860    -0.9580 H     1 <1>   0.0800 
@<TRIPOS>BOND
  1   1   2  1   
  2   2   3  ar  
  3   2   4  ar  
  4   3   5  ar  
  5   3  28  1   
  6   4   6  ar  
  7   4  29  1   
  8   5   7  ar  
  9   5  30  1   
 10   6   7  ar  
 11   6  31  1   
 12   7   8  1   
 13   8   9  1   
 14   8  10  1   
 15   8  32  1   
 16   9  11  1   
 17   9  12  1   
 18  10  13  2   
 19  10  14  am  
 20  11  15  1   
 21  11  33  1   
 22  11  34  1   
 23  12  16  1   
 24  12  35  1   
 25  12  36  1   
 26  14  15  1   
 27  14  37  1   
 28  15  38  1   
 29  15  39  1   
 30  16  17  2   
 31  16  18  am  
 32  18  19  1   
 33  18  40  1   
 34  19  20  1   
 35  19  21  2   
 36  20  22  2   
 37  20  23  1   
 38  21  24  1   
 39  21  25  1   
 40  22  24  1   
 41  23  41  1   
 42  23  42  1   
 43  23  43  1   
 44  24  26  1   
 45  25  44  1   
 46  25  45  1   
 47  25  46  1   
 48  26  27  1   
 49  26  47  1   
 50  26  48  1   
 51  27  49  1   
 52  27  50  1   
 53  27  51  1   
@<TRIPOS>SUBSTRUCTURE
  1 ****  18 GROUP 4 **** **** 0

# MOE 2024.06 (io_trps.svl 2023.06)
