@<TRIPOS>MOLECULE
NONAME
38 40 1 0 0 
SMALL
USER_CHARGES


@<TRIPOS>ATOM
  1 S       -1.9480    -0.0700     0.3640 S.3   1 <1>  -0.0800 
  2 C       -1.0670    -1.5490     0.1830 C.2   1 <1>   0.4420 
  3 C       -0.4760     0.7670    -0.0050 C.2   1 <1>   0.1980 
  4 N        0.1640    -1.3500    -0.1190 N.2   1 <1>  -0.3380 
  5 N       -1.7770    -2.7110     0.3830 N.am  1 <1>  -0.4940 
  6 N        0.4950    -0.0270    -0.2250 N.2   1 <1>  -0.3380 
  7 C       -0.4800     2.2920    -0.0440 C.3   1 <1>   0.3800 
  8 C       -1.3930    -4.0100     0.2240 C.2   1 <1>   0.6300 
  9 O       -1.1370     2.7860     1.0900 O.3   1 <1>  -0.5600 
 10 C       -1.1990     2.8210    -1.2870 C.3   1 <1>  -0.2400 
 11 O       -0.3080    -4.3470    -0.1770 O.2   1 <1>  -0.5700 
 12 C       -2.4280    -5.0780     0.5770 C.3   1 <1>   0.0320 
 13 C       -0.6940     4.0260     1.5470 C.3   1 <1>   0.0400 
 14 C       -3.5670    -5.1390    -0.4340 C.ar  1 <1>  -0.0320 
 15 C       -2.7450    -5.3230     2.0280 C.3   1 <1>  -0.2000 
 16 C       -1.9950    -6.3540     1.2490 C.3   1 <1>  -0.2000 
 17 C       -4.6480    -4.2690    -0.3750 C.ar  1 <1>   0.1900 
 18 C       -3.5430    -6.0690    -1.4620 C.ar  1 <1>  -0.1500 
 19 F       -4.6910    -3.3600     0.5650 F     1 <1>  -0.1900 
 20 C       -5.6890    -4.3110    -1.2830 C.ar  1 <1>  -0.1500 
 21 C       -4.5780    -6.1270    -2.3850 C.ar  1 <1>  -0.1500 
 22 C       -5.6500    -5.2530    -2.2970 C.ar  1 <1>  -0.1500 
 23 H       -2.7460    -2.5850     0.6680 H     1 <1>   0.3700 
 24 H        0.5430     2.6280    -0.0320 H     1 <1>   0.0800 
 25 H       -2.2360     2.5360    -1.2670 H     1 <1>   0.0800 
 26 H       -0.7470     2.4030    -2.1680 H     1 <1>   0.0800 
 27 H       -1.1220     3.8910    -1.3440 H     1 <1>   0.0800 
 28 H       -1.2770     4.2890     2.4130 H     1 <1>   0.0800 
 29 H       -0.8350     4.7680     0.7810 H     1 <1>   0.0800 
 30 H        0.3440     3.9540     1.8220 H     1 <1>   0.0800 
 31 H       -3.7610    -5.5350     2.3120 H     1 <1>   0.1000 
 32 H       -2.2110    -4.7710     2.7830 H     1 <1>   0.1000 
 33 H       -0.9450    -6.4950     1.4410 H     1 <1>   0.1000 
 34 H       -2.4950    -7.2740     1.0030 H     1 <1>   0.1000 
 35 H       -2.7140    -6.7510    -1.5490 H     1 <1>   0.1500 
 36 H       -6.5090    -3.6210    -1.1990 H     1 <1>   0.1500 
 37 H       -4.5460    -6.8560    -3.1770 H     1 <1>   0.1500 
 38 H       -6.4490    -5.3060    -3.0170 H     1 <1>   0.1500 
@<TRIPOS>BOND
  1   1   2  1   
  2   1   3  1   
  3   2   4  2   
  4   2   5  1   
  5   3   6  2   
  6   3   7  1   
  7   4   6  1   
  8   5   8  am  
  9   5  23  1   
 10   7   9  1   
 11   7  10  1   
 12   7  24  1   
 13   8  11  2   
 14   8  12  1   
 15   9  13  1   
 16  10  25  1   
 17  10  26  1   
 18  10  27  1   
 19  12  14  1   
 20  12  15  1   
 21  12  16  1   
 22  13  28  1   
 23  13  29  1   
 24  13  30  1   
 25  14  17  ar  
 26  14  18  ar  
 27  15  16  1   
 28  15  31  1   
 29  15  32  1   
 30  16  33  1   
 31  16  34  1   
 32  17  19  1   
 33  17  20  ar  
 34  18  21  ar  
 35  18  35  1   
 36  20  22  ar  
 37  20  36  1   
 38  21  22  ar  
 39  21  37  1   
 40  22  38  1   
@<TRIPOS>SUBSTRUCTURE
  1 ****   5 GROUP 4 **** **** 0

# MOE 2024.06 (io_trps.svl 2023.06)
