@<TRIPOS>MOLECULE
NONAME
49 51 1 0 0 
SMALL
USER_CHARGES


@<TRIPOS>ATOM
  1 O        1.2300     0.2590     0.8070 O.3   1 <1>  -0.2800 
  2 C        1.0480    -1.0280     0.8080 C.2   1 <1>   0.4780 
  3 C        1.8490     0.5040     1.9140 C.2   1 <1>   0.2980 
  4 N        1.5340    -1.5530     1.8870 N.2   1 <1>  -0.3380 
  5 C        0.3790    -1.6610    -0.3010 C.2   1 <1>  -0.1520 
  6 N        2.0510    -0.5560     2.5990 N.2   1 <1>  -0.3380 
  7 C        2.2500     1.9300     2.2830 C.3   1 <1>   0.2900 
  8 N        0.1030    -3.0050    -0.4110 N.pl3 1 <1>   0.0480 
  9 C       -0.0970    -1.0490    -1.4310 C.2   1 <1>  -0.1500 
 10 N        3.2580     2.5270     1.3690 N.3   1 <1>  -0.8100 
 11 C       -0.5370    -3.2080    -1.5990 C.2   1 <1>  -0.3320 
 12 C        0.4410    -4.0480     0.5830 C.3   1 <1>   0.0160 
 13 C       -0.6710    -2.0200    -2.2430 C.2   1 <1>  -0.1500 
 14 C        3.4950     3.9430     1.7100 C.3   1 <1>   0.1100 
 15 C        4.5080     1.7450     1.3770 C.3   1 <1>   0.0300 
 16 C       -1.0140    -4.5600    -2.1010 C.3   1 <1>  -0.0600 
 17 C        4.1080     4.7040     0.5330 C.3   1 <1>   0.1200 
 18 O        4.2570     6.0560     0.9080 O.3   1 <1>  -0.3630 
 19 C        4.7860     6.9660     0.0530 C.ar  1 <1>   0.0830 
 20 C        4.9330     8.2590     0.5280 C.ar  1 <1>  -0.1500 
 21 C        5.1800     6.6700    -1.2500 C.ar  1 <1>  -0.1500 
 22 C        5.4670     9.2480    -0.2800 C.ar  1 <1>  -0.1500 
 23 C        5.7140     7.6620    -2.0540 C.ar  1 <1>  -0.1500 
 24 C        5.8620     8.9540    -1.5750 C.ar  1 <1>  -0.1430 
 25 C        6.4460    10.0390    -2.4610 C.3   1 <1>  -0.0970 
 26 H        2.6330     1.9310     3.2890 H     1 <1>   0.0800 
 27 H        1.3580     2.5310     2.2660 H     1 <1>   0.0800 
 28 H       -0.0440     0.0000    -1.6660 H     1 <1>   0.1500 
 29 H       -0.0330    -3.8110     1.5180 H     1 <1>   0.0800 
 30 H        1.5070    -4.0730     0.7200 H     1 <1>   0.0800 
 31 H        0.1050    -5.0100     0.2490 H     1 <1>   0.0800 
 32 H       -1.1290    -1.8360    -3.2000 H     1 <1>   0.1500 
 33 H        4.1400     4.0150     2.5690 H     1 <1>   0.0800 
 34 H        2.5560     4.4160     1.9430 H     1 <1>   0.0800 
 35 H        4.3170     0.7320     1.0650 H     1 <1>   0.0800 
 36 H        4.9390     1.7300     2.3640 H     1 <1>   0.0800 
 37 H        5.2200     2.1670     0.6910 H     1 <1>   0.0800 
 38 H       -1.7290    -4.9800    -1.4160 H     1 <1>   0.0800 
 39 H       -0.1830    -5.2330    -2.2040 H     1 <1>   0.0800 
 40 H       -1.4860    -4.4520    -3.0610 H     1 <1>   0.0800 
 41 H        3.4530     4.6570    -0.3190 H     1 <1>   0.0800 
 42 H        5.0800     4.3180     0.2880 H     1 <1>   0.0800 
 43 H        4.6270     8.4860     1.5320 H     1 <1>   0.1500 
 44 H        5.0780     5.6820    -1.6540 H     1 <1>   0.1500 
 45 H        5.5720    10.2470     0.1060 H     1 <1>   0.1500 
 46 H        6.0130     7.4240    -3.0600 H     1 <1>   0.1500 
 47 H        6.9660    10.7700    -1.8680 H     1 <1>   0.0800 
 48 H        5.6570    10.5290    -3.0040 H     1 <1>   0.0800 
 49 H        7.1420     9.6170    -3.1640 H     1 <1>   0.0800 
@<TRIPOS>BOND
  1   1   2  1   
  2   1   3  1   
  3   2   4  2   
  4   2   5  1   
  5   3   6  2   
  6   3   7  1   
  7   4   6  1   
  8   5   8  1   
  9   5   9  2   
 10   7  10  1   
 11   7  26  1   
 12   7  27  1   
 13   8  11  1   
 14   8  12  1   
 15   9  13  1   
 16   9  28  1   
 17  10  14  1   
 18  10  15  1   
 19  11  13  2   
 20  11  16  1   
 21  12  29  1   
 22  12  30  1   
 23  12  31  1   
 24  13  32  1   
 25  14  17  1   
 26  14  33  1   
 27  14  34  1   
 28  15  35  1   
 29  15  36  1   
 30  15  37  1   
 31  16  38  1   
 32  16  39  1   
 33  16  40  1   
 34  17  18  1   
 35  17  41  1   
 36  17  42  1   
 37  18  19  1   
 38  19  20  ar  
 39  19  21  ar  
 40  20  22  ar  
 41  20  43  1   
 42  21  23  ar  
 43  21  44  1   
 44  22  24  ar  
 45  22  45  1   
 46  23  24  ar  
 47  23  46  1   
 48  24  25  1   
 49  25  47  1   
 50  25  48  1   
 51  25  49  1   
@<TRIPOS>SUBSTRUCTURE
  1 ****  10 GROUP 4 **** **** 0

# MOE 2024.06 (io_trps.svl 2023.06)
