@<TRIPOS>MOLECULE
NONAME
37 38 1 0 0 
SMALL
USER_CHARGES


@<TRIPOS>ATOM
  1 CL      -0.4150    -0.5250     1.6440 Cl    1 <1>  -0.1770 
  2 C       -1.9390    -1.2780     1.2260 C.ar  1 <1>   0.1770 
  3 C       -2.0920    -2.6420     1.2710 C.ar  1 <1>   0.1600 
  4 C       -3.0200    -0.5230     0.8430 C.ar  1 <1>   0.1600 
  5 N       -3.2320    -3.2210     0.9590 N.ar  1 <1>  -0.6200 
  6 N       -4.1720    -1.0750     0.5260 N.ar  1 <1>  -0.6200 
  7 C       -4.2260    -2.4070     0.5990 C.ar  1 <1>   0.7200 
  8 N       -5.4230    -2.9960     0.2810 N.pl3 1 <1>  -0.8380 
  9 C       -6.5640    -2.2420    -0.2970 C.3   1 <1>   0.2090 
 10 C       -5.5490    -4.4390    -0.0520 C.3   1 <1>   0.2090 
 11 C       -7.6430    -3.3050    -0.4910 C.3   1 <1>   0.2000 
 12 C       -6.8460    -4.5570    -0.8670 C.3   1 <1>  -0.0800 
 13 O       -8.2600    -3.5180     0.7340 O.3   1 <1>  -0.6800 
 14 C       -7.6200    -5.8790    -0.6640 C.3   1 <1>  -0.0550 
 15 S       -6.7820    -7.3310    -1.3030 S.o2  1 <1>   1.3330 
 16 O       -7.6210    -8.4910    -1.1010 O.2   1 <1>  -0.6500 
 17 O       -6.3030    -7.0160    -2.6300 O.2   1 <1>  -0.6500 
 18 N       -5.4330    -7.4970    -0.2840 N.am  1 <1>  -0.8490 
 19 C       -4.3120    -8.1680    -0.9500 C.3   1 <1>   0.1160 
 20 C       -5.7370    -8.1740     0.9820 C.3   1 <1>   0.1160 
 21 H       -1.2640    -3.2620     1.5670 H     1 <1>   0.1500 
 22 H       -2.9330     0.5480     0.7980 H     1 <1>   0.1500 
 23 H       -6.8900    -1.4500     0.3560 H     1 <1>   0.0800 
 24 H       -6.2700    -1.8290    -1.2470 H     1 <1>   0.0800 
 25 H       -4.7000    -4.7830    -0.6200 H     1 <1>   0.0800 
 26 H       -5.6130    -5.0000     0.8650 H     1 <1>   0.0800 
 27 H       -8.3900    -3.0310    -1.2160 H     1 <1>   0.0800 
 28 H       -6.5790    -4.4710    -1.9060 H     1 <1>   0.0800 
 29 H       -7.5630    -3.4770     1.4240 H     1 <1>   0.4000 
 30 H       -8.5630    -5.7890    -1.1680 H     1 <1>   0.0800 
 31 H       -7.8310    -6.0190     0.3770 H     1 <1>   0.0800 
 32 H       -3.4700    -8.2410    -0.2830 H     1 <1>   0.0800 
 33 H       -4.0060    -7.6030    -1.8150 H     1 <1>   0.0800 
 34 H       -4.6020    -9.1560    -1.2670 H     1 <1>   0.0800 
 35 H       -4.8710    -8.1660     1.6220 H     1 <1>   0.0800 
 36 H       -6.0320    -9.1950     0.8020 H     1 <1>   0.0800 
 37 H       -6.5390    -7.6680     1.4910 H     1 <1>   0.0800 
@<TRIPOS>BOND
  1   1   2  1   
  2   2   3  ar  
  3   2   4  ar  
  4   3   5  ar  
  5   3  21  1   
  6   4   6  ar  
  7   4  22  1   
  8   5   7  ar  
  9   6   7  ar  
 10   7   8  1   
 11   8   9  1   
 12   8  10  1   
 13   9  11  1   
 14   9  23  1   
 15   9  24  1   
 16  10  12  1   
 17  10  25  1   
 18  10  26  1   
 19  11  12  1   
 20  11  13  1   
 21  11  27  1   
 22  12  14  1   
 23  12  28  1   
 24  13  29  1   
 25  14  15  1   
 26  14  30  1   
 27  14  31  1   
 28  15  16  2   
 29  15  17  2   
 30  15  18  am  
 31  18  19  1   
 32  18  20  1   
 33  19  32  1   
 34  19  33  1   
 35  19  34  1   
 36  20  35  1   
 37  20  36  1   
 38  20  37  1   
@<TRIPOS>SUBSTRUCTURE
  1 ****  10 GROUP 4 **** **** 0

# MOE 2024.06 (io_trps.svl 2023.06)
