@<TRIPOS>MOLECULE
NONAME
55 58 1 0 0 
SMALL
USER_CHARGES


@<TRIPOS>ATOM
  1 N       -0.1040    -0.0520     0.0490 N.ar  1 <1>  -0.1790 
  2 C        1.1260     0.5170    -0.2280 C.ar  1 <1>   0.3610 
  3 C       -0.3730    -1.3590     0.0550 C.ar  1 <1>   0.4610 
  4 C        2.1980    -0.3430    -0.5300 C.ar  1 <1>   0.0000 
  5 C        1.2990     1.9150    -0.2040 C.ar  1 <1>  -0.1440 
  6 N       -1.6180    -1.7940     0.3560 N.pl3 1 <1>  -0.8380 
  7 C        0.7090    -2.2220    -0.2570 C.ar  1 <1>  -0.1500 
  8 C        1.9550    -1.7520    -0.5400 C.ar  1 <1>  -0.1430 
  9 C        3.4420     0.2390    -0.8040 C.ar  1 <1>  -0.1500 
 10 C        2.5450     2.4510    -0.4790 C.ar  1 <1>  -0.1430 
 11 C        0.0990     2.8130     0.1270 C.3   1 <1>  -0.0970 
 12 C       -2.8610    -0.9320     0.4480 C.3   1 <1>   0.2090 
 13 C       -1.9110    -3.2680     0.5690 C.3   1 <1>   0.2090 
 14 C        3.0820    -2.7230    -0.8720 C.3   1 <1>  -0.0970 
 15 C        3.6070     1.5990    -0.7780 C.ar  1 <1>  -0.1500 
 16 C        2.8370     3.9480    -0.4760 C.3   1 <1>  -0.0970 
 17 C       -4.1230    -1.6180    -0.1220 C.3   1 <1>   0.2090 
 18 C       -3.2600    -3.5450     1.2610 C.3   1 <1>   0.2090 
 19 N       -4.4000    -2.9490     0.4950 N.pl3 1 <1>  -0.8380 
 20 C       -5.1550    -3.8070    -0.2660 C.ar  1 <1>   0.4100 
 21 N       -4.5180    -4.6510    -1.0520 N.ar  1 <1>  -0.6200 
 22 C       -6.5330    -3.7660    -0.2200 C.ar  1 <1>  -0.1500 
 23 C       -5.2930    -5.4380    -1.7750 C.ar  1 <1>   0.4700 
 24 C       -7.2330    -4.6310    -1.0180 C.ar  1 <1>   0.1670 
 25 N       -6.6140    -5.4830    -1.8130 N.ar  1 <1>  -0.6200 
 26 C       -8.7530    -4.6460    -1.0200 C.3   1 <1>  -0.0170 
 27 C       -9.3050    -5.8240    -0.2070 C.3   1 <1>  -0.2400 
 28 H       -0.8540     0.5740     0.3030 H     1 <1>   0.4570 
 29 H        0.5240    -3.2790    -0.2770 H     1 <1>   0.1500 
 30 H        4.2900    -0.3800    -1.0390 H     1 <1>   0.1500 
 31 H       -0.2550     2.6120     1.1230 H     1 <1>   0.0800 
 32 H       -0.6970     2.6510    -0.5780 H     1 <1>   0.0800 
 33 H        0.3400     3.8590     0.0860 H     1 <1>   0.0800 
 34 H       -2.7240    -0.0110    -0.0890 H     1 <1>   0.0800 
 35 H       -3.0490    -0.6910     1.4810 H     1 <1>   0.0800 
 36 H       -1.1360    -3.7080     1.1710 H     1 <1>   0.0800 
 37 H       -1.9190    -3.7690    -0.3850 H     1 <1>   0.0800 
 38 H        3.4630    -2.5280    -1.8590 H     1 <1>   0.0800 
 39 H        2.7400    -3.7420    -0.8420 H     1 <1>   0.0800 
 40 H        3.8830    -2.6200    -0.1610 H     1 <1>   0.0800 
 41 H        4.5790     2.0130    -0.9930 H     1 <1>   0.1500 
 42 H        2.2410     4.4460    -1.2200 H     1 <1>   0.0800 
 43 H        3.8710     4.1470    -0.6960 H     1 <1>   0.0800 
 44 H        2.6210     4.3690     0.4900 H     1 <1>   0.0800 
 45 H       -4.0010    -1.7410    -1.1850 H     1 <1>   0.0800 
 46 H       -4.9750    -0.9810     0.0380 H     1 <1>   0.0800 
 47 H       -3.2480    -3.1390     2.2560 H     1 <1>   0.0800 
 48 H       -3.4000    -4.6100     1.3490 H     1 <1>   0.0800 
 49 H       -7.0210    -3.0720     0.4330 H     1 <1>   0.1500 
 50 H       -4.7850    -6.1330    -2.4210 H     1 <1>   0.1500 
 51 H       -9.0980    -4.7170    -2.0360 H     1 <1>   0.0800 
 52 H       -9.1260    -3.7250    -0.6100 H     1 <1>   0.0800 
 53 H       -8.9600    -6.7530    -0.6270 H     1 <1>   0.0800 
 54 H      -10.3800    -5.8150    -0.2230 H     1 <1>   0.0800 
 55 H       -8.9700    -5.7610     0.8130 H     1 <1>   0.0800 
@<TRIPOS>BOND
  1   1   2  ar  
  2   1   3  ar  
  3   1  28  1   
  4   2   4  ar  
  5   2   5  ar  
  6   3   6  1   
  7   3   7  ar  
  8   4   8  ar  
  9   4   9  ar  
 10   5  10  ar  
 11   5  11  1   
 12   6  12  1   
 13   6  13  1   
 14   7   8  ar  
 15   7  29  1   
 16   8  14  1   
 17   9  15  ar  
 18   9  30  1   
 19  10  15  ar  
 20  10  16  1   
 21  11  31  1   
 22  11  32  1   
 23  11  33  1   
 24  12  17  1   
 25  12  34  1   
 26  12  35  1   
 27  13  18  1   
 28  13  36  1   
 29  13  37  1   
 30  14  38  1   
 31  14  39  1   
 32  14  40  1   
 33  15  41  1   
 34  16  42  1   
 35  16  43  1   
 36  16  44  1   
 37  17  19  1   
 38  17  45  1   
 39  17  46  1   
 40  18  19  1   
 41  18  47  1   
 42  18  48  1   
 43  19  20  1   
 44  20  21  ar  
 45  20  22  ar  
 46  21  23  ar  
 47  22  24  ar  
 48  22  49  1   
 49  23  25  ar  
 50  23  50  1   
 51  24  25  ar  
 52  24  26  1   
 53  26  27  1   
 54  26  51  1   
 55  26  52  1   
 56  27  53  1   
 57  27  54  1   
 58  27  55  1   
@<TRIPOS>SUBSTRUCTURE
  1 ****   6 GROUP 4 **** **** 0

# MOE 2024.06 (io_trps.svl 2023.06)
