@<TRIPOS>MOLECULE
NONAME
50 53 1 0 0 
SMALL
USER_CHARGES


@<TRIPOS>ATOM
  1 O        1.6370     1.2660    -1.5180 O.2   1 <1>  -0.5700 
  2 C        1.6100     0.8290    -0.3940 C.2   1 <1>   0.5690 
  3 N        2.6650     0.3380     0.3220 N.am  1 <1>  -0.4770 
  4 C        0.3340     0.7800     0.4030 C.3   1 <1>  -0.0990 
  5 C        4.0210     0.3190    -0.0540 C.ar  1 <1>   0.1170 
  6 C        2.2420    -0.0640     1.6780 C.3   1 <1>   0.1400 
  7 C        0.7080    -0.0390     1.6440 C.3   1 <1>  -0.1600 
  8 C        4.5860     1.3880    -0.7410 C.ar  1 <1>  -0.1500 
  9 C        4.8390    -0.7640     0.2540 C.ar  1 <1>  -0.1500 
 10 C        5.9200     1.3790    -1.1050 C.ar  1 <1>  -0.1500 
 11 C        6.1740    -0.7770    -0.1060 C.ar  1 <1>  -0.1500 
 12 C        6.7260     0.2940    -0.7920 C.ar  1 <1>  -0.1440 
 13 C        8.1870     0.2880    -1.2060 C.3   1 <1>   0.3530 
 14 N        8.8770     1.3660    -0.4740 N.pl3 1 <1>  -0.8690 
 15 C        9.3990     2.4170    -1.1730 C.ar  1 <1>   0.4100 
 16 N        8.8730     3.5780    -0.8500 N.ar  1 <1>  -0.6200 
 17 C       10.3960     2.2680    -2.1490 C.ar  1 <1>   0.1600 
 18 C        9.3680     4.6120    -1.5540 C.ar  1 <1>   0.3960 
 19 N       10.8980     3.2540    -2.8620 N.ar  1 <1>  -0.6200 
 20 C        8.8920     5.9800    -1.3340 C.2   1 <1>   0.5440 
 21 C       10.3500     4.4170    -2.5330 C.ar  1 <1>   0.1600 
 22 O        8.9170     6.7700    -2.2640 O.2   1 <1>  -0.5700 
 23 N        8.4320     6.4580    -0.1190 N.am  1 <1>  -0.6600 
 24 C        7.9240     7.8370     0.0570 C.3   1 <1>   0.1400 
 25 C        8.4260     5.7240     1.1660 C.3   1 <1>   0.1400 
 26 C        7.3840     7.8770     1.4820 C.3   1 <1>  -0.1600 
 27 C        8.1630     6.7920     2.2210 C.3   1 <1>  -0.1600 
 28 H       -0.4500     0.3150    -0.1650 H     1 <1>   0.0800 
 29 H        0.0520     1.7820     0.6680 H     1 <1>   0.0800 
 30 H        2.6210     0.6500     2.3890 H     1 <1>   0.0800 
 31 H        2.6040    -1.0470     1.9230 H     1 <1>   0.0800 
 32 H        0.3450    -1.0470     1.5350 H     1 <1>   0.0800 
 33 H        0.2990     0.3800     2.5460 H     1 <1>   0.0800 
 34 H        3.9750     2.2350    -0.9960 H     1 <1>   0.1500 
 35 H        4.4280    -1.6110     0.7710 H     1 <1>   0.1500 
 36 H        6.3290     2.2230    -1.6350 H     1 <1>   0.1500 
 37 H        6.7810    -1.6290     0.1490 H     1 <1>   0.1500 
 38 H        8.2590     0.4430    -2.2690 H     1 <1>   0.0800 
 39 H        8.6440    -0.6560    -0.9630 H     1 <1>   0.0800 
 40 H        8.2460     1.7160     0.2550 H     1 <1>   0.4000 
 41 H       10.7770     1.2790    -2.3240 H     1 <1>   0.1500 
 42 H       10.7010     5.2800    -3.0720 H     1 <1>   0.1500 
 43 H        7.1580     8.0570    -0.6670 H     1 <1>   0.0800 
 44 H        8.7410     8.5280    -0.0600 H     1 <1>   0.0800 
 45 H        9.3630     5.2230     1.3350 H     1 <1>   0.0800 
 46 H        7.6240     5.0040     1.1540 H     1 <1>   0.0800 
 47 H        6.3370     7.6270     1.4640 H     1 <1>   0.0800 
 48 H        7.5050     8.8480     1.9280 H     1 <1>   0.0800 
 49 H        9.1050     7.1860     2.5610 H     1 <1>   0.0800 
 50 H        7.6220     6.3980     3.0630 H     1 <1>   0.0800 
@<TRIPOS>BOND
  1   1   2  2   
  2   2   3  am  
  3   2   4  1   
  4   3   5  1   
  5   3   6  1   
  6   4   7  1   
  7   4  28  1   
  8   4  29  1   
  9   5   8  ar  
 10   5   9  ar  
 11   6   7  1   
 12   6  30  1   
 13   6  31  1   
 14   7  32  1   
 15   7  33  1   
 16   8  10  ar  
 17   8  34  1   
 18   9  11  ar  
 19   9  35  1   
 20  10  12  ar  
 21  10  36  1   
 22  11  12  ar  
 23  11  37  1   
 24  12  13  1   
 25  13  14  1   
 26  13  38  1   
 27  13  39  1   
 28  14  15  1   
 29  14  40  1   
 30  15  16  ar  
 31  15  17  ar  
 32  16  18  ar  
 33  17  19  ar  
 34  17  41  1   
 35  18  20  1   
 36  18  21  ar  
 37  19  21  ar  
 38  20  22  2   
 39  20  23  am  
 40  21  42  1   
 41  23  24  1   
 42  23  25  1   
 43  24  26  1   
 44  24  43  1   
 45  24  44  1   
 46  25  27  1   
 47  25  45  1   
 48  25  46  1   
 49  26  27  1   
 50  26  47  1   
 51  26  48  1   
 52  27  49  1   
 53  27  50  1   
@<TRIPOS>SUBSTRUCTURE
  1 ****  10 GROUP 4 **** **** 0

# MOE 2024.06 (io_trps.svl 2023.06)
