@<TRIPOS>MOLECULE
NONAME
50 53 1 0 0 
SMALL
USER_CHARGES


@<TRIPOS>ATOM
  1 S       -1.2930     0.2180    -1.1710 S.o2  1 <1>   1.2040 
  2 O       -1.6570    -0.3980    -2.4270 O.2   1 <1>  -0.6500 
  3 O       -1.5550     1.6220    -0.9510 O.2   1 <1>  -0.6500 
  4 C       -2.0060    -0.7480     0.1830 C.ar  1 <1>  -0.0090 
  5 C        0.4550    -0.0410    -0.9380 C.3   1 <1>  -0.1350 
  6 C       -2.1280    -2.1260     0.0820 C.ar  1 <1>  -0.1500 
  7 C       -2.4270    -0.1420     1.3600 C.ar  1 <1>  -0.1500 
  8 C       -2.6570    -2.9090     1.1060 C.ar  1 <1>   0.0860 
  9 C       -2.9500    -0.8920     2.4000 C.ar  1 <1>  -0.1500 
 10 C       -2.7750    -4.3460     0.9490 C.2   1 <1>   0.5440 
 11 C       -3.0600    -2.2630     2.2720 C.ar  1 <1>  -0.1500 
 12 O       -1.8120    -4.9820     0.5680 O.2   1 <1>  -0.5700 
 13 N       -3.9590    -5.0060     1.1900 N.am  1 <1>  -0.6600 
 14 C       -4.0480    -6.5020     1.1740 C.3   1 <1>   0.1400 
 15 C       -5.3000    -4.3580     1.0460 C.3   1 <1>   0.1400 
 16 C       -4.8780    -6.9900    -0.0280 C.3   1 <1>   0.3430 
 17 C       -6.0660    -4.9590    -0.1500 C.3   1 <1>   0.2950 
 18 O       -6.1300    -6.3500    -0.0410 O.3   1 <1>  -0.5600 
 19 C       -5.0730    -8.5030     0.0330 C.ar  1 <1>  -0.1430 
 20 C       -7.5030    -4.4330    -0.2150 C.3   1 <1>  -0.1950 
 21 C       -4.1340    -9.3340    -0.5610 C.ar  1 <1>  -0.1500 
 22 C       -6.1600    -9.0720     0.6820 C.ar  1 <1>  -0.1500 
 23 C       -8.2720    -4.4420    -1.4970 C.3   1 <1>  -0.2000 
 24 C       -7.8210    -3.1390    -0.8980 C.3   1 <1>  -0.2000 
 25 C       -4.2780   -10.7100    -0.5080 C.ar  1 <1>  -0.1500 
 26 C       -6.3070   -10.4470     0.7370 C.ar  1 <1>  -0.1500 
 27 C       -5.3650   -11.2680     0.1420 C.ar  1 <1>  -0.1500 
 28 H        0.6920    -1.0850    -1.0070 H     1 <1>   0.0800 
 29 H        0.7630     0.3230     0.0220 H     1 <1>   0.0800 
 30 H        1.0060     0.4840    -1.6940 H     1 <1>   0.0800 
 31 H       -1.8080    -2.6200    -0.8210 H     1 <1>   0.1500 
 32 H       -2.3490     0.9280     1.4660 H     1 <1>   0.1500 
 33 H       -3.2690    -0.4050     3.3070 H     1 <1>   0.1500 
 34 H       -3.4600    -2.8470     3.0830 H     1 <1>   0.1500 
 35 H       -3.0680    -6.9430     1.1290 H     1 <1>   0.0800 
 36 H       -4.5140    -6.8410     2.0820 H     1 <1>   0.0800 
 37 H       -5.8670    -4.5150     1.9470 H     1 <1>   0.0800 
 38 H       -5.2020    -3.2990     0.8950 H     1 <1>   0.0800 
 39 H       -4.3680    -6.7380    -0.9420 H     1 <1>   0.0800 
 40 H       -5.5550    -4.7180    -1.0670 H     1 <1>   0.0800 
 41 H       -8.0540    -4.6610     0.6820 H     1 <1>   0.1000 
 42 H       -3.2820    -8.9150    -1.0690 H     1 <1>   0.1500 
 43 H       -6.9010    -8.4420     1.1460 H     1 <1>   0.1500 
 44 H       -7.7880    -4.8080    -2.3860 H     1 <1>   0.1000 
 45 H       -9.3160    -4.7000    -1.4640 H     1 <1>   0.1000 
 46 H       -8.5630    -2.4910    -0.4640 H     1 <1>   0.1000 
 47 H       -7.0430    -2.5930    -1.4030 H     1 <1>   0.1000 
 48 H       -3.5450   -11.3470    -0.9720 H     1 <1>   0.1500 
 49 H       -7.1540   -10.8770     1.2410 H     1 <1>   0.1500 
 50 H       -5.4790   -12.3370     0.1830 H     1 <1>   0.1500 
@<TRIPOS>BOND
  1   1   2  2   
  2   1   3  2   
  3   1   4  1   
  4   1   5  1   
  5   4   6  ar  
  6   4   7  ar  
  7   5  28  1   
  8   5  29  1   
  9   5  30  1   
 10   6   8  ar  
 11   6  31  1   
 12   7   9  ar  
 13   7  32  1   
 14   8  10  1   
 15   8  11  ar  
 16   9  11  ar  
 17   9  33  1   
 18  10  12  2   
 19  10  13  am  
 20  11  34  1   
 21  13  14  1   
 22  13  15  1   
 23  14  16  1   
 24  14  35  1   
 25  14  36  1   
 26  15  17  1   
 27  15  37  1   
 28  15  38  1   
 29  16  18  1   
 30  16  19  1   
 31  16  39  1   
 32  17  18  1   
 33  17  20  1   
 34  17  40  1   
 35  19  21  ar  
 36  19  22  ar  
 37  20  23  1   
 38  20  24  1   
 39  20  41  1   
 40  21  25  ar  
 41  21  42  1   
 42  22  26  ar  
 43  22  43  1   
 44  23  24  1   
 45  23  44  1   
 46  23  45  1   
 47  24  46  1   
 48  24  47  1   
 49  25  27  ar  
 50  25  48  1   
 51  26  27  ar  
 52  26  49  1   
 53  27  50  1   
@<TRIPOS>SUBSTRUCTURE
  1 ****  13 GROUP 4 **** **** 0

# MOE 2024.06 (io_trps.svl 2023.06)
