@<TRIPOS>MOLECULE
NONAME
63 65 1 0 0 
SMALL
USER_CHARGES


@<TRIPOS>ATOM
  1 O       -2.7060    -0.5430    -2.8360 O.2   1 <1>  -0.5700 
  2 C       -2.5530    -0.9620    -1.7170 C.2   1 <1>   0.5690 
  3 N       -2.1420    -0.1630    -0.6880 N.am  1 <1>  -0.6600 
  4 C       -2.8830    -2.4110    -1.4710 C.3   1 <1>  -0.0190 
  5 C       -2.0290    -0.6440     0.7180 C.3   1 <1>   0.2200 
  6 C       -1.7300     1.2560    -0.9260 C.3   1 <1>   0.0600 
  7 C       -1.6720    -3.2060    -0.9390 C.3   1 <1>   0.1200 
  8 C       -4.1800    -2.4840    -0.6580 C.3   1 <1>   0.3430 
  9 C       -0.9720    -1.7700     0.8350 C.3   1 <1>   0.1200 
 10 C       -3.4250    -1.0210     1.2880 C.3   1 <1>   0.3430 
 11 O       -1.4570    -3.0250     0.4340 O.3   1 <1>  -0.5600 
 12 N       -3.9740    -2.3430     0.8220 N.4   1 <1>  -0.9590 
 13 C       -5.1460    -2.7940     1.6150 C.3   1 <1>   0.4860 
 14 C       -5.4120    -4.2540     1.2970 C.ar  1 <1>  -0.1440 
 15 C       -6.5760    -4.6300     0.6410 C.ar  1 <1>  -0.1500 
 16 C       -4.4830    -5.2220     1.6440 C.ar  1 <1>  -0.1500 
 17 C       -6.8220    -5.9630     0.3160 C.ar  1 <1>   0.0820 
 18 C       -4.7150    -6.5460     1.3280 C.ar  1 <1>  -0.1500 
 19 O       -7.9590    -6.3280    -0.3470 O.3   1 <1>  -0.3620 
 20 C       -5.8700    -6.9360     0.6710 C.ar  1 <1>   0.0820 
 21 C       -8.9220    -5.3980    -0.7900 C.3   1 <1>   0.1200 
 22 O       -5.9500    -8.2780     0.4360 O.3   1 <1>  -0.3630 
 23 C      -10.0230    -6.1700    -1.5110 C.3   1 <1>  -0.2400 
 24 C       -7.1500    -8.9210     0.0830 C.3   1 <1>   0.1200 
 25 C       -6.9180   -10.4300     0.1870 C.3   1 <1>   0.3430 
 26 N       -8.1170   -11.2300    -0.2400 N.4   1 <1>  -0.9590 
 27 C       -9.2870   -11.0290     0.6750 C.3   1 <1>   0.2630 
 28 C       -7.7630   -12.6810    -0.3200 C.3   1 <1>   0.2630 
 29 H       -3.1090    -2.8240    -2.4380 H     1 <1>   0.0800 
 30 H       -1.6660     0.1810     1.3060 H     1 <1>   0.0800 
 31 H       -2.3640     1.9240    -0.3690 H     1 <1>   0.0800 
 32 H       -1.8060     1.5110    -1.9700 H     1 <1>   0.0800 
 33 H       -0.7080     1.3990    -0.6210 H     1 <1>   0.0800 
 34 H       -0.7720    -2.9410    -1.4710 H     1 <1>   0.0800 
 35 H       -1.8440    -4.2590    -1.0880 H     1 <1>   0.0800 
 36 H       -4.6270    -3.4440    -0.8570 H     1 <1>   0.0800 
 37 H       -4.8630    -1.7270    -1.0100 H     1 <1>   0.0800 
 38 H       -0.6780    -1.8710     1.8650 H     1 <1>   0.0800 
 39 H       -0.0910    -1.5310     0.2630 H     1 <1>   0.0800 
 40 H       -4.1180    -0.2320     1.0480 H     1 <1>   0.0800 
 41 H       -3.3330    -1.0540     2.3610 H     1 <1>   0.0800 
 42 H       -3.2060    -3.0190     1.0100 H     1 <1>   0.4500 
 43 H       -4.9430    -2.6950     2.6690 H     1 <1>   0.0800 
 44 H       -6.0110    -2.1970     1.3750 H     1 <1>   0.0800 
 45 H       -7.2890    -3.8680     0.3870 H     1 <1>   0.1500 
 46 H       -3.5720    -4.9660     2.1610 H     1 <1>   0.1500 
 47 H       -3.9900    -7.2950     1.5980 H     1 <1>   0.1500 
 48 H       -9.3220    -4.8810     0.0650 H     1 <1>   0.0800 
 49 H       -8.4480    -4.7040    -1.4630 H     1 <1>   0.0800 
 50 H      -10.4920    -6.8660    -0.8380 H     1 <1>   0.0800 
 51 H       -9.6170    -6.6960    -2.3560 H     1 <1>   0.0800 
 52 H      -10.7720    -5.4850    -1.8650 H     1 <1>   0.0800 
 53 H       -7.9130    -8.5960     0.7670 H     1 <1>   0.0800 
 54 H       -7.3900    -8.6420    -0.9270 H     1 <1>   0.0800 
 55 H       -6.6640   -10.6730     1.2060 H     1 <1>   0.0800 
 56 H       -6.0800   -10.6820    -0.4410 H     1 <1>   0.0800 
 57 H       -8.3850   -10.9160    -1.1870 H     1 <1>   0.4500 
 58 H       -9.0310   -11.3210     1.6810 H     1 <1>   0.0800 
 59 H      -10.1240   -11.6230     0.3470 H     1 <1>   0.0800 
 60 H       -9.5870    -9.9940     0.6820 H     1 <1>   0.0800 
 61 H       -7.4690   -13.0500     0.6490 H     1 <1>   0.0800 
 62 H       -6.9450   -12.8290    -1.0070 H     1 <1>   0.0800 
 63 H       -8.6080   -13.2550    -0.6660 H     1 <1>   0.0800 
@<TRIPOS>BOND
  1   1   2  2   
  2   2   3  am  
  3   2   4  1   
  4   3   5  1   
  5   3   6  1   
  6   4   7  1   
  7   4   8  1   
  8   4  29  1   
  9   5   9  1   
 10   5  10  1   
 11   5  30  1   
 12   6  31  1   
 13   6  32  1   
 14   6  33  1   
 15   7  11  1   
 16   7  34  1   
 17   7  35  1   
 18   8  12  1   
 19   8  36  1   
 20   8  37  1   
 21   9  11  1   
 22   9  38  1   
 23   9  39  1   
 24  10  12  1   
 25  10  40  1   
 26  10  41  1   
 27  12  13  1   
 28  12  42  1   
 29  13  14  1   
 30  13  43  1   
 31  13  44  1   
 32  14  15  ar  
 33  14  16  ar  
 34  15  17  ar  
 35  15  45  1   
 36  16  18  ar  
 37  16  46  1   
 38  17  19  1   
 39  17  20  ar  
 40  18  20  ar  
 41  18  47  1   
 42  19  21  1   
 43  20  22  1   
 44  21  23  1   
 45  21  48  1   
 46  21  49  1   
 47  22  24  1   
 48  23  50  1   
 49  23  51  1   
 50  23  52  1   
 51  24  25  1   
 52  24  53  1   
 53  24  54  1   
 54  25  26  1   
 55  25  55  1   
 56  25  56  1   
 57  26  27  1   
 58  26  28  1   
 59  26  57  1   
 60  27  58  1   
 61  27  59  1   
 62  27  60  1   
 63  28  61  1   
 64  28  62  1   
 65  28  63  1   
@<TRIPOS>SUBSTRUCTURE
  1 ****  14 GROUP 4 **** **** 0

# MOE 2024.06 (io_trps.svl 2023.06)
