@<TRIPOS>MOLECULE
NONAME
26 26 1 0 0 
SMALL
USER_CHARGES


@<TRIPOS>ATOM
  1 F        2.1680     0.5410     1.5840 F     1 <1>  -0.3400 
  2 C        2.3930     1.6230     0.8500 C.3   1 <1>   1.3000 
  3 F        1.2510     2.2870     0.7530 F     1 <1>  -0.3400 
  4 F        3.2520     2.4020     1.5010 F     1 <1>  -0.3400 
  5 O        2.8680     1.2990    -0.4390 O.3   1 <1>  -0.3630 
  6 C        4.0320     0.6180    -0.5330 C.ar  1 <1>   0.0830 
  7 C        5.2310     1.2800    -0.7980 C.ar  1 <1>  -0.1440 
  8 C        4.0060    -0.7630    -0.3930 C.ar  1 <1>  -0.1500 
  9 C        6.3940     0.5300    -0.9030 C.ar  1 <1>  -0.1500 
 10 C        5.3050     2.7960    -0.9970 C.3   1 <1>  -0.0160 
 11 C        5.1740    -1.4940    -0.4960 C.ar  1 <1>  -0.1500 
 12 C        6.3690    -0.8450    -0.7490 C.ar  1 <1>  -0.1500 
 13 C        6.2690     3.5110    -0.0320 C.3   1 <1>   0.2000 
 14 O        6.0150     3.1360     1.2700 O.3   1 <1>  -0.6800 
 15 C        6.1350     5.0290    -0.0980 C.3   1 <1>  -0.2400 
 16 H        3.0750    -1.2680    -0.2060 H     1 <1>   0.1500 
 17 H        7.3330     1.0140    -1.1040 H     1 <1>   0.1500 
 18 H        4.3330     3.2440    -0.9140 H     1 <1>   0.0800 
 19 H        5.6380     2.9840    -2.0020 H     1 <1>   0.0800 
 20 H        5.1550    -2.5640    -0.3810 H     1 <1>   0.1500 
 21 H        7.2810    -1.4110    -0.8280 H     1 <1>   0.1500 
 22 H        7.2860     3.2280    -0.2480 H     1 <1>   0.0800 
 23 H        5.0510     3.0940     1.4340 H     1 <1>   0.4000 
 24 H        5.1370     5.3370     0.1570 H     1 <1>   0.0800 
 25 H        6.3570     5.3740    -1.0920 H     1 <1>   0.0800 
 26 H        6.8330     5.4870     0.5800 H     1 <1>   0.0800 
@<TRIPOS>BOND
  1   1   2  1   
  2   2   3  1   
  3   2   4  1   
  4   2   5  1   
  5   5   6  1   
  6   6   7  ar  
  7   6   8  ar  
  8   7   9  ar  
  9   7  10  1   
 10   8  11  ar  
 11   8  16  1   
 12   9  12  ar  
 13   9  17  1   
 14  10  13  1   
 15  10  18  1   
 16  10  19  1   
 17  11  12  ar  
 18  11  20  1   
 19  12  21  1   
 20  13  14  1   
 21  13  15  1   
 22  13  22  1   
 23  14  23  1   
 24  15  24  1   
 25  15  25  1   
 26  15  26  1   
@<TRIPOS>SUBSTRUCTURE
  1 ****   6 GROUP 4 **** **** 0

# MOE 2024.06 (io_trps.svl 2023.06)
