@<TRIPOS>MOLECULE
NONAME
56 58 1 0 0 
SMALL
USER_CHARGES


@<TRIPOS>ATOM
  1 O       -0.6140     1.1140    -1.0540 O.co2 1 <1>  -0.9000 
  2 C        0.0350     1.4150    -0.0470 C.2   1 <1>   0.9060 
  3 O        0.4830     0.5440     0.7150 O.co2 1 <1>  -0.9000 
  4 C        0.2090     2.8770     0.3570 C.3   1 <1>  -0.1060 
  5 C       -0.5980     3.0300     1.6630 C.3   1 <1>   0.2000 
  6 C       -0.4270     3.8010    -0.7040 C.3   1 <1>   0.1400 
  7 C        1.7180     3.2140     0.5530 C.3   1 <1>  -0.0170 
  8 O       -0.0130     2.2910     2.6730 O.3   1 <1>  -0.6800 
  9 C       -0.7210     4.4720     2.1510 C.3   1 <1>  -0.1600 
 10 N       -0.5230     5.2210    -0.2140 N.am  1 <1>  -0.6600 
 11 C        2.5700     3.1570    -0.7120 C.ar  1 <1>  -0.1430 
 12 C       -1.2970     5.3650     1.0520 C.3   1 <1>   0.1400 
 13 C       -0.1090     6.2580    -1.0190 C.2   1 <1>   0.5690 
 14 C        2.9340     1.9380    -1.2630 C.ar  1 <1>  -0.1500 
 15 C        3.0100     4.3260    -1.3140 C.ar  1 <1>  -0.1500 
 16 O        0.0360     6.1110    -2.2110 O.2   1 <1>  -0.5700 
 17 C        0.1970     7.6460    -0.4660 C.3   1 <1>   0.0440 
 18 C        3.7230     1.8870    -2.3990 C.ar  1 <1>  -0.1500 
 19 C        3.8030     4.2790    -2.4480 C.ar  1 <1>  -0.1500 
 20 C        1.6380     7.7280     0.0370 C.ar  1 <1>  -0.1430 
 21 C        4.1600     3.0580    -2.9930 C.ar  1 <1>  -0.1500 
 22 C        2.6570     8.2490    -0.7550 C.ar  1 <1>   0.0830 
 23 C        1.9540     7.2440     1.2970 C.ar  1 <1>  -0.1500 
 24 O        2.3840     8.7420    -1.9810 O.3   1 <1>  -0.3630 
 25 C        3.9640     8.2760    -0.2950 C.ar  1 <1>  -0.1500 
 26 C        3.2600     7.2580     1.7560 C.ar  1 <1>  -0.1500 
 27 C        2.7430     7.9220    -3.0690 C.3   1 <1>   0.0400 
 28 C        4.2750     7.7710     0.9540 C.ar  1 <1>   0.0830 
 29 O        5.5800     7.8070     1.3230 O.3   1 <1>  -0.3620 
 30 C        6.0240     7.1540     2.4920 C.3   1 <1>   0.0400 
 31 H       -1.5840     2.6230     1.5080 H     1 <1>   0.0800 
 32 H       -1.4200     3.4540    -0.9360 H     1 <1>   0.0800 
 33 H        0.1450     3.7470    -1.6150 H     1 <1>   0.0800 
 34 H        1.8150     4.1950     0.9760 H     1 <1>   0.0800 
 35 H        2.1460     2.5290     1.2650 H     1 <1>   0.0800 
 36 H        0.2550     1.4240     2.2480 H     1 <1>   0.4000 
 37 H       -1.3760     4.4980     3.0020 H     1 <1>   0.0800 
 38 H        0.2380     4.8410     2.4570 H     1 <1>   0.0800 
 39 H       -1.3130     6.3800     1.3970 H     1 <1>   0.0800 
 40 H       -2.3140     5.0690     0.8580 H     1 <1>   0.0800 
 41 H        2.5980     1.0200    -0.8080 H     1 <1>   0.1500 
 42 H        2.7320     5.2790    -0.9010 H     1 <1>   0.1500 
 43 H        0.0420     8.3600    -1.2530 H     1 <1>   0.0800 
 44 H       -0.4790     7.9170     0.3160 H     1 <1>   0.0800 
 45 H        3.9880     0.9330    -2.8170 H     1 <1>   0.1500 
 46 H        4.1370     5.1920    -2.9030 H     1 <1>   0.1500 
 47 H        4.7710     3.0190    -3.8760 H     1 <1>   0.1500 
 48 H        1.1830     6.8430     1.9270 H     1 <1>   0.1500 
 49 H        4.7410     8.6890    -0.9080 H     1 <1>   0.1500 
 50 H        3.4650     6.8650     2.7330 H     1 <1>   0.1500 
 51 H        2.3830     8.3820    -3.9710 H     1 <1>   0.0800 
 52 H        2.2880     6.9550    -2.9450 H     1 <1>   0.0800 
 53 H        3.8140     7.8300    -3.1000 H     1 <1>   0.0800 
 54 H        7.0940     7.2480     2.5400 H     1 <1>   0.0800 
 55 H        5.7500     6.1150     2.4360 H     1 <1>   0.0800 
 56 H        5.5760     7.6280     3.3470 H     1 <1>   0.0800 
@<TRIPOS>BOND
  1   1   2  ar  
  2   2   3  ar  
  3   2   4  1   
  4   4   5  1   
  5   4   6  1   
  6   4   7  1   
  7   5   8  1   
  8   5   9  1   
  9   5  31  1   
 10   6  10  1   
 11   6  32  1   
 12   6  33  1   
 13   7  11  1   
 14   7  34  1   
 15   7  35  1   
 16   8  36  1   
 17   9  12  1   
 18   9  37  1   
 19   9  38  1   
 20  10  12  1   
 21  10  13  am  
 22  11  14  ar  
 23  11  15  ar  
 24  12  39  1   
 25  12  40  1   
 26  13  16  2   
 27  13  17  1   
 28  14  18  ar  
 29  14  41  1   
 30  15  19  ar  
 31  15  42  1   
 32  17  20  1   
 33  17  43  1   
 34  17  44  1   
 35  18  21  ar  
 36  18  45  1   
 37  19  21  ar  
 38  19  46  1   
 39  20  22  ar  
 40  20  23  ar  
 41  21  47  1   
 42  22  24  1   
 43  22  25  ar  
 44  23  26  ar  
 45  23  48  1   
 46  24  27  1   
 47  25  28  ar  
 48  25  49  1   
 49  26  28  ar  
 50  26  50  1   
 51  27  51  1   
 52  27  52  1   
 53  27  53  1   
 54  28  29  1   
 55  29  30  1   
 56  30  54  1   
 57  30  55  1   
 58  30  56  1   
@<TRIPOS>SUBSTRUCTURE
  1 ****  15 GROUP 4 **** **** 0

# MOE 2024.06 (io_trps.svl 2023.06)
