@<TRIPOS>MOLECULE
NONAME
45 48 1 0 0 
SMALL
USER_CHARGES


@<TRIPOS>ATOM
  1 O       -1.3550     0.0260    -0.8220 O.2   1 <1>  -0.5700 
  2 C       -2.0740    -0.9300    -0.6890 C.2   1 <1>   0.5690 
  3 N       -3.2780    -0.8520    -0.0480 N.am  1 <1>  -0.3680 
  4 C       -1.6950    -2.2770    -1.2580 C.3   1 <1>  -0.0990 
  5 N       -4.1560    -1.8860     0.2030 N.2   1 <1>  -0.5120 
  6 C       -2.3430    -3.4120    -0.4440 C.3   1 <1>  -0.0990 
  7 C       -3.7910    -3.1140     0.0000 C.2   1 <1>   0.3890 
  8 C       -4.6290    -4.2890     0.2100 C.2   1 <1>   0.6300 
  9 O       -4.0880    -5.3670     0.4260 O.2   1 <1>  -0.5700 
 10 N       -6.0220    -4.3020     0.1820 N.am  1 <1>  -0.6600 
 11 C       -6.8830    -3.2280    -0.4060 C.3   1 <1>   0.1400 
 12 C       -6.7690    -5.5230     0.6240 C.3   1 <1>   0.1400 
 13 C       -7.9390    -2.7370     0.6110 C.3   1 <1>   0.1430 
 14 C       -8.2820    -5.2740     0.7600 C.3   1 <1>  -0.1600 
 15 C       -8.9620    -1.9330    -0.1740 C.ar  1 <1>   0.1670 
 16 C       -8.5660    -3.9110     1.4110 C.3   1 <1>  -0.1600 
 17 C       -7.3610    -1.6610     1.5660 C.3   1 <1>  -0.1600 
 18 N       -9.9090    -2.4320    -0.9380 N.ar  1 <1>  -0.6200 
 19 C       -8.7690    -0.5920    -0.0170 C.ar  1 <1>  -0.1430 
 20 C       -7.6060    -0.2990     0.8980 C.3   1 <1>  -0.0160 
 21 C      -10.6690    -1.5230    -1.5330 C.ar  1 <1>   0.4770 
 22 C       -9.6140     0.2600    -0.6830 C.ar  1 <1>   0.1600 
 23 N      -10.5780    -0.2020    -1.4520 N.ar  1 <1>  -0.6200 
 24 C      -11.7770    -2.0550    -2.4090 C.3   1 <1>  -0.0970 
 25 H       -3.5310     0.0970     0.2450 H     1 <1>   0.3700 
 26 H       -0.6250    -2.3810    -1.2620 H     1 <1>   0.0800 
 27 H       -2.0440    -2.3130    -2.2730 H     1 <1>   0.0800 
 28 H       -1.7630    -3.5820     0.4460 H     1 <1>   0.0800 
 29 H       -2.3100    -4.3140    -1.0300 H     1 <1>   0.0800 
 30 H       -7.3940    -3.6460    -1.2560 H     1 <1>   0.0800 
 31 H       -6.3110    -2.4000    -0.7760 H     1 <1>   0.0800 
 32 H       -6.3780    -5.8320     1.5790 H     1 <1>   0.0800 
 33 H       -6.5930    -6.3220    -0.0770 H     1 <1>   0.0800 
 34 H       -8.7180    -6.0610     1.3510 H     1 <1>   0.0800 
 35 H       -8.7430    -5.3130    -0.2120 H     1 <1>   0.0800 
 36 H       -9.6280    -3.7650     1.5110 H     1 <1>   0.0800 
 37 H       -8.1490    -3.9370     2.4030 H     1 <1>   0.0800 
 38 H       -6.3240    -1.8260     1.7930 H     1 <1>   0.0800 
 39 H       -7.9130    -1.6710     2.4890 H     1 <1>   0.0800 
 40 H       -6.7500    -0.0020     0.3160 H     1 <1>   0.0800 
 41 H       -7.8430     0.4620     1.6210 H     1 <1>   0.0800 
 42 H       -9.5010     1.3260    -0.5890 H     1 <1>   0.1500 
 43 H      -11.5370    -3.0440    -2.7530 H     1 <1>   0.0800 
 44 H      -11.9110    -1.4130    -3.2590 H     1 <1>   0.0800 
 45 H      -12.6880    -2.0890    -1.8440 H     1 <1>   0.0800 
@<TRIPOS>BOND
  1   1   2  2   
  2   2   3  am  
  3   2   4  1   
  4   3   5  1   
  5   3  25  1   
  6   4   6  1   
  7   4  26  1   
  8   4  27  1   
  9   5   7  2   
 10   6   7  1   
 11   6  28  1   
 12   6  29  1   
 13   7   8  1   
 14   8   9  2   
 15   8  10  am  
 16  10  11  1   
 17  10  12  1   
 18  11  13  1   
 19  11  30  1   
 20  11  31  1   
 21  12  14  1   
 22  12  32  1   
 23  12  33  1   
 24  13  15  1   
 25  13  16  1   
 26  13  17  1   
 27  14  16  1   
 28  14  34  1   
 29  14  35  1   
 30  15  18  ar  
 31  15  19  ar  
 32  16  36  1   
 33  16  37  1   
 34  17  20  1   
 35  17  38  1   
 36  17  39  1   
 37  18  21  ar  
 38  19  20  1   
 39  19  22  ar  
 40  20  40  1   
 41  20  41  1   
 42  21  23  ar  
 43  21  24  1   
 44  22  23  ar  
 45  22  42  1   
 46  24  43  1   
 47  24  44  1   
 48  24  45  1   
@<TRIPOS>SUBSTRUCTURE
  1 ****  11 GROUP 4 **** **** 0

# MOE 2024.06 (io_trps.svl 2023.06)
