@<TRIPOS>MOLECULE
NONAME
44 46 1 0 0 
SMALL
USER_CHARGES


@<TRIPOS>ATOM
  1 CL      -1.8520     0.4680     0.4330 Cl    1 <1>  -0.1770 
  2 C       -0.8640     1.8320    -0.0140 C.ar  1 <1>   0.1770 
  3 C       -1.2930     3.1070     0.2830 C.ar  1 <1>  -0.1500 
  4 C        0.3350     1.6180    -0.6590 C.ar  1 <1>  -0.1500 
  5 C       -0.5100     4.2050    -0.0690 C.ar  1 <1>   0.0830 
  6 C        1.1130     2.7050    -1.0060 C.ar  1 <1>  -0.1500 
  7 O       -0.9330     5.4640     0.2120 O.3   1 <1>  -0.3630 
  8 C        0.7280     4.0240    -0.7240 C.ar  1 <1>   0.0860 
  9 C       -2.2400     5.7570     0.6630 C.3   1 <1>   0.0400 
 10 C        1.6220     5.1060    -1.1250 C.2   1 <1>   0.5440 
 11 O        2.5880     4.8940    -1.8380 O.2   1 <1>  -0.5700 
 12 N        1.5280     6.3970    -0.6750 N.am  1 <1>  -0.6600 
 13 C        1.9710     6.6720     0.7320 C.3   1 <1>   0.2200 
 14 C        1.5090     7.5100    -1.6720 C.3   1 <1>   0.1400 
 15 C        1.3420     7.9450     1.3190 C.3   1 <1>   0.1200 
 16 C        3.5190     6.7280     0.8120 C.3   1 <1>   0.3430 
 17 C        2.4690     8.6720    -1.3570 C.3   1 <1>  -0.0800 
 18 O        2.1140     9.0660     1.0050 O.3   1 <1>  -0.5600 
 19 N        4.1610     6.9220    -0.5360 N.4   1 <1>  -0.9590 
 20 C        1.9160     9.5980    -0.2610 C.3   1 <1>   0.1200 
 21 C        3.9450     8.2850    -1.1160 C.3   1 <1>   0.3430 
 22 C        5.5980     6.5380    -0.5320 C.3   1 <1>   0.2630 
 23 H       -2.2340     3.2080     0.7870 H     1 <1>   0.1500 
 24 H        0.6480     0.6140    -0.8850 H     1 <1>   0.1500 
 25 H        2.0450     2.5230    -1.5140 H     1 <1>   0.1500 
 26 H       -2.3460     6.8250     0.7140 H     1 <1>   0.0800 
 27 H       -2.3790     5.3310     1.6410 H     1 <1>   0.0800 
 28 H       -2.9510     5.3540    -0.0370 H     1 <1>   0.0800 
 29 H        1.6340     5.8560     1.3480 H     1 <1>   0.0800 
 30 H        1.7530     7.1130    -2.6440 H     1 <1>   0.0800 
 31 H        0.5020     7.8860    -1.7360 H     1 <1>   0.0800 
 32 H        1.3350     7.8710     2.3930 H     1 <1>   0.0800 
 33 H        0.3270     8.0800     0.9850 H     1 <1>   0.0800 
 34 H        3.8580     5.7950     1.2290 H     1 <1>   0.0800 
 35 H        3.8200     7.5130     1.4860 H     1 <1>   0.0800 
 36 H        2.4710     9.2850    -2.2410 H     1 <1>   0.0800 
 37 H        3.6410     6.2570    -1.1570 H     1 <1>   0.4500 
 38 H        0.8650     9.7960    -0.3990 H     1 <1>   0.0800 
 39 H        2.4360    10.5410    -0.2850 H     1 <1>   0.0800 
 40 H        4.3990     9.0240    -0.4760 H     1 <1>   0.0800 
 41 H        4.4520     8.3260    -2.0660 H     1 <1>   0.0800 
 42 H        6.1590     7.1910     0.1170 H     1 <1>   0.0800 
 43 H        6.0040     6.6040    -1.5280 H     1 <1>   0.0800 
 44 H        5.7100     5.5230    -0.1860 H     1 <1>   0.0800 
@<TRIPOS>BOND
  1   1   2  1   
  2   2   3  ar  
  3   2   4  ar  
  4   3   5  ar  
  5   3  23  1   
  6   4   6  ar  
  7   4  24  1   
  8   5   7  1   
  9   5   8  ar  
 10   6   8  ar  
 11   6  25  1   
 12   7   9  1   
 13   8  10  1   
 14   9  26  1   
 15   9  27  1   
 16   9  28  1   
 17  10  11  2   
 18  10  12  am  
 19  12  13  1   
 20  12  14  1   
 21  13  15  1   
 22  13  16  1   
 23  13  29  1   
 24  14  17  1   
 25  14  30  1   
 26  14  31  1   
 27  15  18  1   
 28  15  32  1   
 29  15  33  1   
 30  16  19  1   
 31  16  34  1   
 32  16  35  1   
 33  17  20  1   
 34  17  21  1   
 35  17  36  1   
 36  18  20  1   
 37  19  21  1   
 38  19  22  1   
 39  19  37  1   
 40  20  38  1   
 41  20  39  1   
 42  21  40  1   
 43  21  41  1   
 44  22  42  1   
 45  22  43  1   
 46  22  44  1   
@<TRIPOS>SUBSTRUCTURE
  1 ****  12 GROUP 4 **** **** 0

# MOE 2024.06 (io_trps.svl 2023.06)
