@<TRIPOS>MOLECULE
NONAME
36 38 1 0 0 
SMALL
USER_CHARGES


@<TRIPOS>ATOM
  1 O       -1.2310    -0.7490     1.0980 O.2   1 <1>  -0.5700 
  2 C       -2.1140    -0.1080     0.5670 C.2   1 <1>   0.6900 
  3 N       -3.2190    -0.6350    -0.0090 N.am  1 <1>  -0.6600 
  4 N       -2.0920     1.2240     0.4330 N.am  1 <1>  -0.7300 
  5 C       -4.0020     0.4150    -0.6980 C.3   1 <1>   0.1400 
  6 C       -3.4420    -2.0780    -0.2450 C.3   1 <1>   0.1400 
  7 C       -3.2030     1.7020    -0.4140 C.3   1 <1>   0.1400 
  8 C       -3.9000    -2.7480     1.0520 C.3   1 <1>   0.1400 
  9 N       -4.0150    -4.2190     0.8650 N.am  1 <1>  -0.7300 
 10 C       -5.0740    -4.8450     0.2750 C.2   1 <1>   0.6160 
 11 O       -5.9850    -4.1670    -0.1530 O.2   1 <1>  -0.5700 
 12 C       -5.1380    -6.2860     0.1450 C.2   1 <1>   0.0140 
 13 C       -6.3280    -6.8840    -0.2020 C.2   1 <1>   0.2290 
 14 C       -4.0090    -7.1290     0.3530 C.2   1 <1>  -0.1500 
 15 N       -6.4330    -8.2510    -0.3380 N.pl3 1 <1>  -0.6290 
 16 C       -4.1240    -8.4860     0.2140 C.2   1 <1>  -0.1410 
 17 C       -5.3610    -9.0510    -0.1380 C.cat 1 <1>   0.7910 
 18 C       -7.4950    -9.0710    -0.6710 C.2   1 <1>   0.2000 
 19 N       -5.7260   -10.3270    -0.3350 N.pl3 1 <1>  -0.7000 
 20 C       -7.0560   -10.3450    -0.6680 C.2   1 <1>   0.2000 
 21 H       -1.2220     1.7370     0.5720 H     1 <1>   0.3700 
 22 H       -4.9940     0.4750    -0.2850 H     1 <1>   0.0800 
 23 H       -4.0530     0.2190    -1.7550 H     1 <1>   0.0800 
 24 H       -2.5170    -2.5200    -0.5720 H     1 <1>   0.0800 
 25 H       -4.1880    -2.2100    -1.0080 H     1 <1>   0.0800 
 26 H       -2.8260     2.1310    -1.3260 H     1 <1>   0.0800 
 27 H       -3.8010     2.4220     0.1160 H     1 <1>   0.0800 
 28 H       -4.8560    -2.3460     1.3430 H     1 <1>   0.0800 
 29 H       -3.1870    -2.5460     1.8340 H     1 <1>   0.0800 
 30 H       -3.2420    -4.7540     1.2620 H     1 <1>   0.3700 
 31 H       -7.2150    -6.2920    -0.3780 H     1 <1>   0.1500 
 32 H       -3.0610    -6.6880     0.6140 H     1 <1>   0.1500 
 33 H       -3.2860    -9.1410     0.3650 H     1 <1>   0.1500 
 34 H       -8.4820    -8.6920    -0.8860 H     1 <1>   0.1500 
 35 H       -5.1070   -11.1380    -0.2490 H     1 <1>   0.4500 
 36 H       -7.6040   -11.2520    -0.8800 H     1 <1>   0.1500 
@<TRIPOS>BOND
  1   1   2  2   
  2   2   3  am  
  3   2   4  am  
  4   3   5  1   
  5   3   6  1   
  6   4   7  1   
  7   4  21  1   
  8   5   7  1   
  9   5  22  1   
 10   5  23  1   
 11   6   8  1   
 12   6  24  1   
 13   6  25  1   
 14   7  26  1   
 15   7  27  1   
 16   8   9  1   
 17   8  28  1   
 18   8  29  1   
 19   9  10  am  
 20   9  30  1   
 21  10  11  2   
 22  10  12  1   
 23  12  13  2   
 24  12  14  1   
 25  13  15  1   
 26  13  31  1   
 27  14  16  2   
 28  14  32  1   
 29  15  17  ar  
 30  15  18  1   
 31  16  17  1   
 32  16  33  1   
 33  17  19  ar  
 34  18  20  2   
 35  18  34  1   
 36  19  20  1   
 37  19  35  1   
 38  20  36  1   
@<TRIPOS>SUBSTRUCTURE
  1 ****  10 GROUP 4 **** **** 0

# MOE 2024.06 (io_trps.svl 2023.06)
