@<TRIPOS>MOLECULE
NONAME
48 50 1 0 0 
SMALL
USER_CHARGES


@<TRIPOS>ATOM
  1 O       -1.4530     0.4390    -1.7280 O.2   1 <1>  -0.5700 
  2 C       -1.3820     0.5520    -0.5190 C.2   1 <1>   0.7160 
  3 N       -1.7580    -0.5110     0.2480 N.am  1 <1>  -0.7300 
  4 C       -0.9200     1.7670     0.1100 C.2   1 <1>  -0.0860 
  5 C       -2.2230    -1.8190    -0.2640 C.3   1 <1>   0.2200 
  6 C       -0.1410     2.7990    -0.3350 C.2   1 <1>  -0.3320 
  7 C       -1.2210     2.1450     1.4210 C.2   1 <1>   0.1390 
  8 C       -3.7160    -1.9490    -0.0130 C.3   1 <1>  -0.0800 
  9 C       -1.6650    -2.9350     0.6120 C.3   1 <1>   0.1200 
 10 N       -0.0240     3.6860     0.6740 N.pl3 1 <1>   0.3140 
 11 C        0.5090     2.9790    -1.7020 C.3   1 <1>  -0.0600 
 12 N       -0.6930     3.2740     1.7640 N.2   1 <1>  -0.7070 
 13 C       -3.7610    -2.4460     1.4370 C.3   1 <1>   0.1200 
 14 C       -4.3680    -2.9430    -0.9940 C.3   1 <1>  -0.0170 
 15 O       -2.5120    -3.0120     1.7190 O.3   1 <1>  -0.5600 
 16 C        0.7140     4.9670     0.6820 C.3   1 <1>   0.0960 
 17 C       -5.8660    -3.0580    -0.7580 C.ar  1 <1>  -0.1430 
 18 C       -0.1780     6.1180     0.1950 C.3   1 <1>  -0.1600 
 19 C       -6.7410    -2.0670    -1.1550 C.ar  1 <1>  -0.1500 
 20 C       -6.4310    -4.1560    -0.1400 C.ar  1 <1>  -0.1500 
 21 C        0.5820     7.4490     0.1870 C.3   1 <1>  -0.2400 
 22 C       -8.0970    -2.2130    -0.9150 C.ar  1 <1>   0.1600 
 23 C       -7.8020    -4.2040     0.0530 C.ar  1 <1>   0.1600 
 24 N       -8.6480    -3.2570    -0.3180 N.ar  1 <1>  -0.6200 
 25 H       -1.6370    -0.4710     1.2600 H     1 <1>   0.3700 
 26 H       -1.9520    -1.9410    -1.2990 H     1 <1>   0.0800 
 27 H       -1.8360     1.5690     2.0900 H     1 <1>   0.1500 
 28 H       -4.2100    -0.9980    -0.1090 H     1 <1>   0.0800 
 29 H       -0.6580    -2.7440     0.9380 H     1 <1>   0.0800 
 30 H       -1.7090    -3.8800     0.1010 H     1 <1>   0.0800 
 31 H        0.3130     2.1350    -2.3370 H     1 <1>   0.0800 
 32 H        1.5740     3.0770    -1.5980 H     1 <1>   0.0800 
 33 H        0.1200     3.8580    -2.1840 H     1 <1>   0.0800 
 34 H       -4.5240    -3.1840     1.6080 H     1 <1>   0.0800 
 35 H       -3.9040    -1.6240     2.1160 H     1 <1>   0.0800 
 36 H       -3.9130    -3.9140    -0.9000 H     1 <1>   0.0800 
 37 H       -4.2050    -2.6050    -2.0030 H     1 <1>   0.0800 
 38 H        1.0410     5.1560     1.6880 H     1 <1>   0.0800 
 39 H        1.5800     4.8720     0.0550 H     1 <1>   0.0800 
 40 H       -0.5330     5.9060    -0.7980 H     1 <1>   0.0800 
 41 H       -1.0310     6.2010     0.8490 H     1 <1>   0.0800 
 42 H       -6.3810    -1.1820    -1.6470 H     1 <1>   0.1500 
 43 H       -5.8200    -4.9750     0.1960 H     1 <1>   0.1500 
 44 H        1.4300     7.3970    -0.4740 H     1 <1>   0.0800 
 45 H        0.9260     7.6930     1.1770 H     1 <1>   0.0800 
 46 H       -0.0660     8.2390    -0.1510 H     1 <1>   0.0800 
 47 H       -8.7640    -1.4290    -1.2320 H     1 <1>   0.1500 
 48 H       -8.2240    -5.0670     0.5380 H     1 <1>   0.1500 
@<TRIPOS>BOND
  1   1   2  2   
  2   2   3  am  
  3   2   4  1   
  4   3   5  1   
  5   3  25  1   
  6   4   6  2   
  7   4   7  1   
  8   5   8  1   
  9   5   9  1   
 10   5  26  1   
 11   6  10  1   
 12   6  11  1   
 13   7  12  2   
 14   7  27  1   
 15   8  13  1   
 16   8  14  1   
 17   8  28  1   
 18   9  15  1   
 19   9  29  1   
 20   9  30  1   
 21  10  12  1   
 22  10  16  1   
 23  11  31  1   
 24  11  32  1   
 25  11  33  1   
 26  13  15  1   
 27  13  34  1   
 28  13  35  1   
 29  14  17  1   
 30  14  36  1   
 31  14  37  1   
 32  16  18  1   
 33  16  38  1   
 34  16  39  1   
 35  17  19  ar  
 36  17  20  ar  
 37  18  21  1   
 38  18  40  1   
 39  18  41  1   
 40  19  22  ar  
 41  19  42  1   
 42  20  23  ar  
 43  20  43  1   
 44  21  44  1   
 45  21  45  1   
 46  21  46  1   
 47  22  24  ar  
 48  22  47  1   
 49  23  24  ar  
 50  23  48  1   
@<TRIPOS>SUBSTRUCTURE
  1 ****   3 GROUP 4 **** **** 0

# MOE 2024.06 (io_trps.svl 2023.06)
