@<TRIPOS>MOLECULE
NONAME
44 46 1 0 0 
SMALL
USER_CHARGES


@<TRIPOS>ATOM
  1 CL      -0.7490     0.0330    -1.2250 Cl    1 <1>  -0.1770 
  2 C       -1.4400     1.4130    -0.3910 C.ar  1 <1>   0.1770 
  3 C       -0.7570     2.6370    -0.3910 C.ar  1 <1>   0.4100 
  4 C       -2.6450     1.2810     0.2460 C.ar  1 <1>  -0.1500 
  5 N       -1.2310     3.7210     0.2180 N.ar  1 <1>  -0.6200 
  6 N        0.4610     2.7800    -1.0320 N.pl3 1 <1>  -0.8690 
  7 C       -3.1550     2.4070     0.8870 C.ar  1 <1>  -0.1790 
  8 C       -2.3990     3.5720     0.8300 C.ar  1 <1>   0.1600 
  9 C        0.9760     4.1000    -1.4730 C.3   1 <1>   0.2090 
 10 C       -4.4160     2.4050     1.5920 C.2   1 <1>   0.9790 
 11 C        1.5700     4.8630    -0.2700 C.3   1 <1>   0.3430 
 12 O       -5.1060     1.3750     1.6510 O.co2 1 <1>  -0.9000 
 13 O       -4.8170     3.4450     2.1430 O.co2 1 <1>  -0.9000 
 14 N        1.2150     6.3240    -0.2490 N.4   1 <1>  -0.9590 
 15 C        1.9620     7.0820     0.7930 C.3   1 <1>   0.3430 
 16 C       -0.2200     6.5470     0.0750 C.3   1 <1>   0.3430 
 17 C        1.0930     8.2940     1.1350 C.3   1 <1>   0.0630 
 18 C       -0.2870     7.9950     0.5350 C.3   1 <1>  -0.1600 
 19 C        1.7080     9.5810     0.5940 C.ar  1 <1>  -0.1430 
 20 C        1.9370     9.7650    -0.7640 C.ar  1 <1>  -0.1500 
 21 C        2.0600    10.5920     1.4770 C.ar  1 <1>  -0.1500 
 22 C        2.5110    10.9350    -1.2280 C.ar  1 <1>  -0.1500 
 23 C        2.6340    11.7630     1.0130 C.ar  1 <1>  -0.1500 
 24 C        2.8610    11.9350    -0.3400 C.ar  1 <1>  -0.1500 
 25 H       -3.1900     0.3520     0.2590 H     1 <1>   0.1500 
 26 H        0.7060     1.9820    -1.6330 H     1 <1>   0.4000 
 27 H       -2.8020     4.4380     1.3320 H     1 <1>   0.1500 
 28 H        0.1640     4.6540    -1.9120 H     1 <1>   0.0800 
 29 H        1.7360     3.9530    -2.2200 H     1 <1>   0.0800 
 30 H        2.6400     4.7460    -0.2850 H     1 <1>   0.0800 
 31 H        1.1980     4.4010     0.6310 H     1 <1>   0.0800 
 32 H        1.4100     6.7540    -1.1600 H     1 <1>   0.4500 
 33 H        2.9340     7.3890     0.4400 H     1 <1>   0.0800 
 34 H        2.0780     6.4740     1.6750 H     1 <1>   0.0800 
 35 H       -0.5110     5.9030     0.8900 H     1 <1>   0.0800 
 36 H       -0.8630     6.3550    -0.7690 H     1 <1>   0.0800 
 37 H        1.0150     8.3550     2.2070 H     1 <1>   0.0800 
 38 H       -1.0720     8.1270     1.2580 H     1 <1>   0.0800 
 39 H       -0.4980     8.6290    -0.3080 H     1 <1>   0.0800 
 40 H        1.6710     9.0110    -1.4810 H     1 <1>   0.1500 
 41 H        1.8930    10.4850     2.5350 H     1 <1>   0.1500 
 42 H        2.6850    11.0740    -2.2820 H     1 <1>   0.1500 
 43 H        2.9040    12.5430     1.7050 H     1 <1>   0.1500 
 44 H        3.3070    12.8470    -0.7000 H     1 <1>   0.1500 
@<TRIPOS>BOND
  1   1   2  1   
  2   2   3  ar  
  3   2   4  ar  
  4   3   5  ar  
  5   3   6  1   
  6   4   7  ar  
  7   4  25  1   
  8   5   8  ar  
  9   6   9  1   
 10   6  26  1   
 11   7   8  ar  
 12   7  10  1   
 13   8  27  1   
 14   9  11  1   
 15   9  28  1   
 16   9  29  1   
 17  10  12  ar  
 18  10  13  ar  
 19  11  14  1   
 20  11  30  1   
 21  11  31  1   
 22  14  15  1   
 23  14  16  1   
 24  14  32  1   
 25  15  17  1   
 26  15  33  1   
 27  15  34  1   
 28  16  18  1   
 29  16  35  1   
 30  16  36  1   
 31  17  18  1   
 32  17  19  1   
 33  17  37  1   
 34  18  38  1   
 35  18  39  1   
 36  19  20  ar  
 37  19  21  ar  
 38  20  22  ar  
 39  20  40  1   
 40  21  23  ar  
 41  21  41  1   
 42  22  24  ar  
 43  22  42  1   
 44  23  24  ar  
 45  23  43  1   
 46  24  44  1   
@<TRIPOS>SUBSTRUCTURE
  1 ****  16 GROUP 4 **** **** 0

# MOE 2024.06 (io_trps.svl 2023.06)
