@<TRIPOS>MOLECULE
NONAME
52 55 1 0 0 
SMALL
USER_CHARGES


@<TRIPOS>ATOM
  1 CL      -0.4430     0.0000     0.4020 Cl    1 <1>  -0.1770 
  2 C       -1.9190    -0.9300     0.3090 C.ar  1 <1>   0.1770 
  3 C       -2.1140    -1.7880    -0.7580 C.ar  1 <1>  -0.1500 
  4 C       -2.8710    -0.7950     1.3040 C.ar  1 <1>  -0.1500 
  5 C       -3.2840    -2.5230    -0.8290 C.ar  1 <1>  -0.1500 
  6 C       -4.0370    -1.5350     1.2250 C.ar  1 <1>  -0.1500 
  7 C       -4.2550    -2.4030     0.1620 C.ar  1 <1>   0.1000 
  8 N       -5.4360    -3.1320     0.1070 N.pl3 1 <1>  -0.8380 
  9 C       -5.3190    -4.5900     0.3000 C.3   1 <1>   0.2090 
 10 C       -6.4160    -2.7160    -0.9140 C.3   1 <1>   0.2090 
 11 C       -6.6710    -5.1070     0.7780 C.3   1 <1>  -0.1600 
 12 C       -7.7930    -3.1940    -0.4630 C.3   1 <1>  -0.1600 
 13 C       -7.7880    -4.7070    -0.1980 C.3   1 <1>   0.4230 
 14 N       -9.1080    -5.1240     0.3540 N.4   1 <1>  -0.9590 
 15 C      -10.3010    -4.7950    -0.4730 C.3   1 <1>   0.3430 
 16 C       -9.2370    -6.5810     0.6620 C.3   1 <1>   0.3430 
 17 C      -11.4130    -5.6450     0.1390 C.3   1 <1>   0.2000 
 18 C      -10.7130    -6.9680     0.4530 C.3   1 <1>  -0.0800 
 19 O      -11.7780    -5.0560     1.3440 O.3   1 <1>  -0.6800 
 20 C      -10.8870    -7.9850    -0.6960 C.3   1 <1>  -0.0170 
 21 C      -10.2200    -9.3200    -0.3910 C.ar  1 <1>   0.1670 
 22 N       -8.8980    -9.3480    -0.4740 N.ar  1 <1>  -0.6200 
 23 C      -10.9950   -10.4300    -0.0540 C.ar  1 <1>   0.1600 
 24 C       -8.4110   -10.5530    -0.2100 C.ar  1 <1>   0.1600 
 25 N      -10.5060   -11.6250     0.2220 N.ar  1 <1>  -0.6200 
 26 C       -9.1890   -11.6530     0.1270 C.ar  1 <1>   0.1600 
 27 H       -1.3590    -1.8740    -1.5180 H     1 <1>   0.1500 
 28 H       -2.6970    -0.1230     2.1240 H     1 <1>   0.1500 
 29 H       -3.4480    -3.1920    -1.6520 H     1 <1>   0.1500 
 30 H       -4.7910    -1.4470     1.9850 H     1 <1>   0.1500 
 31 H       -5.0330    -5.0590    -0.6270 H     1 <1>   0.0800 
 32 H       -4.5590    -4.7970     1.0370 H     1 <1>   0.0800 
 33 H       -6.4070    -1.6410    -1.0050 H     1 <1>   0.0800 
 34 H       -6.1520    -3.1420    -1.8670 H     1 <1>   0.0800 
 35 H       -6.8610    -4.6920     1.7520 H     1 <1>   0.0800 
 36 H       -6.6010    -6.1750     0.8640 H     1 <1>   0.0800 
 37 H       -8.4960    -2.9420    -1.2340 H     1 <1>   0.0800 
 38 H       -8.0530    -2.6600     0.4340 H     1 <1>   0.0800 
 39 H       -7.6160    -5.2160    -1.1330 H     1 <1>   0.0800 
 40 H       -9.2600    -4.6270     1.2450 H     1 <1>   0.4500 
 41 H      -10.5470    -3.7460    -0.4310 H     1 <1>   0.0800 
 42 H      -10.1350    -5.0920    -1.4950 H     1 <1>   0.0800 
 43 H       -8.6070    -7.1440    -0.0050 H     1 <1>   0.0800 
 44 H       -8.9320    -6.7810     1.6760 H     1 <1>   0.0800 
 45 H      -12.2820    -5.7270    -0.4920 H     1 <1>   0.0800 
 46 H      -11.1080    -7.4090     1.3530 H     1 <1>   0.0800 
 47 H      -12.5890    -5.4660     1.7150 H     1 <1>   0.4000 
 48 H      -10.4690    -7.5980    -1.6090 H     1 <1>   0.0800 
 49 H      -11.9360    -8.1510    -0.8690 H     1 <1>   0.0800 
 50 H      -12.0650   -10.3310    -0.0090 H     1 <1>   0.1500 
 51 H       -7.3440   -10.6800    -0.2640 H     1 <1>   0.1500 
 52 H       -8.7020   -12.5920     0.3260 H     1 <1>   0.1500 
@<TRIPOS>BOND
  1   1   2  1   
  2   2   3  ar  
  3   2   4  ar  
  4   3   5  ar  
  5   3  27  1   
  6   4   6  ar  
  7   4  28  1   
  8   5   7  ar  
  9   5  29  1   
 10   6   7  ar  
 11   6  30  1   
 12   7   8  1   
 13   8   9  1   
 14   8  10  1   
 15   9  11  1   
 16   9  31  1   
 17   9  32  1   
 18  10  12  1   
 19  10  33  1   
 20  10  34  1   
 21  11  13  1   
 22  11  35  1   
 23  11  36  1   
 24  12  13  1   
 25  12  37  1   
 26  12  38  1   
 27  13  14  1   
 28  13  39  1   
 29  14  15  1   
 30  14  16  1   
 31  14  40  1   
 32  15  17  1   
 33  15  41  1   
 34  15  42  1   
 35  16  18  1   
 36  16  43  1   
 37  16  44  1   
 38  17  18  1   
 39  17  19  1   
 40  17  45  1   
 41  18  20  1   
 42  18  46  1   
 43  19  47  1   
 44  20  21  1   
 45  20  48  1   
 46  20  49  1   
 47  21  22  ar  
 48  21  23  ar  
 49  22  24  ar  
 50  23  25  ar  
 51  23  50  1   
 52  24  26  ar  
 53  24  51  1   
 54  25  26  ar  
 55  26  52  1   
@<TRIPOS>SUBSTRUCTURE
  1 ****  13 GROUP 4 **** **** 0

# MOE 2024.06 (io_trps.svl 2023.06)
