@<TRIPOS>MOLECULE
NONAME
39 41 1 0 0 
SMALL
USER_CHARGES


@<TRIPOS>ATOM
  1 O       -0.9710     0.4500    -1.1750 O.3   1 <1>  -0.3400 
  2 C       -0.5830     1.6560    -0.6890 C.ar  1 <1>   0.0830 
  3 C       -2.3220     0.2290    -1.5400 C.3   1 <1>   0.2580 
  4 C        0.4680     1.6900     0.2250 C.ar  1 <1>  -0.1440 
  5 C       -1.2060     2.8400    -1.0740 C.ar  1 <1>  -0.1500 
  6 C       -3.2860     0.2890    -0.3330 C.3   1 <1>   0.2450 
  7 C       -2.6430    -1.2780    -1.6100 C.3   1 <1>   0.2450 
  8 C        0.8720     2.9080     0.7500 C.ar  1 <1>  -0.1500 
  9 C        1.1780     0.4150     0.6680 C.3   1 <1>  -0.0160 
 10 C       -0.7930     4.0480    -0.5430 C.ar  1 <1>  -0.1500 
 11 N       -3.8810    -1.0100    -0.7990 N.3   1 <1>  -0.5900 
 12 C        0.2450     4.0820     0.3700 C.ar  1 <1>  -0.1500 
 13 C        0.4130    -0.2660     1.8050 C.3   1 <1>  -0.2400 
 14 C       -4.3530    -1.9340     0.0970 C.ar  1 <1>   0.7200 
 15 N       -4.2080    -3.2190    -0.2270 N.ar  1 <1>  -0.6200 
 16 N       -4.9240    -1.4630     1.2050 N.ar  1 <1>  -0.6200 
 17 C       -4.6710    -4.0950     0.6280 C.ar  1 <1>   0.1670 
 18 C       -5.3790    -2.3600     2.0440 C.ar  1 <1>   0.1600 
 19 C       -5.2770    -3.7080     1.8000 C.ar  1 <1>  -0.1500 
 20 C       -4.5130    -5.5560     0.2680 C.3   1 <1>  -0.0970 
 21 H       -2.6130     0.7900    -2.4100 H     1 <1>   0.0000 
 22 H       -2.0060     2.8370    -1.7880 H     1 <1>   0.1500 
 23 H       -4.0000     1.0900    -0.3900 H     1 <1>   0.0000 
 24 H       -2.8010     0.1840     0.6220 H     1 <1>   0.0000 
 25 H       -1.9450    -1.8990    -1.0760 H     1 <1>   0.0000 
 26 H       -2.8890    -1.6240    -2.5980 H     1 <1>   0.0000 
 27 H        1.6780     2.9480     1.4610 H     1 <1>   0.1500 
 28 H        2.1740     0.6500     0.9990 H     1 <1>   0.0800 
 29 H        1.2700    -0.2610    -0.1640 H     1 <1>   0.0800 
 30 H       -1.2770     4.9620    -0.8400 H     1 <1>   0.1500 
 31 H        0.5670     5.0220     0.7850 H     1 <1>   0.1500 
 32 H        0.3180     0.4030     2.6420 H     1 <1>   0.0800 
 33 H        0.9320    -1.1520     2.1230 H     1 <1>   0.0800 
 34 H       -0.5720    -0.5440     1.4740 H     1 <1>   0.0800 
 35 H       -5.8460    -2.0120     2.9490 H     1 <1>   0.1500 
 36 H       -5.6580    -4.4250     2.5010 H     1 <1>   0.1500 
 37 H       -5.0180    -5.7540    -0.6600 H     1 <1>   0.0800 
 38 H       -4.9250    -6.1910     1.0310 H     1 <1>   0.0800 
 39 H       -3.4700    -5.7860     0.1490 H     1 <1>   0.0800 
@<TRIPOS>BOND
  1   1   2  1   
  2   1   3  1   
  3   2   4  ar  
  4   2   5  ar  
  5   3   6  1   
  6   3   7  1   
  7   3  21  1   
  8   4   8  ar  
  9   4   9  1   
 10   5  10  ar  
 11   5  22  1   
 12   6  11  1   
 13   6  23  1   
 14   6  24  1   
 15   7  11  1   
 16   7  25  1   
 17   7  26  1   
 18   8  12  ar  
 19   8  27  1   
 20   9  13  1   
 21   9  28  1   
 22   9  29  1   
 23  10  12  ar  
 24  10  30  1   
 25  11  14  1   
 26  12  31  1   
 27  13  32  1   
 28  13  33  1   
 29  13  34  1   
 30  14  15  ar  
 31  14  16  ar  
 32  15  17  ar  
 33  16  18  ar  
 34  17  19  ar  
 35  17  20  1   
 36  18  19  ar  
 37  18  35  1   
 38  19  36  1   
 39  20  37  1   
 40  20  38  1   
 41  20  39  1   
@<TRIPOS>SUBSTRUCTURE
  1 ****   6 GROUP 4 **** **** 0

# MOE 2024.06 (io_trps.svl 2023.06)
