@<TRIPOS>MOLECULE
NONAME
25 26 1 0 0 
SMALL
USER_CHARGES


@<TRIPOS>ATOM
  1 F        2.3220     1.0230     1.2360 F     1 <1>  -0.2320 
  2 C        1.3770     1.4520     0.4080 C.3   1 <1>   0.4630 
  3 F        0.2770     0.7610     0.6790 F     1 <1>  -0.2320 
  4 C        1.3620     2.8530    -0.1140 C.3   1 <1>  -0.1150 
  5 C        1.7190     1.7030    -1.0220 C.3   1 <1>  -0.2000 
  6 C        2.4710     3.8770     0.2270 C.ar  1 <1>  -0.0320 
  7 C       -0.0400     3.4300    -0.2110 C.2   1 <1>   0.9470 
  8 C        2.1650     5.2240     0.4000 C.ar  1 <1>  -0.1500 
  9 C        3.8030     3.4920     0.3630 C.ar  1 <1>  -0.1500 
 10 O       -0.5430     3.5790    -1.3310 O.co2 1 <1>  -0.9000 
 11 O       -0.6320     3.7670     0.8210 O.co2 1 <1>  -0.9000 
 12 C        3.1460     6.1540     0.6940 C.ar  1 <1>  -0.1500 
 13 C        4.7920     4.4140     0.6560 C.ar  1 <1>  -0.1500 
 14 C        4.4640     5.7490     0.8140 C.ar  1 <1>   0.0830 
 15 O        5.4260     6.6500     1.1000 O.3   1 <1>  -0.3630 
 16 C        6.0410     7.3060     0.0120 C.3   1 <1>   1.3000 
 17 F        6.9760     8.1330     0.4560 F     1 <1>  -0.3400 
 18 F        5.1690     8.0240    -0.6860 F     1 <1>  -0.3400 
 19 F        6.6280     6.4440    -0.8110 F     1 <1>  -0.3400 
 20 H        1.0020     1.4650    -1.7880 H     1 <1>   0.1000 
 21 H        2.7320     1.5960    -1.3520 H     1 <1>   0.1000 
 22 H        1.1480     5.5710     0.3130 H     1 <1>   0.1500 
 23 H        4.0890     2.4650     0.2460 H     1 <1>   0.1500 
 24 H        2.8790     7.1870     0.8290 H     1 <1>   0.1500 
 25 H        5.8130     4.0950     0.7630 H     1 <1>   0.1500 
@<TRIPOS>BOND
  1   1   2  1   
  2   2   3  1   
  3   2   4  1   
  4   2   5  1   
  5   4   5  1   
  6   4   6  1   
  7   4   7  1   
  8   5  20  1   
  9   5  21  1   
 10   6   8  ar  
 11   6   9  ar  
 12   7  10  ar  
 13   7  11  ar  
 14   8  12  ar  
 15   8  22  1   
 16   9  13  ar  
 17   9  23  1   
 18  12  14  ar  
 19  12  24  1   
 20  13  14  ar  
 21  13  25  1   
 22  14  15  1   
 23  15  16  1   
 24  16  17  1   
 25  16  18  1   
 26  16  19  1   
@<TRIPOS>SUBSTRUCTURE
  1 ****   6 GROUP 4 **** **** 0

# MOE 2024.06 (io_trps.svl 2023.06)
