@<TRIPOS>MOLECULE
NONAME
42 44 1 0 0 
SMALL
USER_CHARGES


@<TRIPOS>ATOM
  1 CL       0.3240     0.2930    -1.3510 Cl    1 <1>  -0.1230 
  2 C        1.8170    -0.2320    -0.5910 C.2   1 <1>   0.1230 
  3 C        2.8650     0.5820    -0.1520 C.2   1 <1>   0.2030 
  4 C        2.1630    -1.5060    -0.3430 C.2   1 <1>  -0.3020 
  5 N        3.8270    -0.1910     0.3440 N.2   1 <1>  -0.7070 
  6 C        2.8540     2.0370    -0.2310 C.2   1 <1>   0.7160 
  7 N        3.3820    -1.4510     0.2250 N.pl3 1 <1>   0.3140 
  8 O        1.8320     2.6440     0.0490 O.2   1 <1>  -0.5700 
  9 N        3.9690     2.7810    -0.5940 N.am  1 <1>  -0.6600 
 10 C        4.1740    -2.6010     0.6790 C.3   1 <1>   0.0160 
 11 C        5.2190     2.1670    -1.1340 C.3   1 <1>   0.1400 
 12 C        4.0610     4.2340    -0.2900 C.3   1 <1>   0.1400 
 13 C        6.3510     2.2060    -0.1000 C.3   1 <1>   0.1400 
 14 C        4.7490     4.4240     1.0680 C.3   1 <1>  -0.1600 
 15 N        6.9150     3.5870     0.0140 N.am  1 <1>  -0.6600 
 16 C        6.2820     4.5060     1.0070 C.3   1 <1>   0.1400 
 17 C        7.9770     3.9720    -0.7930 C.2   1 <1>   0.5440 
 18 O        8.2100     3.2770    -1.7720 O.2   1 <1>  -0.5700 
 19 C        8.8050     5.1640    -0.5600 C.ar  1 <1>   0.3960 
 20 N        9.1110     5.5570     0.6920 N.ar  1 <1>  -0.6200 
 21 C        9.2740     5.8750    -1.6680 C.ar  1 <1>  -0.1500 
 22 C        9.8690     6.6310     0.8210 C.ar  1 <1>   0.1600 
 23 C       10.0580     6.9970    -1.5210 C.ar  1 <1>  -0.1500 
 24 C       10.3600     7.3780    -0.2340 C.ar  1 <1>  -0.1500 
 25 H        1.6270    -2.4150    -0.5360 H     1 <1>   0.1500 
 26 H        3.6110    -3.1520     1.4080 H     1 <1>   0.0800 
 27 H        5.0870    -2.2480     1.1220 H     1 <1>   0.0800 
 28 H        4.4000    -3.2290    -0.1620 H     1 <1>   0.0800 
 29 H        5.5290     2.6940    -2.0200 H     1 <1>   0.0800 
 30 H        5.0420     1.1480    -1.4220 H     1 <1>   0.0800 
 31 H        3.0730     4.6600    -0.2500 H     1 <1>   0.0800 
 32 H        4.6040     4.7420    -1.0690 H     1 <1>   0.0800 
 33 H        7.1300     1.5340    -0.4180 H     1 <1>   0.0800 
 34 H        5.9950     1.8580     0.8540 H     1 <1>   0.0800 
 35 H        4.4500     3.6390     1.7400 H     1 <1>   0.0800 
 36 H        4.3970     5.3430     1.4980 H     1 <1>   0.0800 
 37 H        6.6940     4.3040     1.9810 H     1 <1>   0.0800 
 38 H        6.5380     5.5190     0.7520 H     1 <1>   0.0800 
 39 H        9.0150     5.5300    -2.6530 H     1 <1>   0.1500 
 40 H       10.1150     6.9360     1.8240 H     1 <1>   0.1500 
 41 H       10.4210     7.5470    -2.3730 H     1 <1>   0.1500 
 42 H       10.9710     8.2430    -0.0470 H     1 <1>   0.1500 
@<TRIPOS>BOND
  1   1   2  1   
  2   2   3  1   
  3   2   4  2   
  4   3   5  2   
  5   3   6  1   
  6   4   7  1   
  7   4  25  1   
  8   5   7  1   
  9   6   8  2   
 10   6   9  am  
 11   7  10  1   
 12   9  11  1   
 13   9  12  1   
 14  10  26  1   
 15  10  27  1   
 16  10  28  1   
 17  11  13  1   
 18  11  29  1   
 19  11  30  1   
 20  12  14  1   
 21  12  31  1   
 22  12  32  1   
 23  13  15  1   
 24  13  33  1   
 25  13  34  1   
 26  14  16  1   
 27  14  35  1   
 28  14  36  1   
 29  15  16  1   
 30  15  17  am  
 31  16  37  1   
 32  16  38  1   
 33  17  18  2   
 34  17  19  1   
 35  19  20  ar  
 36  19  21  ar  
 37  20  22  ar  
 38  21  23  ar  
 39  21  39  1   
 40  22  24  ar  
 41  22  40  1   
 42  23  24  ar  
 43  23  41  1   
 44  24  42  1   
@<TRIPOS>SUBSTRUCTURE
  1 ****  13 GROUP 4 **** **** 0

# MOE 2024.06 (io_trps.svl 2023.06)
