@<TRIPOS>MOLECULE
NONAME
46 48 1 0 0 
SMALL
USER_CHARGES


@<TRIPOS>ATOM
  1 O       -0.1720     1.3780     1.5700 O.2   1 <1>  -0.5700 
  2 C        0.0110     2.4420     1.0030 C.2   1 <1>   0.6160 
  3 N       -1.0780     3.2400     0.7130 N.am  1 <1>  -0.6600 
  4 C        1.3730     2.8080     0.6280 C.2   1 <1>   0.1140 
  5 C       -2.4250     2.9350     1.2780 C.3   1 <1>   0.1400 
  6 C       -1.0890     4.2160    -0.4220 C.3   1 <1>   0.1400 
  7 N        2.2490     1.7950     0.2530 N.pl3 1 <1>  -0.6000 
  8 C        1.8630     4.0840     0.6330 C.2   1 <1>  -0.1360 
  9 C       -3.3330     2.2740     0.2160 C.3   1 <1>   0.0000 
 10 C       -2.4640     4.2940    -1.1080 C.3   1 <1>  -0.1600 
 11 C        3.5430     2.0270    -0.1340 C.2   1 <1>  -0.0380 
 12 C        3.1850     4.3820     0.2340 C.2   1 <1>   0.5410 
 13 C       -4.7990     2.3350     0.6820 C.3   1 <1>   0.2000 
 14 C       -3.1220     2.9090    -1.1950 C.3   1 <1>  -0.1600 
 15 C       -3.1160     0.7550     0.1300 C.3   1 <1>  -0.1600 
 16 C        4.0150     3.3000    -0.1500 C.2   1 <1>  -0.1360 
 17 C        4.3700     0.8180    -0.5180 C.3   1 <1>  -0.1020 
 18 O        3.5960     5.5390     0.2160 O.2   1 <1>  -0.5700 
 19 O       -5.3730     3.5790     0.4100 O.3   1 <1>  -0.5600 
 20 C       -5.5160     1.1990    -0.0550 C.3   1 <1>  -0.1600 
 21 C       -4.4230     0.1900    -0.4360 C.3   1 <1>  -0.1600 
 22 C       -6.5900     3.8170     1.0420 C.3   1 <1>   0.0400 
 23 H       -2.3400     2.3050     2.1470 H     1 <1>   0.0800 
 24 H       -2.8720     3.8610     1.5990 H     1 <1>   0.0800 
 25 H       -0.8190     5.1930    -0.0600 H     1 <1>   0.0800 
 26 H       -0.3600     3.9090    -1.1530 H     1 <1>   0.0800 
 27 H        1.8840     0.8340     0.3340 H     1 <1>   0.4000 
 28 H        1.2650     4.9170     0.9480 H     1 <1>   0.1500 
 29 H       -3.1050     4.9590    -0.5550 H     1 <1>   0.0800 
 30 H       -2.3470     4.7080    -2.0930 H     1 <1>   0.0800 
 31 H       -4.8380     2.1580     1.7450 H     1 <1>   0.0800 
 32 H       -2.4770     2.2850    -1.7870 H     1 <1>   0.0800 
 33 H       -4.0550     2.9870    -1.7250 H     1 <1>   0.0800 
 34 H       -2.2590     0.4860    -0.4630 H     1 <1>   0.0800 
 35 H       -2.9670     0.3560     1.1200 H     1 <1>   0.0800 
 36 H        5.0170     3.5440    -0.4450 H     1 <1>   0.1500 
 37 H        3.9130     0.3090    -1.3470 H     1 <1>   0.0800 
 38 H        4.4380     0.1410     0.3140 H     1 <1>   0.0800 
 39 H        5.3640     1.1130    -0.8020 H     1 <1>   0.0800 
 40 H       -6.2520     0.7430     0.5820 H     1 <1>   0.0800 
 41 H       -5.9890     1.5720    -0.9470 H     1 <1>   0.0800 
 42 H       -4.6260    -0.7890    -0.0370 H     1 <1>   0.0800 
 43 H       -4.3540     0.1220    -1.5080 H     1 <1>   0.0800 
 44 H       -6.9160     4.8070     0.7770 H     1 <1>   0.0800 
 45 H       -6.4560     3.7540     2.1080 H     1 <1>   0.0800 
 46 H       -7.3170     3.0980     0.7070 H     1 <1>   0.0800 
@<TRIPOS>BOND
  1   1   2  2   
  2   2   3  am  
  3   2   4  1   
  4   3   5  1   
  5   3   6  1   
  6   4   7  1   
  7   4   8  2   
  8   5   9  1   
  9   5  23  1   
 10   5  24  1   
 11   6  10  1   
 12   6  25  1   
 13   6  26  1   
 14   7  11  1   
 15   7  27  1   
 16   8  12  1   
 17   8  28  1   
 18   9  13  1   
 19   9  14  1   
 20   9  15  1   
 21  10  14  1   
 22  10  29  1   
 23  10  30  1   
 24  11  16  2   
 25  11  17  1   
 26  12  16  1   
 27  12  18  2   
 28  13  19  1   
 29  13  20  1   
 30  13  31  1   
 31  14  32  1   
 32  14  33  1   
 33  15  21  1   
 34  15  34  1   
 35  15  35  1   
 36  16  36  1   
 37  17  37  1   
 38  17  38  1   
 39  17  39  1   
 40  19  22  1   
 41  20  21  1   
 42  20  40  1   
 43  20  41  1   
 44  21  42  1   
 45  21  43  1   
 46  22  44  1   
 47  22  45  1   
 48  22  46  1   
@<TRIPOS>SUBSTRUCTURE
  1 ****   3 GROUP 4 **** **** 0

# MOE 2024.06 (io_trps.svl 2023.06)
