@<TRIPOS>MOLECULE
NONAME
53 55 1 0 0 
SMALL
USER_CHARGES


@<TRIPOS>ATOM
  1 N       -2.1710    -0.4920     0.8000 N.ar  1 <1>  -0.6200 
  2 C       -2.3890     0.7050     0.2920 C.ar  1 <1>   0.4100 
  3 C       -1.0560    -0.6270     1.4910 C.ar  1 <1>   0.4760 
  4 N       -3.5630     0.8520    -0.4150 N.pl3 1 <1>  -0.8380 
  5 C       -1.4890     1.7470     0.4700 C.ar  1 <1>  -0.1440 
  6 N       -0.1330     0.2830     1.7260 N.ar  1 <1>  -0.6200 
  7 C       -0.7950    -1.9920     2.0830 C.3   1 <1>  -0.0970 
  8 C       -3.7320     0.1300    -1.7060 C.3   1 <1>   0.2090 
  9 C       -4.7580     1.3770     0.2860 C.3   1 <1>   0.2090 
 10 C       -0.3650     1.4700     1.2050 C.ar  1 <1>   0.1600 
 11 C       -1.6960     3.1410    -0.1130 C.3   1 <1>  -0.0160 
 12 C       -3.9560    -1.3850    -1.5060 C.3   1 <1>   0.3430 
 13 C       -5.8910     0.3510     0.3270 C.3   1 <1>  -0.1600 
 14 C       -1.1310     3.2260    -1.5330 C.3   1 <1>  -0.2400 
 15 N       -5.2300    -1.7760    -0.7920 N.4   1 <1>  -0.9590 
 16 C       -5.3930    -1.0810     0.5270 C.3   1 <1>   0.3430 
 17 C       -5.2960    -3.2620    -0.6820 C.3   1 <1>   0.4230 
 18 C       -6.7380    -3.7090    -0.4080 C.3   1 <1>  -0.1600 
 19 C       -4.3290    -3.8300     0.3730 C.3   1 <1>  -0.1600 
 20 C       -6.8330    -5.2410    -0.3620 C.3   1 <1>  -0.1600 
 21 C       -4.4180    -5.3630     0.4170 C.3   1 <1>  -0.1600 
 22 C       -5.8590    -5.8280     0.6690 C.3   1 <1>  -0.1600 
 23 H       -1.7190    -2.5110     2.2510 H     1 <1>   0.0800 
 24 H       -0.2800    -1.8910     3.0200 H     1 <1>   0.0800 
 25 H       -0.1840    -2.5600     1.4080 H     1 <1>   0.0800 
 26 H       -2.8310     0.2620    -2.2810 H     1 <1>   0.0800 
 27 H       -4.5410     0.5600    -2.2690 H     1 <1>   0.0800 
 28 H       -5.0920     2.2790    -0.1990 H     1 <1>   0.0800 
 29 H       -4.4770     1.6340     1.2950 H     1 <1>   0.0800 
 30 H        0.3730     2.2360     1.3750 H     1 <1>   0.1500 
 31 H       -1.2040     3.8700     0.5070 H     1 <1>   0.0800 
 32 H       -2.7420     3.3890    -0.1270 H     1 <1>   0.0800 
 33 H       -3.1090    -1.7670    -0.9620 H     1 <1>   0.0800 
 34 H       -3.9450    -1.8510    -2.4760 H     1 <1>   0.0800 
 35 H       -6.4990     0.4290    -0.5550 H     1 <1>   0.0800 
 36 H       -6.5190     0.6090     1.1610 H     1 <1>   0.0800 
 37 H       -0.0790     2.9990    -1.5310 H     1 <1>   0.0800 
 38 H       -1.2690     4.2170    -1.9270 H     1 <1>   0.0800 
 39 H       -1.6340     2.5270    -2.1760 H     1 <1>   0.0800 
 40 H       -6.0180    -1.4880    -1.3780 H     1 <1>   0.4500 
 41 H       -6.1200    -1.6090     1.1200 H     1 <1>   0.0800 
 42 H       -4.4620    -1.0800     1.0730 H     1 <1>   0.0800 
 43 H       -5.0140    -3.6830    -1.6350 H     1 <1>   0.0800 
 44 H       -7.3880    -3.3470    -1.1850 H     1 <1>   0.0800 
 45 H       -7.0810    -3.3240     0.5350 H     1 <1>   0.0800 
 46 H       -4.5710    -3.4570     1.3520 H     1 <1>   0.0800 
 47 H       -3.3160    -3.5530     0.1450 H     1 <1>   0.0800 
 48 H       -6.6080    -5.6490    -1.3340 H     1 <1>   0.0800 
 49 H       -7.8380    -5.5360    -0.1110 H     1 <1>   0.0800 
 50 H       -3.7790    -5.7410     1.1980 H     1 <1>   0.0800 
 51 H       -4.0690    -5.7750    -0.5150 H     1 <1>   0.0800 
 52 H       -5.9010    -6.9040     0.6300 H     1 <1>   0.0800 
 53 H       -6.1630    -5.5290     1.6590 H     1 <1>   0.0800 
@<TRIPOS>BOND
  1   1   2  ar  
  2   1   3  ar  
  3   2   4  1   
  4   2   5  ar  
  5   3   6  ar  
  6   3   7  1   
  7   4   8  1   
  8   4   9  1   
  9   5  10  ar  
 10   5  11  1   
 11   6  10  ar  
 12   7  23  1   
 13   7  24  1   
 14   7  25  1   
 15   8  12  1   
 16   8  26  1   
 17   8  27  1   
 18   9  13  1   
 19   9  28  1   
 20   9  29  1   
 21  10  30  1   
 22  11  14  1   
 23  11  31  1   
 24  11  32  1   
 25  12  15  1   
 26  12  33  1   
 27  12  34  1   
 28  13  16  1   
 29  13  35  1   
 30  13  36  1   
 31  14  37  1   
 32  14  38  1   
 33  14  39  1   
 34  15  16  1   
 35  15  17  1   
 36  15  40  1   
 37  16  41  1   
 38  16  42  1   
 39  17  18  1   
 40  17  19  1   
 41  17  43  1   
 42  18  20  1   
 43  18  44  1   
 44  18  45  1   
 45  19  21  1   
 46  19  46  1   
 47  19  47  1   
 48  20  22  1   
 49  20  48  1   
 50  20  49  1   
 51  21  22  1   
 52  21  50  1   
 53  21  51  1   
 54  22  52  1   
 55  22  53  1   
@<TRIPOS>SUBSTRUCTURE
  1 ****   1 GROUP 4 **** **** 0

# MOE 2024.06 (io_trps.svl 2023.06)
