@<TRIPOS>MOLECULE
NONAME
41 43 1 0 0 
SMALL
USER_CHARGES


@<TRIPOS>ATOM
  1 S       -1.7190    -0.6620     1.7420 S.3   1 <1>  -0.0800 
  2 C       -2.2050     0.6520     0.6940 C.2   1 <1>   0.1980 
  3 C       -2.0720    -1.7770     0.4560 C.2   1 <1>  -0.1100 
  4 N       -2.5860     0.2880    -0.4640 N.2   1 <1>  -0.5650 
  5 C       -2.1270     2.0520     1.2540 C.3   1 <1>  -0.0600 
  6 C       -2.5130    -1.0890    -0.6090 C.2   1 <1>   0.0460 
  7 C       -2.9430    -1.6620    -1.9490 C.3   1 <1>   0.0820 
  8 C       -3.3520    -3.1200    -1.8400 C.2   1 <1>   0.5690 
  9 O       -2.5910    -3.9580    -2.2610 O.2   1 <1>  -0.5700 
 10 N       -4.5520    -3.4630    -1.2720 N.am  1 <1>  -0.6600 
 11 C       -5.5170    -2.5320    -0.6310 C.3   1 <1>   0.1400 
 12 C       -4.9800    -4.8690    -1.0780 C.3   1 <1>   0.1400 
 13 C       -6.5640    -3.4310     0.0310 C.3   1 <1>   0.2000 
 14 C       -5.9340    -4.8210     0.1160 C.3   1 <1>  -0.0800 
 15 O       -6.8870    -2.9820     1.3020 O.3   1 <1>  -0.6800 
 16 C       -6.9830    -5.9450     0.1300 C.3   1 <1>  -0.0170 
 17 C       -6.3360    -7.3170     0.2160 C.ar  1 <1>   0.1670 
 18 N       -5.9650    -7.8650    -0.9310 N.ar  1 <1>  -0.6200 
 19 C       -6.1630    -7.9170     1.4540 C.ar  1 <1>  -0.1500 
 20 C       -5.3980    -9.0570    -0.8410 C.ar  1 <1>   0.1600 
 21 C       -5.5710    -9.1600     1.5340 C.ar  1 <1>  -0.1500 
 22 C       -5.1800    -9.7370     0.3450 C.ar  1 <1>  -0.1500 
 23 H       -1.9110    -2.8260     0.6320 H     1 <1>   0.1500 
 24 H       -2.4520     2.7580     0.5110 H     1 <1>   0.0800 
 25 H       -1.1140     2.2770     1.5310 H     1 <1>   0.0800 
 26 H       -2.7600     2.1350     2.1180 H     1 <1>   0.0800 
 27 H       -2.1320    -1.5660    -2.6460 H     1 <1>   0.0800 
 28 H       -3.7720    -1.0980    -2.3310 H     1 <1>   0.0800 
 29 H       -5.0120    -1.9270     0.1010 H     1 <1>   0.0800 
 30 H       -5.9770    -1.9050    -1.3750 H     1 <1>   0.0800 
 31 H       -5.4890    -5.2080    -1.9650 H     1 <1>   0.0800 
 32 H       -4.1380    -5.5140    -0.8870 H     1 <1>   0.0800 
 33 H       -7.4620    -3.4420    -0.5630 H     1 <1>   0.0800 
 34 H       -5.3290    -4.8880     1.0030 H     1 <1>   0.0800 
 35 H       -6.0870    -2.9480     1.8620 H     1 <1>   0.4000 
 36 H       -7.5850    -5.8990    -0.7600 H     1 <1>   0.0800 
 37 H       -7.6390    -5.8060     0.9710 H     1 <1>   0.0800 
 38 H       -6.4870    -7.4200     2.3500 H     1 <1>   0.1500 
 39 H       -5.0890    -9.5180    -1.7640 H     1 <1>   0.1500 
 40 H       -5.4210    -9.6550     2.4770 H     1 <1>   0.1500 
 41 H       -4.7120   -10.7050     0.3340 H     1 <1>   0.1500 
@<TRIPOS>BOND
  1   1   2  1   
  2   1   3  1   
  3   2   4  2   
  4   2   5  1   
  5   3   6  2   
  6   3  23  1   
  7   4   6  1   
  8   5  24  1   
  9   5  25  1   
 10   5  26  1   
 11   6   7  1   
 12   7   8  1   
 13   7  27  1   
 14   7  28  1   
 15   8   9  2   
 16   8  10  am  
 17  10  11  1   
 18  10  12  1   
 19  11  13  1   
 20  11  29  1   
 21  11  30  1   
 22  12  14  1   
 23  12  31  1   
 24  12  32  1   
 25  13  14  1   
 26  13  15  1   
 27  13  33  1   
 28  14  16  1   
 29  14  34  1   
 30  15  35  1   
 31  16  17  1   
 32  16  36  1   
 33  16  37  1   
 34  17  18  ar  
 35  17  19  ar  
 36  18  20  ar  
 37  19  21  ar  
 38  19  38  1   
 39  20  22  ar  
 40  20  39  1   
 41  21  22  ar  
 42  21  40  1   
 43  22  41  1   
@<TRIPOS>SUBSTRUCTURE
  1 ****  10 GROUP 4 **** **** 0

# MOE 2024.06 (io_trps.svl 2023.06)
