@<TRIPOS>MOLECULE
NONAME
48 50 1 0 0 
SMALL
USER_CHARGES


@<TRIPOS>ATOM
  1 S        0.1690     0.6510    -0.6130 S.3   1 <1>  -0.0800 
  2 C        1.5690    -0.3950    -0.8200 C.2   1 <1>   0.4620 
  3 C       -0.7880    -0.7380    -0.2000 C.2   1 <1>  -0.1100 
  4 N        1.3080    -1.6320    -0.5950 N.2   1 <1>  -0.5650 
  5 N        2.7870     0.1470    -1.1820 N.pl3 1 <1>  -0.8220 
  6 C       -0.0210    -1.8470    -0.2410 C.2   1 <1>   0.1730 
  7 C        2.9710     1.5900    -1.5240 C.3   1 <1>   0.2090 
  8 C        4.0000    -0.7120    -1.2030 C.3   1 <1>   0.2090 
  9 C       -0.4630    -3.2010     0.0450 C.ar  1 <1>   0.0540 
 10 C        3.3220     2.4230    -0.2800 C.3   1 <1>   0.1100 
 11 C        5.2490    -0.0110    -0.6540 C.3   1 <1>  -0.1600 
 12 C        0.1790    -4.3070    -0.5180 C.ar  1 <1>  -0.1500 
 13 C       -1.5500    -3.4380     0.8930 C.ar  1 <1>  -0.1500 
 14 N        4.7100     2.2350     0.2140 N.3   1 <1>  -0.8100 
 15 C        4.9930     0.8410     0.5940 C.3   1 <1>   0.1100 
 16 C       -0.2410    -5.6000    -0.2560 C.ar  1 <1>  -0.1500 
 17 C       -1.9850    -4.7240     1.1660 C.ar  1 <1>  -0.1500 
 18 C        4.9590     3.1440     1.3730 C.3   1 <1>   0.1710 
 19 C       -1.3210    -5.7850     0.5840 C.ar  1 <1>   0.1900 
 20 C        4.8220     4.6530     1.0940 C.2   1 <1>   0.5690 
 21 F       -1.7260    -7.0000     0.8360 F     1 <1>  -0.1900 
 22 O        3.9720     5.2500     1.7170 O.2   1 <1>  -0.5700 
 23 N        5.6320     5.2960     0.1820 N.am  1 <1>  -0.6600 
 24 C        5.4890     6.7510    -0.1020 C.3   1 <1>   0.0600 
 25 C        6.6310     4.5980    -0.6730 C.3   1 <1>   0.0600 
 26 H       -1.8250    -0.5820     0.0280 H     1 <1>   0.1500 
 27 H        2.0660     1.9740    -1.9580 H     1 <1>   0.0800 
 28 H        3.7450     1.7010    -2.2620 H     1 <1>   0.0800 
 29 H        4.1820    -1.0380    -2.2130 H     1 <1>   0.0800 
 30 H        3.8200    -1.5910    -0.6070 H     1 <1>   0.0800 
 31 H        2.6180     2.1990     0.5030 H     1 <1>   0.0800 
 32 H        3.1920     3.4570    -0.5470 H     1 <1>   0.0800 
 33 H        5.7060     0.5880    -1.4190 H     1 <1>   0.0800 
 34 H        5.9540    -0.7800    -0.3990 H     1 <1>   0.0800 
 35 H        1.0190    -4.1480    -1.1720 H     1 <1>   0.1500 
 36 H       -2.0580    -2.6090     1.3500 H     1 <1>   0.1500 
 37 H        5.8880     0.8190     1.1910 H     1 <1>   0.0800 
 38 H        4.1880     0.4330     1.1830 H     1 <1>   0.0800 
 39 H        0.2550    -6.4480    -0.6920 H     1 <1>   0.1500 
 40 H       -2.8200    -4.9060     1.8180 H     1 <1>   0.1500 
 41 H        5.9550     2.9820     1.7410 H     1 <1>   0.0800 
 42 H        4.2790     2.8920     2.1680 H     1 <1>   0.0800 
 43 H        4.7400     7.1960     0.5300 H     1 <1>   0.0800 
 44 H        5.2010     6.8930    -1.1290 H     1 <1>   0.0800 
 45 H        6.4260     7.2490     0.0760 H     1 <1>   0.0800 
 46 H        6.9400     3.6680    -0.2300 H     1 <1>   0.0800 
 47 H        7.5020     5.2160    -0.8020 H     1 <1>   0.0800 
 48 H        6.1960     4.3920    -1.6360 H     1 <1>   0.0800 
@<TRIPOS>BOND
  1   1   2  1   
  2   1   3  1   
  3   2   4  2   
  4   2   5  1   
  5   3   6  2   
  6   3  26  1   
  7   4   6  1   
  8   5   7  1   
  9   5   8  1   
 10   6   9  1   
 11   7  10  1   
 12   7  27  1   
 13   7  28  1   
 14   8  11  1   
 15   8  29  1   
 16   8  30  1   
 17   9  12  ar  
 18   9  13  ar  
 19  10  14  1   
 20  10  31  1   
 21  10  32  1   
 22  11  15  1   
 23  11  33  1   
 24  11  34  1   
 25  12  16  ar  
 26  12  35  1   
 27  13  17  ar  
 28  13  36  1   
 29  14  15  1   
 30  14  18  1   
 31  15  37  1   
 32  15  38  1   
 33  16  19  ar  
 34  16  39  1   
 35  17  19  ar  
 36  17  40  1   
 37  18  20  1   
 38  18  41  1   
 39  18  42  1   
 40  19  21  1   
 41  20  22  2   
 42  20  23  am  
 43  23  24  1   
 44  23  25  1   
 45  24  43  1   
 46  24  44  1   
 47  24  45  1   
 48  25  46  1   
 49  25  47  1   
 50  25  48  1   
@<TRIPOS>SUBSTRUCTURE
  1 ****   2 GROUP 4 **** **** 0

# MOE 2024.06 (io_trps.svl 2023.06)
