@<TRIPOS>MOLECULE
NONAME
44 46 1 0 0 
SMALL
USER_CHARGES


@<TRIPOS>ATOM
  1 F       -0.4040     2.0500     2.2310 F     1 <1>  -0.1900 
  2 C       -0.6430     2.8590     1.2280 C.ar  1 <1>   0.1900 
  3 C        0.1740     3.9650     1.0410 C.ar  1 <1>   0.0830 
  4 C       -1.7060     2.5860     0.3890 C.ar  1 <1>  -0.1500 
  5 O        1.2060     4.2220     1.8680 O.3   1 <1>  -0.5330 
  6 C       -0.0830     4.8140    -0.0200 C.ar  1 <1>  -0.1500 
  7 C       -1.9650     3.4440    -0.6720 C.ar  1 <1>  -0.1440 
  8 C       -1.1460     4.5520    -0.8710 C.ar  1 <1>  -0.1500 
  9 C       -3.1390     3.1710    -1.6090 C.3   1 <1>   0.0440 
 10 C       -4.4490     2.8900    -0.8820 C.2   1 <1>   0.5690 
 11 O       -4.9610     1.8110    -1.0750 O.2   1 <1>  -0.5700 
 12 N       -5.0240     3.8240    -0.0540 N.am  1 <1>  -0.6600 
 13 C       -6.3040     3.5380     0.6580 C.3   1 <1>   0.1400 
 14 C       -4.4520     5.1800     0.2090 C.3   1 <1>   0.1400 
 15 C       -7.4130     4.5100     0.1960 C.3   1 <1>   0.0000 
 16 C       -5.5230     6.1740     0.6920 C.3   1 <1>  -0.1600 
 17 C       -8.5830     4.4710     1.1970 C.3   1 <1>   0.2000 
 18 C       -6.8530     5.9490    -0.0450 C.3   1 <1>  -0.1600 
 19 C       -8.1110     4.0170    -1.0820 C.3   1 <1>  -0.1600 
 20 O       -8.3780     5.2910     2.2910 O.3   1 <1>  -0.6800 
 21 C       -9.8280     4.9060     0.4210 C.3   1 <1>  -0.1600 
 22 C       -9.4970     4.6710    -1.0610 C.3   1 <1>  -0.1600 
 23 H       -2.3180     1.7180     0.5680 H     1 <1>   0.1500 
 24 H        1.2840     3.5440     2.5680 H     1 <1>   0.4500 
 25 H        0.5490     5.6710    -0.1760 H     1 <1>   0.1500 
 26 H       -1.3300     5.2210    -1.6950 H     1 <1>   0.1500 
 27 H       -2.8960     2.3170    -2.2160 H     1 <1>   0.0800 
 28 H       -3.2940     3.9980    -2.2750 H     1 <1>   0.0800 
 29 H       -6.6120     2.5180     0.5070 H     1 <1>   0.0800 
 30 H       -6.1350     3.6630     1.7140 H     1 <1>   0.0800 
 31 H       -3.6700     5.1020     0.9460 H     1 <1>   0.0800 
 32 H       -4.0210     5.5620    -0.7000 H     1 <1>   0.0800 
 33 H       -5.6670     6.0540     1.7520 H     1 <1>   0.0800 
 34 H       -5.1730     7.1770     0.5270 H     1 <1>   0.0800 
 35 H       -8.7250     3.4660     1.5590 H     1 <1>   0.0800 
 36 H       -6.6560     6.0900    -1.0930 H     1 <1>   0.0800 
 37 H       -7.5680     6.7020     0.2340 H     1 <1>   0.0800 
 38 H       -7.5620     4.2440    -1.9790 H     1 <1>   0.0800 
 39 H       -8.2360     2.9480    -1.0360 H     1 <1>   0.0800 
 40 H       -8.1990     6.1990     1.9850 H     1 <1>   0.4000 
 41 H      -10.6720     4.3100     0.7210 H     1 <1>   0.0800 
 42 H      -10.0490     5.9460     0.5850 H     1 <1>   0.0800 
 43 H      -10.2300     4.0440    -1.5380 H     1 <1>   0.0800 
 44 H       -9.4600     5.6160    -1.5760 H     1 <1>   0.0800 
@<TRIPOS>BOND
  1   1   2  1   
  2   2   3  ar  
  3   2   4  ar  
  4   3   5  1   
  5   3   6  ar  
  6   4   7  ar  
  7   4  23  1   
  8   5  24  1   
  9   6   8  ar  
 10   6  25  1   
 11   7   8  ar  
 12   7   9  1   
 13   8  26  1   
 14   9  10  1   
 15   9  27  1   
 16   9  28  1   
 17  10  11  2   
 18  10  12  am  
 19  12  13  1   
 20  12  14  1   
 21  13  15  1   
 22  13  29  1   
 23  13  30  1   
 24  14  16  1   
 25  14  31  1   
 26  14  32  1   
 27  15  17  1   
 28  15  18  1   
 29  15  19  1   
 30  16  18  1   
 31  16  33  1   
 32  16  34  1   
 33  17  20  1   
 34  17  21  1   
 35  17  35  1   
 36  18  36  1   
 37  18  37  1   
 38  19  22  1   
 39  19  38  1   
 40  19  39  1   
 41  20  40  1   
 42  21  22  1   
 43  21  41  1   
 44  21  42  1   
 45  22  43  1   
 46  22  44  1   
@<TRIPOS>SUBSTRUCTURE
  1 ****  12 GROUP 4 **** **** 0

# MOE 2024.06 (io_trps.svl 2023.06)
