@<TRIPOS>MOLECULE
NONAME
60 63 1 0 0 
SMALL
USER_CHARGES


@<TRIPOS>ATOM
  1 O       -2.8360     1.2160     2.2340 O.2   1 <1>  -0.5700 
  2 C       -2.2030     1.9560     1.5160 C.2   1 <1>   0.5690 
  3 N       -2.8320     3.0720     1.0230 N.am  1 <1>  -0.6600 
  4 C       -0.7670     1.5470     1.1690 C.3   1 <1>  -0.0190 
  5 C       -3.9700     3.6760     1.8040 C.3   1 <1>   0.1400 
  6 C       -2.7540     3.5150    -0.4000 C.3   1 <1>   0.1400 
  7 C        0.2220     2.7300     1.0640 C.3   1 <1>  -0.1600 
  8 C       -0.6990     0.6200    -0.0650 C.3   1 <1>  -0.1600 
  9 C       -5.3540     3.1130     1.3790 C.3   1 <1>   0.4230 
 10 C       -3.9990     3.1160    -1.2320 C.3   1 <1>  -0.0800 
 11 C        1.6520     2.2410     0.7830 C.3   1 <1>  -0.1600 
 12 C        0.7400     0.1550    -0.3390 C.3   1 <1>  -0.1600 
 13 N       -5.1640     1.8030     0.6650 N.4   1 <1>  -0.9590 
 14 C       -6.1730     4.1440     0.5710 C.3   1 <1>   0.1200 
 15 C       -4.9690     4.2840    -1.4780 C.3   1 <1>   0.1200 
 16 C       -4.7620     1.8550    -0.7810 C.3   1 <1>   0.3430 
 17 C        1.6900     1.3500    -0.4620 C.3   1 <1>   0.2000 
 18 C       -6.2170     0.7940     0.9460 C.3   1 <1>   0.4870 
 19 O       -5.3670     4.8880    -0.2940 O.3   1 <1>  -0.5600 
 20 O        2.9700     0.8710    -0.6120 O.3   1 <1>  -0.6800 
 21 C       -5.7980    -0.5290     0.3340 C.ar  1 <1>  -0.1440 
 22 C       -4.7530    -1.2550     0.8870 C.ar  1 <1>  -0.1500 
 23 C       -6.4430    -1.0140    -0.7940 C.ar  1 <1>  -0.1500 
 24 C       -4.3490    -2.4440     0.3070 C.ar  1 <1>  -0.1500 
 25 C       -6.0360    -2.2050    -1.3700 C.ar  1 <1>  -0.1500 
 26 C       -4.9850    -2.9230    -0.8260 C.ar  1 <1>  -0.1440 
 27 C       -4.5380    -4.2310    -1.4550 C.3   1 <1>  -0.0970 
 28 H       -0.4330     0.9580     2.0060 H     1 <1>   0.0800 
 29 H       -3.8270     3.4600     2.8490 H     1 <1>   0.0800 
 30 H       -3.9460     4.7480     1.7120 H     1 <1>   0.0800 
 31 H       -2.6210     4.5850    -0.4270 H     1 <1>   0.0800 
 32 H       -1.8870     3.0860    -0.8640 H     1 <1>   0.0800 
 33 H       -0.0660     3.4020     0.2780 H     1 <1>   0.0800 
 34 H        0.2130     3.2860     1.9860 H     1 <1>   0.0800 
 35 H       -1.3210    -0.2440     0.1030 H     1 <1>   0.0800 
 36 H       -1.0690     1.1230    -0.9380 H     1 <1>   0.0800 
 37 H       -5.9060     2.9220     2.2840 H     1 <1>   0.0800 
 38 H       -3.6260     2.8800    -2.2120 H     1 <1>   0.0800 
 39 H        2.0070     1.6880     1.6360 H     1 <1>   0.0800 
 40 H        2.2960     3.0900     0.6330 H     1 <1>   0.0800 
 41 H        0.7640    -0.4140    -1.2520 H     1 <1>   0.0800 
 42 H        1.0610    -0.4800     0.4680 H     1 <1>   0.0800 
 43 H       -4.3160     1.4310     1.1410 H     1 <1>   0.4500 
 44 H       -6.6020     4.8520     1.2580 H     1 <1>   0.0800 
 45 H       -6.9740     3.6850     0.0200 H     1 <1>   0.0800 
 46 H       -5.8450     3.9700    -2.0200 H     1 <1>   0.0800 
 47 H       -4.4750     5.0440    -2.0600 H     1 <1>   0.0800 
 48 H       -4.1470     0.9930    -0.9890 H     1 <1>   0.0800 
 49 H       -5.6450     1.7630    -1.3930 H     1 <1>   0.0800 
 50 H        1.4540     1.9270    -1.3410 H     1 <1>   0.0800 
 51 H       -6.3390     0.6710     2.0100 H     1 <1>   0.0800 
 52 H       -7.1570     1.1090     0.5240 H     1 <1>   0.0800 
 53 H        3.2220     0.3430     0.1680 H     1 <1>   0.4000 
 54 H       -4.2410    -0.9120     1.7710 H     1 <1>   0.1500 
 55 H       -7.2660    -0.4800    -1.2370 H     1 <1>   0.1500 
 56 H       -3.5370    -3.0010     0.7440 H     1 <1>   0.1500 
 57 H       -6.5430    -2.5760    -2.2440 H     1 <1>   0.1500 
 58 H       -3.4730    -4.3460    -1.3670 H     1 <1>   0.0800 
 59 H       -4.7960    -4.2590    -2.4980 H     1 <1>   0.0800 
 60 H       -5.0180    -5.0550    -0.9580 H     1 <1>   0.0800 
@<TRIPOS>BOND
  1   1   2  2   
  2   2   3  am  
  3   2   4  1   
  4   3   5  1   
  5   3   6  1   
  6   4   7  1   
  7   4   8  1   
  8   4  28  1   
  9   5   9  1   
 10   5  29  1   
 11   5  30  1   
 12   6  10  1   
 13   6  31  1   
 14   6  32  1   
 15   7  11  1   
 16   7  33  1   
 17   7  34  1   
 18   8  12  1   
 19   8  35  1   
 20   8  36  1   
 21   9  13  1   
 22   9  14  1   
 23   9  37  1   
 24  10  15  1   
 25  10  16  1   
 26  10  38  1   
 27  11  17  1   
 28  11  39  1   
 29  11  40  1   
 30  12  17  1   
 31  12  41  1   
 32  12  42  1   
 33  13  16  1   
 34  13  18  1   
 35  13  43  1   
 36  14  19  1   
 37  14  44  1   
 38  14  45  1   
 39  15  19  1   
 40  15  46  1   
 41  15  47  1   
 42  16  48  1   
 43  16  49  1   
 44  17  20  1   
 45  17  50  1   
 46  18  21  1   
 47  18  51  1   
 48  18  52  1   
 49  20  53  1   
 50  21  22  ar  
 51  21  23  ar  
 52  22  24  ar  
 53  22  54  1   
 54  23  25  ar  
 55  23  55  1   
 56  24  26  ar  
 57  24  56  1   
 58  25  26  ar  
 59  25  57  1   
 60  26  27  1   
 61  27  58  1   
 62  27  59  1   
 63  27  60  1   
@<TRIPOS>SUBSTRUCTURE
  1 ****   2 GROUP 4 **** **** 0

# MOE 2024.06 (io_trps.svl 2023.06)
