@<TRIPOS>MOLECULE
NONAME
44 47 1 0 0 
SMALL
USER_CHARGES


@<TRIPOS>ATOM
  1 O        0.3010     0.6590    -0.1790 O.2   1 <1>  -0.5700 
  2 C       -0.2770     1.7180    -0.3400 C.2   1 <1>   0.6160 
  3 N       -1.6430     1.7740    -0.1340 N.am  1 <1>  -0.6600 
  4 C        0.4850     2.8680    -0.7650 C.2   1 <1>   0.0140 
  5 C       -2.5140     2.8290    -0.7470 C.3   1 <1>   0.1400 
  6 C       -2.3890     0.5740     0.3490 C.3   1 <1>   0.1400 
  7 C        0.5320     4.0410    -0.0530 C.2   1 <1>  -0.0410 
  8 C        1.2460     2.8030    -1.9730 C.2   1 <1>  -0.1500 
  9 C       -3.6420     3.2700     0.2060 C.3   1 <1>   0.1440 
 10 C       -3.5200     0.9810     1.3020 C.3   1 <1>  -0.1600 
 11 N        1.2550     5.1210    -0.4930 N.am  1 <1>  -0.5390 
 12 C        1.9640     3.8780    -2.3980 C.2   1 <1>  -0.1360 
 13 C       -4.5050     4.2870    -0.5180 C.ar  1 <1>   0.1670 
 14 C       -4.4440     2.0370     0.6720 C.3   1 <1>  -0.1600 
 15 C       -3.1030     4.0950     1.4060 C.3   1 <1>  -0.1600 
 16 C        1.9800     5.0870    -1.6510 C.2   1 <1>   0.6160 
 17 N       -5.3590     4.0170    -1.4810 N.ar  1 <1>  -0.6200 
 18 C       -4.2780     5.5520    -0.0640 C.ar  1 <1>  -0.1430 
 19 C       -3.2350     5.5790     1.0250 C.3   1 <1>  -0.0170 
 20 O        2.5970     6.0840    -1.9840 O.2   1 <1>  -0.5700 
 21 C       -5.9940     5.0760    -1.9630 C.ar  1 <1>   0.4770 
 22 C       -4.9910     6.5760    -0.6380 C.ar  1 <1>   0.1600 
 23 N       -5.8620     6.3440    -1.5980 N.ar  1 <1>  -0.6200 
 24 C       -6.9940     4.8090    -3.0620 C.3   1 <1>  -0.0970 
 25 H       -2.9590     2.4240    -1.6400 H     1 <1>   0.0800 
 26 H       -1.9380     3.6880    -1.0390 H     1 <1>   0.0800 
 27 H       -1.7250    -0.1020     0.8620 H     1 <1>   0.0800 
 28 H       -2.7990     0.0550    -0.5010 H     1 <1>   0.0800 
 29 H        0.0060     4.1390     0.8820 H     1 <1>   0.1500 
 30 H        1.2310     1.8770    -2.5240 H     1 <1>   0.1500 
 31 H       -3.0890     1.3570     2.2130 H     1 <1>   0.0800 
 32 H       -4.0960     0.1080     1.5540 H     1 <1>   0.0800 
 33 H        1.3240     6.0030     0.0180 H     1 <1>   0.3700 
 34 H        2.5480     3.8660    -3.2980 H     1 <1>   0.1500 
 35 H       -4.9400     1.6020    -0.1780 H     1 <1>   0.0800 
 36 H       -5.2060     2.3320     1.3720 H     1 <1>   0.0800 
 37 H       -2.0970     3.8290     1.6730 H     1 <1>   0.0800 
 38 H       -3.7290     3.9210     2.2640 H     1 <1>   0.0800 
 39 H       -2.3090     5.9570     0.6290 H     1 <1>   0.0800 
 40 H       -3.5490     6.1780     1.8630 H     1 <1>   0.0800 
 41 H       -4.8490     7.5920    -0.3120 H     1 <1>   0.1500 
 42 H       -6.7940     3.8620    -3.5280 H     1 <1>   0.0800 
 43 H       -6.9340     5.5830    -3.8040 H     1 <1>   0.0800 
 44 H       -7.9820     4.7950    -2.6450 H     1 <1>   0.0800 
@<TRIPOS>BOND
  1   1   2  2   
  2   2   3  am  
  3   2   4  1   
  4   3   5  1   
  5   3   6  1   
  6   4   7  2   
  7   4   8  1   
  8   5   9  1   
  9   5  25  1   
 10   5  26  1   
 11   6  10  1   
 12   6  27  1   
 13   6  28  1   
 14   7  11  1   
 15   7  29  1   
 16   8  12  2   
 17   8  30  1   
 18   9  13  1   
 19   9  14  1   
 20   9  15  1   
 21  10  14  1   
 22  10  31  1   
 23  10  32  1   
 24  11  16  am  
 25  11  33  1   
 26  12  16  1   
 27  12  34  1   
 28  13  17  ar  
 29  13  18  ar  
 30  14  35  1   
 31  14  36  1   
 32  15  19  1   
 33  15  37  1   
 34  15  38  1   
 35  16  20  2   
 36  17  21  ar  
 37  18  19  1   
 38  18  22  ar  
 39  19  39  1   
 40  19  40  1   
 41  21  23  ar  
 42  21  24  1   
 43  22  23  ar  
 44  22  41  1   
 45  24  42  1   
 46  24  43  1   
 47  24  44  1   
@<TRIPOS>SUBSTRUCTURE
  1 ****   5 GROUP 4 **** **** 0

# MOE 2024.06 (io_trps.svl 2023.06)
