@<TRIPOS>MOLECULE
NONAME
43 44 1 0 0 
SMALL
USER_CHARGES


@<TRIPOS>ATOM
  1 O        0.5950     1.0320     0.1120 O.3   1 <1>  -0.3630 
  2 C       -0.5950     1.3330    -0.4800 C.ar  1 <1>   0.3920 
  3 C        1.0790    -0.2970     0.1280 C.3   1 <1>   0.0400 
  4 N       -1.2750     0.3520    -1.0560 N.ar  1 <1>  -0.6200 
  5 C       -1.0220     2.6900    -0.4480 C.ar  1 <1>   0.4100 
  6 C       -2.4050     0.7890    -1.5970 C.ar  1 <1>   0.1600 
  7 N       -2.1510     3.1000    -1.0070 N.ar  1 <1>  -0.6200 
  8 N       -0.2630     3.6620     0.1870 N.pl3 1 <1>  -0.8690 
  9 C       -2.8240     2.1090    -1.5720 C.ar  1 <1>   0.1600 
 10 C       -0.1660     5.0240    -0.3610 C.3   1 <1>   0.4330 
 11 C        1.3130     5.3830    -0.3740 C.ar  1 <1>  -0.1430 
 12 C       -1.0550     5.9530     0.4870 C.3   1 <1>  -0.1600 
 13 C        2.0240     5.5350     0.8080 C.ar  1 <1>   0.1600 
 14 C        1.9800     5.5530    -1.5720 C.ar  1 <1>  -0.1500 
 15 C       -1.2760     7.4020    -0.0160 C.3   1 <1>   0.0000 
 16 N        3.3090     5.8440     0.8890 N.ar  1 <1>  -0.6200 
 17 C        3.3180     5.8750    -1.5070 C.ar  1 <1>  -0.1500 
 18 C       -1.7800     7.4190    -1.4670 C.3   1 <1>  -0.2400 
 19 C       -2.3480     8.0500     0.8740 C.3   1 <1>  -0.2400 
 20 C       -0.0040     8.2580     0.0860 C.3   1 <1>  -0.2400 
 21 C        3.9250     6.0080    -0.2700 C.ar  1 <1>   0.1600 
 22 H        2.0220    -0.3080     0.6450 H     1 <1>   0.0800 
 23 H        1.2090    -0.6340    -0.8850 H     1 <1>   0.0800 
 24 H        0.3680    -0.9200     0.6430 H     1 <1>   0.0800 
 25 H       -3.0260     0.0570    -2.0830 H     1 <1>   0.1500 
 26 H        0.6600     3.3080     0.4560 H     1 <1>   0.4000 
 27 H       -3.7570     2.3630    -2.0420 H     1 <1>   0.1500 
 28 H       -0.5330     5.0160    -1.3730 H     1 <1>   0.0800 
 29 H       -0.6770     5.9830     1.4920 H     1 <1>   0.0800 
 30 H       -2.0210     5.4810     0.5360 H     1 <1>   0.0800 
 31 H        1.5100     5.3930     1.7430 H     1 <1>   0.1500 
 32 H        1.4810     5.4400    -2.5200 H     1 <1>   0.1500 
 33 H        3.8900     6.0220    -2.4060 H     1 <1>   0.1500 
 34 H       -2.6470     6.7900    -1.5710 H     1 <1>   0.0800 
 35 H       -1.0220     7.0740    -2.1450 H     1 <1>   0.0800 
 36 H       -2.0510     8.4190    -1.7580 H     1 <1>   0.0800 
 37 H       -3.2720     7.5030     0.8150 H     1 <1>   0.0800 
 38 H       -2.5390     9.0630     0.5670 H     1 <1>   0.0800 
 39 H       -2.0280     8.0640     1.9010 H     1 <1>   0.0800 
 40 H        0.7420     7.9400    -0.6180 H     1 <1>   0.0800 
 41 H        0.4140     8.2010     1.0760 H     1 <1>   0.0800 
 42 H       -0.2260     9.2890    -0.1260 H     1 <1>   0.0800 
 43 H        4.9700     6.2600    -0.2330 H     1 <1>   0.1500 
@<TRIPOS>BOND
  1   1   2  1   
  2   1   3  1   
  3   2   4  ar  
  4   2   5  ar  
  5   3  22  1   
  6   3  23  1   
  7   3  24  1   
  8   4   6  ar  
  9   5   7  ar  
 10   5   8  1   
 11   6   9  ar  
 12   6  25  1   
 13   7   9  ar  
 14   8  10  1   
 15   8  26  1   
 16   9  27  1   
 17  10  11  1   
 18  10  12  1   
 19  10  28  1   
 20  11  13  ar  
 21  11  14  ar  
 22  12  15  1   
 23  12  29  1   
 24  12  30  1   
 25  13  16  ar  
 26  13  31  1   
 27  14  17  ar  
 28  14  32  1   
 29  15  18  1   
 30  15  19  1   
 31  15  20  1   
 32  16  21  ar  
 33  17  21  ar  
 34  17  33  1   
 35  18  34  1   
 36  18  35  1   
 37  18  36  1   
 38  19  37  1   
 39  19  38  1   
 40  19  39  1   
 41  20  40  1   
 42  20  41  1   
 43  20  42  1   
 44  21  43  1   
@<TRIPOS>SUBSTRUCTURE
  1 ****  10 GROUP 4 **** **** 0

# MOE 2024.06 (io_trps.svl 2023.06)
