@<TRIPOS>MOLECULE
NONAME
49 52 1 0 0 
SMALL
USER_CHARGES


@<TRIPOS>ATOM
  1 S        0.7180    -4.0810    -0.2840 S.3   1 <1>  -0.0800 
  2 C        0.2720    -2.3980    -0.0440 C.2   1 <1>   0.3250 
  3 C       -0.9520    -4.5250    -0.2900 C.2   1 <1>  -0.1100 
  4 N       -1.0030    -2.2410     0.0210 N.2   1 <1>  -0.5650 
  5 C        1.3070    -1.3880     0.0500 C.ar  1 <1>   0.0530 
  6 C       -1.7280    -3.4360    -0.1120 C.2   1 <1>   0.1410 
  7 C        0.9600    -0.0350     0.0440 C.ar  1 <1>  -0.1500 
  8 C        2.6690    -1.6900     0.1520 C.ar  1 <1>  -0.1500 
  9 C       -3.1930    -3.4870    -0.0860 C.2   1 <1>   0.7160 
 10 C        1.9130     0.9630     0.1320 C.ar  1 <1>  -0.1500 
 11 C        3.6280    -0.6960     0.2400 C.ar  1 <1>  -0.1500 
 12 O       -3.7450    -4.4390    -0.6120 O.2   1 <1>  -0.5700 
 13 N       -3.9960    -2.5320     0.5150 N.am  1 <1>  -0.6600 
 14 C        3.2520     0.6340     0.2300 C.ar  1 <1>  -0.1500 
 15 C       -5.4670    -2.4910     0.2280 C.3   1 <1>   0.1400 
 16 C       -3.4730    -1.5250     1.4850 C.3   1 <1>   0.1400 
 17 C       -6.0440    -1.0570     0.3020 C.3   1 <1>   0.0000 
 18 C       -4.5730    -1.0670     2.4450 C.3   1 <1>  -0.1600 
 19 C       -7.5410    -1.0930    -0.0710 C.3   1 <1>   0.2000 
 20 C       -5.7910    -0.4670     1.7180 C.3   1 <1>  -0.1600 
 21 C       -5.4530    -0.1850    -0.8260 C.3   1 <1>  -0.1600 
 22 O       -8.1550     0.0950     0.3440 O.3   1 <1>  -0.5600 
 23 C       -7.5730    -1.1410    -1.6040 C.3   1 <1>  -0.1600 
 24 C       -6.2570    -0.5180    -2.0870 C.3   1 <1>  -0.1600 
 25 C       -9.5290     0.0100     0.5500 C.3   1 <1>   0.0400 
 26 H       -1.2090    -5.5600    -0.4310 H     1 <1>   0.1500 
 27 H       -0.0780     0.2370    -0.0330 H     1 <1>   0.1500 
 28 H        2.9980    -2.7130     0.1660 H     1 <1>   0.1500 
 29 H        1.6130     1.9970     0.1240 H     1 <1>   0.1500 
 30 H        4.6690    -0.9570     0.3170 H     1 <1>   0.1500 
 31 H        3.9970     1.4080     0.2990 H     1 <1>   0.1500 
 32 H       -5.6490    -2.9070    -0.7480 H     1 <1>   0.0800 
 33 H       -5.9690    -3.1160     0.9460 H     1 <1>   0.0800 
 34 H       -2.6660    -1.9540     2.0530 H     1 <1>   0.0800 
 35 H       -3.0890    -0.6780     0.9420 H     1 <1>   0.0800 
 36 H       -4.8850    -1.9190     3.0240 H     1 <1>   0.0800 
 37 H       -4.1720    -0.3430     3.1310 H     1 <1>   0.0800 
 38 H       -8.0440    -1.9300     0.3850 H     1 <1>   0.0800 
 39 H       -5.6770     0.6000     1.6460 H     1 <1>   0.0800 
 40 H       -6.6530    -0.6400     2.3380 H     1 <1>   0.0800 
 41 H       -5.6130     0.8540    -0.5950 H     1 <1>   0.0800 
 42 H       -4.4000    -0.3390    -0.9780 H     1 <1>   0.0800 
 43 H       -7.6140    -2.1670    -1.9250 H     1 <1>   0.0800 
 44 H       -8.4250    -0.6230    -2.0060 H     1 <1>   0.0800 
 45 H       -5.7170    -1.2240    -2.6950 H     1 <1>   0.0800 
 46 H       -6.4380     0.3730    -2.6630 H     1 <1>   0.0800 
 47 H       -9.8840     0.9850     0.8330 H     1 <1>   0.0800 
 48 H       -9.7250    -0.6900     1.3430 H     1 <1>   0.0800 
 49 H      -10.0120    -0.3010    -0.3590 H     1 <1>   0.0800 
@<TRIPOS>BOND
  1   1   2  1   
  2   1   3  1   
  3   2   4  2   
  4   2   5  1   
  5   3   6  2   
  6   3  26  1   
  7   4   6  1   
  8   5   7  ar  
  9   5   8  ar  
 10   6   9  1   
 11   7  10  ar  
 12   7  27  1   
 13   8  11  ar  
 14   8  28  1   
 15   9  12  2   
 16   9  13  am  
 17  10  14  ar  
 18  10  29  1   
 19  11  14  ar  
 20  11  30  1   
 21  13  15  1   
 22  13  16  1   
 23  14  31  1   
 24  15  17  1   
 25  15  32  1   
 26  15  33  1   
 27  16  18  1   
 28  16  34  1   
 29  16  35  1   
 30  17  19  1   
 31  17  20  1   
 32  17  21  1   
 33  18  20  1   
 34  18  36  1   
 35  18  37  1   
 36  19  22  1   
 37  19  23  1   
 38  19  38  1   
 39  20  39  1   
 40  20  40  1   
 41  21  24  1   
 42  21  41  1   
 43  21  42  1   
 44  22  25  1   
 45  23  24  1   
 46  23  43  1   
 47  23  44  1   
 48  24  45  1   
 49  24  46  1   
 50  25  47  1   
 51  25  48  1   
 52  25  49  1   
@<TRIPOS>SUBSTRUCTURE
  1 ****  16 GROUP 4 **** **** 0

# MOE 2024.06 (io_trps.svl 2023.06)
