@<TRIPOS>MOLECULE
NONAME
46 48 1 0 0 
SMALL
USER_CHARGES


@<TRIPOS>ATOM
  1 F        0.8680     0.9290     1.2290 F     1 <1>  -0.1900 
  2 C        1.9870     1.4540     0.8090 C.ar  1 <1>   0.1900 
  3 C        2.8990     0.6470     0.1630 C.ar  1 <1>  -0.1500 
  4 C        2.2150     2.7970     1.0310 C.ar  1 <1>  -0.1500 
  5 C        4.0880     1.2070    -0.2810 C.ar  1 <1>   0.1170 
  6 C        3.4000     3.3550     0.5790 C.ar  1 <1>  -0.1500 
  7 N        5.0500     0.4170    -0.9130 N.am  1 <1>  -0.5470 
  8 C        4.3380     2.5690    -0.0860 C.ar  1 <1>  -0.1430 
  9 C        6.3380     0.7860    -1.1050 C.2   1 <1>   0.5690 
 10 C        5.6490     3.1480    -0.6470 C.3   1 <1>   0.1250 
 11 O        7.1100     0.0850    -1.7050 O.2   1 <1>  -0.5700 
 12 C        6.7870     2.1150    -0.5420 C.3   1 <1>  -0.0990 
 13 C        6.0470     4.4900    -0.0300 C.2   1 <1>   0.5690 
 14 O        6.6940     4.5050     0.9900 O.2   1 <1>  -0.5700 
 15 N        5.6310     5.6330    -0.6620 N.am  1 <1>  -0.4940 
 16 C        5.7360     6.9860    -0.2580 C.2   1 <1>  -0.0880 
 17 N        6.8100     7.6080     0.3130 N.pl3 1 <1>   0.3140 
 18 C        4.7690     7.9260    -0.3810 C.2   1 <1>  -0.1810 
 19 N        6.5350     8.9130     0.5620 N.2   1 <1>  -0.7070 
 20 C        8.1480     7.0310     0.6010 C.3   1 <1>   0.0960 
 21 C        5.3220     9.0870     0.1440 C.2   1 <1>   0.1390 
 22 C        3.3640     7.8080    -0.9440 C.3   1 <1>  -0.0590 
 23 C        9.2990     8.0150     0.3300 C.3   1 <1>  -0.1600 
 24 C       10.6620     7.3470     0.5490 C.3   1 <1>  -0.1600 
 25 C       11.8050     8.3300     0.2780 C.3   1 <1>  -0.2400 
 26 H        2.6850    -0.3950     0.0170 H     1 <1>   0.1500 
 27 H        1.4810     3.3900     1.5480 H     1 <1>   0.1500 
 28 H        3.5670     4.4030     0.7600 H     1 <1>   0.1500 
 29 H        4.8090    -0.5200    -1.2380 H     1 <1>   0.3700 
 30 H        5.4840     3.3170    -1.6970 H     1 <1>   0.0800 
 31 H        7.6540     2.4580    -1.0760 H     1 <1>   0.0800 
 32 H        7.0570     1.9660     0.4870 H     1 <1>   0.0800 
 33 H        5.0180     5.4930    -1.4650 H     1 <1>   0.3700 
 34 H        8.2820     6.1650    -0.0180 H     1 <1>   0.0800 
 35 H        8.1600     6.7210     1.6290 H     1 <1>   0.0800 
 36 H        4.8110    10.0330     0.2050 H     1 <1>   0.1500 
 37 H        3.1190     6.7830    -1.1520 H     1 <1>   0.0800 
 38 H        3.2860     8.3770    -1.8530 H     1 <1>   0.0800 
 39 H        2.6540     8.1900    -0.2330 H     1 <1>   0.0800 
 40 H        9.2050     8.8600     0.9910 H     1 <1>   0.0800 
 41 H        9.2290     8.3680    -0.6850 H     1 <1>   0.0800 
 42 H       10.7620     6.4990    -0.1070 H     1 <1>   0.0800 
 43 H       10.7320     6.9940     1.5640 H     1 <1>   0.0800 
 44 H       11.7670     8.6800    -0.7390 H     1 <1>   0.0800 
 45 H       12.7520     7.8470     0.4380 H     1 <1>   0.0800 
 46 H       11.7360     9.1760     0.9380 H     1 <1>   0.0800 
@<TRIPOS>BOND
  1   1   2  1   
  2   2   3  ar  
  3   2   4  ar  
  4   3   5  ar  
  5   3  26  1   
  6   4   6  ar  
  7   4  27  1   
  8   5   7  1   
  9   5   8  ar  
 10   6   8  ar  
 11   6  28  1   
 12   7   9  am  
 13   7  29  1   
 14   8  10  1   
 15   9  11  2   
 16   9  12  1   
 17  10  12  1   
 18  10  13  1   
 19  10  30  1   
 20  12  31  1   
 21  12  32  1   
 22  13  14  2   
 23  13  15  am  
 24  15  16  1   
 25  15  33  1   
 26  16  17  1   
 27  16  18  2   
 28  17  19  1   
 29  17  20  1   
 30  18  21  1   
 31  18  22  1   
 32  19  21  2   
 33  20  23  1   
 34  20  34  1   
 35  20  35  1   
 36  21  36  1   
 37  22  37  1   
 38  22  38  1   
 39  22  39  1   
 40  23  24  1   
 41  23  40  1   
 42  23  41  1   
 43  24  25  1   
 44  24  42  1   
 45  24  43  1   
 46  25  44  1   
 47  25  45  1   
 48  25  46  1   
@<TRIPOS>SUBSTRUCTURE
  1 ****  13 GROUP 4 **** **** 0

# MOE 2024.06 (io_trps.svl 2023.06)
