@<TRIPOS>MOLECULE
NONAME
51 53 1 0 0 
SMALL
USER_CHARGES


@<TRIPOS>ATOM
  1 F        2.2760     0.7190     2.3160 F     1 <1>  -0.1900 
  2 C        2.3510     1.3990     1.2030 C.ar  1 <1>   0.1900 
  3 C        2.0970     0.7660    -0.0010 C.ar  1 <1>   0.1600 
  4 C        2.6870     2.7310     1.2550 C.ar  1 <1>  -0.1500 
  5 N        2.1510     1.3860    -1.1740 N.ar  1 <1>  -0.6200 
  6 C        2.7610     3.3990     0.0400 C.ar  1 <1>   0.0860 
  7 C        2.4670     2.6740    -1.1170 C.ar  1 <1>   0.1600 
  8 C        3.1190     4.7970    -0.0350 C.2   1 <1>   0.5440 
  9 O        2.4860     5.6030     0.6180 O.2   1 <1>  -0.5700 
 10 N        4.1690     5.2460    -0.8080 N.am  1 <1>  -0.6600 
 11 C        5.2920     4.3900    -1.3000 C.3   1 <1>   0.1400 
 12 C        4.3250     6.6900    -1.1200 C.3   1 <1>   0.1400 
 13 C        6.5330     4.5120    -0.4040 C.3   1 <1>   0.1400 
 14 C        5.0130     7.4450     0.0230 C.3   1 <1>  -0.1600 
 15 N        7.0160     5.9300    -0.2410 N.am  1 <1>  -0.6600 
 16 C        6.1840     6.7230     0.7130 C.3   1 <1>   0.1400 
 17 C        8.1220     6.3550    -0.9480 C.2   1 <1>   0.5690 
 18 O        8.5670     5.6780    -1.8440 O.2   1 <1>  -0.5700 
 19 C        8.9550     7.6250    -0.6200 C.3   1 <1>   0.4840 
 20 N        9.5880     7.6440     0.7600 N.4   1 <1>  -0.9590 
 21 C        8.2250     8.9540    -0.8680 C.3   1 <1>  -0.1600 
 22 C       10.5590     8.7690     0.9030 C.3   1 <1>   0.3430 
 23 C       10.2570     6.3370     1.0580 C.3   1 <1>   0.2630 
 24 C        9.1690    10.1520    -0.7090 C.3   1 <1>  -0.1600 
 25 C        9.8570    10.1060     0.6610 C.3   1 <1>  -0.1600 
 26 H        1.8400    -0.2790     0.0050 H     1 <1>   0.1500 
 27 H        2.8780     3.2310     2.1870 H     1 <1>   0.1500 
 28 H        2.4990     3.2020    -2.0550 H     1 <1>   0.1500 
 29 H        5.5530     4.6750    -2.3050 H     1 <1>   0.0800 
 30 H        4.9960     3.3580    -1.3310 H     1 <1>   0.0800 
 31 H        3.3550     7.1230    -1.3010 H     1 <1>   0.0800 
 32 H        4.9020     6.7990    -2.0230 H     1 <1>   0.0800 
 33 H        7.3130     3.9020    -0.8250 H     1 <1>   0.0800 
 34 H        6.3040     4.0960     0.5620 H     1 <1>   0.0800 
 35 H        4.2710     7.6580     0.7730 H     1 <1>   0.0800 
 36 H        5.3290     8.3960    -0.3570 H     1 <1>   0.0800 
 37 H        5.7700     6.0520     1.4490 H     1 <1>   0.0800 
 38 H        6.7850     7.4340     1.2470 H     1 <1>   0.0800 
 39 H        9.7630     7.5980    -1.3310 H     1 <1>   0.0800 
 40 H        8.8320     7.7890     1.4390 H     1 <1>   0.4500 
 41 H        7.4120     9.0680    -0.1810 H     1 <1>   0.0800 
 42 H        7.8170     8.9520    -1.8650 H     1 <1>   0.0800 
 43 H       11.3590     8.6520     0.1890 H     1 <1>   0.0800 
 44 H       10.9880     8.7630     1.8930 H     1 <1>   0.0800 
 45 H       11.0270     6.1350     0.3310 H     1 <1>   0.0800 
 46 H        9.5400     5.5310     1.0280 H     1 <1>   0.0800 
 47 H       10.7040     6.3580     2.0390 H     1 <1>   0.0800 
 48 H        8.6150    11.0720    -0.8090 H     1 <1>   0.0800 
 49 H        9.9130    10.1340    -1.4890 H     1 <1>   0.0800 
 50 H       10.5850    10.8970     0.7180 H     1 <1>   0.0800 
 51 H        9.1360    10.2800     1.4430 H     1 <1>   0.0800 
@<TRIPOS>BOND
  1   1   2  1   
  2   2   3  ar  
  3   2   4  ar  
  4   3   5  ar  
  5   3  26  1   
  6   4   6  ar  
  7   4  27  1   
  8   5   7  ar  
  9   6   7  ar  
 10   6   8  1   
 11   7  28  1   
 12   8   9  2   
 13   8  10  am  
 14  10  11  1   
 15  10  12  1   
 16  11  13  1   
 17  11  29  1   
 18  11  30  1   
 19  12  14  1   
 20  12  31  1   
 21  12  32  1   
 22  13  15  1   
 23  13  33  1   
 24  13  34  1   
 25  14  16  1   
 26  14  35  1   
 27  14  36  1   
 28  15  16  1   
 29  15  17  am  
 30  16  37  1   
 31  16  38  1   
 32  17  18  2   
 33  17  19  1   
 34  19  20  1   
 35  19  21  1   
 36  19  39  1   
 37  20  22  1   
 38  20  23  1   
 39  20  40  1   
 40  21  24  1   
 41  21  41  1   
 42  21  42  1   
 43  22  25  1   
 44  22  43  1   
 45  22  44  1   
 46  23  45  1   
 47  23  46  1   
 48  23  47  1   
 49  24  25  1   
 50  24  48  1   
 51  24  49  1   
 52  25  50  1   
 53  25  51  1   
@<TRIPOS>SUBSTRUCTURE
  1 ****  13 GROUP 4 **** **** 0

# MOE 2024.06 (io_trps.svl 2023.06)
