@<TRIPOS>MOLECULE
NONAME
50 53 1 0 0 
SMALL
USER_CHARGES


@<TRIPOS>ATOM
  1 O       -0.6670    -1.5250    -0.9200 O.co2 1 <1>  -0.9000 
  2 C       -0.2080    -1.9590     0.1520 C.2   1 <1>   0.9790 
  3 O       -0.9230    -1.9040     1.1720 O.co2 1 <1>  -0.9000 
  4 C        1.1450    -2.4380     0.2280 C.ar  1 <1>  -0.1790 
  5 C        1.4510    -3.7990     0.0880 C.ar  1 <1>   0.4100 
  6 C        2.1890    -1.5520     0.4380 C.ar  1 <1>  -0.1500 
  7 N        2.6870    -4.2880     0.1470 N.ar  1 <1>  -0.6200 
  8 N        0.4840    -4.7550    -0.1310 N.pl3 1 <1>  -0.8380 
  9 C        3.4660    -2.0590     0.5000 C.ar  1 <1>  -0.1500 
 10 C        3.6580    -3.4210     0.3490 C.ar  1 <1>   0.1670 
 11 C       -0.4520    -5.0530     0.9880 C.3   1 <1>   0.2090 
 12 C       -0.0520    -4.8480    -1.5110 C.3   1 <1>   0.2090 
 13 C        5.0520    -4.0040     0.4120 C.3   1 <1>  -0.0970 
 14 C       -1.8980    -5.1490     0.5010 C.3   1 <1>  -0.1600 
 15 C       -0.8490    -6.1420    -1.6210 C.3   1 <1>  -0.1600 
 16 C       -2.0790    -6.1140    -0.6920 C.3   1 <1>   0.4240 
 17 O       -3.1090    -5.5940    -1.4980 O.3   1 <1>  -0.5600 
 18 C       -2.4500    -7.5360    -0.2020 C.ar  1 <1>  -0.1430 
 19 C       -4.4090    -5.7220    -1.0200 C.3   1 <1>   0.1200 
 20 C       -3.7370    -8.0420    -0.3700 C.ar  1 <1>  -0.1430 
 21 C       -1.5080    -8.3330     0.4410 C.ar  1 <1>  -0.1500 
 22 C       -4.7940    -7.1980    -1.0580 C.3   1 <1>  -0.0170 
 23 C       -4.0650    -9.3110     0.0820 C.ar  1 <1>  -0.1500 
 24 C       -1.8340    -9.5980     0.8950 C.ar  1 <1>  -0.1500 
 25 C       -3.1110   -10.0980     0.7190 C.ar  1 <1>   0.0830 
 26 O       -3.3510   -11.3470     1.1910 O.3   1 <1>  -0.3620 
 27 C       -4.6100   -11.9610     1.0320 C.3   1 <1>   0.0400 
 28 H        1.9850    -0.5010     0.5470 H     1 <1>   0.1500 
 29 H        4.2970    -1.4000     0.6620 H     1 <1>   0.1500 
 30 H       -0.3790    -4.2870     1.7420 H     1 <1>   0.0800 
 31 H       -0.1530    -5.9780     1.4440 H     1 <1>   0.0800 
 32 H        0.7680    -4.8520    -2.2090 H     1 <1>   0.0800 
 33 H       -0.6800    -3.9970    -1.7250 H     1 <1>   0.0800 
 34 H        5.1010    -4.7200     1.2120 H     1 <1>   0.0800 
 35 H        5.7870    -3.2390     0.5800 H     1 <1>   0.0800 
 36 H        5.2700    -4.5030    -0.5140 H     1 <1>   0.0800 
 37 H       -2.1980    -4.1550     0.2120 H     1 <1>   0.0800 
 38 H       -2.5200    -5.4520     1.3210 H     1 <1>   0.0800 
 39 H       -0.1840    -6.9440    -1.3690 H     1 <1>   0.0800 
 40 H       -1.1620    -6.2970    -2.6360 H     1 <1>   0.0800 
 41 H       -5.0530    -5.1440    -1.6600 H     1 <1>   0.0800 
 42 H       -4.4640    -5.3260    -0.0210 H     1 <1>   0.0800 
 43 H       -0.5050    -7.9760     0.5940 H     1 <1>   0.1500 
 44 H       -4.8880    -7.5090    -2.0830 H     1 <1>   0.0800 
 45 H       -5.7460    -7.3260    -0.5770 H     1 <1>   0.0800 
 46 H       -5.0630    -9.6720    -0.0690 H     1 <1>   0.1500 
 47 H       -1.0980   -10.2050     1.3880 H     1 <1>   0.1500 
 48 H       -4.5600   -12.9420     1.4680 H     1 <1>   0.0800 
 49 H       -4.8300   -12.0380    -0.0180 H     1 <1>   0.0800 
 50 H       -5.3520   -11.3720     1.5410 H     1 <1>   0.0800 
@<TRIPOS>BOND
  1   1   2  ar  
  2   2   3  ar  
  3   2   4  1   
  4   4   5  ar  
  5   4   6  ar  
  6   5   7  ar  
  7   5   8  1   
  8   6   9  ar  
  9   6  28  1   
 10   7  10  ar  
 11   8  11  1   
 12   8  12  1   
 13   9  10  ar  
 14   9  29  1   
 15  10  13  1   
 16  11  14  1   
 17  11  30  1   
 18  11  31  1   
 19  12  15  1   
 20  12  32  1   
 21  12  33  1   
 22  13  34  1   
 23  13  35  1   
 24  13  36  1   
 25  14  16  1   
 26  14  37  1   
 27  14  38  1   
 28  15  16  1   
 29  15  39  1   
 30  15  40  1   
 31  16  17  1   
 32  16  18  1   
 33  17  19  1   
 34  18  20  ar  
 35  18  21  ar  
 36  19  22  1   
 37  19  41  1   
 38  19  42  1   
 39  20  22  1   
 40  20  23  ar  
 41  21  24  ar  
 42  21  43  1   
 43  22  44  1   
 44  22  45  1   
 45  23  25  ar  
 46  23  46  1   
 47  24  25  ar  
 48  24  47  1   
 49  25  26  1   
 50  26  27  1   
 51  27  48  1   
 52  27  49  1   
 53  27  50  1   
@<TRIPOS>SUBSTRUCTURE
  1 ****  11 GROUP 4 **** **** 0

# MOE 2024.06 (io_trps.svl 2023.06)
