@<TRIPOS>MOLECULE
NONAME
48 51 1 0 0 
SMALL
USER_CHARGES


@<TRIPOS>ATOM
  1 O        1.0280    -0.0220     2.2940 O.2   1 <1>  -0.5700 
  2 C        1.2730     0.1060     1.1060 C.2   1 <1>   0.5440 
  3 N        0.3460     0.7260     0.3000 N.am  1 <1>  -0.6600 
  4 C        2.5320    -0.3430     0.5730 C.ar  1 <1>   0.0860 
  5 C        0.3630     0.6350    -1.1760 C.3   1 <1>   0.1400 
  6 C       -0.9520     1.2360     0.7890 C.3   1 <1>   0.1400 
  7 C        2.6840    -1.6150    -0.0120 C.ar  1 <1>   0.4100 
  8 C        3.6360     0.4970     0.6100 C.ar  1 <1>  -0.1500 
  9 C       -0.9380     1.2930    -1.6230 C.3   1 <1>  -0.1600 
 10 C       -1.8730     1.1640    -0.4230 C.3   1 <1>  -0.1600 
 11 N        3.8250    -2.0380    -0.5580 N.ar  1 <1>  -0.6200 
 12 N        1.6460    -2.5300    -0.0400 N.pl3 1 <1>  -0.8380 
 13 C        4.8130     0.0490     0.0580 C.ar  1 <1>  -0.1500 
 14 C        4.8500    -1.2110    -0.5100 C.ar  1 <1>   0.1600 
 15 C        1.2970    -3.1910     1.2620 C.3   1 <1>   0.2090 
 16 C        1.4480    -3.3840    -1.2470 C.3   1 <1>   0.1290 
 17 C       -0.1900    -3.5620     1.4480 C.3   1 <1>   0.2000 
 18 O       -0.5520    -4.6890     0.6520 O.3   1 <1>  -0.3630 
 19 C       -1.2100    -2.4550     1.1150 C.3   1 <1>  -0.0170 
 20 C       -1.7820    -4.4940     0.1460 C.ar  1 <1>   0.0830 
 21 C       -2.2610    -3.2320     0.3800 C.ar  1 <1>  -0.1430 
 22 C       -2.5280    -5.4350    -0.5380 C.ar  1 <1>  -0.1500 
 23 C       -3.5190    -2.8640    -0.0570 C.ar  1 <1>  -0.1500 
 24 C       -3.7910    -5.0770    -0.9840 C.ar  1 <1>  -0.1500 
 25 C       -4.2840    -3.7990    -0.7430 C.ar  1 <1>  -0.1500 
 26 H        0.3770    -0.4030    -1.4660 H     1 <1>   0.0800 
 27 H        1.2220     1.1380    -1.5840 H     1 <1>   0.0800 
 28 H       -0.8270     2.2550     1.1110 H     1 <1>   0.0800 
 29 H       -1.3240     0.6430     1.6080 H     1 <1>   0.0800 
 30 H        3.5600     1.4710     1.0610 H     1 <1>   0.1500 
 31 H       -1.3380     0.8250    -2.5060 H     1 <1>   0.0800 
 32 H       -0.7510     2.3320    -1.8310 H     1 <1>   0.0800 
 33 H       -2.6240     1.9340    -0.4010 H     1 <1>   0.0800 
 34 H       -2.3550     0.2030    -0.4390 H     1 <1>   0.0800 
 35 H        5.6940     0.6660     0.0630 H     1 <1>   0.1500 
 36 H        5.7730    -1.5550    -0.9450 H     1 <1>   0.1500 
 37 H        1.5720    -2.5330     2.0670 H     1 <1>   0.0800 
 38 H        1.8910    -4.0820     1.3720 H     1 <1>   0.0800 
 39 H        1.9210    -2.9370    -2.1040 H     1 <1>   0.0800 
 40 H        0.3970    -3.4890    -1.4540 H     1 <1>   0.0800 
 41 H        1.8760    -4.3580    -1.0830 H     1 <1>   0.0800 
 42 H       -0.3390    -3.8680     2.4680 H     1 <1>   0.0800 
 43 H       -0.7900    -1.7180     0.4610 H     1 <1>   0.0800 
 44 H       -1.5830    -1.9840     2.0050 H     1 <1>   0.0800 
 45 H       -2.1260    -6.4170    -0.7100 H     1 <1>   0.1500 
 46 H       -3.8970    -1.8750     0.1270 H     1 <1>   0.1500 
 47 H       -4.3930    -5.7910    -1.5170 H     1 <1>   0.1500 
 48 H       -5.2670    -3.5320    -1.0910 H     1 <1>   0.1500 
@<TRIPOS>BOND
  1   1   2  2   
  2   2   3  am  
  3   2   4  1   
  4   3   5  1   
  5   3   6  1   
  6   4   7  ar  
  7   4   8  ar  
  8   5   9  1   
  9   5  26  1   
 10   5  27  1   
 11   6  10  1   
 12   6  28  1   
 13   6  29  1   
 14   7  11  ar  
 15   7  12  1   
 16   8  13  ar  
 17   8  30  1   
 18   9  10  1   
 19   9  31  1   
 20   9  32  1   
 21  10  33  1   
 22  10  34  1   
 23  11  14  ar  
 24  12  15  1   
 25  12  16  1   
 26  13  14  ar  
 27  13  35  1   
 28  14  36  1   
 29  15  17  1   
 30  15  37  1   
 31  15  38  1   
 32  16  39  1   
 33  16  40  1   
 34  16  41  1   
 35  17  18  1   
 36  17  19  1   
 37  17  42  1   
 38  18  20  1   
 39  19  21  1   
 40  19  43  1   
 41  19  44  1   
 42  20  21  ar  
 43  20  22  ar  
 44  21  23  ar  
 45  22  24  ar  
 46  22  45  1   
 47  23  25  ar  
 48  23  46  1   
 49  24  25  ar  
 50  24  47  1   
 51  25  48  1   
@<TRIPOS>SUBSTRUCTURE
  1 ****  12 GROUP 4 **** **** 0

# MOE 2024.06 (io_trps.svl 2023.06)
