@<TRIPOS>MOLECULE
NONAME
44 46 1 0 0 
SMALL
USER_CHARGES


@<TRIPOS>ATOM
  1 F        2.1150    -0.1980     2.4220 F     1 <1>  -0.1900 
  2 C        2.7310    -0.4140     1.2860 C.ar  1 <1>   0.1900 
  3 C        2.9430    -1.7210     0.8690 C.ar  1 <1>   0.0830 
  4 C        3.1510     0.6690     0.5400 C.ar  1 <1>  -0.1500 
  5 O        2.5330    -2.7700     1.6070 O.3   1 <1>  -0.5330 
  6 C        3.5910    -1.9400    -0.3340 C.ar  1 <1>  -0.1500 
  7 C        3.8120     0.4450    -0.6620 C.ar  1 <1>  -0.1440 
  8 C        4.0190    -0.8620    -1.0940 C.ar  1 <1>  -0.1500 
  9 C        4.3050     1.6230    -1.5000 C.3   1 <1>   0.0440 
 10 C        5.0820     2.6610    -0.6960 C.2   1 <1>   0.5690 
 11 O        4.7740     3.8210    -0.8380 O.2   1 <1>  -0.5700 
 12 N        6.1210     2.3240     0.1390 N.am  1 <1>  -0.6600 
 13 C        6.5340     3.2570     1.2400 C.3   1 <1>   0.1400 
 14 C        6.8980     1.0520     0.0660 C.3   1 <1>   0.1400 
 15 C        7.9780     3.8210     1.1340 C.3   1 <1>   0.4230 
 16 C        8.3670     1.3170    -0.3310 C.3   1 <1>  -0.0800 
 17 N        8.5500     3.9070    -0.2690 N.4   1 <1>  -0.9590 
 18 C        8.9450     3.0970     2.0960 C.3   1 <1>   0.1200 
 19 C        9.3600     1.1320     0.8280 C.3   1 <1>   0.1200 
 20 C        8.5480     2.6430    -1.0910 C.3   1 <1>   0.3430 
 21 C        7.8450     4.9840    -1.0340 C.3   1 <1>   0.2630 
 22 O        8.8770     1.7100     1.9940 O.3   1 <1>  -0.5600 
 23 H        2.9620     1.6650     0.9000 H     1 <1>   0.1500 
 24 H        2.0760    -2.4840     2.4220 H     1 <1>   0.4500 
 25 H        3.7540    -2.9500    -0.6680 H     1 <1>   0.1500 
 26 H        4.5150    -1.0550    -2.0300 H     1 <1>   0.1500 
 27 H        3.4490     2.1030    -1.9400 H     1 <1>   0.0800 
 28 H        4.9260     1.2790    -2.3050 H     1 <1>   0.0800 
 29 H        5.8560     4.0920     1.2750 H     1 <1>   0.0800 
 30 H        6.4180     2.7470     2.1810 H     1 <1>   0.0800 
 31 H        6.8400     0.5380     1.0130 H     1 <1>   0.0800 
 32 H        6.4630     0.4000    -0.6690 H     1 <1>   0.0800 
 33 H        7.9260     4.8290     1.5110 H     1 <1>   0.0800 
 34 H        8.6200     0.5470    -1.0380 H     1 <1>   0.0800 
 35 H        9.5310     4.1920    -0.1630 H     1 <1>   0.4500 
 36 H        8.6680     3.3370     3.1080 H     1 <1>   0.0800 
 37 H        9.9620     3.4130     1.9500 H     1 <1>   0.0800 
 38 H       10.3350     1.5310     0.6030 H     1 <1>   0.0800 
 39 H        9.4700     0.0800     1.0360 H     1 <1>   0.0800 
 40 H        7.7520     2.7040    -1.8150 H     1 <1>   0.0800 
 41 H        9.4710     2.5950    -1.6460 H     1 <1>   0.0800 
 42 H        6.8080     4.7270    -1.1750 H     1 <1>   0.0800 
 43 H        8.2970     5.1180    -2.0030 H     1 <1>   0.0800 
 44 H        7.8930     5.9200    -0.5020 H     1 <1>   0.0800 
@<TRIPOS>BOND
  1   1   2  1   
  2   2   3  ar  
  3   2   4  ar  
  4   3   5  1   
  5   3   6  ar  
  6   4   7  ar  
  7   4  23  1   
  8   5  24  1   
  9   6   8  ar  
 10   6  25  1   
 11   7   8  ar  
 12   7   9  1   
 13   8  26  1   
 14   9  10  1   
 15   9  27  1   
 16   9  28  1   
 17  10  11  2   
 18  10  12  am  
 19  12  13  1   
 20  12  14  1   
 21  13  15  1   
 22  13  29  1   
 23  13  30  1   
 24  14  16  1   
 25  14  31  1   
 26  14  32  1   
 27  15  17  1   
 28  15  18  1   
 29  15  33  1   
 30  16  19  1   
 31  16  20  1   
 32  16  34  1   
 33  17  20  1   
 34  17  21  1   
 35  17  35  1   
 36  18  22  1   
 37  18  36  1   
 38  18  37  1   
 39  19  22  1   
 40  19  38  1   
 41  19  39  1   
 42  20  40  1   
 43  20  41  1   
 44  21  42  1   
 45  21  43  1   
 46  21  44  1   
@<TRIPOS>SUBSTRUCTURE
  1 ****  12 GROUP 4 **** **** 0

# MOE 2024.06 (io_trps.svl 2023.06)
