@<TRIPOS>MOLECULE
NONAME
24 24 1 0 0 
SMALL
USER_CHARGES


@<TRIPOS>ATOM
  1 N        0.1490     8.2100    -1.3630 N.4   1 <1>  -0.8530 
  2 C       -0.1200     7.6190    -0.0570 C.3   1 <1>   0.5660 
  3 C       -0.2160     6.1180    -0.2740 C.ar  1 <1>  -0.1430 
  4 C       -1.3890     8.2360     0.5180 C.3   1 <1>  -0.2400 
  5 C        0.7770     5.2700     0.2150 C.ar  1 <1>  -0.1430 
  6 C       -1.2850     5.5750    -0.9820 C.ar  1 <1>  -0.1500 
  7 C        0.6860     3.9060    -0.0180 C.ar  1 <1>  -0.1500 
  8 C        1.9720     5.7790     1.0140 C.3   1 <1>  -0.0970 
  9 C       -1.3640     4.2130    -1.2080 C.ar  1 <1>  -0.1500 
 10 C       -0.3760     3.3780    -0.7270 C.ar  1 <1>  -0.1500 
 11 H        0.2990     9.2190    -1.2990 H     1 <1>   0.4500 
 12 H       -0.6390     8.0100    -1.9820 H     1 <1>   0.4500 
 13 H        0.9730     7.7500    -1.7600 H     1 <1>   0.4500 
 14 H        0.6990     7.8320     0.6120 H     1 <1>   0.0800 
 15 H       -2.2300     8.1260    -0.1420 H     1 <1>   0.0800 
 16 H       -1.2390     9.2790     0.7330 H     1 <1>   0.0800 
 17 H       -1.6300     7.7430     1.4440 H     1 <1>   0.0800 
 18 H       -2.0800     6.1880    -1.3690 H     1 <1>   0.1500 
 19 H        1.4430     3.2350     0.3520 H     1 <1>   0.1500 
 20 H        2.6130     4.9630     1.3050 H     1 <1>   0.0800 
 21 H        1.6420     6.2660     1.9140 H     1 <1>   0.0800 
 22 H        2.5600     6.4620     0.4290 H     1 <1>   0.0800 
 23 H       -2.1940     3.7970    -1.7540 H     1 <1>   0.1500 
 24 H       -0.4350     2.3170    -0.9000 H     1 <1>   0.1500 
@<TRIPOS>BOND
  1   1   2  1   
  2   1  11  1   
  3   1  12  1   
  4   1  13  1   
  5   2   3  1   
  6   2   4  1   
  7   2  14  1   
  8   3   5  ar  
  9   3   6  ar  
 10   4  15  1   
 11   4  16  1   
 12   4  17  1   
 13   5   7  ar  
 14   5   8  1   
 15   6   9  ar  
 16   6  18  1   
 17   7  10  ar  
 18   7  19  1   
 19   8  20  1   
 20   8  21  1   
 21   8  22  1   
 22   9  10  ar  
 23   9  23  1   
 24  10  24  1   
@<TRIPOS>SUBSTRUCTURE
  1 ****   3 GROUP 4 **** **** 0

# MOE 2024.06 (io_trps.svl 2023.06)
