@<TRIPOS>MOLECULE
NONAME
47 49 1 0 0 
SMALL
USER_CHARGES


@<TRIPOS>ATOM
  1 O        2.7100     1.9670     2.3420 O.co2 1 <1>  -0.9000 
  2 C        3.1390     0.9580     1.7870 C.2   1 <1>   0.9060 
  3 O        3.8730     0.1600     2.3950 O.co2 1 <1>  -0.9000 
  4 C        2.8050     0.6860     0.3060 C.3   1 <1>  -0.1060 
  5 C        4.0010    -0.0380    -0.3370 C.3   1 <1>   0.4230 
  6 C        2.6030     2.0030    -0.4890 C.3   1 <1>  -0.1600 
  7 C        1.5260    -0.1750     0.1740 C.3   1 <1>  -0.1600 
  8 N        4.1760    -1.3960     0.2860 N.4   1 <1>  -0.9590 
  9 C        5.2680     0.8520    -0.2500 C.3   1 <1>   0.1100 
 10 C        3.8390     2.9060    -0.4330 C.3   1 <1>   0.1100 
 11 C        1.7470    -1.5930     0.7180 C.3   1 <1>  -0.1600 
 12 C        2.9800    -2.2570     0.1040 C.3   1 <1>   0.3430 
 13 C        5.4390    -2.1040    -0.0500 C.3   1 <1>   0.2630 
 14 N        5.0590     2.1830    -0.8590 N.3   1 <1>  -0.8100 
 15 C        6.2870     3.0220    -0.8580 C.3   1 <1>   0.2900 
 16 C        6.3120     4.2510     0.0550 C.2   1 <1>   0.0060 
 17 N        6.4540     5.4410    -0.4190 N.2   1 <1>  -0.5650 
 18 N        6.2390     4.2740     1.4020 N.pl3 1 <1>   0.3140 
 19 C        6.4650     6.1800     0.6930 C.2   1 <1>   0.3660 
 20 N        6.3520     5.5370     1.8030 N.2   1 <1>  -0.7070 
 21 C        6.0610     3.1910     2.3980 C.3   1 <1>   0.0960 
 22 C        7.3510     2.3860     2.6000 C.3   1 <1>  -0.2400 
 23 H        3.7840    -0.1730    -1.3820 H     1 <1>   0.0800 
 24 H        1.7720     2.5470    -0.0730 H     1 <1>   0.0800 
 25 H        2.3750     1.7970    -1.5190 H     1 <1>   0.0800 
 26 H        0.7230     0.2970     0.7160 H     1 <1>   0.0800 
 27 H        1.2330    -0.2370    -0.8600 H     1 <1>   0.0800 
 28 H        4.1910    -1.1320     1.3080 H     1 <1>   0.4500 
 29 H        6.0650     0.3710    -0.7860 H     1 <1>   0.0800 
 30 H        5.5700     0.9610     0.7740 H     1 <1>   0.0800 
 31 H        3.9410     3.2760     0.5710 H     1 <1>   0.0800 
 32 H        3.6890     3.7580    -1.0740 H     1 <1>   0.0800 
 33 H        0.8800    -2.1950     0.5110 H     1 <1>   0.0800 
 34 H        1.8620    -1.5580     1.7890 H     1 <1>   0.0800 
 35 H        2.8130    -2.4260    -0.9470 H     1 <1>   0.0800 
 36 H        3.1400    -3.2100     0.5830 H     1 <1>   0.0800 
 37 H        5.4900    -2.2940    -1.1090 H     1 <1>   0.0800 
 38 H        5.4860    -3.0420     0.4770 H     1 <1>   0.0800 
 39 H        6.2880    -1.5090     0.2430 H     1 <1>   0.0800 
 40 H        7.1490     2.4170    -0.6400 H     1 <1>   0.0800 
 41 H        6.4190     3.3830    -1.8630 H     1 <1>   0.0800 
 42 H        6.5690     7.2520     0.6400 H     1 <1>   0.1500 
 43 H        5.7680     3.6410     3.3300 H     1 <1>   0.0800 
 44 H        5.2560     2.5550     2.0940 H     1 <1>   0.0800 
 45 H        8.1330     3.0310     2.9600 H     1 <1>   0.0800 
 46 H        7.6600     1.9200     1.6840 H     1 <1>   0.0800 
 47 H        7.1750     1.6180     3.3330 H     1 <1>   0.0800 
@<TRIPOS>BOND
  1   1   2  ar  
  2   2   3  ar  
  3   2   4  1   
  4   4   5  1   
  5   4   6  1   
  6   4   7  1   
  7   5   8  1   
  8   5   9  1   
  9   5  23  1   
 10   6  10  1   
 11   6  24  1   
 12   6  25  1   
 13   7  11  1   
 14   7  26  1   
 15   7  27  1   
 16   8  12  1   
 17   8  13  1   
 18   8  28  1   
 19   9  14  1   
 20   9  29  1   
 21   9  30  1   
 22  10  14  1   
 23  10  31  1   
 24  10  32  1   
 25  11  12  1   
 26  11  33  1   
 27  11  34  1   
 28  12  35  1   
 29  12  36  1   
 30  13  37  1   
 31  13  38  1   
 32  13  39  1   
 33  14  15  1   
 34  15  16  1   
 35  15  40  1   
 36  15  41  1   
 37  16  17  2   
 38  16  18  1   
 39  17  19  1   
 40  18  20  1   
 41  18  21  1   
 42  19  20  2   
 43  19  42  1   
 44  21  22  1   
 45  21  43  1   
 46  21  44  1   
 47  22  45  1   
 48  22  46  1   
 49  22  47  1   
@<TRIPOS>SUBSTRUCTURE
  1 ****   9 GROUP 4 **** **** 0

# MOE 2024.06 (io_trps.svl 2023.06)
