@<TRIPOS>MOLECULE
NONAME
47 49 1 0 0 
SMALL
USER_CHARGES


@<TRIPOS>ATOM
  1 CL       0.9380    -1.3220     1.6120 Cl    1 <1>  -0.1770 
  2 C       -0.2420    -1.7220     0.3930 C.ar  1 <1>   0.1770 
  3 C       -1.0230    -2.8540     0.5640 C.ar  1 <1>  -0.1500 
  4 C       -0.3760    -0.9020    -0.7150 C.ar  1 <1>  -0.1500 
  5 C       -1.9710    -3.1830    -0.3980 C.ar  1 <1>  -0.1440 
  6 C       -1.3150    -1.2210    -1.6820 C.ar  1 <1>  -0.1500 
  7 C       -2.0910    -2.3530    -1.5040 C.ar  1 <1>   0.1900 
  8 C       -2.8500    -4.4110    -0.2570 C.3   1 <1>   0.4870 
  9 F       -2.9780    -2.6470    -2.4160 F     1 <1>  -0.1900 
 10 N       -4.2530    -3.9950    -0.0080 N.4   1 <1>  -0.9590 
 11 C       -4.4390    -3.1240     1.1900 C.3   1 <1>   0.3430 
 12 C       -5.2300    -5.1080    -0.0680 C.3   1 <1>   0.3430 
 13 C       -5.9170    -2.7600     1.3830 C.3   1 <1>  -0.1600 
 14 C       -6.6590    -4.5540    -0.1620 C.3   1 <1>  -0.1600 
 15 C       -6.7850    -3.0490     0.1420 C.3   1 <1>   0.2800 
 16 O       -6.2160    -2.4020    -0.9640 O.3   1 <1>  -0.5600 
 17 C       -8.2780    -2.6640     0.3230 C.3   1 <1>  -0.1600 
 18 C       -6.3090    -0.9980    -1.0900 C.3   1 <1>   0.1200 
 19 C       -8.7470    -1.4540    -0.5020 C.3   1 <1>   0.2800 
 20 C       -7.6260    -0.3930    -0.5650 C.3   1 <1>   0.2000 
 21 O       -9.0150    -1.8820    -1.7870 O.3   1 <1>  -0.6800 
 22 C      -10.0740    -0.8950     0.0240 C.3   1 <1>  -0.2400 
 23 O       -7.3910     0.1480     0.7040 O.3   1 <1>  -0.6800 
 24 H       -0.8730    -3.4570     1.4430 H     1 <1>   0.1500 
 25 H        0.2490    -0.0310    -0.8160 H     1 <1>   0.1500 
 26 H       -1.4430    -0.6070    -2.5570 H     1 <1>   0.1500 
 27 H       -2.4970    -5.0250     0.5550 H     1 <1>   0.0800 
 28 H       -2.7970    -4.9860    -1.1680 H     1 <1>   0.0800 
 29 H       -4.5380    -3.3770    -0.7980 H     1 <1>   0.4500 
 30 H       -4.0690    -3.6160     2.0740 H     1 <1>   0.0800 
 31 H       -3.8760    -2.2140     1.0520 H     1 <1>   0.0800 
 32 H       -5.0360    -5.7280    -0.9290 H     1 <1>   0.0800 
 33 H       -5.1360    -5.7170     0.8170 H     1 <1>   0.0800 
 34 H       -5.9870    -1.7280     1.6720 H     1 <1>   0.0800 
 35 H       -6.2970    -3.3280     2.2130 H     1 <1>   0.0800 
 36 H       -7.2650    -5.1140     0.5270 H     1 <1>   0.0800 
 37 H       -7.0530    -4.7460    -1.1450 H     1 <1>   0.0800 
 38 H       -8.9220    -3.4990     0.1140 H     1 <1>   0.0800 
 39 H       -8.4300    -2.4360     1.3630 H     1 <1>   0.0800 
 40 H       -5.4640    -0.5490    -0.5990 H     1 <1>   0.0800 
 41 H       -6.2360    -0.7910    -2.1430 H     1 <1>   0.0800 
 42 H       -7.9230     0.4240    -1.2000 H     1 <1>   0.0800 
 43 H       -9.7730    -2.4950    -1.7850 H     1 <1>   0.4000 
 44 H       -9.9670    -0.5560     1.0380 H     1 <1>   0.0800 
 45 H      -10.8380    -1.6520     0.0100 H     1 <1>   0.0800 
 46 H      -10.3930    -0.0620    -0.5780 H     1 <1>   0.0800 
 47 H       -8.1530     0.6960     0.9780 H     1 <1>   0.4000 
@<TRIPOS>BOND
  1   1   2  1   
  2   2   3  ar  
  3   2   4  ar  
  4   3   5  ar  
  5   3  24  1   
  6   4   6  ar  
  7   4  25  1   
  8   5   7  ar  
  9   5   8  1   
 10   6   7  ar  
 11   6  26  1   
 12   7   9  1   
 13   8  10  1   
 14   8  27  1   
 15   8  28  1   
 16  10  11  1   
 17  10  12  1   
 18  10  29  1   
 19  11  13  1   
 20  11  30  1   
 21  11  31  1   
 22  12  14  1   
 23  12  32  1   
 24  12  33  1   
 25  13  15  1   
 26  13  34  1   
 27  13  35  1   
 28  14  15  1   
 29  14  36  1   
 30  14  37  1   
 31  15  16  1   
 32  15  17  1   
 33  16  18  1   
 34  17  19  1   
 35  17  38  1   
 36  17  39  1   
 37  18  20  1   
 38  18  40  1   
 39  18  41  1   
 40  19  20  1   
 41  19  21  1   
 42  19  22  1   
 43  20  23  1   
 44  20  42  1   
 45  21  43  1   
 46  22  44  1   
 47  22  45  1   
 48  22  46  1   
 49  23  47  1   
@<TRIPOS>SUBSTRUCTURE
  1 ****  16 GROUP 4 **** **** 0

# MOE 2024.06 (io_trps.svl 2023.06)
