@<TRIPOS>MOLECULE
NONAME
43 44 1 0 0 
SMALL
USER_CHARGES


@<TRIPOS>ATOM
  1 O        1.2020     0.1670    -1.5720 O.2   1 <1>  -0.5700 
  2 C        1.6130    -0.6250    -0.7430 C.2   1 <1>   0.7150 
  3 N        2.2890    -0.1410     0.3520 N.am  1 <1>  -0.6600 
  4 C        1.4390    -2.0350    -0.9400 C.2   1 <1>  -0.2370 
  5 C        2.3530     1.3280     0.6270 C.3   1 <1>   0.1400 
  6 C        3.3590    -0.9460     1.0110 C.3   1 <1>   0.1400 
  7 N        0.4490    -2.8020    -0.3660 N.pl3 1 <1>   0.0480 
  8 C        2.2120    -2.8580    -1.7180 C.2   1 <1>  -0.1500 
  9 C        3.6460     1.9250     0.0250 C.3   1 <1>   0.2800 
 10 C        4.5980    -0.0860     1.3230 C.3   1 <1>  -0.1600 
 11 C        0.6380    -4.0820    -0.7810 C.2   1 <1>  -0.3020 
 12 C       -0.6890    -2.4010     0.5130 C.3   1 <1>   0.1760 
 13 C        1.7100    -4.1490    -1.6120 C.2   1 <1>  -0.1500 
 14 O        3.4470     2.0330    -1.3380 O.3   1 <1>  -0.6800 
 15 C        4.8560     0.9760     0.2330 C.3   1 <1>  -0.1600 
 16 C        3.9420     3.3390     0.5670 C.3   1 <1>  -0.1600 
 17 C       -1.5420    -1.2960    -0.1230 C.3   1 <1>  -0.2400 
 18 C       -0.2060    -2.0060     1.9120 C.3   1 <1>  -0.2400 
 19 C        2.8110     4.3650     0.3730 C.3   1 <1>  -0.2400 
 20 H        2.3480     1.4780     1.6920 H     1 <1>   0.0800 
 21 H        1.4890     1.8310     0.2260 H     1 <1>   0.0800 
 22 H        3.6580    -1.7470     0.3570 H     1 <1>   0.0800 
 23 H        2.9750    -1.3840     1.9170 H     1 <1>   0.0800 
 24 H        3.0610    -2.5690    -2.3130 H     1 <1>   0.1500 
 25 H        5.4560    -0.7280     1.4180 H     1 <1>   0.0800 
 26 H        4.4600     0.4010     2.2730 H     1 <1>   0.0800 
 27 H       -0.0030    -4.8900    -0.4750 H     1 <1>   0.1500 
 28 H       -1.3170    -3.2690     0.6190 H     1 <1>   0.0800 
 29 H        2.1090    -5.0190    -2.1060 H     1 <1>   0.1500 
 30 H        2.7800     1.3590    -1.6090 H     1 <1>   0.4000 
 31 H        5.7330     1.5410     0.4930 H     1 <1>   0.0800 
 32 H        5.0710     0.4570    -0.6860 H     1 <1>   0.0800 
 33 H        4.8290     3.7100     0.0820 H     1 <1>   0.0800 
 34 H        4.1610     3.2660     1.6180 H     1 <1>   0.0800 
 35 H       -1.0160    -0.3600    -0.1450 H     1 <1>   0.0800 
 36 H       -2.4430    -1.1580     0.4470 H     1 <1>   0.0800 
 37 H       -1.8140    -1.5710    -1.1270 H     1 <1>   0.0800 
 38 H        0.3360    -1.0800     1.8860 H     1 <1>   0.0800 
 39 H        0.4230    -2.7780     2.3190 H     1 <1>   0.0800 
 40 H       -1.0510    -1.8780     2.5640 H     1 <1>   0.0800 
 41 H        2.5640     4.4550    -0.6710 H     1 <1>   0.0800 
 42 H        3.1290     5.3300     0.7270 H     1 <1>   0.0800 
 43 H        1.9280     4.0800     0.9150 H     1 <1>   0.0800 
@<TRIPOS>BOND
  1   1   2  2   
  2   2   3  am  
  3   2   4  1   
  4   3   5  1   
  5   3   6  1   
  6   4   7  1   
  7   4   8  2   
  8   5   9  1   
  9   5  20  1   
 10   5  21  1   
 11   6  10  1   
 12   6  22  1   
 13   6  23  1   
 14   7  11  1   
 15   7  12  1   
 16   8  13  1   
 17   8  24  1   
 18   9  14  1   
 19   9  15  1   
 20   9  16  1   
 21  10  15  1   
 22  10  25  1   
 23  10  26  1   
 24  11  13  2   
 25  11  27  1   
 26  12  17  1   
 27  12  18  1   
 28  12  28  1   
 29  13  29  1   
 30  14  30  1   
 31  15  31  1   
 32  15  32  1   
 33  16  19  1   
 34  16  33  1   
 35  16  34  1   
 36  17  35  1   
 37  17  36  1   
 38  17  37  1   
 39  18  38  1   
 40  18  39  1   
 41  18  40  1   
 42  19  41  1   
 43  19  42  1   
 44  19  43  1   
@<TRIPOS>SUBSTRUCTURE
  1 ****   3 GROUP 4 **** **** 0

# MOE 2024.06 (io_trps.svl 2023.06)
