@<TRIPOS>MOLECULE
NONAME
52 54 1 0 0 
SMALL
USER_CHARGES


@<TRIPOS>ATOM
  1 CL       0.2600    -2.1760    -2.1430 Cl    1 <1>  -0.1770 
  2 C       -0.1980    -3.7130    -1.4410 C.ar  1 <1>   0.1770 
  3 C       -1.3070    -3.8160    -0.6100 C.ar  1 <1>  -0.1440 
  4 C        0.5890    -4.8060    -1.7530 C.ar  1 <1>  -0.1500 
  5 C       -1.6380    -5.0770    -0.0990 C.ar  1 <1>   0.1170 
  6 C       -2.1280    -2.5710    -0.2720 C.3   1 <1>  -0.0970 
  7 C        0.2700    -6.0440    -1.2290 C.ar  1 <1>  -0.1500 
  8 N       -2.7430    -5.3070     0.7310 N.am  1 <1>  -0.5470 
  9 C       -0.8360    -6.1710    -0.4100 C.ar  1 <1>  -0.1500 
 10 C       -4.0660    -5.0990     0.4660 C.2   1 <1>   0.5690 
 11 O       -4.4770    -4.6210    -0.5630 O.2   1 <1>  -0.5700 
 12 C       -5.0630    -5.5170     1.5060 C.3   1 <1>  -0.0380 
 13 C       -4.9560    -7.0100     1.6460 C.2   1 <1>   0.5690 
 14 O       -4.1620    -7.4310     2.4550 O.2   1 <1>  -0.5700 
 15 N       -5.6970    -7.8390     0.8540 N.am  1 <1>  -0.6600 
 16 C       -6.4590    -7.4410    -0.3610 C.3   1 <1>   0.1400 
 17 C       -5.6380    -9.3150     0.9450 C.3   1 <1>   0.1400 
 18 C       -6.9320    -8.7500    -1.0080 C.3   1 <1>   0.2000 
 19 C       -5.9550    -9.8020    -0.4700 C.3   1 <1>  -0.0800 
 20 O       -8.2200    -9.0610    -0.5580 O.3   1 <1>  -0.5600 
 21 C       -6.4790   -11.2480    -0.5200 C.3   1 <1>   0.0200 
 22 C       -9.2590    -8.4870    -1.2890 C.3   1 <1>   0.0400 
 23 C       -5.4290   -12.2800    -0.1420 C.2   1 <1>  -0.0400 
 24 O       -5.7860   -13.5340    -0.0530 O.3   1 <1>  -0.0190 
 25 C       -4.1180   -12.2100     0.1400 C.2   1 <1>  -0.1500 
 26 N       -4.7890   -14.3030     0.2750 N.2   1 <1>  -0.4100 
 27 C       -3.7700   -13.5320     0.3990 C.2   1 <1>   0.1080 
 28 C       -2.3860   -14.0080     0.7770 C.3   1 <1>  -0.0590 
 29 H        1.4400    -4.6830    -2.3980 H     1 <1>   0.1500 
 30 H       -2.6180    -2.6740     0.6780 H     1 <1>   0.0800 
 31 H       -2.8750    -2.4160    -1.0300 H     1 <1>   0.0800 
 32 H       -1.5050    -1.6980    -0.2150 H     1 <1>   0.0800 
 33 H        0.8770    -6.9020    -1.4610 H     1 <1>   0.1500 
 34 H       -2.5600    -5.8950     1.5510 H     1 <1>   0.3700 
 35 H       -1.0880    -7.1370    -0.0100 H     1 <1>   0.1500 
 36 H       -6.0550    -5.2280     1.2190 H     1 <1>   0.0800 
 37 H       -4.8290    -5.0460     2.4410 H     1 <1>   0.0800 
 38 H       -7.2880    -6.8050    -0.1070 H     1 <1>   0.0800 
 39 H       -5.7990    -6.9240    -1.0360 H     1 <1>   0.0800 
 40 H       -4.6710    -9.6470     1.2820 H     1 <1>   0.0800 
 41 H       -6.3930    -9.6490     1.6370 H     1 <1>   0.0800 
 42 H       -6.9290    -8.7100    -2.0840 H     1 <1>   0.0800 
 43 H       -5.0530    -9.7380    -1.0520 H     1 <1>   0.0800 
 44 H       -6.8260   -11.4670    -1.5140 H     1 <1>   0.0800 
 45 H       -7.3180   -11.3550     0.1460 H     1 <1>   0.0800 
 46 H      -10.1880    -8.7820    -0.8340 H     1 <1>   0.0800 
 47 H       -9.2220    -8.8490    -2.3020 H     1 <1>   0.0800 
 48 H       -9.1700    -7.4150    -1.2650 H     1 <1>   0.0800 
 49 H       -3.4540   -11.3670     0.1710 H     1 <1>   0.1500 
 50 H       -1.6820   -13.7300     0.0150 H     1 <1>   0.0800 
 51 H       -2.3820   -15.0780     0.8810 H     1 <1>   0.0800 
 52 H       -2.0920   -13.5670     1.7120 H     1 <1>   0.0800 
@<TRIPOS>BOND
  1   1   2  1   
  2   2   3  ar  
  3   2   4  ar  
  4   3   5  ar  
  5   3   6  1   
  6   4   7  ar  
  7   4  29  1   
  8   5   8  1   
  9   5   9  ar  
 10   6  30  1   
 11   6  31  1   
 12   6  32  1   
 13   7   9  ar  
 14   7  33  1   
 15   8  10  am  
 16   8  34  1   
 17   9  35  1   
 18  10  11  2   
 19  10  12  1   
 20  12  13  1   
 21  12  36  1   
 22  12  37  1   
 23  13  14  2   
 24  13  15  am  
 25  15  16  1   
 26  15  17  1   
 27  16  18  1   
 28  16  38  1   
 29  16  39  1   
 30  17  19  1   
 31  17  40  1   
 32  17  41  1   
 33  18  19  1   
 34  18  20  1   
 35  18  42  1   
 36  19  21  1   
 37  19  43  1   
 38  20  22  1   
 39  21  23  1   
 40  21  44  1   
 41  21  45  1   
 42  22  46  1   
 43  22  47  1   
 44  22  48  1   
 45  23  24  1   
 46  23  25  2   
 47  24  26  1   
 48  25  27  1   
 49  25  49  1   
 50  26  27  2   
 51  27  28  1   
 52  28  50  1   
 53  28  51  1   
 54  28  52  1   
@<TRIPOS>SUBSTRUCTURE
  1 ****  15 GROUP 4 **** **** 0

# MOE 2024.06 (io_trps.svl 2023.06)
