@<TRIPOS>MOLECULE
NONAME
44 45 1 0 0 
SMALL
USER_CHARGES


@<TRIPOS>ATOM
  1 S        0.5880    -0.2030    -0.5740 S.o2  1 <1>   1.3330 
  2 O        0.5120    -1.2320     0.4380 O.2   1 <1>  -0.6500 
  3 O       -0.0940    -0.3890    -1.8350 O.2   1 <1>  -0.6500 
  4 N        0.0120     1.2400     0.1100 N.am  1 <1>  -0.8490 
  5 C        2.3210     0.1310    -0.8910 C.3   1 <1>  -0.0550 
  6 C       -1.2700     1.0430     0.7900 C.3   1 <1>   0.1160 
  7 C       -0.0980     2.3420    -0.8540 C.3   1 <1>   0.1160 
  8 C        3.1040     0.5910     0.3520 C.3   1 <1>  -0.0800 
  9 C        4.4950     1.1040    -0.0140 C.3   1 <1>   0.2200 
 10 C        3.3720    -0.5170     1.3720 C.3   1 <1>   0.1200 
 11 N        4.6040     2.5210     0.3910 N.am  1 <1>  -0.7300 
 12 C        5.4320     0.2190     0.8040 C.3   1 <1>   0.1200 
 13 O        4.6580    -0.2760     1.8460 O.3   1 <1>  -0.5600 
 14 C        4.0790     3.5610    -0.3110 C.2   1 <1>   0.7150 
 15 O        3.6000     3.3370    -1.4070 O.2   1 <1>  -0.5700 
 16 C        4.0750     4.8680     0.2760 C.2   1 <1>  -0.2370 
 17 N        3.7640     6.0210    -0.3750 N.pl3 1 <1>   0.3140 
 18 C        4.3590     5.2510     1.5540 C.2   1 <1>  -0.1500 
 19 N        3.8350     7.0920     0.4280 N.2   1 <1>  -0.7070 
 20 C        3.3980     6.1960    -1.7910 C.3   1 <1>   0.0160 
 21 C        4.1930     6.6210     1.5810 C.2   1 <1>   0.1080 
 22 C        4.3890     7.5130     2.7840 C.3   1 <1>  -0.0590 
 23 H        2.7820    -0.7470    -1.3010 H     1 <1>   0.0800 
 24 H        2.3850     0.9020    -1.6350 H     1 <1>   0.0800 
 25 H       -1.5980     1.9630     1.2420 H     1 <1>   0.0800 
 26 H       -1.1650     0.3050     1.5670 H     1 <1>   0.0800 
 27 H       -2.0170     0.7050     0.0900 H     1 <1>   0.0800 
 28 H       -0.4260     3.2380    -0.3540 H     1 <1>   0.0800 
 29 H       -0.8030     2.0970    -1.6310 H     1 <1>   0.0800 
 30 H        0.8600     2.5440    -1.3030 H     1 <1>   0.0800 
 31 H        2.5460     1.3650     0.8490 H     1 <1>   0.0800 
 32 H        4.7140     1.0110    -1.0650 H     1 <1>   0.0800 
 33 H        3.3620    -1.4940     0.9190 H     1 <1>   0.0800 
 34 H        2.6790    -0.4920     2.1970 H     1 <1>   0.0800 
 35 H        4.8400     2.6730     1.3710 H     1 <1>   0.3700 
 36 H        6.2770     0.7530     1.2030 H     1 <1>   0.0800 
 37 H        5.7690    -0.6200     0.2210 H     1 <1>   0.0800 
 38 H        4.6510     4.6420     2.3900 H     1 <1>   0.1500 
 39 H        4.1690     5.7780    -2.4100 H     1 <1>   0.0800 
 40 H        3.2940     7.2440    -2.0040 H     1 <1>   0.0800 
 41 H        2.4680     5.6960    -1.9790 H     1 <1>   0.0800 
 42 H        4.6840     6.9340     3.6390 H     1 <1>   0.0800 
 43 H        3.4710     8.0250     3.0030 H     1 <1>   0.0800 
 44 H        5.1500     8.2400     2.5690 H     1 <1>   0.0800 
@<TRIPOS>BOND
  1   1   2  2   
  2   1   3  2   
  3   1   4  am  
  4   1   5  1   
  5   4   6  1   
  6   4   7  1   
  7   5   8  1   
  8   5  23  1   
  9   5  24  1   
 10   6  25  1   
 11   6  26  1   
 12   6  27  1   
 13   7  28  1   
 14   7  29  1   
 15   7  30  1   
 16   8   9  1   
 17   8  10  1   
 18   8  31  1   
 19   9  11  1   
 20   9  12  1   
 21   9  32  1   
 22  10  13  1   
 23  10  33  1   
 24  10  34  1   
 25  11  14  am  
 26  11  35  1   
 27  12  13  1   
 28  12  36  1   
 29  12  37  1   
 30  14  15  2   
 31  14  16  1   
 32  16  17  1   
 33  16  18  2   
 34  17  19  1   
 35  17  20  1   
 36  18  21  1   
 37  18  38  1   
 38  19  21  2   
 39  20  39  1   
 40  20  40  1   
 41  20  41  1   
 42  21  22  1   
 43  22  42  1   
 44  22  43  1   
 45  22  44  1   
@<TRIPOS>SUBSTRUCTURE
  1 ****  14 GROUP 4 **** **** 0

# MOE 2024.06 (io_trps.svl 2023.06)
