@<TRIPOS>MOLECULE
NONAME
44 46 1 0 0 
SMALL
USER_CHARGES


@<TRIPOS>ATOM
  1 S        0.7320    -0.4480    -1.2070 S.o2  1 <1>   1.5010 
  2 O        0.3890    -0.3060    -2.6020 O.2   1 <1>  -0.6500 
  3 O        1.8450    -1.3030    -0.8420 O.2   1 <1>  -0.6500 
  4 N        1.2420     1.0850    -0.6860 N.am  1 <1>  -0.8490 
  5 C       -0.7320    -0.7630    -0.2100 C.2   1 <1>  -0.0630 
  6 C        1.5680     1.1900     0.7640 C.3   1 <1>   0.2760 
  7 C        2.0730     1.7870    -1.6830 C.3   1 <1>   0.1960 
  8 C       -1.0420    -1.9510     0.4480 C.2   1 <1>   0.1080 
  9 C       -1.7790     0.0480     0.0870 C.2   1 <1>  -0.3020 
 10 C        1.4770     2.6410     1.2610 C.3   1 <1>   0.1200 
 11 C        2.9260     0.5650     1.1920 C.3   1 <1>   0.3430 
 12 C        3.2890     2.5550    -1.1430 C.3   1 <1>  -0.0800 
 13 N       -2.1510    -1.8740     1.1110 N.2   1 <1>  -0.7070 
 14 C       -0.2280    -3.2290     0.4340 C.3   1 <1>  -0.0590 
 15 N       -2.6180    -0.6420     0.8780 N.pl3 1 <1>   0.3140 
 16 O        2.6800     3.3180     1.0560 O.3   1 <1>  -0.5600 
 17 N        3.9110     0.3830     0.0720 N.4   1 <1>  -0.9590 
 18 C        2.9060     3.7400    -0.2460 C.3   1 <1>   0.1200 
 19 C        4.3890     1.6720    -0.5230 C.3   1 <1>   0.3430 
 20 C       -3.8960    -0.1880     1.4370 C.3   1 <1>   0.0160 
 21 C        5.0540    -0.4680     0.5080 C.3   1 <1>   0.2630 
 22 H        0.8020     0.6680     1.3110 H     1 <1>   0.0800 
 23 H        2.4370     1.0820    -2.4140 H     1 <1>   0.0800 
 24 H        1.4340     2.4710    -2.2170 H     1 <1>   0.0800 
 25 H       -1.9640     1.0600    -0.2260 H     1 <1>   0.1500 
 26 H        1.3040     2.6420     2.3230 H     1 <1>   0.0800 
 27 H        0.6670     3.1730     0.7900 H     1 <1>   0.0800 
 28 H        2.7150    -0.4000     1.6230 H     1 <1>   0.0800 
 29 H        3.3630     1.1720     1.9690 H     1 <1>   0.0800 
 30 H        3.7400     3.0100    -2.0070 H     1 <1>   0.0800 
 31 H        0.0360    -3.4920    -0.5740 H     1 <1>   0.0800 
 32 H       -0.8060    -4.0320     0.8550 H     1 <1>   0.0800 
 33 H        0.6650    -3.1060     1.0170 H     1 <1>   0.0800 
 34 H        3.3810    -0.1510    -0.6450 H     1 <1>   0.4500 
 35 H        2.0350     4.2590    -0.6120 H     1 <1>   0.0800 
 36 H        3.7200     4.4450    -0.2050 H     1 <1>   0.0800 
 37 H        4.9090     2.2450     0.2290 H     1 <1>   0.0800 
 38 H        5.1010     1.4400    -1.2990 H     1 <1>   0.0800 
 39 H       -4.0910     0.8220     1.1300 H     1 <1>   0.0800 
 40 H       -3.8470    -0.2440     2.5080 H     1 <1>   0.0800 
 41 H       -4.6780    -0.8340     1.0810 H     1 <1>   0.0800 
 42 H        5.6090     0.0210     1.2920 H     1 <1>   0.0800 
 43 H        5.7170    -0.6560    -0.3210 H     1 <1>   0.0800 
 44 H        4.6930    -1.4150     0.8760 H     1 <1>   0.0800 
@<TRIPOS>BOND
  1   1   2  2   
  2   1   3  2   
  3   1   4  am  
  4   1   5  1   
  5   4   6  1   
  6   4   7  1   
  7   5   8  1   
  8   5   9  2   
  9   6  10  1   
 10   6  11  1   
 11   6  22  1   
 12   7  12  1   
 13   7  23  1   
 14   7  24  1   
 15   8  13  2   
 16   8  14  1   
 17   9  15  1   
 18   9  25  1   
 19  10  16  1   
 20  10  26  1   
 21  10  27  1   
 22  11  17  1   
 23  11  28  1   
 24  11  29  1   
 25  12  18  1   
 26  12  19  1   
 27  12  30  1   
 28  13  15  1   
 29  14  31  1   
 30  14  32  1   
 31  14  33  1   
 32  15  20  1   
 33  16  18  1   
 34  17  19  1   
 35  17  21  1   
 36  17  34  1   
 37  18  35  1   
 38  18  36  1   
 39  19  37  1   
 40  19  38  1   
 41  20  39  1   
 42  20  40  1   
 43  20  41  1   
 44  21  42  1   
 45  21  43  1   
 46  21  44  1   
@<TRIPOS>SUBSTRUCTURE
  1 ****   4 GROUP 4 **** **** 0

# MOE 2024.06 (io_trps.svl 2023.06)
