@<TRIPOS>MOLECULE
NONAME
51 54 1 0 0 
SMALL
USER_CHARGES


@<TRIPOS>ATOM
  1 O        3.8810    -1.3350    -2.1120 O.2   1 <1>  -0.5700 
  2 C        2.9910    -1.3830    -1.2800 C.2   1 <1>   0.7150 
  3 N        2.7780    -0.2480    -0.5480 N.am  1 <1>  -0.6600 
  4 C        2.3210    -2.6220    -0.9860 C.2   1 <1>  -0.2370 
  5 C        3.3070    -0.2580     0.8580 C.3   1 <1>   0.2200 
  6 C        2.6270     1.0560    -1.2650 C.3   1 <1>   0.1400 
  7 N        2.8090    -3.7960    -1.5080 N.pl3 1 <1>   0.0330 
  8 C        1.2150    -2.9360    -0.2390 C.2   1 <1>  -0.1810 
  9 C        2.6410     0.7910     1.7630 C.3   1 <1>   0.1200 
 10 C        4.8500    -0.0950     0.8660 C.3   1 <1>   0.3430 
 11 C        3.5140     2.1980    -0.7340 C.3   1 <1>  -0.0800 
 12 C        2.0510    -4.8430    -1.0680 C.ar  1 <1>  -0.1520 
 13 C        1.0410    -4.3350    -0.2640 C.ar  1 <1>   0.0000 
 14 C        0.2520    -2.0240     0.5020 C.3   1 <1>  -0.0590 
 15 O        3.3020     2.0160     1.6660 O.3   1 <1>  -0.5600 
 16 N        5.3920     0.4700    -0.4230 N.4   1 <1>  -0.9590 
 17 C        2.9660     2.7990     0.5710 C.3   1 <1>   0.1200 
 18 C        5.0280     1.9050    -0.6540 C.3   1 <1>   0.3430 
 19 C        2.1630    -6.2140    -1.3110 C.ar  1 <1>  -0.1500 
 20 C        0.1180    -5.2120     0.3210 C.ar  1 <1>  -0.1500 
 21 C        6.8610     0.2550    -0.5400 C.3   1 <1>   0.2630 
 22 C        1.2510    -7.0640    -0.7310 C.ar  1 <1>  -0.1500 
 23 C        0.2250    -6.5700     0.0870 C.ar  1 <1>   0.0820 
 24 O       -0.6190    -7.5030     0.6060 O.3   1 <1>  -0.3630 
 25 C       -1.7100    -7.1140     1.4100 C.3   1 <1>   0.0400 
 26 H        3.0760    -1.2170     1.2900 H     1 <1>   0.0800 
 27 H        2.8430     0.9110    -2.3120 H     1 <1>   0.0800 
 28 H        1.5930     1.3540    -1.2060 H     1 <1>   0.0800 
 29 H        3.5960    -3.8640    -2.1630 H     1 <1>   0.2700 
 30 H        2.7310     0.4780     2.7890 H     1 <1>   0.0800 
 31 H        1.5940     0.9110     1.5390 H     1 <1>   0.0800 
 32 H        5.2790    -1.0700     1.0260 H     1 <1>   0.0800 
 33 H        5.1430     0.5260     1.6960 H     1 <1>   0.0800 
 34 H        3.4110     2.9930    -1.4510 H     1 <1>   0.0800 
 35 H       -0.7600    -2.3200     0.2900 H     1 <1>   0.0800 
 36 H        0.3660    -1.0020     0.1940 H     1 <1>   0.0800 
 37 H        0.4170    -2.0970     1.5620 H     1 <1>   0.0800 
 38 H        4.9180    -0.0780    -1.1750 H     1 <1>   0.4500 
 39 H        1.8960     2.9210     0.5390 H     1 <1>   0.0800 
 40 H        3.4050     3.7680     0.7380 H     1 <1>   0.0800 
 41 H        5.4580     2.5140     0.1250 H     1 <1>   0.0800 
 42 H        5.4700     2.2150    -1.5870 H     1 <1>   0.0800 
 43 H        2.9490    -6.5930    -1.9400 H     1 <1>   0.1500 
 44 H       -0.6510    -4.7950     0.9390 H     1 <1>   0.1500 
 45 H        7.3830     0.7960     0.2320 H     1 <1>   0.0800 
 46 H        7.2120     0.5950    -1.5010 H     1 <1>   0.0800 
 47 H        7.0920    -0.7940    -0.4460 H     1 <1>   0.0800 
 48 H        1.3040    -8.1250    -0.8940 H     1 <1>   0.1500 
 49 H       -2.2470    -8.0010     1.6960 H     1 <1>   0.0800 
 50 H       -2.3510    -6.4670     0.8390 H     1 <1>   0.0800 
 51 H       -1.3370    -6.6150     2.2870 H     1 <1>   0.0800 
@<TRIPOS>BOND
  1   1   2  2   
  2   2   3  am  
  3   2   4  1   
  4   3   5  1   
  5   3   6  1   
  6   4   7  1   
  7   4   8  2   
  8   5   9  1   
  9   5  10  1   
 10   5  26  1   
 11   6  11  1   
 12   6  27  1   
 13   6  28  1   
 14   7  12  1   
 15   7  29  1   
 16   8  13  1   
 17   8  14  1   
 18   9  15  1   
 19   9  30  1   
 20   9  31  1   
 21  10  16  1   
 22  10  32  1   
 23  10  33  1   
 24  11  17  1   
 25  11  18  1   
 26  11  34  1   
 27  12  13  ar  
 28  12  19  ar  
 29  13  20  ar  
 30  14  35  1   
 31  14  36  1   
 32  14  37  1   
 33  15  17  1   
 34  16  18  1   
 35  16  21  1   
 36  16  38  1   
 37  17  39  1   
 38  17  40  1   
 39  18  41  1   
 40  18  42  1   
 41  19  22  ar  
 42  19  43  1   
 43  20  23  ar  
 44  20  44  1   
 45  21  45  1   
 46  21  46  1   
 47  21  47  1   
 48  22  23  ar  
 49  22  48  1   
 50  23  24  1   
 51  24  25  1   
 52  25  49  1   
 53  25  50  1   
 54  25  51  1   
@<TRIPOS>SUBSTRUCTURE
  1 ****   4 GROUP 4 **** **** 0

# MOE 2024.06 (io_trps.svl 2023.06)
