@<TRIPOS>MOLECULE
NONAME
45 46 1 0 0 
SMALL
USER_CHARGES


@<TRIPOS>ATOM
  1 S       -0.3360     0.3120     0.4650 S.o2  1 <1>   1.3330 
  2 O       -0.2490    -0.4180     1.7100 O.2   1 <1>  -0.6500 
  3 O       -0.9700     1.6100     0.4430 O.2   1 <1>  -0.6500 
  4 N       -1.1170    -0.6840    -0.6650 N.am  1 <1>  -0.8490 
  5 C        1.3020     0.4940    -0.2440 C.3   1 <1>  -0.0550 
  6 C       -2.5590    -0.4270    -0.7310 C.3   1 <1>   0.1160 
  7 C       -0.8750    -2.1150    -0.4490 C.3   1 <1>   0.1160 
  8 C        2.2090     1.4600     0.5440 C.3   1 <1>  -0.0800 
  9 C        3.4910     1.7500    -0.2170 C.3   1 <1>   0.2200 
 10 C        2.7300     0.8360     1.8460 C.3   1 <1>   0.1200 
 11 N        4.0250     3.0580     0.2230 N.am  1 <1>  -0.7300 
 12 C        4.4040     0.6350     0.2740 C.3   1 <1>   0.1200 
 13 O        4.0340     0.3960     1.5980 O.3   1 <1>  -0.5600 
 14 C        4.1760     4.1580    -0.5720 C.2   1 <1>   0.5440 
 15 O        3.8860     4.0620    -1.7470 O.2   1 <1>  -0.5700 
 16 C        4.6800     5.4060    -0.0250 C.ar  1 <1>   0.0860 
 17 C        5.3930     6.3000    -0.8270 C.ar  1 <1>  -0.1500 
 18 C        4.4690     5.7600     1.3110 C.ar  1 <1>  -0.1500 
 19 C        5.8970     7.4960    -0.3430 C.ar  1 <1>   0.0820 
 20 C        4.9590     6.9460     1.8270 C.ar  1 <1>  -0.1500 
 21 O        6.5740     8.2550    -1.2510 O.3   1 <1>  -0.3620 
 22 C        5.6670     7.8000     1.0030 C.ar  1 <1>   0.1900 
 23 C        7.0920     9.5330    -0.9560 C.3   1 <1>   0.0400 
 24 F        6.1070     8.9030     1.5510 F     1 <1>  -0.1900 
 25 H        1.7710    -0.4670    -0.3150 H     1 <1>   0.0800 
 26 H        1.1850     0.8750    -1.2400 H     1 <1>   0.0800 
 27 H       -3.0190    -1.0640    -1.4670 H     1 <1>   0.0800 
 28 H       -2.7390     0.5970    -1.0140 H     1 <1>   0.0800 
 29 H       -3.0160    -0.6060     0.2290 H     1 <1>   0.0800 
 30 H       -1.3140    -2.6890    -1.2460 H     1 <1>   0.0800 
 31 H       -1.3020    -2.4320     0.4890 H     1 <1>   0.0800 
 32 H        0.1830    -2.3140    -0.4300 H     1 <1>   0.0800 
 33 H        1.6610     2.3670     0.7360 H     1 <1>   0.0800 
 34 H        3.3670     1.7300    -1.2870 H     1 <1>   0.0800 
 35 H        2.1460    -0.0010     2.1860 H     1 <1>   0.0800 
 36 H        2.7810     1.5730     2.6290 H     1 <1>   0.0800 
 37 H        4.3910     3.0580     1.1770 H     1 <1>   0.3700 
 38 H        5.4450     0.9010     0.2290 H     1 <1>   0.0800 
 39 H        4.2340    -0.2700    -0.2830 H     1 <1>   0.0800 
 40 H        5.5590     6.0540    -1.8610 H     1 <1>   0.1500 
 41 H        3.9070     5.1050     1.9530 H     1 <1>   0.1500 
 42 H        4.7940     7.2130     2.8560 H     1 <1>   0.1500 
 43 H        7.5400     9.9260    -1.8500 H     1 <1>   0.0800 
 44 H        7.8380     9.4390    -0.1870 H     1 <1>   0.0800 
 45 H        6.2880    10.1730    -0.6390 H     1 <1>   0.0800 
@<TRIPOS>BOND
  1   1   2  2   
  2   1   3  2   
  3   1   4  am  
  4   1   5  1   
  5   4   6  1   
  6   4   7  1   
  7   5   8  1   
  8   5  25  1   
  9   5  26  1   
 10   6  27  1   
 11   6  28  1   
 12   6  29  1   
 13   7  30  1   
 14   7  31  1   
 15   7  32  1   
 16   8   9  1   
 17   8  10  1   
 18   8  33  1   
 19   9  11  1   
 20   9  12  1   
 21   9  34  1   
 22  10  13  1   
 23  10  35  1   
 24  10  36  1   
 25  11  14  am  
 26  11  37  1   
 27  12  13  1   
 28  12  38  1   
 29  12  39  1   
 30  14  15  2   
 31  14  16  1   
 32  16  17  ar  
 33  16  18  ar  
 34  17  19  ar  
 35  17  40  1   
 36  18  20  ar  
 37  18  41  1   
 38  19  21  1   
 39  19  22  ar  
 40  20  22  ar  
 41  20  42  1   
 42  21  23  1   
 43  22  24  1   
 44  23  43  1   
 45  23  44  1   
 46  23  45  1   
@<TRIPOS>SUBSTRUCTURE
  1 ****  11 GROUP 4 **** **** 0

# MOE 2024.06 (io_trps.svl 2023.06)
