@<TRIPOS>MOLECULE
NONAME
51 54 1 0 0 
SMALL
USER_CHARGES


@<TRIPOS>ATOM
  1 S       -1.0270     0.3790     0.4420 S.o2  1 <1>   1.0900 
  2 O       -1.4270     1.5500     1.1860 O.2   1 <1>  -0.6500 
  3 O        0.3570    -0.0160     0.3250 O.2   1 <1>  -0.6500 
  4 C       -1.9450    -1.0410     0.9640 C.3   1 <1>  -0.0550 
  5 C       -1.7280     0.4110    -1.2020 C.3   1 <1>  -0.0550 
  6 C       -2.0810    -1.8840    -0.3010 C.3   1 <1>   0.1760 
  7 C       -2.4570    -0.9230    -1.4480 C.3   1 <1>  -0.1600 
  8 N       -3.0860    -2.9630    -0.1330 N.pl3 1 <1>   0.3140 
  9 N       -4.3220    -2.6990     0.3350 N.2   1 <1>  -0.7070 
 10 C       -2.9290    -4.2830    -0.4070 C.2   1 <1>  -0.3320 
 11 C       -4.9160    -3.8500     0.3700 C.2   1 <1>   0.1080 
 12 C       -4.0940    -4.8860    -0.0760 C.2   1 <1>   0.0630 
 13 C       -1.6610    -4.9020    -0.9810 C.3   1 <1>  -0.0600 
 14 C       -6.3410    -4.0170     0.8470 C.3   1 <1>  -0.0590 
 15 N       -4.4600    -6.2530    -0.1600 N.am  1 <1>  -0.4930 
 16 C       -3.7950    -7.3530     0.3010 C.2   1 <1>   0.7160 
 17 O       -2.7370    -7.2060     0.8850 O.2   1 <1>  -0.5700 
 18 C       -4.3330    -8.6860     0.0990 C.2   1 <1>  -0.0860 
 19 C       -5.6920    -9.0820    -0.0830 C.2   1 <1>  -0.0860 
 20 C       -3.6370    -9.8610     0.0540 C.2   1 <1>  -0.0400 
 21 C       -6.9410    -8.3720    -0.1170 C.2   1 <1>   0.5950 
 22 C       -5.6490   -10.4290    -0.2190 C.2   1 <1>  -0.0400 
 23 O       -4.4340   -10.8830    -0.1310 O.3   1 <1>  -0.2800 
 24 C       -2.1560   -10.1730     0.1690 C.3   1 <1>  -0.0600 
 25 O       -7.0480    -7.1720    -0.1170 O.2   1 <1>  -0.5700 
 26 C       -8.2130    -9.2140    -0.1510 C.3   1 <1>  -0.0990 
 27 C       -6.8260   -11.3540    -0.4410 C.3   1 <1>   0.0200 
 28 C       -8.0380   -10.5380    -0.9290 C.3   1 <1>  -0.1600 
 29 H       -2.9160    -0.7370     1.3070 H     1 <1>   0.0800 
 30 H       -1.4360    -1.5770     1.7420 H     1 <1>   0.0800 
 31 H       -0.9480     0.5510    -1.9260 H     1 <1>   0.0800 
 32 H       -2.4250     1.2230    -1.2930 H     1 <1>   0.0800 
 33 H       -1.1250    -2.3280    -0.5140 H     1 <1>   0.0800 
 34 H       -2.1890    -1.3410    -2.4020 H     1 <1>   0.0800 
 35 H       -3.5190    -0.7420    -1.4310 H     1 <1>   0.0800 
 36 H       -1.3470    -4.3710    -1.8610 H     1 <1>   0.0800 
 37 H       -1.8340    -5.9260    -1.2550 H     1 <1>   0.0800 
 38 H       -0.8750    -4.8780    -0.2480 H     1 <1>   0.0800 
 39 H       -6.6790    -3.1110     1.3160 H     1 <1>   0.0800 
 40 H       -6.3970    -4.8190     1.5600 H     1 <1>   0.0800 
 41 H       -6.9800    -4.2390     0.0130 H     1 <1>   0.0800 
 42 H       -5.4490    -6.4120    -0.3740 H     1 <1>   0.3700 
 43 H       -1.5630    -9.2790     0.2100 H     1 <1>   0.0800 
 44 H       -1.8420   -10.7500    -0.6810 H     1 <1>   0.0800 
 45 H       -1.9780   -10.7450     1.0610 H     1 <1>   0.0800 
 46 H       -9.0010    -8.6370    -0.6000 H     1 <1>   0.0800 
 47 H       -8.4970    -9.4270     0.8640 H     1 <1>   0.0800 
 48 H       -7.0550   -11.8530     0.4840 H     1 <1>   0.0800 
 49 H       -6.5690   -12.1010    -1.1730 H     1 <1>   0.0800 
 50 H       -7.8900   -10.3020    -1.9700 H     1 <1>   0.0800 
 51 H       -8.9310   -11.1330    -0.8540 H     1 <1>   0.0800 
@<TRIPOS>BOND
  1   1   2  2   
  2   1   3  2   
  3   1   4  1   
  4   1   5  1   
  5   4   6  1   
  6   4  29  1   
  7   4  30  1   
  8   5   7  1   
  9   5  31  1   
 10   5  32  1   
 11   6   7  1   
 12   6   8  1   
 13   6  33  1   
 14   7  34  1   
 15   7  35  1   
 16   8   9  1   
 17   8  10  1   
 18   9  11  2   
 19  10  12  2   
 20  10  13  1   
 21  11  12  1   
 22  11  14  1   
 23  12  15  1   
 24  13  36  1   
 25  13  37  1   
 26  13  38  1   
 27  14  39  1   
 28  14  40  1   
 29  14  41  1   
 30  15  16  am  
 31  15  42  1   
 32  16  17  2   
 33  16  18  1   
 34  18  19  1   
 35  18  20  2   
 36  19  21  1   
 37  19  22  2   
 38  20  23  1   
 39  20  24  1   
 40  21  25  2   
 41  21  26  1   
 42  22  23  1   
 43  22  27  1   
 44  24  43  1   
 45  24  44  1   
 46  24  45  1   
 47  26  28  1   
 48  26  46  1   
 49  26  47  1   
 50  27  28  1   
 51  27  48  1   
 52  27  49  1   
 53  28  50  1   
 54  28  51  1   
@<TRIPOS>SUBSTRUCTURE
  1 ****  12 GROUP 4 **** **** 0

# MOE 2024.06 (io_trps.svl 2023.06)
