@<TRIPOS>MOLECULE
NONAME
48 50 1 0 0 
SMALL
USER_CHARGES


@<TRIPOS>ATOM
  1 O        0.3730    -3.4770     1.5400 O.co2 1 <1>  -0.9000 
  2 C        0.0220    -2.6160     0.7160 C.2   1 <1>   1.0330 
  3 O       -0.7740    -1.7300     1.0740 O.co2 1 <1>  -0.9000 
  4 C        0.5200    -2.6390    -0.6170 C.2   1 <1>  -0.2330 
  5 C       -0.0540    -3.3280    -1.6850 C.2   1 <1>   0.3720 
  6 C        1.6120    -2.0460    -1.1620 C.2   1 <1>   0.0870 
  7 N        0.6330    -3.1700    -2.7600 N.2   1 <1>  -0.4100 
  8 N       -1.2240    -4.0920    -1.6570 N.pl3 1 <1>  -0.8210 
  9 O        1.6340    -2.3970    -2.4280 O.3   1 <1>  -0.0190 
 10 C        2.6390    -1.1820    -0.6280 C.ar  1 <1>   0.0530 
 11 C       -1.1680    -5.2420    -0.7190 C.3   1 <1>   0.2090 
 12 C       -2.4440    -3.2820    -1.4280 C.3   1 <1>   0.2090 
 13 C        2.4550    -0.4470     0.5440 C.ar  1 <1>  -0.1500 
 14 C        3.8680    -1.0440    -1.2770 C.ar  1 <1>  -0.1500 
 15 C       -2.3450    -6.1910    -1.0010 C.3   1 <1>  -0.0800 
 16 C       -3.6700    -4.1490    -1.7300 C.3   1 <1>  -0.1600 
 17 C        3.4440     0.3790     1.0450 C.ar  1 <1>  -0.1500 
 18 C        4.8620    -0.2180    -0.7840 C.ar  1 <1>  -0.1500 
 19 C       -3.6820    -5.4290    -0.8790 C.3   1 <1>  -0.1600 
 20 C       -2.2750    -7.3970    -0.0450 C.3   1 <1>  -0.1600 
 21 C        4.6520     0.4960     0.3820 C.ar  1 <1>  -0.1500 
 22 C       -3.2880    -8.5050    -0.3870 C.3   1 <1>  -0.0990 
 23 C       -3.1300    -9.7190     0.5060 C.2   1 <1>   0.5690 
 24 O       -3.9930    -9.9720     1.3110 O.2   1 <1>  -0.5700 
 25 N       -2.0200   -10.4880     0.3610 N.am  1 <1>  -0.7300 
 26 C       -1.7110   -11.7010     1.1590 C.3   1 <1>   0.0600 
 27 H       -1.2300    -4.8950     0.2980 H     1 <1>   0.0800 
 28 H       -0.2310    -5.7560    -0.8440 H     1 <1>   0.0800 
 29 H       -2.4290    -2.4200    -2.0740 H     1 <1>   0.0800 
 30 H       -2.4750    -2.9410    -0.4060 H     1 <1>   0.0800 
 31 H        1.5210    -0.5170     1.0750 H     1 <1>   0.1500 
 32 H        4.0450    -1.5970    -2.1820 H     1 <1>   0.1500 
 33 H       -2.2320    -6.5430    -2.0120 H     1 <1>   0.0800 
 34 H       -3.6550    -4.4050    -2.7750 H     1 <1>   0.0800 
 35 H       -4.5600    -3.5770    -1.5400 H     1 <1>   0.0800 
 36 H        3.2680     0.9280     1.9530 H     1 <1>   0.1500 
 37 H        5.7990    -0.1340    -1.3050 H     1 <1>   0.1500 
 38 H       -3.8420    -5.1580     0.1510 H     1 <1>   0.0800 
 39 H       -4.5010    -6.0490    -1.1950 H     1 <1>   0.0800 
 40 H       -2.4400    -7.0650     0.9670 H     1 <1>   0.0800 
 41 H       -1.2820    -7.8100    -0.0870 H     1 <1>   0.0800 
 42 H        5.4220     1.1380     0.7720 H     1 <1>   0.1500 
 43 H       -3.1660    -8.8140    -1.4090 H     1 <1>   0.0800 
 44 H       -4.2900    -8.1370    -0.2700 H     1 <1>   0.0800 
 45 H       -1.3120   -10.2040    -0.3180 H     1 <1>   0.3700 
 46 H       -2.5050   -11.9010     1.8580 H     1 <1>   0.0800 
 47 H       -0.7970   -11.5530     1.7070 H     1 <1>   0.0800 
 48 H       -1.6020   -12.5490     0.5060 H     1 <1>   0.0800 
@<TRIPOS>BOND
  1   1   2  ar  
  2   2   3  ar  
  3   2   4  1   
  4   4   5  1   
  5   4   6  2   
  6   5   7  2   
  7   5   8  1   
  8   6   9  1   
  9   6  10  1   
 10   7   9  1   
 11   8  11  1   
 12   8  12  1   
 13  10  13  ar  
 14  10  14  ar  
 15  11  15  1   
 16  11  27  1   
 17  11  28  1   
 18  12  16  1   
 19  12  29  1   
 20  12  30  1   
 21  13  17  ar  
 22  13  31  1   
 23  14  18  ar  
 24  14  32  1   
 25  15  19  1   
 26  15  20  1   
 27  15  33  1   
 28  16  19  1   
 29  16  34  1   
 30  16  35  1   
 31  17  21  ar  
 32  17  36  1   
 33  18  21  ar  
 34  18  37  1   
 35  19  38  1   
 36  19  39  1   
 37  20  22  1   
 38  20  40  1   
 39  20  41  1   
 40  21  42  1   
 41  22  23  1   
 42  22  43  1   
 43  22  44  1   
 44  23  24  2   
 45  23  25  am  
 46  25  26  1   
 47  25  45  1   
 48  26  46  1   
 49  26  47  1   
 50  26  48  1   
@<TRIPOS>SUBSTRUCTURE
  1 ****  11 GROUP 4 **** **** 0

# MOE 2024.06 (io_trps.svl 2023.06)
