@<TRIPOS>MOLECULE
NONAME
57 59 1 0 0 
SMALL
USER_CHARGES


@<TRIPOS>ATOM
  1 O        0.3300    -0.4200    -0.7580 O.3   1 <1>  -0.6800 
  2 C        1.4130    -0.4500     0.1090 C.3   1 <1>   0.2000 
  3 C        2.5620     0.4930    -0.3820 C.3   1 <1>   0.4230 
  4 C        1.8540    -1.9160     0.1840 C.3   1 <1>  -0.1600 
  5 N        2.2780     1.9850    -0.4220 N.4   1 <1>  -0.9590 
  6 C        3.8010     0.2870     0.5140 C.3   1 <1>  -0.1600 
  7 C        3.0970    -2.0820     1.0640 C.3   1 <1>  -0.1600 
  8 C        3.2720     2.6980    -1.2800 C.3   1 <1>   0.4860 
  9 C        0.8970     2.3960    -0.8280 C.3   1 <1>   0.3430 
 10 C        4.2370    -1.1840     0.5760 C.3   1 <1>  -0.1600 
 11 C        3.3410     4.1460    -0.8560 C.ar  1 <1>  -0.1440 
 12 C        0.0370     2.6740     0.4100 C.3   1 <1>  -0.1600 
 13 C        2.7480     5.1480    -1.5910 C.ar  1 <1>   0.1600 
 14 C        3.9970     4.5260     0.2940 C.ar  1 <1>   0.1600 
 15 C        0.6090     3.7590     1.3380 C.3   1 <1>  -0.2400 
 16 N        2.7680     6.3980    -1.2060 N.ar  1 <1>  -0.6200 
 17 N        4.0300     5.7680     0.7000 N.ar  1 <1>  -0.6200 
 18 C        3.4010     6.6480    -0.0710 C.ar  1 <1>   0.7200 
 19 N        3.3820     7.9360     0.3140 N.pl3 1 <1>  -0.8690 
 20 C        4.4180     8.5510     1.1570 C.3   1 <1>   0.3530 
 21 C        4.6360     9.9710     0.6670 C.ar  1 <1>  -0.1440 
 22 C        3.9620    11.0300     1.2560 C.ar  1 <1>  -0.1500 
 23 C        5.5090    10.2190    -0.3820 C.ar  1 <1>  -0.1500 
 24 C        4.1630    12.3240     0.8060 C.ar  1 <1>  -0.1500 
 25 C        5.7100    11.5130    -0.8330 C.ar  1 <1>  -0.1500 
 26 C        5.0380    12.5660    -0.2380 C.ar  1 <1>  -0.1500 
 27 H       -0.3150    -1.1210    -0.5250 H     1 <1>   0.4000 
 28 H        1.0760    -0.1380     1.0820 H     1 <1>   0.0800 
 29 H        2.8130     0.1630    -1.3760 H     1 <1>   0.0800 
 30 H        1.0600    -2.5180     0.5930 H     1 <1>   0.0800 
 31 H        2.0790    -2.2790    -0.8060 H     1 <1>   0.0800 
 32 H        2.3810     2.3400     0.5350 H     1 <1>   0.4500 
 33 H        4.6420     0.8490     0.1550 H     1 <1>   0.0800 
 34 H        3.5790     0.6160     1.5140 H     1 <1>   0.0800 
 35 H        2.8550    -1.8390     2.0860 H     1 <1>   0.0800 
 36 H        3.4170    -3.1110     1.0450 H     1 <1>   0.0800 
 37 H        4.2510     2.2620    -1.1750 H     1 <1>   0.0800 
 38 H        2.9860     2.6240    -2.3170 H     1 <1>   0.0800 
 39 H        0.9390     3.3080    -1.3990 H     1 <1>   0.0800 
 40 H        0.4390     1.6520    -1.4570 H     1 <1>   0.0800 
 41 H        4.5580    -1.5140    -0.3980 H     1 <1>   0.0800 
 42 H        5.0770    -1.2850     1.2440 H     1 <1>   0.0800 
 43 H       -0.9280     3.0030     0.0650 H     1 <1>   0.0800 
 44 H       -0.1310     1.7690     0.9650 H     1 <1>   0.0800 
 45 H        2.2380     4.9310    -2.5150 H     1 <1>   0.1500 
 46 H        4.5050     3.7990     0.9070 H     1 <1>   0.1500 
 47 H        0.7970     4.6690     0.7930 H     1 <1>   0.0800 
 48 H        1.5180     3.4440     1.8170 H     1 <1>   0.0800 
 49 H       -0.1050     3.9830     2.1120 H     1 <1>   0.0800 
 50 H        3.0220     8.5670    -0.4010 H     1 <1>   0.4000 
 51 H        4.0900     8.5510     2.1820 H     1 <1>   0.0800 
 52 H        5.3370     7.9940     1.0910 H     1 <1>   0.0800 
 53 H        3.2750    10.8520     2.0660 H     1 <1>   0.1500 
 54 H        6.0320     9.4050    -0.8530 H     1 <1>   0.1500 
 55 H        3.6380    13.1420     1.2680 H     1 <1>   0.1500 
 56 H        6.3890    11.6980    -1.6470 H     1 <1>   0.1500 
 57 H        5.1950    13.5710    -0.5880 H     1 <1>   0.1500 
@<TRIPOS>BOND
  1   1   2  1   
  2   1  27  1   
  3   2   3  1   
  4   2   4  1   
  5   2  28  1   
  6   3   5  1   
  7   3   6  1   
  8   3  29  1   
  9   4   7  1   
 10   4  30  1   
 11   4  31  1   
 12   5   8  1   
 13   5   9  1   
 14   5  32  1   
 15   6  10  1   
 16   6  33  1   
 17   6  34  1   
 18   7  10  1   
 19   7  35  1   
 20   7  36  1   
 21   8  11  1   
 22   8  37  1   
 23   8  38  1   
 24   9  12  1   
 25   9  39  1   
 26   9  40  1   
 27  10  41  1   
 28  10  42  1   
 29  11  13  ar  
 30  11  14  ar  
 31  12  15  1   
 32  12  43  1   
 33  12  44  1   
 34  13  16  ar  
 35  13  45  1   
 36  14  17  ar  
 37  14  46  1   
 38  15  47  1   
 39  15  48  1   
 40  15  49  1   
 41  16  18  ar  
 42  17  18  ar  
 43  18  19  1   
 44  19  20  1   
 45  19  50  1   
 46  20  21  1   
 47  20  51  1   
 48  20  52  1   
 49  21  22  ar  
 50  21  23  ar  
 51  22  24  ar  
 52  22  53  1   
 53  23  25  ar  
 54  23  54  1   
 55  24  26  ar  
 56  24  55  1   
 57  25  26  ar  
 58  25  56  1   
 59  26  57  1   
@<TRIPOS>SUBSTRUCTURE
  1 ****  14 GROUP 4 **** **** 0

# MOE 2024.06 (io_trps.svl 2023.06)
