@<TRIPOS>MOLECULE
NONAME
53 55 1 0 0 
SMALL
USER_CHARGES


@<TRIPOS>ATOM
  1 O        0.2530     0.6450    -0.9050 O.2   1 <1>  -0.5700 
  2 C        0.1880     1.7800    -0.4930 C.2   1 <1>   0.5690 
  3 N       -1.0070     2.3900    -0.2150 N.am  1 <1>  -0.6600 
  4 C        1.4970     2.5530    -0.3120 C.3   1 <1>   0.1810 
  5 C       -1.0600     3.8040     0.2860 C.3   1 <1>   0.3640 
  6 C       -2.3040     1.6520    -0.2490 C.3   1 <1>   0.0600 
  7 O        1.3730     3.6610     0.5450 O.3   1 <1>  -0.5600 
  8 C       -2.0950     4.6040    -0.5220 C.ar  1 <1>  -0.1430 
  9 C        0.3050     4.5280     0.2140 C.3   1 <1>   0.2610 
 10 C       -3.0960     5.3650     0.0830 C.ar  1 <1>  -0.1430 
 11 C       -2.0180     4.5750    -1.9110 C.ar  1 <1>  -0.1500 
 12 C        0.2780     5.7540     1.1410 C.2   1 <1>   0.5690 
 13 C       -3.9790     6.0860    -0.7090 C.ar  1 <1>  -0.1500 
 14 C       -3.2700     5.4420     1.5950 C.3   1 <1>  -0.0960 
 15 C       -2.9040     5.2940    -2.6900 C.ar  1 <1>  -0.1500 
 16 O        0.1550     5.5610     2.3320 O.2   1 <1>  -0.5700 
 17 N        0.3680     7.0350     0.6460 N.am  1 <1>  -0.6600 
 18 C       -3.8850     6.0540    -2.0870 C.ar  1 <1>  -0.1500 
 19 C        0.6360     8.1810     1.5600 C.3   1 <1>   0.2840 
 20 C        0.2610     7.4030    -0.7960 C.3   1 <1>   0.0600 
 21 C        1.9370     8.8650     1.1640 C.ar  1 <1>  -0.1430 
 22 C        1.9370    10.1470     0.6360 C.ar  1 <1>  -0.1500 
 23 C        3.1420     8.2000     1.3260 C.ar  1 <1>  -0.1500 
 24 C        3.1270    10.7540     0.2740 C.ar  1 <1>  -0.1500 
 25 C        4.3320     8.8080     0.9650 C.ar  1 <1>  -0.1500 
 26 C        4.3310    10.0880     0.4380 C.ar  1 <1>  -0.1430 
 27 C        5.6360    10.7540     0.0400 C.3   1 <1>  -0.0970 
 28 H        1.8450     2.8980    -1.2670 H     1 <1>   0.0800 
 29 H        2.2370     1.8990     0.1110 H     1 <1>   0.0800 
 30 H       -1.3490     3.7580     1.3190 H     1 <1>   0.0800 
 31 H       -2.8140     1.7670     0.6910 H     1 <1>   0.0800 
 32 H       -2.1400     0.6030    -0.4250 H     1 <1>   0.0800 
 33 H       -2.9260     2.0390    -1.0370 H     1 <1>   0.0800 
 34 H        0.4800     4.8500    -0.7930 H     1 <1>   0.0800 
 35 H       -1.2650     3.9810    -2.3990 H     1 <1>   0.1500 
 36 H       -4.7530     6.6800    -0.2550 H     1 <1>   0.1500 
 37 H       -4.1560     5.9930     1.8540 H     1 <1>   0.0800 
 38 H       -2.4310     5.9410     2.0440 H     1 <1>   0.0800 
 39 H       -3.3620     4.4570     2.0140 H     1 <1>   0.0800 
 40 H       -2.8320     5.2600    -3.7640 H     1 <1>   0.1500 
 41 H       -4.5790     6.6170    -2.6880 H     1 <1>   0.1500 
 42 H       -0.1840     8.8750     1.5060 H     1 <1>   0.0800 
 43 H        0.7170     7.8500     2.5810 H     1 <1>   0.0800 
 44 H       -0.0820     8.4180    -0.8940 H     1 <1>   0.0800 
 45 H       -0.4430     6.7670    -1.3010 H     1 <1>   0.0800 
 46 H        1.2280     7.3190    -1.2630 H     1 <1>   0.0800 
 47 H        1.0120    10.6790     0.5020 H     1 <1>   0.1500 
 48 H        3.1530     7.2030     1.7330 H     1 <1>   0.1500 
 49 H        3.1120    11.7480    -0.1360 H     1 <1>   0.1500 
 50 H        5.2580     8.2770     1.0970 H     1 <1>   0.1500 
 51 H        5.5640    11.8200     0.1510 H     1 <1>   0.0800 
 52 H        5.8630    10.5240    -0.9850 H     1 <1>   0.0800 
 53 H        6.4410    10.4020     0.6610 H     1 <1>   0.0800 
@<TRIPOS>BOND
  1   1   2  2   
  2   2   3  am  
  3   2   4  1   
  4   3   5  1   
  5   3   6  1   
  6   4   7  1   
  7   4  28  1   
  8   4  29  1   
  9   5   8  1   
 10   5   9  1   
 11   5  30  1   
 12   6  31  1   
 13   6  32  1   
 14   6  33  1   
 15   7   9  1   
 16   8  10  ar  
 17   8  11  ar  
 18   9  12  1   
 19   9  34  1   
 20  10  13  ar  
 21  10  14  1   
 22  11  15  ar  
 23  11  35  1   
 24  12  16  2   
 25  12  17  am  
 26  13  18  ar  
 27  13  36  1   
 28  14  37  1   
 29  14  38  1   
 30  14  39  1   
 31  15  18  ar  
 32  15  40  1   
 33  17  19  1   
 34  17  20  1   
 35  18  41  1   
 36  19  21  1   
 37  19  42  1   
 38  19  43  1   
 39  20  44  1   
 40  20  45  1   
 41  20  46  1   
 42  21  22  ar  
 43  21  23  ar  
 44  22  24  ar  
 45  22  47  1   
 46  23  25  ar  
 47  23  48  1   
 48  24  26  ar  
 49  24  49  1   
 50  25  26  ar  
 51  25  50  1   
 52  26  27  1   
 53  27  51  1   
 54  27  52  1   
 55  27  53  1   
@<TRIPOS>SUBSTRUCTURE
  1 ****  12 GROUP 4 **** **** 0

# MOE 2024.06 (io_trps.svl 2023.06)
