@<TRIPOS>MOLECULE
NONAME
45 46 1 0 0 
SMALL
USER_CHARGES


@<TRIPOS>ATOM
  1 CL       1.5860    -1.5620     1.1990 Cl    1 <1>  -0.1770 
  2 C        0.6180    -2.9530     0.7810 C.ar  1 <1>   0.1770 
  3 C        0.7380    -4.1110     1.5270 C.ar  1 <1>  -0.1500 
  4 C       -0.2540    -2.8750    -0.2890 C.ar  1 <1>  -0.1500 
  5 C       -0.0330    -5.2110     1.1910 C.ar  1 <1>  -0.1500 
  6 C       -1.0240    -3.9770    -0.6230 C.ar  1 <1>  -0.1500 
  7 C       -0.9130    -5.1530     0.1200 C.ar  1 <1>   0.0830 
  8 O       -1.6280    -6.2760    -0.1380 O.3   1 <1>  -0.3630 
  9 C       -2.5650    -6.3260    -1.2070 C.3   1 <1>   0.1810 
 10 C       -3.2430    -7.6890    -1.2980 C.2   1 <1>   0.5690 
 11 O       -4.1720    -7.8240    -2.0570 O.2   1 <1>  -0.5700 
 12 N       -2.8080    -8.7160    -0.5250 N.am  1 <1>  -0.7300 
 13 C       -3.3730   -10.0830    -0.5310 C.3   1 <1>   0.2200 
 14 C       -4.5650   -10.1430     0.4280 C.3   1 <1>  -0.0800 
 15 C       -2.3860   -11.0770     0.0760 C.3   1 <1>   0.1200 
 16 C       -4.1100   -11.1190     1.5200 C.3   1 <1>   0.1200 
 17 C       -5.9060   -10.4540    -0.2770 C.3   1 <1>  -0.0550 
 18 O       -2.7240   -11.1480     1.4230 O.3   1 <1>  -0.5600 
 19 S       -6.1140   -12.0930    -0.9950 S.o2  1 <1>   1.3330 
 20 O       -4.8410   -12.5510    -1.5060 O.2   1 <1>  -0.6500 
 21 O       -7.2670   -12.0800    -1.8660 O.2   1 <1>  -0.6500 
 22 N       -6.5200   -13.0620     0.3410 N.am  1 <1>  -0.8490 
 23 C       -6.1070   -14.4570     0.1610 C.3   1 <1>   0.1160 
 24 C       -7.9450   -13.0100     0.6890 C.3   1 <1>   0.1160 
 25 H        1.4220    -4.1470     2.3550 H     1 <1>   0.1500 
 26 H       -0.3250    -1.9600    -0.8500 H     1 <1>   0.1500 
 27 H        0.0460    -6.1210     1.7600 H     1 <1>   0.1500 
 28 H       -1.6950    -3.8980    -1.4570 H     1 <1>   0.1500 
 29 H       -3.3120    -5.5720    -1.0400 H     1 <1>   0.0800 
 30 H       -2.0440    -6.1320    -2.1260 H     1 <1>   0.0800 
 31 H       -2.0920    -8.5320     0.1850 H     1 <1>   0.3700 
 32 H       -3.6220   -10.3620    -1.5420 H     1 <1>   0.0800 
 33 H       -4.6810    -9.1840     0.9010 H     1 <1>   0.0800 
 34 H       -1.3600   -10.7720    -0.0280 H     1 <1>   0.0800 
 35 H       -2.5230   -12.0560    -0.3510 H     1 <1>   0.0800 
 36 H       -4.4570   -12.1220     1.3600 H     1 <1>   0.0800 
 37 H       -4.3860   -10.7900     2.5070 H     1 <1>   0.0800 
 38 H       -6.0210    -9.7320    -1.0630 H     1 <1>   0.0800 
 39 H       -6.7040   -10.2800     0.4170 H     1 <1>   0.0800 
 40 H       -6.3710   -15.0410     1.0260 H     1 <1>   0.0800 
 41 H       -5.0380   -14.5120     0.0340 H     1 <1>   0.0800 
 42 H       -6.5810   -14.8780    -0.7110 H     1 <1>   0.0800 
 43 H       -8.1250   -13.5620     1.5960 H     1 <1>   0.0800 
 44 H       -8.5420   -13.4330    -0.1030 H     1 <1>   0.0800 
 45 H       -8.2540   -11.9910     0.8460 H     1 <1>   0.0800 
@<TRIPOS>BOND
  1   1   2  1   
  2   2   3  ar  
  3   2   4  ar  
  4   3   5  ar  
  5   3  25  1   
  6   4   6  ar  
  7   4  26  1   
  8   5   7  ar  
  9   5  27  1   
 10   6   7  ar  
 11   6  28  1   
 12   7   8  1   
 13   8   9  1   
 14   9  10  1   
 15   9  29  1   
 16   9  30  1   
 17  10  11  2   
 18  10  12  am  
 19  12  13  1   
 20  12  31  1   
 21  13  14  1   
 22  13  15  1   
 23  13  32  1   
 24  14  16  1   
 25  14  17  1   
 26  14  33  1   
 27  15  18  1   
 28  15  34  1   
 29  15  35  1   
 30  16  18  1   
 31  16  36  1   
 32  16  37  1   
 33  17  19  1   
 34  17  38  1   
 35  17  39  1   
 36  19  20  2   
 37  19  21  2   
 38  19  22  am  
 39  22  23  1   
 40  22  24  1   
 41  23  40  1   
 42  23  41  1   
 43  23  42  1   
 44  24  43  1   
 45  24  44  1   
 46  24  45  1   
@<TRIPOS>SUBSTRUCTURE
  1 ****  12 GROUP 4 **** **** 0

# MOE 2024.06 (io_trps.svl 2023.06)
