@<TRIPOS>MOLECULE
NONAME
47 49 1 0 0 
SMALL
USER_CHARGES


@<TRIPOS>ATOM
  1 S       -1.4980     0.8760     2.5320 S.3   1 <1>  -0.0800 
  2 C       -1.6410     0.4200     0.8420 C.2   1 <1>   0.3020 
  3 C       -0.7620     2.3720     2.0630 C.2   1 <1>  -0.1100 
  4 N       -1.1750     1.3180     0.0480 N.2   1 <1>  -0.5650 
  5 N       -2.2420    -0.8460     0.5550 N.pl3 1 <1>   0.6460 
  6 C       -0.6660     2.4420     0.7170 C.2   1 <1>   0.1410 
  7 N       -3.1660    -1.4030     1.3960 N.2   1 <1>  -0.7070 
  8 C       -2.0620    -1.6870    -0.4970 C.2   1 <1>  -0.3320 
  9 C       -0.1100     3.5750    -0.0120 C.2   1 <1>   0.7160 
 10 C       -3.5270    -2.5210     0.8650 C.2   1 <1>   0.1080 
 11 C       -2.8680    -2.7600    -0.3300 C.2   1 <1>  -0.1500 
 12 C       -1.0860    -1.3840    -1.6040 C.3   1 <1>   1.2000 
 13 O        0.6420     3.4260    -0.9560 O.2   1 <1>  -0.5700 
 14 N       -0.4400     4.8440     0.4060 N.am  1 <1>  -0.4940 
 15 C       -4.5470    -3.4360     1.5020 C.3   1 <1>  -0.0590 
 16 F       -1.4660    -0.3660    -2.3600 F     1 <1>  -0.3400 
 17 F       -0.9560    -2.4180    -2.4250 F     1 <1>  -0.3400 
 18 F        0.1310    -1.1210    -1.1530 F     1 <1>  -0.3400 
 19 C       -0.0670     6.1180    -0.0890 C.2   1 <1>  -0.0880 
 20 N        1.1660     6.5260    -0.5170 N.pl3 1 <1>   0.3140 
 21 C       -0.8870     7.1900    -0.2100 C.2   1 <1>  -0.1810 
 22 N        1.1370     7.8260    -0.9080 N.2   1 <1>  -0.7070 
 23 C        2.4270     5.7410    -0.5420 C.3   1 <1>   0.0960 
 24 C       -0.0870     8.2040    -0.7200 C.2   1 <1>   0.1390 
 25 C       -2.3650     7.3240     0.1080 C.3   1 <1>  -0.0590 
 26 C        3.6620     6.5790    -0.1670 C.3   1 <1>  -0.1600 
 27 C        4.9280     5.7140    -0.1170 C.3   1 <1>  -0.1600 
 28 C        6.1540     6.5550     0.2500 C.3   1 <1>  -0.2400 
 29 H       -0.4670     3.0490     2.8440 H     1 <1>   0.1500 
 30 H       -2.9920    -3.6260    -0.9590 H     1 <1>   0.1500 
 31 H       -1.2290     4.8670     1.0490 H     1 <1>   0.3700 
 32 H       -5.4820    -2.9160     1.6060 H     1 <1>   0.0800 
 33 H       -4.2060    -3.7330     2.4770 H     1 <1>   0.0800 
 34 H       -4.6980    -4.3130     0.9000 H     1 <1>   0.0800 
 35 H        2.5430     5.3310    -1.5280 H     1 <1>   0.0800 
 36 H        2.3340     4.9300     0.1550 H     1 <1>   0.0800 
 37 H       -0.4330     9.2000    -0.9420 H     1 <1>   0.1500 
 38 H       -2.7940     6.3680     0.3450 H     1 <1>   0.0800 
 39 H       -2.8830     7.7280    -0.7420 H     1 <1>   0.0800 
 40 H       -2.5000     7.9860     0.9450 H     1 <1>   0.0800 
 41 H        3.5000     7.0360     0.7940 H     1 <1>   0.0800 
 42 H        3.7940     7.3590    -0.8970 H     1 <1>   0.0800 
 43 H        5.0900     5.2540    -1.0770 H     1 <1>   0.0800 
 44 H        4.8050     4.9300     0.6120 H     1 <1>   0.0800 
 45 H        6.3080     7.3320    -0.4780 H     1 <1>   0.0800 
 46 H        7.0320     5.9340     0.2790 H     1 <1>   0.0800 
 47 H        6.0240     7.0080     1.2170 H     1 <1>   0.0800 
@<TRIPOS>BOND
  1   1   2  1   
  2   1   3  1   
  3   2   4  2   
  4   2   5  1   
  5   3   6  2   
  6   3  29  1   
  7   4   6  1   
  8   5   7  1   
  9   5   8  1   
 10   6   9  1   
 11   7  10  2   
 12   8  11  2   
 13   8  12  1   
 14   9  13  2   
 15   9  14  am  
 16  10  11  1   
 17  10  15  1   
 18  11  30  1   
 19  12  16  1   
 20  12  17  1   
 21  12  18  1   
 22  14  19  1   
 23  14  31  1   
 24  15  32  1   
 25  15  33  1   
 26  15  34  1   
 27  19  20  1   
 28  19  21  2   
 29  20  22  1   
 30  20  23  1   
 31  21  24  1   
 32  21  25  1   
 33  22  24  2   
 34  23  26  1   
 35  23  35  1   
 36  23  36  1   
 37  24  37  1   
 38  25  38  1   
 39  25  39  1   
 40  25  40  1   
 41  26  27  1   
 42  26  41  1   
 43  26  42  1   
 44  27  28  1   
 45  27  43  1   
 46  27  44  1   
 47  28  45  1   
 48  28  46  1   
 49  28  47  1   
@<TRIPOS>SUBSTRUCTURE
  1 ****   6 GROUP 4 **** **** 0

# MOE 2024.06 (io_trps.svl 2023.06)
