@<TRIPOS>MOLECULE
NONAME
39 41 1 0 0 
SMALL
USER_CHARGES


@<TRIPOS>ATOM
  1 F        0.3220    -1.0140     1.5680 F     1 <1>  -0.3400 
  2 C        0.6200    -1.6240     0.4290 C.3   1 <1>   0.7800 
  3 F        0.2910    -0.7510    -0.5120 F     1 <1>  -0.3400 
  4 C       -0.2490    -2.8520     0.2870 C.2   1 <1>  -0.3320 
  5 N       -1.5880    -2.7710     0.3170 N.pl3 1 <1>   0.3000 
  6 C        0.0530    -4.1550     0.1190 C.2   1 <1>  -0.1500 
  7 N       -2.1640    -3.9730     0.1750 N.2   1 <1>  -0.7070 
  8 C       -1.1700    -4.8400     0.0510 C.2   1 <1>   0.2030 
  9 C       -1.2470    -6.2920    -0.1300 C.2   1 <1>   0.7160 
 10 O       -0.2110    -6.9380    -0.1940 O.2   1 <1>  -0.5700 
 11 N       -2.4340    -6.9950    -0.2360 N.am  1 <1>  -0.6600 
 12 C       -3.7970    -6.4130    -0.1710 C.3   1 <1>   0.1400 
 13 C       -2.5030    -8.4690    -0.3820 C.3   1 <1>   0.1400 
 14 C       -4.7490    -7.6010    -0.3140 C.3   1 <1>   0.2000 
 15 C       -3.9260    -8.8380     0.0400 C.3   1 <1>  -0.0800 
 16 O       -5.8320    -7.4950     0.5450 O.3   1 <1>  -0.6800 
 17 C       -4.4660   -10.1180    -0.6200 C.3   1 <1>  -0.0170 
 18 C       -3.6420   -11.3360    -0.2400 C.ar  1 <1>   0.1670 
 19 N       -2.5690   -11.5740    -0.9770 N.ar  1 <1>  -0.6200 
 20 C       -4.0350   -12.1210     0.8350 C.ar  1 <1>  -0.1500 
 21 C       -1.8560   -12.6340    -0.6290 C.ar  1 <1>   0.1600 
 22 C       -3.2850   -13.2230     1.1860 C.ar  1 <1>  -0.1500 
 23 C       -2.1640   -13.4770     0.4260 C.ar  1 <1>  -0.1500 
 24 H        1.6810    -1.7990     0.3910 H     1 <1>   0.0800 
 25 H       -2.1280    -1.9020     0.4340 H     1 <1>   0.2700 
 26 H        1.0180    -4.6290     0.0460 H     1 <1>   0.1500 
 27 H       -3.9300    -5.9210     0.7770 H     1 <1>   0.0800 
 28 H       -3.9400    -5.7110    -0.9740 H     1 <1>   0.0800 
 29 H       -2.3260    -8.7290    -1.4120 H     1 <1>   0.0800 
 30 H       -1.7680    -8.9600     0.2360 H     1 <1>   0.0800 
 31 H       -5.1190    -7.6520    -1.3240 H     1 <1>   0.0800 
 32 H       -3.9140    -8.9680     1.1080 H     1 <1>   0.0800 
 33 H       -5.5230    -7.4030     1.4660 H     1 <1>   0.4000 
 34 H       -4.4590   -10.0120    -1.6910 H     1 <1>   0.0800 
 35 H       -5.4870   -10.2680    -0.3170 H     1 <1>   0.0800 
 36 H       -4.9190   -11.8730     1.3930 H     1 <1>   0.1500 
 37 H       -0.9790   -12.8420    -1.2160 H     1 <1>   0.1500 
 38 H       -3.5600   -13.8530     2.0130 H     1 <1>   0.1500 
 39 H       -1.5330   -14.3190     0.6440 H     1 <1>   0.1500 
@<TRIPOS>BOND
  1   1   2  1   
  2   2   3  1   
  3   2   4  1   
  4   2  24  1   
  5   4   5  1   
  6   4   6  2   
  7   5   7  1   
  8   5  25  1   
  9   6   8  1   
 10   6  26  1   
 11   7   8  2   
 12   8   9  1   
 13   9  10  2   
 14   9  11  am  
 15  11  12  1   
 16  11  13  1   
 17  12  14  1   
 18  12  27  1   
 19  12  28  1   
 20  13  15  1   
 21  13  29  1   
 22  13  30  1   
 23  14  15  1   
 24  14  16  1   
 25  14  31  1   
 26  15  17  1   
 27  15  32  1   
 28  16  33  1   
 29  17  18  1   
 30  17  34  1   
 31  17  35  1   
 32  18  19  ar  
 33  18  20  ar  
 34  19  21  ar  
 35  20  22  ar  
 36  20  36  1   
 37  21  23  ar  
 38  21  37  1   
 39  22  23  ar  
 40  22  38  1   
 41  23  39  1   
@<TRIPOS>SUBSTRUCTURE
  1 ****  11 GROUP 4 **** **** 0

# MOE 2024.06 (io_trps.svl 2023.06)
