@<TRIPOS>MOLECULE
NONAME
51 53 1 0 0 
SMALL
USER_CHARGES


@<TRIPOS>ATOM
  1 O       -0.6140     0.3250    -1.1580 O.2   1 <1>  -0.5700 
  2 C       -1.6090     0.8600    -0.7250 C.2   1 <1>   0.5690 
  3 N       -2.7230     0.1420    -0.3880 N.am  1 <1>  -0.6600 
  4 C       -1.5560     2.3890    -0.5520 C.3   1 <1>   0.4040 
  5 C       -4.0340     0.6710     0.0760 C.3   1 <1>   0.1400 
  6 C       -2.7840    -1.3360    -0.5340 C.3   1 <1>   0.1400 
  7 N       -0.1460     2.9200    -0.4260 N.4   1 <1>  -0.9590 
  8 C       -4.9700    -0.5390     0.0810 C.3   1 <1>   0.2000 
  9 C       -4.0610    -1.7610     0.1910 C.3   1 <1>  -0.0800 
 10 C        0.4600     2.5180     0.8760 C.3   1 <1>   0.3430 
 11 C       -0.0730     4.3720    -0.7410 C.3   1 <1>   0.3430 
 12 O       -5.8470    -0.4900     1.1510 O.3   1 <1>  -0.6800 
 13 C       -4.6980    -3.0400    -0.3770 C.3   1 <1>  -0.0170 
 14 C        1.9690     2.3450     0.7110 C.3   1 <1>  -0.1600 
 15 C        1.3690     4.8610    -0.8900 C.3   1 <1>  -0.1600 
 16 C       -3.7370    -4.2130    -0.2810 C.ar  1 <1>  -0.1430 
 17 C        2.7990     3.6300     0.8710 C.3   1 <1>  -0.1600 
 18 C        2.1230     4.9410     0.4460 C.3   1 <1>  -0.1600 
 19 C       -3.0080    -4.6570    -1.3660 C.ar  1 <1>  -0.1500 
 20 C       -3.5410    -4.8940     0.9040 C.ar  1 <1>  -0.1500 
 21 C       -2.1380    -5.7250    -1.2160 C.ar  1 <1>   0.1600 
 22 C       -2.6470    -5.9500     0.9470 C.ar  1 <1>   0.1600 
 23 N       -1.9380    -6.3800    -0.0840 N.ar  1 <1>  -0.6200 
 24 H       -2.1300     2.6650     0.3150 H     1 <1>   0.0800 
 25 H       -2.0250     2.8240    -1.4180 H     1 <1>   0.0800 
 26 H       -3.9300     1.0680     1.0720 H     1 <1>   0.0800 
 27 H       -4.4050     1.4250    -0.5950 H     1 <1>   0.0800 
 28 H       -2.8370    -1.5820    -1.5810 H     1 <1>   0.0800 
 29 H       -1.9130    -1.8060    -0.1060 H     1 <1>   0.0800 
 30 H        0.3890     2.3990    -1.1410 H     1 <1>   0.4500 
 31 H       -5.5470    -0.5560    -0.8280 H     1 <1>   0.0800 
 32 H       -3.8000    -1.9240     1.2220 H     1 <1>   0.0800 
 33 H        0.2410     3.2400     1.6470 H     1 <1>   0.0800 
 34 H        0.0530     1.5660     1.1770 H     1 <1>   0.0800 
 35 H       -0.5880     4.5570    -1.6700 H     1 <1>   0.0800 
 36 H       -0.5650     4.9410     0.0310 H     1 <1>   0.0800 
 37 H       -5.3900    -0.6780     1.9930 H     1 <1>   0.4000 
 38 H       -4.9830    -2.8870    -1.4040 H     1 <1>   0.0800 
 39 H       -5.5940    -3.2690     0.1750 H     1 <1>   0.0800 
 40 H        2.3060     1.6480     1.4590 H     1 <1>   0.0800 
 41 H        2.1760     1.8870    -0.2420 H     1 <1>   0.0800 
 42 H        1.9080     4.2660    -1.6060 H     1 <1>   0.0800 
 43 H        1.3190     5.8590    -1.2900 H     1 <1>   0.0800 
 44 H        3.0870     3.7310     1.9040 H     1 <1>   0.0800 
 45 H        3.7120     3.5100     0.3110 H     1 <1>   0.0800 
 46 H        2.8950     5.6880     0.3590 H     1 <1>   0.0800 
 47 H        1.4570     5.2790     1.2220 H     1 <1>   0.0800 
 48 H       -3.1050    -4.1880    -2.3280 H     1 <1>   0.1500 
 49 H       -4.0750    -4.6150     1.7930 H     1 <1>   0.1500 
 50 H       -1.5770    -6.0590    -2.0730 H     1 <1>   0.1500 
 51 H       -2.5060    -6.4700     1.8800 H     1 <1>   0.1500 
@<TRIPOS>BOND
  1   1   2  2   
  2   2   3  am  
  3   2   4  1   
  4   3   5  1   
  5   3   6  1   
  6   4   7  1   
  7   4  24  1   
  8   4  25  1   
  9   5   8  1   
 10   5  26  1   
 11   5  27  1   
 12   6   9  1   
 13   6  28  1   
 14   6  29  1   
 15   7  10  1   
 16   7  11  1   
 17   7  30  1   
 18   8   9  1   
 19   8  12  1   
 20   8  31  1   
 21   9  13  1   
 22   9  32  1   
 23  10  14  1   
 24  10  33  1   
 25  10  34  1   
 26  11  15  1   
 27  11  35  1   
 28  11  36  1   
 29  12  37  1   
 30  13  16  1   
 31  13  38  1   
 32  13  39  1   
 33  14  17  1   
 34  14  40  1   
 35  14  41  1   
 36  15  18  1   
 37  15  42  1   
 38  15  43  1   
 39  16  19  ar  
 40  16  20  ar  
 41  17  18  1   
 42  17  44  1   
 43  17  45  1   
 44  18  46  1   
 45  18  47  1   
 46  19  21  ar  
 47  19  48  1   
 48  20  22  ar  
 49  20  49  1   
 50  21  23  ar  
 51  21  50  1   
 52  22  23  ar  
 53  22  51  1   
@<TRIPOS>SUBSTRUCTURE
  1 ****   3 GROUP 4 **** **** 0

# MOE 2024.06 (io_trps.svl 2023.06)
