@<TRIPOS>MOLECULE
STOCK7S-72797
47 48 1 0 0 
SMALL
USER_CHARGES


@<TRIPOS>ATOM
  1 O        6.4150     5.1500     1.4070 O.2   1 <1>  -0.5700 
  2 C        6.6900     4.3780     0.5120 C.2   1 <1>   0.6340 
  3 O        5.6990     3.6580    -0.0300 O.3   1 <1>  -0.4300 
  4 C        8.0340     4.1950    -0.0040 C.ar  1 <1>   0.0860 
  5 C        4.3670     3.7470     0.4250 C.3   1 <1>   0.2000 
  6 C        9.1050     4.9330     0.5070 C.ar  1 <1>  -0.1500 
  7 C        8.3210     3.2830    -1.0250 C.ar  1 <1>  -0.1500 
  8 C        3.6310     2.4520     0.0480 C.3   1 <1>  -0.0800 
  9 C        3.7090     4.9690    -0.2220 C.3   1 <1>  -0.1600 
 10 C       10.3920     4.7730     0.0270 C.ar  1 <1>  -0.1500 
 11 C        9.6060     3.1190    -1.5090 C.ar  1 <1>  -0.1500 
 12 C        2.1450     2.5840     0.4010 C.3   1 <1>   0.3430 
 13 C        4.2360     1.2280     0.7580 C.3   1 <1>  -0.2400 
 14 C        2.2340     5.0430     0.1530 C.3   1 <1>   0.3430 
 15 C       10.6450     3.8650    -0.9840 C.ar  1 <1>  -0.1500 
 16 N        1.5450     3.7860    -0.2620 N.4   1 <1>  -0.9590 
 17 C        0.0740     3.9040     0.0160 C.3   1 <1>   0.3430 
 18 C       -0.7540     2.7890    -0.6350 C.3   1 <1>   0.1200 
 19 O       -2.0810     3.0430    -0.3280 O.3   1 <1>  -0.5600 
 20 C       -2.9850     2.1310    -0.8620 C.3   1 <1>   0.1200 
 21 C       -4.3790     2.5610    -0.4240 C.3   1 <1>  -0.2400 
 22 H        4.3790     3.8510     1.4990 H     1 <1>   0.0800 
 23 H        8.9230     5.6440     1.2950 H     1 <1>   0.1500 
 24 H        7.5300     2.6910    -1.4490 H     1 <1>   0.1500 
 25 H        3.7130     2.3010    -1.0140 H     1 <1>   0.0800 
 26 H        3.8110     4.9270    -1.2910 H     1 <1>   0.0800 
 27 H        4.1940     5.8650     0.1280 H     1 <1>   0.0800 
 28 H       11.1980     5.3560     0.4400 H     1 <1>   0.1500 
 29 H        9.8010     2.4100    -2.2960 H     1 <1>   0.1500 
 30 H        2.0400     2.6700     1.4710 H     1 <1>   0.0800 
 31 H        1.6310     1.6910     0.0850 H     1 <1>   0.0800 
 32 H        4.1950     1.3410     1.8280 H     1 <1>   0.0800 
 33 H        5.2670     1.1030     0.4750 H     1 <1>   0.0800 
 34 H        3.7090     0.3300     0.4860 H     1 <1>   0.0800 
 35 H        1.7840     5.8920    -0.3360 H     1 <1>   0.0800 
 36 H        2.1410     5.1780     1.2190 H     1 <1>   0.0800 
 37 H       11.6460     3.7380    -1.3600 H     1 <1>   0.1500 
 38 H        1.6740     3.6910    -1.2790 H     1 <1>   0.4500 
 39 H       -0.2870     4.8450    -0.3650 H     1 <1>   0.0800 
 40 H       -0.0970     3.8850     1.0800 H     1 <1>   0.0800 
 41 H       -0.4960     1.8230    -0.2360 H     1 <1>   0.0800 
 42 H       -0.6440     2.8040    -1.7050 H     1 <1>   0.0800 
 43 H       -2.7580     1.1470    -0.4870 H     1 <1>   0.0800 
 44 H       -2.9070     2.1450    -1.9370 H     1 <1>   0.0800 
 45 H       -4.4490     2.5560     0.6490 H     1 <1>   0.0800 
 46 H       -5.1110     1.8800    -0.8180 H     1 <1>   0.0800 
 47 H       -4.5970     3.5480    -0.7930 H     1 <1>   0.0800 
@<TRIPOS>BOND
  1   1   2  2   
  2   2   3  1   
  3   2   4  1   
  4   3   5  1   
  5   4   6  ar  
  6   4   7  ar  
  7   5   8  1   
  8   5   9  1   
  9   5  22  1   
 10   6  10  ar  
 11   6  23  1   
 12   7  11  ar  
 13   7  24  1   
 14   8  12  1   
 15   8  13  1   
 16   8  25  1   
 17   9  14  1   
 18   9  26  1   
 19   9  27  1   
 20  10  15  ar  
 21  10  28  1   
 22  11  15  ar  
 23  11  29  1   
 24  12  16  1   
 25  12  30  1   
 26  12  31  1   
 27  13  32  1   
 28  13  33  1   
 29  13  34  1   
 30  14  16  1   
 31  14  35  1   
 32  14  36  1   
 33  15  37  1   
 34  16  17  1   
 35  16  38  1   
 36  17  18  1   
 37  17  39  1   
 38  17  40  1   
 39  18  19  1   
 40  18  41  1   
 41  18  42  1   
 42  19  20  1   
 43  20  21  1   
 44  20  43  1   
 45  20  44  1   
 46  21  45  1   
 47  21  46  1   
 48  21  47  1   
@<TRIPOS>SUBSTRUCTURE
  1 ****   5 GROUP 4 **** **** 0

# MOE 2024.06 (io_trps.svl 2023.06)
