@<TRIPOS>MOLECULE
NONAME
59 62 1 0 0 
SMALL
USER_CHARGES


@<TRIPOS>ATOM
  1 O        0.1190    -0.0290     0.5480 O.2   1 <1>  -0.5700 
  2 C        1.1490    -0.5500     0.1650 C.2   1 <1>   0.5440 
  3 N        2.2210     0.2310    -0.2040 N.am  1 <1>  -0.4940 
  4 C        1.2640    -1.9910     0.0900 C.ar  1 <1>   0.0860 
  5 C        2.4800     1.6150    -0.0920 C.2   1 <1>  -0.0880 
  6 C        0.1430    -2.7880    -0.1570 C.ar  1 <1>  -0.1500 
  7 C        2.4860    -2.6490     0.2570 C.ar  1 <1>  -0.1500 
  8 N        1.6140     2.6580    -0.2030 N.pl3 1 <1>   0.3140 
  9 C        3.7150     2.1520     0.1200 C.2   1 <1>  -0.0540 
 10 C        0.2250    -4.1640    -0.2540 C.ar  1 <1>  -0.1440 
 11 C        2.5790    -4.0210     0.1620 C.ar  1 <1>  -0.1500 
 12 N        2.2530     3.8430    -0.0700 N.2   1 <1>  -0.7070 
 13 C        0.1800     2.6450    -0.5200 C.3   1 <1>   0.0160 
 14 C        4.9610     1.4500     0.2970 C.ar  1 <1>   0.0540 
 15 C        3.4910     3.5320     0.1280 C.2   1 <1>   0.1080 
 16 C        1.4570    -4.8000    -0.0980 C.ar  1 <1>   0.1000 
 17 C       -1.0290    -4.9810    -0.5300 C.3   1 <1>  -0.0970 
 18 C        6.0330     1.6510    -0.5680 C.ar  1 <1>  -0.1500 
 19 C        5.1200     0.5370     1.3350 C.ar  1 <1>  -0.1500 
 20 C        4.5520     4.5880     0.3470 C.3   1 <1>  -0.0590 
 21 N        1.5700    -6.1770    -0.1910 N.pl3 1 <1>  -0.8380 
 22 C        7.2230     0.9650    -0.4090 C.ar  1 <1>  -0.1500 
 23 C        6.3050    -0.1550     1.5000 C.ar  1 <1>  -0.1500 
 24 C        1.7820    -6.9340     1.0760 C.3   1 <1>   0.2090 
 25 C        2.3550    -6.7370    -1.3280 C.3   1 <1>   0.2090 
 26 C        7.3650     0.0510     0.6320 C.ar  1 <1>   0.0830 
 27 C        1.6160    -8.4460     0.8430 C.3   1 <1>   0.1200 
 28 C        2.1550    -8.2600    -1.4300 C.3   1 <1>   0.1200 
 29 O        8.4940    -0.6660     0.8620 O.3   1 <1>  -0.3630 
 30 O        2.4340    -8.8870    -0.2070 O.3   1 <1>  -0.5600 
 31 C        9.6560    -0.4710     0.0870 C.3   1 <1>   0.0400 
 32 H        3.0380    -0.3060    -0.4940 H     1 <1>   0.3700 
 33 H       -0.8090    -2.3010    -0.2750 H     1 <1>   0.1500 
 34 H        3.3760    -2.0870     0.4750 H     1 <1>   0.1500 
 35 H        3.5270    -4.5080     0.2940 H     1 <1>   0.1500 
 36 H       -0.0230     1.8590    -1.2220 H     1 <1>   0.0800 
 37 H       -0.0970     3.5910    -0.9460 H     1 <1>   0.0800 
 38 H       -0.3750     2.4800     0.3840 H     1 <1>   0.0800 
 39 H       -1.8910    -4.3500    -0.6410 H     1 <1>   0.0800 
 40 H       -1.2020    -5.6630     0.2830 H     1 <1>   0.0800 
 41 H       -0.8990    -5.5500    -1.4330 H     1 <1>   0.0800 
 42 H        5.9230     2.3530    -1.3770 H     1 <1>   0.1500 
 43 H        4.3040     0.3780     2.0180 H     1 <1>   0.1500 
 44 H        5.3230     4.2140     0.9950 H     1 <1>   0.0800 
 45 H        4.1080     5.4550     0.8010 H     1 <1>   0.0800 
 46 H        4.9810     4.8690    -0.5960 H     1 <1>   0.0800 
 47 H        8.0230     1.1500    -1.1000 H     1 <1>   0.1500 
 48 H        6.4200    -0.8570     2.3060 H     1 <1>   0.1500 
 49 H        1.0710    -6.6010     1.8120 H     1 <1>   0.0800 
 50 H        2.7720    -6.7390     1.4510 H     1 <1>   0.0800 
 51 H        3.4010    -6.5270    -1.1850 H     1 <1>   0.0800 
 52 H        2.0380    -6.2690    -2.2430 H     1 <1>   0.0800 
 53 H        0.5930    -8.6750     0.6010 H     1 <1>   0.0800 
 54 H        1.8940    -8.9910     1.7270 H     1 <1>   0.0800 
 55 H        2.8170    -8.6730    -2.1700 H     1 <1>   0.0800 
 56 H        1.1410    -8.4850    -1.7080 H     1 <1>   0.0800 
 57 H       10.4230    -1.1210     0.4670 H     1 <1>   0.0800 
 58 H        9.9680     0.5550     0.1770 H     1 <1>   0.0800 
 59 H        9.4400    -0.7210    -0.9370 H     1 <1>   0.0800 
@<TRIPOS>BOND
  1   1   2  2   
  2   2   3  am  
  3   2   4  1   
  4   3   5  1   
  5   3  32  1   
  6   4   6  ar  
  7   4   7  ar  
  8   5   8  1   
  9   5   9  2   
 10   6  10  ar  
 11   6  33  1   
 12   7  11  ar  
 13   7  34  1   
 14   8  12  1   
 15   8  13  1   
 16   9  14  1   
 17   9  15  1   
 18  10  16  ar  
 19  10  17  1   
 20  11  16  ar  
 21  11  35  1   
 22  12  15  2   
 23  13  36  1   
 24  13  37  1   
 25  13  38  1   
 26  14  18  ar  
 27  14  19  ar  
 28  15  20  1   
 29  16  21  1   
 30  17  39  1   
 31  17  40  1   
 32  17  41  1   
 33  18  22  ar  
 34  18  42  1   
 35  19  23  ar  
 36  19  43  1   
 37  20  44  1   
 38  20  45  1   
 39  20  46  1   
 40  21  24  1   
 41  21  25  1   
 42  22  26  ar  
 43  22  47  1   
 44  23  26  ar  
 45  23  48  1   
 46  24  27  1   
 47  24  49  1   
 48  24  50  1   
 49  25  28  1   
 50  25  51  1   
 51  25  52  1   
 52  26  29  1   
 53  27  30  1   
 54  27  53  1   
 55  27  54  1   
 56  28  30  1   
 57  28  55  1   
 58  28  56  1   
 59  29  31  1   
 60  31  57  1   
 61  31  58  1   
 62  31  59  1   
@<TRIPOS>SUBSTRUCTURE
  1 ****   7 GROUP 4 **** **** 0

# MOE 2024.06 (io_trps.svl 2023.06)
