@<TRIPOS>MOLECULE
NONAME
51 54 1 0 0 
SMALL
USER_CHARGES


@<TRIPOS>ATOM
  1 S        0.4420     0.0930     1.1590 S.o2  1 <1>   1.0900 
  2 O        1.4970    -0.7180     1.7100 O.2   1 <1>  -0.6500 
  3 O       -0.9240     0.0570     1.6150 O.2   1 <1>  -0.6500 
  4 C        0.9220     1.7900     1.2450 C.3   1 <1>  -0.0550 
  5 C        0.4430     0.0370    -0.6270 C.3   1 <1>  -0.0550 
  6 C        0.1850     2.3980     0.0610 C.3   1 <1>   0.4230 
  7 C        0.4450     1.4870    -1.1490 C.3   1 <1>  -0.1600 
  8 N        0.5480     3.8220    -0.2230 N.4   1 <1>  -0.9590 
  9 C        2.0100     4.1040    -0.3720 C.3   1 <1>   0.3430 
 10 C       -0.0680     4.7400     0.7800 C.3   1 <1>   0.3430 
 11 C        2.1950     5.5230    -0.9050 C.3   1 <1>  -0.1600 
 12 C        0.0530     6.1800     0.2860 C.3   1 <1>  -0.1600 
 13 C        1.5090     6.5860    -0.0210 C.3   1 <1>  -0.0190 
 14 C        1.5410     7.9530    -0.7070 C.2   1 <1>   0.5690 
 15 O        1.0120     8.0410    -1.7890 O.2   1 <1>  -0.5700 
 16 N        2.1490     8.9960    -0.0830 N.am  1 <1>  -0.4930 
 17 C        2.2260    10.3520    -0.5000 C.2   1 <1>   0.0630 
 18 C        2.9650    11.3090     0.1120 C.2   1 <1>  -0.0680 
 19 C        1.5730    11.0120    -1.5450 C.2   1 <1>   0.1390 
 20 N        2.7020    12.4640    -0.5530 N.pl3 1 <1>   0.3140 
 21 N        3.8490    11.2170     1.2160 N.pl3 1 <1>  -0.8530 
 22 N        1.8500    12.2820    -1.5880 N.2   1 <1>  -0.7070 
 23 C        3.2890    13.7610    -0.1850 C.3   1 <1>   0.0960 
 24 C        4.6280    12.4460     1.5420 C.3   1 <1>   0.2090 
 25 C        3.7990    13.7110     1.2670 C.3   1 <1>  -0.1600 
 26 H        1.9840     1.8670     1.1250 H     1 <1>   0.0800 
 27 H        0.6160     2.2230     2.1780 H     1 <1>   0.0800 
 28 H       -0.4280    -0.4910    -0.9740 H     1 <1>   0.0800 
 29 H        1.3130    -0.4830    -0.9840 H     1 <1>   0.0800 
 30 H       -0.8720     2.3460     0.2800 H     1 <1>   0.0800 
 31 H       -0.3200     1.6150    -1.8960 H     1 <1>   0.0800 
 32 H        1.4050     1.6850    -1.5900 H     1 <1>   0.0800 
 33 H        0.1140     4.0690    -1.1250 H     1 <1>   0.4500 
 34 H        2.4600     3.4090    -1.0630 H     1 <1>   0.0800 
 35 H        2.5050     4.0070     0.5800 H     1 <1>   0.0800 
 36 H        0.4290     4.6380     1.7320 H     1 <1>   0.0800 
 37 H       -1.1120     4.5000     0.9150 H     1 <1>   0.0800 
 38 H        1.8030     5.5680    -1.9070 H     1 <1>   0.0800 
 39 H        3.2470     5.7410    -0.9710 H     1 <1>   0.0800 
 40 H       -0.3510     6.8440     1.0310 H     1 <1>   0.0800 
 41 H       -0.5540     6.2940    -0.5970 H     1 <1>   0.0800 
 42 H        2.0460     6.6530     0.9090 H     1 <1>   0.0800 
 43 H        2.5550     8.8630     0.8420 H     1 <1>   0.3700 
 44 H        0.9070    10.5280    -2.2380 H     1 <1>   0.1500 
 45 H        4.4780    10.4080     1.1470 H     1 <1>   0.4000 
 46 H        2.5420    14.5230    -0.3010 H     1 <1>   0.0800 
 47 H        4.0990    13.9580    -0.8620 H     1 <1>   0.0800 
 48 H        5.5260    12.4620     0.9470 H     1 <1>   0.0800 
 49 H        4.9100    12.4190     2.5810 H     1 <1>   0.0800 
 50 H        2.9590    13.7270     1.9390 H     1 <1>   0.0800 
 51 H        4.3930    14.5840     1.4690 H     1 <1>   0.0800 
@<TRIPOS>BOND
  1   1   2  2   
  2   1   3  2   
  3   1   4  1   
  4   1   5  1   
  5   4   6  1   
  6   4  26  1   
  7   4  27  1   
  8   5   7  1   
  9   5  28  1   
 10   5  29  1   
 11   6   7  1   
 12   6   8  1   
 13   6  30  1   
 14   7  31  1   
 15   7  32  1   
 16   8   9  1   
 17   8  10  1   
 18   8  33  1   
 19   9  11  1   
 20   9  34  1   
 21   9  35  1   
 22  10  12  1   
 23  10  36  1   
 24  10  37  1   
 25  11  13  1   
 26  11  38  1   
 27  11  39  1   
 28  12  13  1   
 29  12  40  1   
 30  12  41  1   
 31  13  14  1   
 32  13  42  1   
 33  14  15  2   
 34  14  16  am  
 35  16  17  1   
 36  16  43  1   
 37  17  18  2   
 38  17  19  1   
 39  18  20  1   
 40  18  21  1   
 41  19  22  2   
 42  19  44  1   
 43  20  22  1   
 44  20  23  1   
 45  21  24  1   
 46  21  45  1   
 47  23  25  1   
 48  23  46  1   
 49  23  47  1   
 50  24  25  1   
 51  24  48  1   
 52  24  49  1   
 53  25  50  1   
 54  25  51  1   
@<TRIPOS>SUBSTRUCTURE
  1 ****  13 GROUP 4 **** **** 0

# MOE 2024.06 (io_trps.svl 2023.06)
