@<TRIPOS>MOLECULE
NONAME
50 52 1 0 0 
SMALL
USER_CHARGES


@<TRIPOS>ATOM
  1 S        3.2490     3.3270    -3.7920 S.3   1 <1>  -0.0800 
  2 C        2.6200     3.0390    -2.1650 C.2   1 <1>  -0.0450 
  3 C        3.3570     1.6150    -4.1340 C.2   1 <1>  -0.1100 
  4 C        2.3370     4.1760    -1.3300 C.2   1 <1>   0.7150 
  5 C        2.5300     1.6980    -1.9680 C.2   1 <1>  -0.1500 
  6 C        2.9430     0.8990    -3.0740 C.2   1 <1>  -0.1500 
  7 O        2.2810     5.3010    -1.7910 O.2   1 <1>  -0.5700 
  8 N        2.1950     4.0010     0.0130 N.am  1 <1>  -0.7300 
  9 C        1.9800     5.0600     1.0340 C.3   1 <1>   0.3610 
 10 C        2.8460     6.3640     0.8450 C.2   1 <1>   0.5690 
 11 C        2.2880     4.4200     2.3950 C.3   1 <1>  -0.2400 
 12 C        0.4690     5.3530     0.9980 C.3   1 <1>  -0.2400 
 13 O        2.2570     7.4240     0.8080 O.2   1 <1>  -0.5700 
 14 N        4.2310     6.3800     0.7410 N.am  1 <1>  -0.6600 
 15 C        4.9670     7.6880     0.8630 C.3   1 <1>   0.1400 
 16 C        5.1350     5.2010     0.5800 C.3   1 <1>   0.1400 
 17 C        5.7360     8.1380    -0.4100 C.3   1 <1>   0.4230 
 18 C        5.9700     5.2480    -0.7210 C.3   1 <1>  -0.0800 
 19 N        5.2510     7.5460    -1.7190 N.4   1 <1>  -0.9590 
 20 C        7.2590     7.9540    -0.2320 C.3   1 <1>   0.1200 
 21 C        7.4490     5.6010    -0.4960 C.3   1 <1>   0.1200 
 22 C        5.3440     6.0520    -1.8730 C.3   1 <1>   0.3430 
 23 C        3.8350     7.9620    -1.9960 C.3   1 <1>   0.2630 
 24 O        7.5880     6.7150     0.3200 O.3   1 <1>  -0.5600 
 25 H        3.7200     1.3200    -5.1030 H     1 <1>   0.1500 
 26 H        2.1770     1.2250    -1.0680 H     1 <1>   0.1500 
 27 H        2.9090    -0.1770    -3.0290 H     1 <1>   0.1500 
 28 H        2.0560     3.0540     0.3600 H     1 <1>   0.3700 
 29 H        2.0990     5.1340     3.1770 H     1 <1>   0.0800 
 30 H        3.3180     4.1250     2.4650 H     1 <1>   0.0800 
 31 H        1.6640     3.5620     2.5720 H     1 <1>   0.0800 
 32 H        0.2080     6.0480     1.7780 H     1 <1>   0.0800 
 33 H       -0.1090     4.4580     1.1360 H     1 <1>   0.0800 
 34 H        0.2020     5.8020     0.0580 H     1 <1>   0.0800 
 35 H        4.2860     8.4780     1.1220 H     1 <1>   0.0800 
 36 H        5.6500     7.6200     1.6920 H     1 <1>   0.0800 
 37 H        5.7920     5.1480     1.4330 H     1 <1>   0.0800 
 38 H        4.5650     4.2950     0.5810 H     1 <1>   0.0800 
 39 H        5.5910     9.2030    -0.4790 H     1 <1>   0.0800 
 40 H        5.9910     4.2340    -1.0790 H     1 <1>   0.0800 
 41 H        5.8290     7.9550    -2.4620 H     1 <1>   0.4500 
 42 H        7.6150     8.6930     0.4640 H     1 <1>   0.0800 
 43 H        7.7910     8.0860    -1.1580 H     1 <1>   0.0800 
 44 H        7.9720     5.7710    -1.4230 H     1 <1>   0.0800 
 45 H        7.9360     4.7880     0.0150 H     1 <1>   0.0800 
 46 H        4.3620     5.6600    -2.0460 H     1 <1>   0.0800 
 47 H        5.9090     5.8410    -2.7650 H     1 <1>   0.0800 
 48 H        3.1630     7.5120    -1.2870 H     1 <1>   0.0800 
 49 H        3.5340     7.6410    -2.9800 H     1 <1>   0.0800 
 50 H        3.7310     9.0320    -1.9330 H     1 <1>   0.0800 
@<TRIPOS>BOND
  1   1   2  1   
  2   1   3  1   
  3   2   4  1   
  4   2   5  2   
  5   3   6  2   
  6   3  25  1   
  7   4   7  2   
  8   4   8  am  
  9   5   6  1   
 10   5  26  1   
 11   6  27  1   
 12   8   9  1   
 13   8  28  1   
 14   9  10  1   
 15   9  11  1   
 16   9  12  1   
 17  10  13  2   
 18  10  14  am  
 19  11  29  1   
 20  11  30  1   
 21  11  31  1   
 22  12  32  1   
 23  12  33  1   
 24  12  34  1   
 25  14  15  1   
 26  14  16  1   
 27  15  17  1   
 28  15  35  1   
 29  15  36  1   
 30  16  18  1   
 31  16  37  1   
 32  16  38  1   
 33  17  19  1   
 34  17  20  1   
 35  17  39  1   
 36  18  21  1   
 37  18  22  1   
 38  18  40  1   
 39  19  22  1   
 40  19  23  1   
 41  19  41  1   
 42  20  24  1   
 43  20  42  1   
 44  20  43  1   
 45  21  24  1   
 46  21  44  1   
 47  21  45  1   
 48  22  46  1   
 49  22  47  1   
 50  23  48  1   
 51  23  49  1   
 52  23  50  1   
@<TRIPOS>SUBSTRUCTURE
  1 ****  16 GROUP 4 **** **** 0

# MOE 2024.06 (io_trps.svl 2023.06)
