@<TRIPOS>MOLECULE
NONAME
49 52 1 0 0 
SMALL
USER_CHARGES


@<TRIPOS>ATOM
  1 F       -0.3820    -1.1300    -0.1670 F     1 <1>  -0.1900 
  2 C        0.3440    -2.1020     0.3280 C.ar  1 <1>   0.1900 
  3 C        0.5630    -2.1550     1.6950 C.ar  1 <1>   0.1900 
  4 C        0.8690    -3.0680    -0.5210 C.ar  1 <1>  -0.1440 
  5 F        0.0520    -1.2420     2.4810 F     1 <1>  -0.1900 
  6 C        1.3170    -3.1680     2.2560 C.ar  1 <1>  -0.1500 
  7 C        1.6320    -4.0820     0.0480 C.ar  1 <1>  -0.1500 
  8 C        0.6270    -3.0590    -2.0330 C.3   1 <1>   0.0450 
  9 C        1.8530    -4.1340     1.4190 C.ar  1 <1>  -0.1500 
 10 C        0.0560    -4.3820    -2.5260 C.2   1 <1>   0.5690 
 11 O        0.7790    -5.0710    -3.2070 O.2   1 <1>  -0.5700 
 12 N       -1.2110    -4.7860    -2.1850 N.am  1 <1>  -0.6600 
 13 C       -2.1490    -4.0500    -1.2840 C.3   1 <1>   0.1400 
 14 C       -1.6740    -6.1860    -2.4310 C.3   1 <1>   0.1400 
 15 C       -2.2820    -4.8050     0.0510 C.3   1 <1>   0.1900 
 16 C       -1.8800    -6.9220    -1.0930 C.3   1 <1>   0.1100 
 17 N       -2.7910    -6.1790    -0.1880 N.3   1 <1>  -0.8100 
 18 C       -3.2020    -4.0410     1.0230 C.3   1 <1>   0.1200 
 19 C       -2.9760    -6.8780     1.1070 C.3   1 <1>   0.3330 
 20 O       -3.3280    -4.7410     2.2270 O.3   1 <1>  -0.5600 
 21 C       -3.6250    -8.2470     0.9060 C.ar  1 <1>  -0.1430 
 22 C       -3.8480    -6.0340     2.0620 C.3   1 <1>   0.1200 
 23 C       -4.7460    -8.3930     0.1000 C.ar  1 <1>  -0.1500 
 24 C       -3.0990    -9.3650     1.5380 C.ar  1 <1>  -0.1500 
 25 C       -5.3330    -9.6340    -0.0710 C.ar  1 <1>  -0.1500 
 26 C       -3.6840   -10.6080     1.3670 C.ar  1 <1>  -0.1500 
 27 C       -4.8020   -10.7430     0.5630 C.ar  1 <1>  -0.1500 
 28 H        1.4780    -3.1970     3.3190 H     1 <1>   0.1500 
 29 H        2.0600    -4.8480    -0.5810 H     1 <1>   0.1500 
 30 H        1.5660    -2.8860    -2.5280 H     1 <1>   0.0800 
 31 H       -0.0350    -2.2680    -2.3300 H     1 <1>   0.0800 
 32 H        2.4470    -4.9320     1.8340 H     1 <1>   0.1500 
 33 H       -1.8130    -3.0470    -1.1080 H     1 <1>   0.0800 
 34 H       -3.1150    -3.9910    -1.7530 H     1 <1>   0.0800 
 35 H       -2.6030    -6.1640    -2.9710 H     1 <1>   0.0800 
 36 H       -0.9580    -6.7250    -3.0270 H     1 <1>   0.0800 
 37 H       -1.3050    -4.8570     0.5020 H     1 <1>   0.0800 
 38 H       -0.9220    -7.0580    -0.6200 H     1 <1>   0.0800 
 39 H       -2.2880    -7.8950    -1.3030 H     1 <1>   0.0800 
 40 H       -4.1810    -3.9090     0.5960 H     1 <1>   0.0800 
 41 H       -2.7860    -3.0750     1.2510 H     1 <1>   0.0800 
 42 H       -2.0140    -7.0110     1.5710 H     1 <1>   0.0800 
 43 H       -3.8850    -6.5000     3.0300 H     1 <1>   0.0800 
 44 H       -4.8500    -5.9550     1.6810 H     1 <1>   0.0800 
 45 H       -5.1580    -7.5330    -0.4000 H     1 <1>   0.1500 
 46 H       -2.2310    -9.2750     2.1670 H     1 <1>   0.1500 
 47 H       -6.2010    -9.7360    -0.6990 H     1 <1>   0.1500 
 48 H       -3.2710   -11.4700     1.8610 H     1 <1>   0.1500 
 49 H       -5.2570   -11.7090     0.4300 H     1 <1>   0.1500 
@<TRIPOS>BOND
  1   1   2  1   
  2   2   3  ar  
  3   2   4  ar  
  4   3   5  1   
  5   3   6  ar  
  6   4   7  ar  
  7   4   8  1   
  8   6   9  ar  
  9   6  28  1   
 10   7   9  ar  
 11   7  29  1   
 12   8  10  1   
 13   8  30  1   
 14   8  31  1   
 15   9  32  1   
 16  10  11  2   
 17  10  12  am  
 18  12  13  1   
 19  12  14  1   
 20  13  15  1   
 21  13  33  1   
 22  13  34  1   
 23  14  16  1   
 24  14  35  1   
 25  14  36  1   
 26  15  17  1   
 27  15  18  1   
 28  15  37  1   
 29  16  17  1   
 30  16  38  1   
 31  16  39  1   
 32  17  19  1   
 33  18  20  1   
 34  18  40  1   
 35  18  41  1   
 36  19  21  1   
 37  19  22  1   
 38  19  42  1   
 39  20  22  1   
 40  21  23  ar  
 41  21  24  ar  
 42  22  43  1   
 43  22  44  1   
 44  23  25  ar  
 45  23  45  1   
 46  24  26  ar  
 47  24  46  1   
 48  25  27  ar  
 49  25  47  1   
 50  26  27  ar  
 51  26  48  1   
 52  27  49  1   
@<TRIPOS>SUBSTRUCTURE
  1 ****  15 GROUP 4 **** **** 0

# MOE 2024.06 (io_trps.svl 2023.06)
