@<TRIPOS>MOLECULE
NONAME
46 48 1 0 0 
SMALL
USER_CHARGES


@<TRIPOS>ATOM
  1 S        0.4140     0.4900    -0.9080 S.o2  1 <1>   1.3330 
  2 O       -0.4840     0.5690     0.2220 O.2   1 <1>  -0.6500 
  3 O        0.4910     1.5970    -1.8350 O.2   1 <1>  -0.6500 
  4 N        0.0200    -0.9100    -1.7840 N.am  1 <1>  -0.8490 
  5 C        2.0780     0.1360    -0.3410 C.3   1 <1>  -0.0550 
  6 C       -0.9100    -0.6360    -2.8840 C.3   1 <1>   0.1160 
  7 C       -0.5050    -1.9940    -0.9450 C.3   1 <1>   0.1160 
  8 C        2.7160     1.2910     0.4560 C.3   1 <1>  -0.0800 
  9 C        4.1950     1.0390     0.6960 C.3   1 <1>   0.2200 
 10 C        2.1750     1.3730     1.8880 C.3   1 <1>   0.1200 
 11 N        4.8680     2.3310     0.9430 N.am  1 <1>  -0.7300 
 12 C        4.1710     0.2150     1.9780 C.3   1 <1>   0.1200 
 13 O        3.0450     0.6310     2.6920 O.3   1 <1>  -0.5600 
 14 C        5.6160     3.0130     0.0380 C.2   1 <1>   0.7150 
 15 O        5.8280     2.5020    -1.0450 O.2   1 <1>  -0.5700 
 16 C        6.1230     4.3030     0.3990 C.2   1 <1>  -0.2370 
 17 N        6.3620     5.3080    -0.5050 N.pl3 1 <1>   0.2940 
 18 C        6.4490     4.7750     1.6470 C.2   1 <1>  -0.1500 
 19 C        6.8360     6.3760     0.1830 C.2   1 <1>  -0.3020 
 20 C        6.1220     5.2870    -1.9690 C.3   1 <1>  -0.0910 
 21 C        6.9010     6.0830     1.5080 C.2   1 <1>  -0.1500 
 22 C        5.5940     6.4980    -2.6820 C.3   1 <1>  -0.2000 
 23 C        4.7080     5.3120    -2.4700 C.3   1 <1>  -0.2000 
 24 H        2.0710    -0.7540     0.2580 H     1 <1>   0.0800 
 25 H        2.6830    -0.0560    -1.2060 H     1 <1>   0.0800 
 26 H       -1.1260    -1.5410    -3.4260 H     1 <1>   0.0800 
 27 H       -0.4720     0.0690    -3.5710 H     1 <1>   0.0800 
 28 H       -1.8290    -0.2220    -2.5030 H     1 <1>   0.0800 
 29 H       -0.6470    -2.8830    -1.5360 H     1 <1>   0.0800 
 30 H       -1.4490    -1.7090    -0.5090 H     1 <1>   0.0800 
 31 H        0.1860    -2.2190    -0.1520 H     1 <1>   0.0800 
 32 H        2.5600     2.2120    -0.0800 H     1 <1>   0.0800 
 33 H        4.6770     0.5150    -0.1130 H     1 <1>   0.0800 
 34 H        1.1800     0.9790     1.9990 H     1 <1>   0.0800 
 35 H        2.1940     2.3890     2.2420 H     1 <1>   0.0800 
 36 H        4.6390     2.7850     1.8270 H     1 <1>   0.3700 
 37 H        5.0530     0.3560     2.5780 H     1 <1>   0.0800 
 38 H        4.0470    -0.8300     1.7560 H     1 <1>   0.0800 
 39 H        6.3870     4.2470     2.5830 H     1 <1>   0.1500 
 40 H        7.1030     7.2940    -0.3080 H     1 <1>   0.1500 
 41 H        6.8210     4.6440    -2.4750 H     1 <1>   0.1000 
 42 H        7.2350     6.7210     2.3090 H     1 <1>   0.1500 
 43 H        5.3850     7.3960    -2.1260 H     1 <1>   0.1000 
 44 H        5.9360     6.7020    -3.6820 H     1 <1>   0.1000 
 45 H        4.4560     4.6980    -3.3180 H     1 <1>   0.1000 
 46 H        3.9050     5.3810    -1.7570 H     1 <1>   0.1000 
@<TRIPOS>BOND
  1   1   2  2   
  2   1   3  2   
  3   1   4  am  
  4   1   5  1   
  5   4   6  1   
  6   4   7  1   
  7   5   8  1   
  8   5  24  1   
  9   5  25  1   
 10   6  26  1   
 11   6  27  1   
 12   6  28  1   
 13   7  29  1   
 14   7  30  1   
 15   7  31  1   
 16   8   9  1   
 17   8  10  1   
 18   8  32  1   
 19   9  11  1   
 20   9  12  1   
 21   9  33  1   
 22  10  13  1   
 23  10  34  1   
 24  10  35  1   
 25  11  14  am  
 26  11  36  1   
 27  12  13  1   
 28  12  37  1   
 29  12  38  1   
 30  14  15  2   
 31  14  16  1   
 32  16  17  1   
 33  16  18  2   
 34  17  19  1   
 35  17  20  1   
 36  18  21  1   
 37  18  39  1   
 38  19  21  2   
 39  19  40  1   
 40  20  22  1   
 41  20  23  1   
 42  20  41  1   
 43  21  42  1   
 44  22  23  1   
 45  22  43  1   
 46  22  44  1   
 47  23  45  1   
 48  23  46  1   
@<TRIPOS>SUBSTRUCTURE
  1 ****   8 GROUP 4 **** **** 0

# MOE 2024.06 (io_trps.svl 2023.06)
