@<TRIPOS>MOLECULE
NONAME
50 51 1 0 0 
SMALL
USER_CHARGES


@<TRIPOS>ATOM
  1 O       -1.3360     0.8290     2.8600 O.2   1 <1>  -0.5700 
  2 C       -2.2050     1.2020     2.0980 C.2   1 <1>   0.5440 
  3 N       -3.3930     0.5040     2.0360 N.am  1 <1>  -0.6600 
  4 C       -1.9760     2.3750     1.2970 C.ar  1 <1>   0.0860 
  5 C       -3.4410    -0.9020     2.5550 C.3   1 <1>   0.3210 
  6 C       -4.7180     1.1530     1.7800 C.3   1 <1>   0.1400 
  7 C       -1.7590     2.2600    -0.0790 C.ar  1 <1>   0.3920 
  8 C       -1.9610     3.6470     1.8490 C.ar  1 <1>  -0.1500 
  9 C       -3.1650    -1.9080     1.4400 C.2   1 <1>   0.0460 
 10 C       -5.4620     0.5540     0.5710 C.3   1 <1>   0.3430 
 11 O       -1.7310     1.0210    -0.6110 O.3   1 <1>  -0.3630 
 12 N       -1.6080     3.2860    -0.9130 N.ar  1 <1>  -0.6200 
 13 C       -1.7650     4.7150     1.0010 C.ar  1 <1>  -0.1500 
 14 N       -4.1400    -2.3180     0.5980 N.2   1 <1>  -0.5650 
 15 C       -1.9960    -2.5300     1.1580 C.2   1 <1>  -0.3320 
 16 N       -4.6700     0.6590    -0.6910 N.4   1 <1>  -0.9590 
 17 C       -1.1620     0.7750    -1.8800 C.3   1 <1>   0.1200 
 18 C       -1.5990     4.4840    -0.3530 C.ar  1 <1>   0.1600 
 19 C       -3.5510    -3.1950    -0.1510 C.2   1 <1>   0.0360 
 20 N       -2.2450    -3.3650     0.1350 N.pl3 1 <1>   0.0330 
 21 C       -0.6210    -2.4080     1.7980 C.3   1 <1>  -0.0600 
 22 C       -4.6460     2.0400    -1.2610 C.3   1 <1>   0.2630 
 23 C       -5.1550    -0.3240    -1.7000 C.3   1 <1>   0.2630 
 24 C       -1.1820    -0.7310    -2.1200 C.3   1 <1>  -0.2400 
 25 H       -4.4050    -1.1100     2.9830 H     1 <1>   0.0800 
 26 H       -2.7160    -1.0370     3.3370 H     1 <1>   0.0800 
 27 H       -4.5920     2.2110     1.6350 H     1 <1>   0.0800 
 28 H       -5.3330     1.0290     2.6550 H     1 <1>   0.0800 
 29 H       -2.0900     3.7850     2.9090 H     1 <1>   0.1500 
 30 H       -6.4100     1.0510     0.4470 H     1 <1>   0.0800 
 31 H       -5.6630    -0.4830     0.7830 H     1 <1>   0.0800 
 32 H       -1.7370     5.7200     1.3840 H     1 <1>   0.1500 
 33 H       -3.7000     0.3760    -0.4250 H     1 <1>   0.4500 
 34 H       -0.1510     1.1490    -1.8770 H     1 <1>   0.0800 
 35 H       -1.7370     1.2950    -2.6270 H     1 <1>   0.0800 
 36 H       -1.4470     5.3290    -1.0060 H     1 <1>   0.1500 
 37 H       -4.0350    -3.7550    -0.9330 H     1 <1>   0.1500 
 38 H       -1.5870    -4.0080    -0.3160 H     1 <1>   0.2700 
 39 H       -0.6380    -1.7140     2.6180 H     1 <1>   0.0800 
 40 H        0.0940    -2.0540     1.0770 H     1 <1>   0.0800 
 41 H       -0.2970    -3.3630     2.1720 H     1 <1>   0.0800 
 42 H       -5.6330     2.3340    -1.5780 H     1 <1>   0.0800 
 43 H       -3.9820     2.0790    -2.1090 H     1 <1>   0.0800 
 44 H       -4.2920     2.7450    -0.5270 H     1 <1>   0.0800 
 45 H       -6.1560    -0.0780    -2.0120 H     1 <1>   0.0800 
 46 H       -5.1600    -1.3170    -1.2820 H     1 <1>   0.0800 
 47 H       -4.5090    -0.3200    -2.5620 H     1 <1>   0.0800 
 48 H       -0.5950    -1.2270    -1.3680 H     1 <1>   0.0800 
 49 H       -0.7570    -0.9500    -3.0830 H     1 <1>   0.0800 
 50 H       -2.1890    -1.1040    -2.0940 H     1 <1>   0.0800 
@<TRIPOS>BOND
  1   1   2  2   
  2   2   3  am  
  3   2   4  1   
  4   3   5  1   
  5   3   6  1   
  6   4   7  ar  
  7   4   8  ar  
  8   5   9  1   
  9   5  25  1   
 10   5  26  1   
 11   6  10  1   
 12   6  27  1   
 13   6  28  1   
 14   7  11  1   
 15   7  12  ar  
 16   8  13  ar  
 17   8  29  1   
 18   9  14  1   
 19   9  15  2   
 20  10  16  1   
 21  10  30  1   
 22  10  31  1   
 23  11  17  1   
 24  12  18  ar  
 25  13  18  ar  
 26  13  32  1   
 27  14  19  2   
 28  15  20  1   
 29  15  21  1   
 30  16  22  1   
 31  16  23  1   
 32  16  33  1   
 33  17  24  1   
 34  17  34  1   
 35  17  35  1   
 36  18  36  1   
 37  19  20  1   
 38  19  37  1   
 39  20  38  1   
 40  21  39  1   
 41  21  40  1   
 42  21  41  1   
 43  22  42  1   
 44  22  43  1   
 45  22  44  1   
 46  23  45  1   
 47  23  46  1   
 48  23  47  1   
 49  24  48  1   
 50  24  49  1   
 51  24  50  1   
@<TRIPOS>SUBSTRUCTURE
  1 ****  11 GROUP 4 **** **** 0

# MOE 2024.06 (io_trps.svl 2023.06)
