@<TRIPOS>MOLECULE
NONAME
51 53 1 0 0 
SMALL
USER_CHARGES


@<TRIPOS>ATOM
  1 F       -2.8730    -0.8260     2.7750 F     1 <1>  -0.1900 
  2 C       -2.7280     0.0250     1.7940 C.ar  1 <1>   0.1900 
  3 C       -2.7420    -0.4440     0.4910 C.ar  1 <1>  -0.1440 
  4 C       -2.5520     1.3600     2.1020 C.ar  1 <1>  -0.1500 
  5 C       -2.5460     0.4730    -0.5310 C.ar  1 <1>  -0.1500 
  6 C       -2.9580    -1.9170     0.2080 C.3   1 <1>   0.4870 
  7 C       -2.3720     2.2660     1.0710 C.ar  1 <1>  -0.1500 
  8 C       -2.3670     1.8210    -0.2510 C.ar  1 <1>   0.0820 
  9 N       -4.3980    -2.2260     0.0710 N.4   1 <1>  -0.9590 
 10 O       -2.1950     2.6360    -1.3200 O.3   1 <1>  -0.3630 
 11 C       -4.6540    -3.6990    -0.1330 C.3   1 <1>   0.3430 
 12 C       -5.1660    -1.3730    -0.8740 C.3   1 <1>   0.3430 
 13 C       -1.9680     4.0200    -1.1590 C.3   1 <1>   0.0400 
 14 C       -6.0860    -4.0080    -0.6400 C.3   1 <1>   0.2000 
 15 C       -6.6780    -1.5590    -0.6580 C.3   1 <1>  -0.1600 
 16 O       -6.0780    -3.9890    -2.0380 O.3   1 <1>  -0.6800 
 17 C       -7.0820    -2.9610    -0.0990 C.3   1 <1>  -0.1060 
 18 C       -6.8930    -3.0560     1.4210 C.2   1 <1>   0.9060 
 19 C       -8.5480    -3.3080    -0.4710 C.3   1 <1>  -0.0170 
 20 O       -6.2510    -2.1760     2.0100 O.co2 1 <1>  -0.9000 
 21 O       -7.1730    -4.1210     1.9700 O.co2 1 <1>  -0.9000 
 22 C       -9.5430    -2.2200    -0.0820 C.ar  1 <1>  -0.1430 
 23 C       -9.9400    -2.0770     1.2380 C.ar  1 <1>  -0.1500 
 24 C      -10.0680    -1.3660    -1.0420 C.ar  1 <1>  -0.1500 
 25 C      -10.8400    -1.0890     1.5970 C.ar  1 <1>  -0.1500 
 26 C      -10.9700    -0.3790    -0.6850 C.ar  1 <1>  -0.1500 
 27 C      -11.3570    -0.2390     0.6360 C.ar  1 <1>  -0.1500 
 28 H       -2.5580     1.6780     3.1300 H     1 <1>   0.1500 
 29 H       -2.5310     0.1630    -1.5610 H     1 <1>   0.1500 
 30 H       -2.5430    -2.4970     1.0160 H     1 <1>   0.0800 
 31 H       -2.4430    -2.1840    -0.7000 H     1 <1>   0.0800 
 32 H       -2.2390     3.3040     1.3130 H     1 <1>   0.1500 
 33 H       -4.8570    -2.0170     1.0010 H     1 <1>   0.4500 
 34 H       -3.9470    -4.1150    -0.8300 H     1 <1>   0.0800 
 35 H       -4.5260    -4.1940     0.8170 H     1 <1>   0.0800 
 36 H       -4.9220    -0.3330    -0.7330 H     1 <1>   0.0800 
 37 H       -4.9150    -1.6530    -1.8840 H     1 <1>   0.0800 
 38 H       -1.8460     4.4540    -2.1350 H     1 <1>   0.0800 
 39 H       -1.0720     4.1620    -0.5820 H     1 <1>   0.0800 
 40 H       -2.8180     4.4600    -0.6690 H     1 <1>   0.0800 
 41 H       -6.3660    -5.0020    -0.3290 H     1 <1>   0.0800 
 42 H       -7.0370    -0.7920     0.0070 H     1 <1>   0.0800 
 43 H       -7.1560    -1.3900    -1.6060 H     1 <1>   0.0800 
 44 H       -6.9530    -4.2640    -2.3760 H     1 <1>   0.4000 
 45 H       -8.6280    -3.4740    -1.5290 H     1 <1>   0.0800 
 46 H       -8.8370    -4.2270     0.0110 H     1 <1>   0.0800 
 47 H       -9.5440    -2.7330     1.9970 H     1 <1>   0.1500 
 48 H       -9.7760    -1.4630    -2.0720 H     1 <1>   0.1500 
 49 H      -11.1330    -0.9870     2.6270 H     1 <1>   0.1500 
 50 H      -11.3720     0.2800    -1.4340 H     1 <1>   0.1500 
 51 H      -12.0560     0.5280     0.9170 H     1 <1>   0.1500 
@<TRIPOS>BOND
  1   1   2  1   
  2   2   3  ar  
  3   2   4  ar  
  4   3   5  ar  
  5   3   6  1   
  6   4   7  ar  
  7   4  28  1   
  8   5   8  ar  
  9   5  29  1   
 10   6   9  1   
 11   6  30  1   
 12   6  31  1   
 13   7   8  ar  
 14   7  32  1   
 15   8  10  1   
 16   9  11  1   
 17   9  12  1   
 18   9  33  1   
 19  10  13  1   
 20  11  14  1   
 21  11  34  1   
 22  11  35  1   
 23  12  15  1   
 24  12  36  1   
 25  12  37  1   
 26  13  38  1   
 27  13  39  1   
 28  13  40  1   
 29  14  16  1   
 30  14  17  1   
 31  14  41  1   
 32  15  17  1   
 33  15  42  1   
 34  15  43  1   
 35  16  44  1   
 36  17  18  1   
 37  17  19  1   
 38  18  20  ar  
 39  18  21  ar  
 40  19  22  1   
 41  19  45  1   
 42  19  46  1   
 43  22  23  ar  
 44  22  24  ar  
 45  23  25  ar  
 46  23  47  1   
 47  24  26  ar  
 48  24  48  1   
 49  25  27  ar  
 50  25  49  1   
 51  26  27  ar  
 52  26  50  1   
 53  27  51  1   
@<TRIPOS>SUBSTRUCTURE
  1 ****  15 GROUP 4 **** **** 0

# MOE 2024.06 (io_trps.svl 2023.06)
