@<TRIPOS>MOLECULE
NONAME
47 48 1 0 0 
SMALL
USER_CHARGES


@<TRIPOS>ATOM
  1 O       -0.3610    -0.2260     0.2160 O.2   1 <1>  -0.5700 
  2 C       -1.4120     0.3560     0.4090 C.2   1 <1>   0.5440 
  3 N       -1.3790     1.7080     0.7020 N.am  1 <1>  -0.6600 
  4 C       -2.6480    -0.3870     0.3360 C.ar  1 <1>   0.0860 
  5 C       -0.1370     2.5100     0.5140 C.3   1 <1>   0.0600 
  6 C       -2.4720     2.4240     1.4160 C.3   1 <1>   0.0600 
  7 C       -2.7560    -1.6350     0.9440 C.ar  1 <1>   0.1600 
  8 C       -3.7740     0.0820    -0.3350 C.ar  1 <1>  -0.1500 
  9 N       -3.8340    -2.4020     0.9640 N.ar  1 <1>  -0.6200 
 10 C       -4.9020    -0.7020    -0.3310 C.ar  1 <1>  -0.1500 
 11 C       -4.8910    -1.9310     0.3240 C.ar  1 <1>   0.4100 
 12 N       -5.9770    -2.7450     0.3570 N.pl3 1 <1>  -0.8690 
 13 C       -6.7540    -3.1220    -0.8290 C.3   1 <1>   0.4330 
 14 C       -7.9430    -3.9920    -0.4190 C.ar  1 <1>  -0.1430 
 15 C       -5.8540    -3.8450    -1.8300 C.3   1 <1>  -0.2400 
 16 C       -7.8160    -5.1350     0.3750 C.ar  1 <1>   0.0830 
 17 C       -9.2050    -3.6240    -0.8670 C.ar  1 <1>  -0.1500 
 18 O       -6.5750    -5.4900     0.8100 O.3   1 <1>  -0.3620 
 19 C       -8.9490    -5.8800     0.6990 C.ar  1 <1>  -0.1500 
 20 C      -10.3300    -4.3620    -0.5450 C.ar  1 <1>   0.0830 
 21 C       -6.3830    -6.4880     1.7870 C.3   1 <1>   0.0400 
 22 C      -10.1980    -5.4980     0.2440 C.ar  1 <1>  -0.1500 
 23 O      -11.5160    -3.9160    -1.0380 O.3   1 <1>  -0.3620 
 24 C      -12.7220    -4.5880    -0.7530 C.3   1 <1>   0.0400 
 25 H        0.5330     2.0140    -0.1680 H     1 <1>   0.0800 
 26 H        0.3610     2.6320     1.4590 H     1 <1>   0.0800 
 27 H       -0.3820     3.4760     0.1090 H     1 <1>   0.0800 
 28 H       -3.1930     1.7300     1.8110 H     1 <1>   0.0800 
 29 H       -2.9650     3.1000     0.7390 H     1 <1>   0.0800 
 30 H       -2.0630     2.9860     2.2370 H     1 <1>   0.0800 
 31 H       -1.8840    -2.0150     1.4490 H     1 <1>   0.1500 
 32 H       -3.7500     1.0320    -0.8400 H     1 <1>   0.1500 
 33 H       -5.7990    -0.3790    -0.8220 H     1 <1>   0.1500 
 34 H       -5.8130    -3.5870     0.9200 H     1 <1>   0.4000 
 35 H       -7.1250    -2.2230    -1.2900 H     1 <1>   0.0800 
 36 H       -5.4060    -4.7100    -1.3780 H     1 <1>   0.0800 
 37 H       -5.0790    -3.1880    -2.1770 H     1 <1>   0.0800 
 38 H       -6.4380    -4.1620    -2.6740 H     1 <1>   0.0800 
 39 H       -9.3370    -2.7490    -1.4770 H     1 <1>   0.1500 
 40 H       -8.8790    -6.7630     1.3030 H     1 <1>   0.1500 
 41 H       -5.3360    -6.5150     2.0330 H     1 <1>   0.0800 
 42 H       -6.6860    -7.4370     1.3830 H     1 <1>   0.0800 
 43 H       -6.9570    -6.2370     2.6610 H     1 <1>   0.0800 
 44 H      -11.0490    -6.0940     0.5120 H     1 <1>   0.1500 
 45 H      -13.5220    -4.0560    -1.2360 H     1 <1>   0.0800 
 46 H      -12.8770    -4.5920     0.3110 H     1 <1>   0.0800 
 47 H      -12.6640    -5.5890    -1.1400 H     1 <1>   0.0800 
@<TRIPOS>BOND
  1   1   2  2   
  2   2   3  am  
  3   2   4  1   
  4   3   5  1   
  5   3   6  1   
  6   4   7  ar  
  7   4   8  ar  
  8   5  25  1   
  9   5  26  1   
 10   5  27  1   
 11   6  28  1   
 12   6  29  1   
 13   6  30  1   
 14   7   9  ar  
 15   7  31  1   
 16   8  10  ar  
 17   8  32  1   
 18   9  11  ar  
 19  10  11  ar  
 20  10  33  1   
 21  11  12  1   
 22  12  13  1   
 23  12  34  1   
 24  13  14  1   
 25  13  15  1   
 26  13  35  1   
 27  14  16  ar  
 28  14  17  ar  
 29  15  36  1   
 30  15  37  1   
 31  15  38  1   
 32  16  18  1   
 33  16  19  ar  
 34  17  20  ar  
 35  17  39  1   
 36  18  21  1   
 37  19  22  ar  
 38  19  40  1   
 39  20  22  ar  
 40  20  23  1   
 41  21  41  1   
 42  21  42  1   
 43  21  43  1   
 44  22  44  1   
 45  23  24  1   
 46  24  45  1   
 47  24  46  1   
 48  24  47  1   
@<TRIPOS>SUBSTRUCTURE
  1 ****  12 GROUP 4 **** **** 0

# MOE 2024.06 (io_trps.svl 2023.06)
