@<TRIPOS>MOLECULE
NONAME
54 56 1 0 0 
SMALL
USER_CHARGES


@<TRIPOS>ATOM
  1 O       -0.4740    -0.5770     1.1160 O.3   1 <1>  -0.5600 
  2 C       -0.4730    -1.5800     0.1490 C.3   1 <1>   0.1200 
  3 C       -1.5500     0.3070     1.0430 C.3   1 <1>   0.1200 
  4 C       -1.7410    -2.4440     0.2960 C.3   1 <1>   0.3430 
  5 C       -2.8730    -0.4610     1.2220 C.3   1 <1>   0.3430 
  6 N       -3.0110    -1.6160     0.2420 N.4   1 <1>  -0.9590 
  7 C       -4.2850    -2.3930     0.4770 C.3   1 <1>   0.4230 
  8 C       -4.3370    -3.7790    -0.2650 C.3   1 <1>   0.3430 
  9 C       -5.4660    -1.4990     0.0740 C.3   1 <1>  -0.2400 
 10 N       -5.6210    -4.5740    -0.1320 N.4   1 <1>  -0.9590 
 11 C       -5.3410    -6.0410    -0.0070 C.3   1 <1>   0.3430 
 12 C       -6.5660    -4.3430    -1.2740 C.3   1 <1>   0.3430 
 13 C       -6.6320    -6.7830     0.3250 C.3   1 <1>  -0.1600 
 14 C       -7.8970    -5.0200    -0.9730 C.3   1 <1>  -0.1600 
 15 C       -7.7220    -6.5160    -0.7180 C.3   1 <1>   0.2000 
 16 O       -8.9250    -6.9610    -0.2040 O.3   1 <1>  -0.5600 
 17 C       -9.2370    -8.3110    -0.4560 C.3   1 <1>   0.2630 
 18 C      -10.4500    -8.7760     0.3440 C.ar  1 <1>   0.1670 
 19 N      -10.5490   -10.0880     0.5090 N.ar  1 <1>  -0.6200 
 20 C      -11.3740    -7.8660     0.8450 C.ar  1 <1>  -0.1500 
 21 C      -11.5980   -10.5060     1.2000 C.ar  1 <1>   0.1600 
 22 C      -12.4610    -8.3160     1.5620 C.ar  1 <1>  -0.1500 
 23 C      -12.5660    -9.6780     1.7390 C.ar  1 <1>  -0.1500 
 24 H        0.4080    -2.1800     0.3050 H     1 <1>   0.0800 
 25 H       -0.4090    -1.1270    -0.8260 H     1 <1>   0.0800 
 26 H       -1.5160     0.8240     0.1000 H     1 <1>   0.0800 
 27 H       -1.4310     1.0300     1.8320 H     1 <1>   0.0800 
 28 H       -1.6790    -2.9600     1.2410 H     1 <1>   0.0800 
 29 H       -1.7400    -3.1820    -0.4890 H     1 <1>   0.0800 
 30 H       -3.6860     0.2350     1.1000 H     1 <1>   0.0800 
 31 H       -2.9080    -0.8330     2.2330 H     1 <1>   0.0800 
 32 H       -3.0500    -1.1810    -0.6910 H     1 <1>   0.4500 
 33 H       -4.3570    -2.5960     1.5340 H     1 <1>   0.0800 
 34 H       -3.5320    -4.3790     0.1270 H     1 <1>   0.0800 
 35 H       -4.1400    -3.6180    -1.3120 H     1 <1>   0.0800 
 36 H       -5.4460    -1.2800    -0.9790 H     1 <1>   0.0800 
 37 H       -5.4750    -0.5750     0.6220 H     1 <1>   0.0800 
 38 H       -6.3980    -1.9840     0.3020 H     1 <1>   0.0800 
 39 H       -6.1260    -4.3160     0.7310 H     1 <1>   0.4500 
 40 H       -4.6240    -6.2200     0.7790 H     1 <1>   0.0800 
 41 H       -4.9340    -6.4210    -0.9310 H     1 <1>   0.0800 
 42 H       -6.1540    -4.7500    -2.1840 H     1 <1>   0.0800 
 43 H       -6.7350    -3.2890    -1.4220 H     1 <1>   0.0800 
 44 H       -6.9770    -6.4810     1.2990 H     1 <1>   0.0800 
 45 H       -6.4220    -7.8370     0.3630 H     1 <1>   0.0800 
 46 H       -8.5590    -4.8850    -1.8110 H     1 <1>   0.0800 
 47 H       -8.3510    -4.5520    -0.1160 H     1 <1>   0.0800 
 48 H       -7.5140    -7.0270    -1.6460 H     1 <1>   0.0800 
 49 H       -8.3950    -8.9210    -0.1840 H     1 <1>   0.0800 
 50 H       -9.4380    -8.4280    -1.5060 H     1 <1>   0.0800 
 51 H      -11.2470    -6.8130     0.6760 H     1 <1>   0.1500 
 52 H      -11.6910   -11.5690     1.3440 H     1 <1>   0.1500 
 53 H      -13.1920    -7.6360     1.9640 H     1 <1>   0.1500 
 54 H      -13.3890   -10.0960     2.2890 H     1 <1>   0.1500 
@<TRIPOS>BOND
  1   1   2  1   
  2   1   3  1   
  3   2   4  1   
  4   2  24  1   
  5   2  25  1   
  6   3   5  1   
  7   3  26  1   
  8   3  27  1   
  9   4   6  1   
 10   4  28  1   
 11   4  29  1   
 12   5   6  1   
 13   5  30  1   
 14   5  31  1   
 15   6   7  1   
 16   6  32  1   
 17   7   8  1   
 18   7   9  1   
 19   7  33  1   
 20   8  10  1   
 21   8  34  1   
 22   8  35  1   
 23   9  36  1   
 24   9  37  1   
 25   9  38  1   
 26  10  11  1   
 27  10  12  1   
 28  10  39  1   
 29  11  13  1   
 30  11  40  1   
 31  11  41  1   
 32  12  14  1   
 33  12  42  1   
 34  12  43  1   
 35  13  15  1   
 36  13  44  1   
 37  13  45  1   
 38  14  15  1   
 39  14  46  1   
 40  14  47  1   
 41  15  16  1   
 42  15  48  1   
 43  16  17  1   
 44  17  18  1   
 45  17  49  1   
 46  17  50  1   
 47  18  19  ar  
 48  18  20  ar  
 49  19  21  ar  
 50  20  22  ar  
 51  20  51  1   
 52  21  23  ar  
 53  21  52  1   
 54  22  23  ar  
 55  22  53  1   
 56  23  54  1   
@<TRIPOS>SUBSTRUCTURE
  1 ****  10 GROUP 4 **** **** 0

# MOE 2024.06 (io_trps.svl 2023.06)
