@<TRIPOS>MOLECULE
NONAME
36 38 1 0 0 
SMALL
USER_CHARGES


@<TRIPOS>ATOM
  1 O       -0.5780    -0.3510    -0.3040 O.2   1 <1>  -0.5700 
  2 C       -0.3700    -1.5300    -0.1100 C.2   1 <1>   0.5690 
  3 N        0.8810    -1.9870     0.2360 N.am  1 <1>  -0.6600 
  4 C       -1.5570    -2.5200    -0.2710 C.3   1 <1>   0.3500 
  5 C        1.0970    -3.4190     0.5790 C.3   1 <1>   0.1400 
  6 C        2.0760    -1.1020     0.2990 C.3   1 <1>   0.0600 
  7 N       -1.3400    -3.9170     0.2660 N.pl3 1 <1>  -0.8380 
  8 C       -1.9340    -2.6610    -1.7500 C.3   1 <1>  -0.2400 
  9 C       -0.1690    -4.0470     1.1790 C.3   1 <1>   0.2090 
 10 C       -2.4670    -4.5920     0.6540 C.ar  1 <1>   0.4100 
 11 N       -3.0230    -4.2520     1.7970 N.ar  1 <1>  -0.6200 
 12 C       -2.9940    -5.5940    -0.1310 C.ar  1 <1>  -0.1500 
 13 C       -4.1080    -4.9290     2.1190 C.ar  1 <1>   0.4700 
 14 C       -4.1220    -6.2300     0.3100 C.ar  1 <1>   0.2780 
 15 N       -4.7010    -5.9010     1.4480 N.ar  1 <1>  -0.6200 
 16 C       -4.7680    -7.3450    -0.4970 C.3   1 <1>  -0.0680 
 17 C       -4.6650    -8.7630    -0.0260 C.3   1 <1>  -0.2000 
 18 C       -3.9630    -8.3410    -1.2800 C.3   1 <1>  -0.2000 
 19 H       -2.3920    -2.0820     0.2490 H     1 <1>   0.0800 
 20 H        1.8960    -3.5010     1.2940 H     1 <1>   0.0800 
 21 H        1.3790    -3.9590    -0.3090 H     1 <1>   0.0800 
 22 H        1.8310    -0.1080    -0.0330 H     1 <1>   0.0800 
 23 H        2.8530    -1.4930    -0.3340 H     1 <1>   0.0800 
 24 H        2.4340    -1.0460     1.3120 H     1 <1>   0.0800 
 25 H       -1.1290    -3.1250    -2.2910 H     1 <1>   0.0800 
 26 H       -2.1150    -1.6880    -2.1710 H     1 <1>   0.0800 
 27 H       -2.8280    -3.2460    -1.8560 H     1 <1>   0.0800 
 28 H       -0.3920    -3.5670     2.1180 H     1 <1>   0.0800 
 29 H        0.0090    -5.0900     1.3760 H     1 <1>   0.0800 
 30 H       -2.5190    -5.8480    -1.0560 H     1 <1>   0.1500 
 31 H       -4.5730    -4.6540     3.0510 H     1 <1>   0.1500 
 32 H       -5.7160    -7.0390    -0.9020 H     1 <1>   0.1000 
 33 H       -5.5380    -9.3870    -0.0950 H     1 <1>   0.1000 
 34 H       -4.0850    -8.9610     0.8600 H     1 <1>   0.1000 
 35 H       -2.8880    -8.2970    -1.2620 H     1 <1>   0.1000 
 36 H       -4.3450    -8.6830    -2.2260 H     1 <1>   0.1000 
@<TRIPOS>BOND
  1   1   2  2   
  2   2   3  am  
  3   2   4  1   
  4   3   5  1   
  5   3   6  1   
  6   4   7  1   
  7   4   8  1   
  8   4  19  1   
  9   5   9  1   
 10   5  20  1   
 11   5  21  1   
 12   6  22  1   
 13   6  23  1   
 14   6  24  1   
 15   7   9  1   
 16   7  10  1   
 17   8  25  1   
 18   8  26  1   
 19   8  27  1   
 20   9  28  1   
 21   9  29  1   
 22  10  11  ar  
 23  10  12  ar  
 24  11  13  ar  
 25  12  14  ar  
 26  12  30  1   
 27  13  15  ar  
 28  13  31  1   
 29  14  15  ar  
 30  14  16  1   
 31  16  17  1   
 32  16  18  1   
 33  16  32  1   
 34  17  18  1   
 35  17  33  1   
 36  17  34  1   
 37  18  35  1   
 38  18  36  1   
@<TRIPOS>SUBSTRUCTURE
  1 ****  10 GROUP 4 **** **** 0

# MOE 2024.06 (io_trps.svl 2023.06)
