@<TRIPOS>MOLECULE
NONAME
31 32 1 0 0 
SMALL
USER_CHARGES


@<TRIPOS>ATOM
  1 CL      -3.1740    -0.8760     3.5850 Cl    1 <1>  -0.1240 
  2 C       -2.6490    -1.8050     2.2080 C.2   1 <1>   0.1640 
  3 S       -2.7560    -3.5470     2.3480 S.3   1 <1>  -0.0800 
  4 C       -2.1590    -1.4230     1.0160 C.2   1 <1>  -0.1500 
  5 C       -2.1140    -3.7360     0.7170 C.2   1 <1>  -0.1400 
  6 C       -1.8510    -2.5340     0.1640 C.2   1 <1>  -0.1500 
  7 C       -1.9510    -5.1540     0.1990 C.3   1 <1>   0.2900 
  8 N       -3.2600    -5.7930    -0.0200 N.3   1 <1>  -0.8100 
  9 C       -3.1010    -7.2360    -0.2950 C.3   1 <1>   0.2900 
 10 C       -4.0530    -5.1170    -1.0800 C.3   1 <1>   0.1100 
 11 C       -4.4150    -7.9660    -0.0800 C.2   1 <1>   0.0060 
 12 C       -5.1720    -4.2270    -0.5090 C.3   1 <1>   0.1200 
 13 N       -4.8900    -8.8930    -0.8500 N.2   1 <1>  -0.5650 
 14 N       -5.2100    -7.6760     0.9710 N.pl3 1 <1>   0.0330 
 15 O       -6.0910    -4.9820     0.2090 O.3   1 <1>  -0.6800 
 16 C       -6.0570    -9.2280    -0.2650 C.2   1 <1>   0.0770 
 17 C       -6.2720    -8.4920     0.8470 C.2   1 <1>  -0.3020 
 18 H       -2.0020    -0.4060     0.7040 H     1 <1>   0.1500 
 19 H       -1.4490    -2.3720    -0.8210 H     1 <1>   0.1500 
 20 H       -1.3920    -5.7140     0.9280 H     1 <1>   0.0800 
 21 H       -1.3900    -5.1440    -0.7210 H     1 <1>   0.0800 
 22 H       -2.3800    -7.6600     0.3820 H     1 <1>   0.0800 
 23 H       -2.7550    -7.3940    -1.3020 H     1 <1>   0.0800 
 24 H       -4.5080    -5.8420    -1.7340 H     1 <1>   0.0800 
 25 H       -3.4080    -4.5100    -1.6920 H     1 <1>   0.0800 
 26 H       -5.7020    -3.7470    -1.3130 H     1 <1>   0.0800 
 27 H       -4.7740    -3.4700     0.1430 H     1 <1>   0.0800 
 28 H       -5.0370    -6.9210     1.6470 H     1 <1>   0.2700 
 29 H       -6.2150    -5.8500    -0.2260 H     1 <1>   0.4000 
 30 H       -6.6920    -9.9920    -0.6830 H     1 <1>   0.1500 
 31 H       -7.0970    -8.4980     1.5360 H     1 <1>   0.1500 
@<TRIPOS>BOND
  1   1   2  1   
  2   2   3  1   
  3   2   4  2   
  4   3   5  1   
  5   4   6  1   
  6   4  18  1   
  7   5   6  2   
  8   5   7  1   
  9   6  19  1   
 10   7   8  1   
 11   7  20  1   
 12   7  21  1   
 13   8   9  1   
 14   8  10  1   
 15   9  11  1   
 16   9  22  1   
 17   9  23  1   
 18  10  12  1   
 19  10  24  1   
 20  10  25  1   
 21  11  13  2   
 22  11  14  1   
 23  12  15  1   
 24  12  26  1   
 25  12  27  1   
 26  13  16  1   
 27  14  17  1   
 28  14  28  1   
 29  15  29  1   
 30  16  17  2   
 31  16  30  1   
 32  17  31  1   
@<TRIPOS>SUBSTRUCTURE
  1 ****   8 GROUP 4 **** **** 0

# MOE 2024.06 (io_trps.svl 2023.06)
