@<TRIPOS>MOLECULE
NONAME
54 57 1 0 0 
SMALL
USER_CHARGES


@<TRIPOS>ATOM
  1 O        2.6950     1.2080     0.9650 O.2   1 <1>  -0.5700 
  2 C        2.9990     0.3560     0.1590 C.2   1 <1>   0.5690 
  3 N        2.9820     0.6190    -1.1920 N.am  1 <1>  -0.6600 
  4 C        3.4250    -0.9900     0.7290 C.3   1 <1>   0.0810 
  5 C        3.4480    -0.3410    -2.2510 C.3   1 <1>   0.1400 
  6 C        2.5840     1.9660    -1.6850 C.3   1 <1>   0.1400 
  7 C        2.3410    -2.0450     0.5810 C.2   1 <1>  -0.0400 
  8 C        4.5300     0.2480    -3.1740 C.3   1 <1>   0.1400 
  9 C        3.7700     2.9410    -1.6110 C.3   1 <1>  -0.1600 
 10 O        2.0730    -2.5610    -0.5880 O.3   1 <1>  -0.0190 
 11 C        1.5260    -2.6170     1.4790 C.2   1 <1>  -0.1500 
 12 N        5.3930     1.2340    -2.4580 N.am  1 <1>  -0.6600 
 13 C        4.9260     2.6430    -2.5790 C.3   1 <1>   0.1400 
 14 N        1.1220    -3.4470    -0.5220 N.2   1 <1>  -0.4100 
 15 C        0.7720    -3.5010     0.7120 C.2   1 <1>   0.1080 
 16 C        6.3330     0.7950    -1.5640 C.2   1 <1>   0.5690 
 17 C       -0.3150    -4.4040     1.2500 C.3   1 <1>  -0.0590 
 18 O        6.5430    -0.3850    -1.3960 O.2   1 <1>  -0.5700 
 19 C        7.1310     1.7910    -0.7420 C.3   1 <1>  -0.0990 
 20 C        8.0750     1.1060     0.2550 C.3   1 <1>   0.0960 
 21 N        8.8220     2.1200     1.0190 N.pl3 1 <1>   0.0480 
 22 C        9.9310     2.7950     0.6160 C.ar  1 <1>  -0.1520 
 23 C        8.5080     2.6360     2.2360 C.2   1 <1>   0.0360 
 24 C       10.2120     3.6850     1.6370 C.ar  1 <1>   0.2270 
 25 C       10.7290     2.7370    -0.5300 C.ar  1 <1>  -0.1500 
 26 N        9.3020     3.5640     2.6430 N.2   1 <1>  -0.5650 
 27 C       11.3050     4.5430     1.5320 C.ar  1 <1>  -0.1500 
 28 C       11.8070     3.5880    -0.6250 C.ar  1 <1>  -0.1500 
 29 C       12.0960     4.4920     0.4050 C.ar  1 <1>  -0.1500 
 30 H        3.6280    -0.8580     1.7750 H     1 <1>   0.0800 
 31 H        4.3380    -1.3190     0.2720 H     1 <1>   0.0800 
 32 H        2.6050    -0.6540    -2.8410 H     1 <1>   0.0800 
 33 H        3.8620    -1.2250    -1.8070 H     1 <1>   0.0800 
 34 H        1.7830     2.3400    -1.0680 H     1 <1>   0.0800 
 35 H        2.2120     1.8970    -2.6930 H     1 <1>   0.0800 
 36 H        4.0590     0.7190    -4.0180 H     1 <1>   0.0800 
 37 H        5.1390    -0.5540    -3.5560 H     1 <1>   0.0800 
 38 H        4.1370     2.9670    -0.6010 H     1 <1>   0.0800 
 39 H        3.4030     3.9270    -1.8300 H     1 <1>   0.0800 
 40 H        1.4430    -2.4550     2.5380 H     1 <1>   0.1500 
 41 H        5.7390     3.3220    -2.3860 H     1 <1>   0.0800 
 42 H        4.6020     2.8210    -3.5900 H     1 <1>   0.0800 
 43 H       -1.0880    -3.8130     1.7050 H     1 <1>   0.0800 
 44 H        0.0970    -5.0750     1.9800 H     1 <1>   0.0800 
 45 H       -0.7430    -4.9800     0.4490 H     1 <1>   0.0800 
 46 H        6.4470     2.4130    -0.1970 H     1 <1>   0.0800 
 47 H        7.7050     2.4000    -1.4140 H     1 <1>   0.0800 
 48 H        8.7750     0.4770    -0.2660 H     1 <1>   0.0800 
 49 H        7.5120     0.4960     0.9380 H     1 <1>   0.0800 
 50 H        7.6570     2.2850     2.7930 H     1 <1>   0.1500 
 51 H       10.5030     2.0380    -1.3160 H     1 <1>   0.1500 
 52 H       11.5020     5.2240     2.3380 H     1 <1>   0.1500 
 53 H       12.4410     3.5670    -1.4950 H     1 <1>   0.1500 
 54 H       12.9440     5.1470     0.3080 H     1 <1>   0.1500 
@<TRIPOS>BOND
  1   1   2  2   
  2   2   3  am  
  3   2   4  1   
  4   3   5  1   
  5   3   6  1   
  6   4   7  1   
  7   4  30  1   
  8   4  31  1   
  9   5   8  1   
 10   5  32  1   
 11   5  33  1   
 12   6   9  1   
 13   6  34  1   
 14   6  35  1   
 15   7  10  1   
 16   7  11  2   
 17   8  12  1   
 18   8  36  1   
 19   8  37  1   
 20   9  13  1   
 21   9  38  1   
 22   9  39  1   
 23  10  14  1   
 24  11  15  1   
 25  11  40  1   
 26  12  13  1   
 27  12  16  am  
 28  13  41  1   
 29  13  42  1   
 30  14  15  2   
 31  15  17  1   
 32  16  18  2   
 33  16  19  1   
 34  17  43  1   
 35  17  44  1   
 36  17  45  1   
 37  19  20  1   
 38  19  46  1   
 39  19  47  1   
 40  20  21  1   
 41  20  48  1   
 42  20  49  1   
 43  21  22  1   
 44  21  23  1   
 45  22  24  ar  
 46  22  25  ar  
 47  23  26  2   
 48  23  50  1   
 49  24  26  1   
 50  24  27  ar  
 51  25  28  ar  
 52  25  51  1   
 53  27  29  ar  
 54  27  52  1   
 55  28  29  ar  
 56  28  53  1   
 57  29  54  1   
@<TRIPOS>SUBSTRUCTURE
  1 ****  16 GROUP 4 **** **** 0

# MOE 2024.06 (io_trps.svl 2023.06)
