@<TRIPOS>MOLECULE
NONAME
47 50 1 0 0 
SMALL
USER_CHARGES


@<TRIPOS>ATOM
  1 O       -3.8400     4.1000    -0.1620 O.2   1 <1>  -0.5700 
  2 C       -3.1470     3.1760    -0.5550 C.2   1 <1>   0.5440 
  3 N       -3.7690     1.9930    -0.8850 N.am  1 <1>  -0.6600 
  4 C       -1.7290     3.3920    -0.7440 C.ar  1 <1>   0.0860 
  5 C       -4.8580     1.4720    -0.0330 C.3   1 <1>   0.1400 
  6 C       -3.1600     0.8780    -1.6510 C.3   1 <1>   0.1400 
  7 C       -0.7430     2.6280    -0.0950 C.ar  1 <1>   0.0410 
  8 C       -1.3220     4.4040    -1.6150 C.ar  1 <1>  -0.1500 
  9 C       -4.4880     0.0080     0.2060 C.3   1 <1>  -0.0800 
 10 C       -3.7410    -0.4160    -1.0700 C.3   1 <1>  -0.0800 
 11 C       -1.0540     1.5810     0.8450 C.2   1 <1>   0.6960 
 12 C        0.6000     2.8900    -0.3800 C.ar  1 <1>  -0.1500 
 13 C        0.0110     4.6540    -1.8750 C.ar  1 <1>  -0.1500 
 14 C       -5.6310    -0.9430     0.6600 C.3   1 <1>   0.2800 
 15 C       -4.6770    -1.1390    -2.0510 C.3   1 <1>  -0.1600 
 16 N       -1.6890     1.7460     1.9690 N.2   1 <1>  -0.6190 
 17 N       -0.6720     0.3430     0.6720 N.2   1 <1>  -0.6190 
 18 C        0.9790     3.8860    -1.2560 C.ar  1 <1>  -0.1500 
 19 O       -6.8480    -0.5270     0.1440 O.3   1 <1>  -0.6800 
 20 C       -5.3790    -2.3580     0.1080 C.3   1 <1>  -0.1600 
 21 C       -5.7830    -1.0040     2.1970 C.3   1 <1>  -0.1600 
 22 C       -5.2750    -2.4160    -1.4320 C.3   1 <1>  -0.1600 
 23 N       -1.6810     0.5740     2.4930 N.2   1 <1>  -0.2500 
 24 N       -1.0800    -0.2800     1.7220 N.2   1 <1>  -0.2500 
 25 C       -6.0930     0.3320     2.8940 C.3   1 <1>  -0.2400 
 26 H       -4.9160     2.0190     0.8920 H     1 <1>   0.0800 
 27 H       -5.7850     1.5670    -0.5680 H     1 <1>   0.0800 
 28 H       -3.4090     0.9810    -2.6920 H     1 <1>   0.0800 
 29 H       -2.0910     0.8730    -1.5500 H     1 <1>   0.0800 
 30 H       -2.0810     5.0010    -2.0920 H     1 <1>   0.1500 
 31 H       -3.7500     0.0060     0.9850 H     1 <1>   0.0800 
 32 H       -2.9290    -1.0750    -0.8100 H     1 <1>   0.0800 
 33 H        1.3470     2.2870     0.1090 H     1 <1>   0.1500 
 34 H        0.2950     5.4400    -2.5530 H     1 <1>   0.1500 
 35 H       -5.4800    -0.4700    -2.3110 H     1 <1>   0.0800 
 36 H       -4.1500    -1.3880    -2.9560 H     1 <1>   0.0800 
 37 H        2.0220     4.0660    -1.4520 H     1 <1>   0.1500 
 38 H       -7.5450    -1.1170     0.4750 H     1 <1>   0.4000 
 39 H       -4.4430    -2.7000     0.5180 H     1 <1>   0.0800 
 40 H       -6.1370    -3.0400     0.4480 H     1 <1>   0.0800 
 41 H       -6.5520    -1.7120     2.4470 H     1 <1>   0.0800 
 42 H       -4.8630    -1.3820     2.6110 H     1 <1>   0.0800 
 43 H       -4.6680    -3.2630    -1.7010 H     1 <1>   0.0800 
 44 H       -6.2540    -2.5700    -1.8520 H     1 <1>   0.0800 
 45 H       -6.9380     0.8190     2.4410 H     1 <1>   0.0800 
 46 H       -5.2400     0.9860     2.8380 H     1 <1>   0.0800 
 47 H       -6.3060     0.1620     3.9330 H     1 <1>   0.0800 
@<TRIPOS>BOND
  1   1   2  2   
  2   2   3  am  
  3   2   4  1   
  4   3   5  1   
  5   3   6  1   
  6   4   7  ar  
  7   4   8  ar  
  8   5   9  1   
  9   5  26  1   
 10   5  27  1   
 11   6  10  1   
 12   6  28  1   
 13   6  29  1   
 14   7  11  1   
 15   7  12  ar  
 16   8  13  ar  
 17   8  30  1   
 18   9  10  1   
 19   9  14  1   
 20   9  31  1   
 21  10  15  1   
 22  10  32  1   
 23  11  16  2   
 24  11  17  1   
 25  12  18  ar  
 26  12  33  1   
 27  13  18  ar  
 28  13  34  1   
 29  14  19  1   
 30  14  20  1   
 31  14  21  1   
 32  15  22  1   
 33  15  35  1   
 34  15  36  1   
 35  16  23  1   
 36  17  24  2   
 37  18  37  1   
 38  19  38  1   
 39  20  22  1   
 40  20  39  1   
 41  20  40  1   
 42  21  25  1   
 43  21  41  1   
 44  21  42  1   
 45  22  43  1   
 46  22  44  1   
 47  23  24  1   
 48  25  45  1   
 49  25  46  1   
 50  25  47  1   
@<TRIPOS>SUBSTRUCTURE
  1 ****   3 GROUP 4 **** **** 0

# MOE 2024.06 (io_trps.svl 2023.06)
