@<TRIPOS>MOLECULE
Untitled Document
46 48 1 0 0 
SMALL
USER_CHARGES


@<TRIPOS>ATOM
  1 S       -0.4340    -0.1040    -1.7050 S.o2  1 <1>   1.3720 
  2 O       -1.8450    -0.3710    -1.9200 O.2   1 <1>  -0.6500 
  3 O        0.3470     0.3320    -2.8440 O.2   1 <1>  -0.6500 
  4 C       -0.2670     1.1060    -0.3660 C.ar  1 <1>  -0.0090 
  5 C        0.3130    -1.5410    -0.9740 C.2   1 <1>  -0.0630 
  6 C       -1.2820     1.2920     0.5670 C.ar  1 <1>  -0.1500 
  7 C        0.8940     1.8550    -0.2170 C.ar  1 <1>  -0.1500 
  8 C        1.6140    -1.7630    -0.6510 C.2   1 <1>  -0.0260 
  9 C       -0.3470    -2.6860    -0.5710 C.2   1 <1>   0.3720 
 10 C       -1.1490     2.1990     1.6040 C.ar  1 <1>  -0.1500 
 11 C        1.0370     2.7640     0.8170 C.ar  1 <1>  -0.1500 
 12 N        2.7130    -0.9540    -0.7850 N.2   1 <1>  -0.5760 
 13 N        1.6670    -3.0200    -0.1090 N.pl3 1 <1>   0.6010 
 14 N        0.4410    -3.5890    -0.0660 N.2   1 <1>  -0.7070 
 15 N       -1.7210    -2.9070    -0.6420 N.pl3 1 <1>  -0.8520 
 16 C        0.0140     2.9380     1.7290 C.ar  1 <1>  -0.1500 
 17 C        3.8400    -1.4430    -0.3780 C.2   1 <1>   0.3750 
 18 C        2.8740    -3.5490     0.3300 C.2   1 <1>  -0.1690 
 19 C       -2.1410    -4.2920    -0.9690 C.3   1 <1>   0.1290 
 20 C        3.9870    -2.7590     0.2000 C.2   1 <1>   0.1140 
 21 C        5.0650    -0.5590    -0.5240 C.3   1 <1>  -0.1790 
 22 C        2.8200    -4.9610     0.9150 C.3   1 <1>  -0.1020 
 23 N        5.2730    -3.1890     0.6130 N.pl3 1 <1>  -0.8380 
 24 C        5.5370    -3.2640     2.0760 C.3   1 <1>   0.1290 
 25 C        5.9580    -4.2160    -0.2190 C.3   1 <1>   0.1290 
 26 H       -2.1920     0.7200     0.4830 H     1 <1>   0.1500 
 27 H        1.7010     1.7210    -0.9210 H     1 <1>   0.1500 
 28 H       -1.9480     2.3290     2.3130 H     1 <1>   0.1500 
 29 H        1.9460     3.3330     0.9100 H     1 <1>   0.1500 
 30 H       -2.1760    -2.2200    -1.2660 H     1 <1>   0.4000 
 31 H        0.1220     3.6440     2.5340 H     1 <1>   0.1500 
 32 H       -1.6210    -4.6400    -1.8450 H     1 <1>   0.0800 
 33 H       -3.2010    -4.3200    -1.1480 H     1 <1>   0.0800 
 34 H       -1.9090    -4.9440    -0.1430 H     1 <1>   0.0800 
 35 H        5.7900    -1.0500    -1.1440 H     1 <1>   0.0800 
 36 H        5.4950    -0.3760     0.4430 H     1 <1>   0.0800 
 37 H        4.8020     0.3820    -0.9730 H     1 <1>   0.0800 
 38 H        2.1600    -4.9770     1.7640 H     1 <1>   0.0800 
 39 H        3.7830    -5.3100     1.2300 H     1 <1>   0.0800 
 40 H        2.4380    -5.6450     0.1770 H     1 <1>   0.0800 
 41 H        4.7920    -2.7050     2.6160 H     1 <1>   0.0800 
 42 H        6.5040    -2.8420     2.2880 H     1 <1>   0.0800 
 43 H        5.5190    -4.2860     2.4130 H     1 <1>   0.0800 
 44 H        5.4990    -4.2690    -1.1920 H     1 <1>   0.0800 
 45 H        5.8980    -5.1830     0.2480 H     1 <1>   0.0800 
 46 H        6.9930    -3.9480    -0.3410 H     1 <1>   0.0800 
@<TRIPOS>BOND
  1   1   2  2   
  2   1   3  2   
  3   1   4  1   
  4   1   5  1   
  5   4   6  ar  
  6   4   7  ar  
  7   5   8  2   
  8   5   9  1   
  9   6  10  ar  
 10   6  26  1   
 11   7  11  ar  
 12   7  27  1   
 13   8  12  1   
 14   8  13  1   
 15   9  14  2   
 16   9  15  1   
 17  10  16  ar  
 18  10  28  1   
 19  11  16  ar  
 20  11  29  1   
 21  12  17  2   
 22  13  14  1   
 23  13  18  1   
 24  15  19  1   
 25  15  30  1   
 26  16  31  1   
 27  17  20  1   
 28  17  21  1   
 29  18  20  2   
 30  18  22  1   
 31  19  32  1   
 32  19  33  1   
 33  19  34  1   
 34  20  23  1   
 35  21  35  1   
 36  21  36  1   
 37  21  37  1   
 38  22  38  1   
 39  22  39  1   
 40  22  40  1   
 41  23  24  1   
 42  23  25  1   
 43  24  41  1   
 44  24  42  1   
 45  24  43  1   
 46  25  44  1   
 47  25  45  1   
 48  25  46  1   
@<TRIPOS>SUBSTRUCTURE
  1 ****   8 GROUP 4 **** **** 0

# MOE 2024.06 (io_trps.svl 2023.06)
