@<TRIPOS>MOLECULE
NONAME
52 54 1 0 0 
SMALL
USER_CHARGES


@<TRIPOS>ATOM
  1 O       -1.0800     0.4540    -1.7700 O.2   1 <1>  -0.5700 
  2 C       -1.8580     0.9720    -1.0040 C.2   1 <1>   0.5690 
  3 N       -2.7540     0.2070    -0.3000 N.am  1 <1>  -0.6600 
  4 C       -1.8520     2.4940    -0.8860 C.3   1 <1>   0.0440 
  5 C       -3.9540     0.6680     0.4450 C.3   1 <1>   0.1400 
  6 C       -2.7080    -1.2750    -0.3430 C.3   1 <1>   0.1400 
  7 C       -0.5190     3.0710    -0.3810 C.ar  1 <1>  -0.1440 
  8 C       -4.7760    -0.5970     0.6860 C.3   1 <1>   0.2000 
  9 C       -3.7700    -1.7430     0.6520 C.3   1 <1>  -0.0800 
 10 C       -0.2450     3.1190     0.9870 C.ar  1 <1>  -0.1440 
 11 C        0.4310     3.5590    -1.2800 C.ar  1 <1>  -0.1440 
 12 O       -5.4200    -0.5580     1.9120 O.3   1 <1>  -0.6800 
 13 C       -4.4000    -3.0950     0.2890 C.3   1 <1>   0.0210 
 14 C        0.9460     3.6690     1.4350 C.ar  1 <1>  -0.1500 
 15 C       -1.2040     2.5720     2.0350 C.3   1 <1>  -0.0970 
 16 C        1.6140     4.1040    -0.8080 C.ar  1 <1>  -0.1500 
 17 C        0.2350     3.5100    -2.7910 C.3   1 <1>  -0.0970 
 18 C       -3.3390    -4.1730     0.1840 C.2   1 <1>   0.1080 
 19 C        1.8780     4.1680     0.5460 C.ar  1 <1>  -0.1430 
 20 N       -2.6030    -4.5350     1.1890 N.2   1 <1>  -0.7070 
 21 C       -3.0270    -4.8750    -0.9760 C.2   1 <1>  -0.1500 
 22 C        3.1790     4.7670     1.0490 C.3   1 <1>  -0.0970 
 23 N       -1.7940    -5.4890     0.6910 N.pl3 1 <1>   0.3000 
 24 C       -2.0310    -5.7120    -0.6190 C.2   1 <1>  -0.3320 
 25 C       -1.2780    -6.7250    -1.4610 C.3   1 <1>  -0.0600 
 26 H       -2.0930     2.8890    -1.8520 H     1 <1>   0.0800 
 27 H       -2.6390     2.8270    -0.2420 H     1 <1>   0.0800 
 28 H       -3.6490     1.1030     1.3790 H     1 <1>   0.0800 
 29 H       -4.5150     1.3770    -0.1380 H     1 <1>   0.0800 
 30 H       -2.9390    -1.6030    -1.3430 H     1 <1>   0.0800 
 31 H       -1.7290    -1.6360    -0.0720 H     1 <1>   0.0800 
 32 H       -5.5190    -0.6990    -0.0860 H     1 <1>   0.0800 
 33 H       -3.2840    -1.8280     1.6090 H     1 <1>   0.0800 
 34 H       -4.7780    -0.6930     2.6360 H     1 <1>   0.4000 
 35 H       -4.9270    -3.0210    -0.6440 H     1 <1>   0.0800 
 36 H       -5.1040    -3.3800     1.0510 H     1 <1>   0.0800 
 37 H        1.1580     3.7080     2.4880 H     1 <1>   0.1500 
 38 H       -0.8020     2.6890     3.0250 H     1 <1>   0.0800 
 39 H       -1.3650     1.5230     1.8670 H     1 <1>   0.0800 
 40 H       -2.1420     3.0960     1.9950 H     1 <1>   0.0800 
 41 H        2.3440     4.4820    -1.5010 H     1 <1>   0.1500 
 42 H        1.1330     3.7940    -3.3080 H     1 <1>   0.0800 
 43 H       -0.5500     4.1830    -3.0850 H     1 <1>   0.0800 
 44 H       -0.0180     2.5110    -3.1000 H     1 <1>   0.0800 
 45 H       -3.4940    -4.7550    -1.9370 H     1 <1>   0.1500 
 46 H        3.0400     5.2050     2.0210 H     1 <1>   0.0800 
 47 H        3.5230     5.5320     0.3780 H     1 <1>   0.0800 
 48 H        3.9280     3.9990     1.1160 H     1 <1>   0.0800 
 49 H       -1.0930    -5.9660     1.2700 H     1 <1>   0.2700 
 50 H       -1.6490    -6.7140    -2.4710 H     1 <1>   0.0800 
 51 H       -1.4080    -7.7140    -1.0590 H     1 <1>   0.0800 
 52 H       -0.2290    -6.4870    -1.4800 H     1 <1>   0.0800 
@<TRIPOS>BOND
  1   1   2  2   
  2   2   3  am  
  3   2   4  1   
  4   3   5  1   
  5   3   6  1   
  6   4   7  1   
  7   4  26  1   
  8   4  27  1   
  9   5   8  1   
 10   5  28  1   
 11   5  29  1   
 12   6   9  1   
 13   6  30  1   
 14   6  31  1   
 15   7  10  ar  
 16   7  11  ar  
 17   8   9  1   
 18   8  12  1   
 19   8  32  1   
 20   9  13  1   
 21   9  33  1   
 22  10  14  ar  
 23  10  15  1   
 24  11  16  ar  
 25  11  17  1   
 26  12  34  1   
 27  13  18  1   
 28  13  35  1   
 29  13  36  1   
 30  14  19  ar  
 31  14  37  1   
 32  15  38  1   
 33  15  39  1   
 34  15  40  1   
 35  16  19  ar  
 36  16  41  1   
 37  17  42  1   
 38  17  43  1   
 39  17  44  1   
 40  18  20  2   
 41  18  21  1   
 42  19  22  1   
 43  20  23  1   
 44  21  24  2   
 45  21  45  1   
 46  22  46  1   
 47  22  47  1   
 48  22  48  1   
 49  23  24  1   
 50  23  49  1   
 51  24  25  1   
 52  25  50  1   
 53  25  51  1   
 54  25  52  1   
@<TRIPOS>SUBSTRUCTURE
  1 ****   3 GROUP 4 **** **** 0

# MOE 2024.06 (io_trps.svl 2023.06)
