@<TRIPOS>MOLECULE
NONAME
46 49 1 0 0 
SMALL
USER_CHARGES


@<TRIPOS>ATOM
  1 O        0.1980     0.3220    -0.0200 O.3   1 <1>  -0.5600 
  2 C        1.1500    -0.3510    -0.8010 C.3   1 <1>   0.3440 
  3 C        0.1630     1.7100    -0.1920 C.3   1 <1>   0.2950 
  4 C        1.0700    -1.8470    -0.5340 C.ar  1 <1>  -0.1440 
  5 C        2.5690     0.1570    -0.4560 C.3   1 <1>   0.3430 
  6 C       -0.9610     2.2540     0.6910 C.3   1 <1>  -0.1950 
  7 C        1.5240     2.3290     0.1980 C.3   1 <1>   0.3430 
  8 C        0.7570    -2.3410     0.7260 C.ar  1 <1>  -0.1500 
  9 C        1.3320    -2.7420    -1.5630 C.ar  1 <1>  -0.1500 
 10 N        2.6770     1.6570    -0.4980 N.4   1 <1>  -0.9590 
 11 C       -2.3840     2.2270     0.2320 C.3   1 <1>  -0.2000 
 12 C       -1.6570     3.5370     0.3550 C.3   1 <1>  -0.2000 
 13 C        0.7160    -3.7050     0.9550 C.ar  1 <1>  -0.1500 
 14 C        1.2920    -4.1070    -1.3330 C.ar  1 <1>  -0.1500 
 15 C        3.9860     2.1880    -0.0390 C.3   1 <1>   0.5240 
 16 C        0.9860    -4.5890    -0.0740 C.ar  1 <1>  -0.1500 
 17 C        4.1390     3.5640    -0.6760 C.2   1 <1>   0.0460 
 18 N        3.6880     3.7630    -1.9350 N.2   1 <1>  -0.5650 
 19 C        4.6670     4.7010    -0.1660 C.2   1 <1>  -0.3320 
 20 C        3.9640     5.0060    -2.1680 C.2   1 <1>   0.0360 
 21 N        4.5590     5.6330    -1.1330 N.pl3 1 <1>   0.0330 
 22 C        5.2940     5.0050     1.1860 C.3   1 <1>  -0.0600 
 23 H        0.9250    -0.1610    -1.8370 H     1 <1>   0.0800 
 24 H       -0.0600     1.9190    -1.2250 H     1 <1>   0.0800 
 25 H        3.2740    -0.2850    -1.1400 H     1 <1>   0.0800 
 26 H        2.8080    -0.1970     0.5330 H     1 <1>   0.0800 
 27 H       -0.7920     2.0500     1.7350 H     1 <1>   0.1000 
 28 H        1.6380     2.2350     1.2650 H     1 <1>   0.0800 
 29 H        1.5140     3.3800    -0.0420 H     1 <1>   0.0800 
 30 H        0.5350    -1.6690     1.5370 H     1 <1>   0.1500 
 31 H        1.5680    -2.3930    -2.5530 H     1 <1>   0.1500 
 32 H        2.6570     1.9950    -1.4790 H     1 <1>   0.4500 
 33 H       -2.6110     1.8450    -0.7490 H     1 <1>   0.1000 
 34 H       -3.1510     1.9880     0.9490 H     1 <1>   0.1000 
 35 H       -1.9470     4.2020     1.1500 H     1 <1>   0.1000 
 36 H       -1.4260     4.0640    -0.5550 H     1 <1>   0.1000 
 37 H        0.4700    -4.0810     1.9340 H     1 <1>   0.1500 
 38 H        1.4950    -4.7960    -2.1350 H     1 <1>   0.1500 
 39 H        4.0300     2.2530     1.0350 H     1 <1>   0.0800 
 40 H        4.7840     1.5580    -0.3930 H     1 <1>   0.0800 
 41 H        0.9520    -5.6500     0.1040 H     1 <1>   0.1500 
 42 H        3.7500     5.5150    -3.0940 H     1 <1>   0.1500 
 43 H        4.8670     6.6120    -1.1030 H     1 <1>   0.2700 
 44 H        5.2970     4.1340     1.8170 H     1 <1>   0.0800 
 45 H        4.7440     5.7850     1.6850 H     1 <1>   0.0800 
 46 H        6.3110     5.3320     1.0580 H     1 <1>   0.0800 
@<TRIPOS>BOND
  1   1   2  1   
  2   1   3  1   
  3   2   4  1   
  4   2   5  1   
  5   2  23  1   
  6   3   6  1   
  7   3   7  1   
  8   3  24  1   
  9   4   8  ar  
 10   4   9  ar  
 11   5  10  1   
 12   5  25  1   
 13   5  26  1   
 14   6  11  1   
 15   6  12  1   
 16   6  27  1   
 17   7  10  1   
 18   7  28  1   
 19   7  29  1   
 20   8  13  ar  
 21   8  30  1   
 22   9  14  ar  
 23   9  31  1   
 24  10  15  1   
 25  10  32  1   
 26  11  12  1   
 27  11  33  1   
 28  11  34  1   
 29  12  35  1   
 30  12  36  1   
 31  13  16  ar  
 32  13  37  1   
 33  14  16  ar  
 34  14  38  1   
 35  15  17  1   
 36  15  39  1   
 37  15  40  1   
 38  16  41  1   
 39  17  18  1   
 40  17  19  2   
 41  18  20  2   
 42  19  21  1   
 43  19  22  1   
 44  20  21  1   
 45  20  42  1   
 46  21  43  1   
 47  22  44  1   
 48  22  45  1   
 49  22  46  1   
@<TRIPOS>SUBSTRUCTURE
  1 ****  10 GROUP 4 **** **** 0

# MOE 2024.06 (io_trps.svl 2023.06)
