@<TRIPOS>MOLECULE
NONAME
54 57 1 0 0 
SMALL
USER_CHARGES


@<TRIPOS>ATOM
  1 O       -1.7050     0.5000     1.4070 O.2   1 <1>  -0.5700 
  2 C       -2.5650     1.2710     1.0160 C.2   1 <1>   0.5440 
  3 N       -3.8280     0.7690     0.7910 N.am  1 <1>  -0.6600 
  4 C       -2.2410     2.6600     0.7440 C.ar  1 <1>   0.0860 
  5 C       -4.2190    -0.5220     1.4440 C.3   1 <1>   0.1400 
  6 C       -4.4790     1.0520    -0.5340 C.3   1 <1>   0.1400 
  7 C       -3.1570     3.6880     0.9670 C.ar  1 <1>  -0.1500 
  8 C       -0.9920     3.0270     0.2470 C.ar  1 <1>  -0.1500 
  9 C       -4.1230    -1.5880     0.3450 C.3   1 <1>   0.4230 
 10 C       -5.6160     0.0700    -0.8790 C.3   1 <1>  -0.1600 
 11 C       -2.8470     5.0060     0.6900 C.ar  1 <1>  -0.1500 
 12 C       -0.6830     4.3450    -0.0300 C.ar  1 <1>  -0.1500 
 13 N       -3.9190    -3.0120     0.7570 N.4   1 <1>  -0.9590 
 14 C       -5.3430    -1.4410    -0.5800 C.3   1 <1>  -0.1060 
 15 C       -1.6020     5.3720     0.1800 C.ar  1 <1>   0.0530 
 16 C       -3.6350    -3.8670    -0.4290 C.3   1 <1>   0.3430 
 17 C       -2.9220    -3.1980     1.8440 C.3   1 <1>   0.2630 
 18 C       -6.5960    -2.0320     0.0960 C.2   1 <1>   0.9060 
 19 C       -5.0180    -2.2350    -1.8650 C.3   1 <1>  -0.1600 
 20 C       -1.2800     6.7500    -0.1140 C.2   1 <1>   0.0870 
 21 C       -4.7060    -3.7050    -1.5190 C.3   1 <1>  -0.1600 
 22 O       -7.6780    -1.9300    -0.4790 O.co2 1 <1>  -0.9000 
 23 O       -6.4850    -2.6330     1.1760 O.co2 1 <1>  -0.9000 
 24 O       -0.1240     7.0600    -0.6900 O.3   1 <1>  -0.2800 
 25 C       -1.9770     7.9010     0.0920 C.2   1 <1>  -0.1500 
 26 C       -0.0640     8.3620    -0.8550 C.2   1 <1>  -0.0400 
 27 C       -1.1870     8.9460    -0.3890 C.2   1 <1>  -0.1500 
 28 C        1.1690     8.9580    -1.4970 C.3   1 <1>  -0.0600 
 29 H       -3.5570    -0.7290     2.2640 H     1 <1>   0.0800 
 30 H       -5.2210    -0.4490     1.8320 H     1 <1>   0.0800 
 31 H       -4.8720     2.0550    -0.5320 H     1 <1>   0.0800 
 32 H       -3.7280     0.9980    -1.3050 H     1 <1>   0.0800 
 33 H       -4.1260     3.4450     1.3680 H     1 <1>   0.1500 
 34 H       -0.2540     2.2610     0.0780 H     1 <1>   0.1500 
 35 H       -3.2520    -1.3150    -0.2270 H     1 <1>   0.0800 
 36 H       -6.4700     0.3880    -0.3030 H     1 <1>   0.0800 
 37 H       -5.9040     0.1970    -1.9080 H     1 <1>   0.0800 
 38 H       -3.5840     5.7660     0.8740 H     1 <1>   0.1500 
 39 H        0.2920     4.5870    -0.4160 H     1 <1>   0.1500 
 40 H       -4.8810    -3.2570     1.1150 H     1 <1>   0.4500 
 41 H       -2.6770    -3.5930    -0.8380 H     1 <1>   0.0800 
 42 H       -3.5910    -4.9010    -0.1290 H     1 <1>   0.0800 
 43 H       -1.9670    -2.7950     1.5490 H     1 <1>   0.0800 
 44 H       -2.8090    -4.2460     2.0690 H     1 <1>   0.0800 
 45 H       -3.2510    -2.6950     2.7380 H     1 <1>   0.0800 
 46 H       -5.8650    -2.2010    -2.5320 H     1 <1>   0.0800 
 47 H       -4.1780    -1.7910    -2.3700 H     1 <1>   0.0800 
 48 H       -4.3820    -4.2180    -2.4070 H     1 <1>   0.0800 
 49 H       -5.6070    -4.1940    -1.1890 H     1 <1>   0.0800 
 50 H       -2.9470     8.0200     0.5370 H     1 <1>   0.1500 
 51 H       -1.4470     9.9890    -0.3770 H     1 <1>   0.1500 
 52 H        1.0740    10.0260    -1.5640 H     1 <1>   0.0800 
 53 H        1.2950     8.5540    -2.4850 H     1 <1>   0.0800 
 54 H        2.0360     8.7190    -0.9080 H     1 <1>   0.0800 
@<TRIPOS>BOND
  1   1   2  2   
  2   2   3  am  
  3   2   4  1   
  4   3   5  1   
  5   3   6  1   
  6   4   7  ar  
  7   4   8  ar  
  8   5   9  1   
  9   5  29  1   
 10   5  30  1   
 11   6  10  1   
 12   6  31  1   
 13   6  32  1   
 14   7  11  ar  
 15   7  33  1   
 16   8  12  ar  
 17   8  34  1   
 18   9  13  1   
 19   9  14  1   
 20   9  35  1   
 21  10  14  1   
 22  10  36  1   
 23  10  37  1   
 24  11  15  ar  
 25  11  38  1   
 26  12  15  ar  
 27  12  39  1   
 28  13  16  1   
 29  13  17  1   
 30  13  40  1   
 31  14  18  1   
 32  14  19  1   
 33  15  20  1   
 34  16  21  1   
 35  16  41  1   
 36  16  42  1   
 37  17  43  1   
 38  17  44  1   
 39  17  45  1   
 40  18  22  ar  
 41  18  23  ar  
 42  19  21  1   
 43  19  46  1   
 44  19  47  1   
 45  20  24  1   
 46  20  25  2   
 47  21  48  1   
 48  21  49  1   
 49  24  26  1   
 50  25  27  1   
 51  25  50  1   
 52  26  27  2   
 53  26  28  1   
 54  27  51  1   
 55  28  52  1   
 56  28  53  1   
 57  28  54  1   
@<TRIPOS>SUBSTRUCTURE
  1 ****   2 GROUP 4 **** **** 0

# MOE 2024.06 (io_trps.svl 2023.06)
