@<TRIPOS>MOLECULE
NONAME
44 46 1 0 0 
SMALL
USER_CHARGES


@<TRIPOS>ATOM
  1 F        3.5280     0.2400     2.2960 F     1 <1>  -0.1900 
  2 C        3.7050    -0.5180     1.2490 C.ar  1 <1>   0.1900 
  3 C        4.9750    -0.6380     0.7250 C.ar  1 <1>  -0.1500 
  4 C        2.6140    -1.1670     0.7110 C.ar  1 <1>  -0.1500 
  5 C        5.1700    -1.4420    -0.3910 C.ar  1 <1>   0.0730 
  6 C        2.7830    -1.9880    -0.4020 C.ar  1 <1>   0.0860 
  7 C        6.4760    -1.5890    -0.9680 C.1   1 <1>   0.4840 
  8 C        4.0700    -2.0990    -0.9330 C.ar  1 <1>  -0.1500 
  9 C        1.6650    -2.6920    -1.0060 C.2   1 <1>   0.5440 
 10 N        7.5170    -1.7060    -1.4180 N.1   1 <1>  -0.5570 
 11 O        1.6030    -2.7610    -2.2190 O.2   1 <1>  -0.5700 
 12 N        0.6780    -3.2890    -0.2470 N.am  1 <1>  -0.6600 
 13 C       -0.6330    -3.6240    -0.8900 C.3   1 <1>   0.2200 
 14 C        1.0040    -3.9300     1.0640 C.3   1 <1>   0.0600 
 15 C       -1.6670    -4.2850     0.0250 C.3   1 <1>  -0.1600 
 16 C       -1.3560    -2.3620    -1.3580 C.3   1 <1>  -0.1600 
 17 C       -3.0130    -4.0500    -0.6720 C.3   1 <1>  -0.0800 
 18 C       -2.8210    -2.7810    -1.5300 C.3   1 <1>  -0.0800 
 19 C       -4.1960    -4.0000     0.3150 C.3   1 <1>   0.1400 
 20 C       -3.8160    -1.6540    -1.2040 C.3   1 <1>  -0.0990 
 21 N       -5.3710    -3.3550    -0.3230 N.am  1 <1>  -0.6600 
 22 C       -5.2180    -2.2100    -1.0550 C.2   1 <1>   0.5690 
 23 C       -6.6970    -3.9810    -0.0780 C.3   1 <1>   0.0600 
 24 O       -6.1390    -1.6270    -1.5760 O.2   1 <1>  -0.5700 
 25 H        5.7950    -0.1110     1.1810 H     1 <1>   0.1500 
 26 H        1.6400    -1.0340     1.1470 H     1 <1>   0.1500 
 27 H        4.2060    -2.7210    -1.8040 H     1 <1>   0.1500 
 28 H       -0.4570    -4.2630    -1.7410 H     1 <1>   0.0800 
 29 H        0.7530    -4.9760     1.0350 H     1 <1>   0.0800 
 30 H        0.4510    -3.4510     1.8530 H     1 <1>   0.0800 
 31 H        2.0540    -3.8510     1.2810 H     1 <1>   0.0800 
 32 H       -1.4720    -5.3350     0.1550 H     1 <1>   0.0800 
 33 H       -1.6760    -3.7870     0.9780 H     1 <1>   0.0800 
 34 H       -1.2690    -1.6060    -0.5990 H     1 <1>   0.0800 
 35 H       -0.9460    -1.9920    -2.2820 H     1 <1>   0.0800 
 36 H       -3.1860    -4.8730    -1.3460 H     1 <1>   0.0800 
 37 H       -2.9730    -3.0650    -2.5590 H     1 <1>   0.0800 
 38 H       -3.9310    -3.4250     1.1850 H     1 <1>   0.0800 
 39 H       -4.4450    -4.9990     0.6320 H     1 <1>   0.0800 
 40 H       -3.8030    -0.9130    -1.9820 H     1 <1>   0.0800 
 41 H       -3.5560    -1.1750    -0.2780 H     1 <1>   0.0800 
 42 H       -6.7040    -4.9830    -0.4700 H     1 <1>   0.0800 
 43 H       -7.4760    -3.4170    -0.5630 H     1 <1>   0.0800 
 44 H       -6.8990    -4.0080     0.9780 H     1 <1>   0.0800 
@<TRIPOS>BOND
  1   1   2  1   
  2   2   3  ar  
  3   2   4  ar  
  4   3   5  ar  
  5   3  25  1   
  6   4   6  ar  
  7   4  26  1   
  8   5   7  1   
  9   5   8  ar  
 10   6   8  ar  
 11   6   9  1   
 12   7  10  3   
 13   8  27  1   
 14   9  11  2   
 15   9  12  am  
 16  12  13  1   
 17  12  14  1   
 18  13  15  1   
 19  13  16  1   
 20  13  28  1   
 21  14  29  1   
 22  14  30  1   
 23  14  31  1   
 24  15  17  1   
 25  15  32  1   
 26  15  33  1   
 27  16  18  1   
 28  16  34  1   
 29  16  35  1   
 30  17  18  1   
 31  17  19  1   
 32  17  36  1   
 33  18  20  1   
 34  18  37  1   
 35  19  21  1   
 36  19  38  1   
 37  19  39  1   
 38  20  22  1   
 39  20  40  1   
 40  20  41  1   
 41  21  22  am  
 42  21  23  1   
 43  22  24  2   
 44  23  42  1   
 45  23  43  1   
 46  23  44  1   
@<TRIPOS>SUBSTRUCTURE
  1 ****  12 GROUP 4 **** **** 0

# MOE 2024.06 (io_trps.svl 2023.06)
