@<TRIPOS>MOLECULE
NONAME
50 53 1 0 0 
SMALL
USER_CHARGES


@<TRIPOS>ATOM
  1 S        0.3260     0.3060     1.2570 S.3   1 <1>  -0.0800 
  2 C       -0.9160     1.1670     0.3740 C.2   1 <1>  -0.0450 
  3 C       -0.4160    -1.2130     0.8260 C.2   1 <1>   0.1980 
  4 C       -1.7560     0.2340    -0.1320 C.2   1 <1>   0.0460 
  5 C       -0.9100     2.6070     0.3300 C.2   1 <1>   0.7150 
  6 N       -1.4640    -1.0900     0.1140 N.2   1 <1>  -0.5650 
  7 C        0.2600    -2.4740     1.3390 C.3   1 <1>   0.0200 
  8 C       -3.0010     0.5000    -0.9520 C.3   1 <1>  -0.0590 
  9 O       -1.9310     3.2010     0.6290 O.2   1 <1>  -0.5700 
 10 N        0.1890     3.3470    -0.0710 N.am  1 <1>  -0.6600 
 11 C       -0.4560    -3.7600     0.9040 C.3   1 <1>  -0.2400 
 12 C        1.3040     2.7390    -0.8680 C.3   1 <1>   0.1400 
 13 C        0.1140     4.8400    -0.0080 C.3   1 <1>   0.1400 
 14 C        2.5930     2.6110    -0.0430 C.3   1 <1>   0.1400 
 15 C        1.4610     5.5750    -0.0020 C.3   1 <1>  -0.1600 
 16 N        3.2810     3.9250     0.1180 N.am  1 <1>  -0.6600 
 17 C        2.5250     4.9410     0.8970 C.3   1 <1>   0.1400 
 18 C        4.3810     4.2430    -0.6540 C.2   1 <1>   0.5440 
 19 O        4.6550     3.5330    -1.6040 O.2   1 <1>  -0.5700 
 20 C        5.1990     5.4070    -0.3850 C.ar  1 <1>   0.0860 
 21 C        5.4250     6.3630    -1.3620 C.ar  1 <1>  -0.1500 
 22 C        5.7960     5.5920     0.8830 C.ar  1 <1>  -0.1500 
 23 C        6.2030     7.4830    -1.0820 C.ar  1 <1>   0.2270 
 24 C        6.5700     6.6930     1.1680 C.ar  1 <1>  -0.1500 
 25 N        6.5450     8.5410    -1.8590 N.2   1 <1>  -0.2270 
 26 C        6.7620     7.6410     0.1590 C.ar  1 <1>  -0.1520 
 27 N        7.2780     9.3310    -1.1680 N.2   1 <1>  -0.4180 
 28 N        7.4290     8.8080     0.0590 N.pl3 1 <1>   0.3000 
 29 H        0.2910    -2.4330     2.4120 H     1 <1>   0.0800 
 30 H        1.2720    -2.4930     0.9750 H     1 <1>   0.0800 
 31 H       -3.1460     1.5530    -1.1070 H     1 <1>   0.0800 
 32 H       -3.8590     0.1050    -0.4380 H     1 <1>   0.0800 
 33 H       -2.9160     0.0150    -1.9070 H     1 <1>   0.0800 
 34 H       -1.4670    -3.7620     1.2730 H     1 <1>   0.0800 
 35 H        0.0560    -4.6230     1.2900 H     1 <1>   0.0800 
 36 H       -0.4840    -3.8220    -0.1690 H     1 <1>   0.0800 
 37 H        1.4980     3.3290    -1.7480 H     1 <1>   0.0800 
 38 H        1.0170     1.7600    -1.2060 H     1 <1>   0.0800 
 39 H       -0.4110     5.1110     0.8940 H     1 <1>   0.0800 
 40 H       -0.4780     5.1910    -0.8360 H     1 <1>   0.0800 
 41 H        3.2510     1.9190    -0.5390 H     1 <1>   0.0800 
 42 H        2.3730     2.2030     0.9260 H     1 <1>   0.0800 
 43 H        1.2740     6.5730     0.3520 H     1 <1>   0.0800 
 44 H        1.8330     5.6720    -1.0070 H     1 <1>   0.0800 
 45 H        2.0710     4.4840     1.7600 H     1 <1>   0.0800 
 46 H        3.1920     5.7080     1.2460 H     1 <1>   0.0800 
 47 H        5.0060     6.2520    -2.3460 H     1 <1>   0.1500 
 48 H        5.6320     4.8370     1.6330 H     1 <1>   0.1500 
 49 H        7.0220     6.8250     2.1360 H     1 <1>   0.1500 
 50 H        7.9840     9.2610     0.7910 H     1 <1>   0.2700 
@<TRIPOS>BOND
  1   1   2  1   
  2   1   3  1   
  3   2   4  2   
  4   2   5  1   
  5   3   6  2   
  6   3   7  1   
  7   4   6  1   
  8   4   8  1   
  9   5   9  2   
 10   5  10  am  
 11   7  11  1   
 12   7  29  1   
 13   7  30  1   
 14   8  31  1   
 15   8  32  1   
 16   8  33  1   
 17  10  12  1   
 18  10  13  1   
 19  11  34  1   
 20  11  35  1   
 21  11  36  1   
 22  12  14  1   
 23  12  37  1   
 24  12  38  1   
 25  13  15  1   
 26  13  39  1   
 27  13  40  1   
 28  14  16  1   
 29  14  41  1   
 30  14  42  1   
 31  15  17  1   
 32  15  43  1   
 33  15  44  1   
 34  16  17  1   
 35  16  18  am  
 36  17  45  1   
 37  17  46  1   
 38  18  19  2   
 39  18  20  1   
 40  20  21  ar  
 41  20  22  ar  
 42  21  23  ar  
 43  21  47  1   
 44  22  24  ar  
 45  22  48  1   
 46  23  25  1   
 47  23  26  ar  
 48  24  26  ar  
 49  24  49  1   
 50  25  27  2   
 51  26  28  1   
 52  27  28  1   
 53  28  50  1   
@<TRIPOS>SUBSTRUCTURE
  1 ****  16 GROUP 4 **** **** 0

# MOE 2024.06 (io_trps.svl 2023.06)
