@<TRIPOS>MOLECULE
NONAME
51 53 1 0 0 
SMALL
USER_CHARGES


@<TRIPOS>ATOM
  1 O        0.0270    -0.3410    -0.0290 O.3   1 <1>  -0.5600 
  2 C        1.3030    -0.8520    -0.3400 C.3   1 <1>   0.2000 
  3 C       -0.1340     1.0410    -0.1500 C.3   1 <1>   0.1200 
  4 C        2.4330    -0.1210     0.4530 C.3   1 <1>   0.5660 
  5 C        1.2330    -2.3530    -0.0090 C.3   1 <1>   0.1200 
  6 C        0.7990     1.7570     0.8370 C.3   1 <1>   0.3430 
  7 N        2.2090     1.3530     0.5900 N.4   1 <1>  -0.9590 
  8 C        3.8080    -0.2830    -0.1890 C.ar  1 <1>  -0.1430 
  9 O        2.4900    -2.9410    -0.0350 O.3   1 <1>  -0.6800 
 10 C        3.1890     2.0260     1.4780 C.3   1 <1>   0.5240 
 11 C        4.8270    -0.8870     0.5340 C.ar  1 <1>  -0.1500 
 12 C        4.0810     0.1910    -1.4660 C.ar  1 <1>  -0.1500 
 13 C        4.0850     2.8290     0.5470 C.2   1 <1>   0.0460 
 14 C        6.1040    -1.0060     0.0090 C.ar  1 <1>   0.0830 
 15 C        5.3570     0.0830    -1.9910 C.ar  1 <1>  -0.1500 
 16 N        3.5280     3.5370    -0.4620 N.2   1 <1>  -0.5650 
 17 C        5.4340     2.9190     0.5160 C.2   1 <1>  -0.3320 
 18 O        7.0340    -1.6110     0.7850 O.3   1 <1>  -0.3630 
 19 C        6.3860    -0.4950    -1.2680 C.ar  1 <1>   0.0830 
 20 C        4.5460     4.0510    -1.0730 C.2   1 <1>   0.0360 
 21 N        5.7340     3.7140    -0.5290 N.pl3 1 <1>   0.0330 
 22 C        6.5080     2.2890     1.3880 C.3   1 <1>  -0.0600 
 23 C        6.9360    -3.0160     0.8810 C.3   1 <1>   0.0400 
 24 O        7.5950    -0.4990    -1.8980 O.3   1 <1>  -0.3630 
 25 C        8.8040    -0.7720    -1.2270 C.3   1 <1>   0.0400 
 26 H        1.4510    -0.7300    -1.3980 H     1 <1>   0.0800 
 27 H        0.0680     1.3340    -1.1660 H     1 <1>   0.0800 
 28 H       -1.1610     1.2720     0.0780 H     1 <1>   0.0800 
 29 H        2.4620    -0.5630     1.4350 H     1 <1>   0.0800 
 30 H        0.5990    -2.8710    -0.7080 H     1 <1>   0.0800 
 31 H        0.8430    -2.4870     0.9860 H     1 <1>   0.0800 
 32 H        0.5070     1.4980     1.8410 H     1 <1>   0.0800 
 33 H        0.6980     2.8240     0.7170 H     1 <1>   0.0800 
 34 H        2.4870     1.7720    -0.3160 H     1 <1>   0.4500 
 35 H        2.7250    -3.2480    -0.9370 H     1 <1>   0.4000 
 36 H        2.6910     2.6970     2.1570 H     1 <1>   0.0800 
 37 H        3.7730     1.3130     2.0340 H     1 <1>   0.0800 
 38 H        4.6420    -1.2780     1.5190 H     1 <1>   0.1500 
 39 H        3.3210     0.6610    -2.0660 H     1 <1>   0.1500 
 40 H        5.5680     0.4590    -2.9770 H     1 <1>   0.1500 
 41 H        4.4800     4.6890    -1.9390 H     1 <1>   0.1500 
 42 H        6.6650     3.9950    -0.8550 H     1 <1>   0.2700 
 43 H        6.0740     1.6560     2.1410 H     1 <1>   0.0800 
 44 H        7.0880     3.0520     1.8760 H     1 <1>   0.0800 
 45 H        7.1680     1.6880     0.7850 H     1 <1>   0.0800 
 46 H        7.7590    -3.3710     1.4750 H     1 <1>   0.0800 
 47 H        6.9870    -3.4360    -0.1090 H     1 <1>   0.0800 
 48 H        6.0040    -3.2770     1.3500 H     1 <1>   0.0800 
 49 H        9.6160    -0.5340    -1.8910 H     1 <1>   0.0800 
 50 H        8.8360    -1.8170    -0.9780 H     1 <1>   0.0800 
 51 H        8.8620    -0.1640    -0.3420 H     1 <1>   0.0800 
@<TRIPOS>BOND
  1   1   2  1   
  2   1   3  1   
  3   2   4  1   
  4   2   5  1   
  5   2  26  1   
  6   3   6  1   
  7   3  27  1   
  8   3  28  1   
  9   4   7  1   
 10   4   8  1   
 11   4  29  1   
 12   5   9  1   
 13   5  30  1   
 14   5  31  1   
 15   6   7  1   
 16   6  32  1   
 17   6  33  1   
 18   7  10  1   
 19   7  34  1   
 20   8  11  ar  
 21   8  12  ar  
 22   9  35  1   
 23  10  13  1   
 24  10  36  1   
 25  10  37  1   
 26  11  14  ar  
 27  11  38  1   
 28  12  15  ar  
 29  12  39  1   
 30  13  16  1   
 31  13  17  2   
 32  14  18  1   
 33  14  19  ar  
 34  15  19  ar  
 35  15  40  1   
 36  16  20  2   
 37  17  21  1   
 38  17  22  1   
 39  18  23  1   
 40  19  24  1   
 41  20  21  1   
 42  20  41  1   
 43  21  42  1   
 44  22  43  1   
 45  22  44  1   
 46  22  45  1   
 47  23  46  1   
 48  23  47  1   
 49  23  48  1   
 50  24  25  1   
 51  25  49  1   
 52  25  50  1   
 53  25  51  1   
@<TRIPOS>SUBSTRUCTURE
  1 ****   8 GROUP 4 **** **** 0

# MOE 2024.06 (io_trps.svl 2023.06)
