@<TRIPOS>MOLECULE
NONAME
60 63 1 0 0 
SMALL
USER_CHARGES


@<TRIPOS>ATOM
  1 O        1.2630     0.4650     2.5150 O.2   1 <1>  -0.5700 
  2 C        2.0500     0.2040     1.6330 C.2   1 <1>   0.7150 
  3 N        2.2770    -1.1220     1.4480 N.am  1 <1>  -0.7300 
  4 C        2.6540     1.2650     0.8780 C.2   1 <1>  -0.2370 
  5 C        3.3380    -1.9010     0.7530 C.3   1 <1>   0.1400 
  6 N        3.3300     1.1490    -0.2890 N.pl3 1 <1>   0.3140 
  7 C        2.6520     2.5950     1.1530 C.2   1 <1>  -0.1500 
  8 C        4.3130    -1.0850    -0.1090 C.3   1 <1>   0.2000 
  9 N        3.7560     2.3280    -0.7560 N.2   1 <1>  -0.7070 
 10 C        3.6220    -0.0850    -1.0320 C.3   1 <1>   0.0960 
 11 C        3.3420     3.2260     0.1230 C.2   1 <1>   0.2030 
 12 O        5.0420    -1.9750    -0.8890 O.3   1 <1>  -0.6800 
 13 C        3.5720     4.6590     0.0230 C.2   1 <1>   0.7160 
 14 O        3.1970     5.4440     0.8780 O.2   1 <1>  -0.5700 
 15 N        4.2410     5.1490    -1.0640 N.am  1 <1>  -0.7300 
 16 C        4.3810     6.5730    -1.4350 C.3   1 <1>   0.1400 
 17 C        5.4030     7.2780    -0.5250 C.3   1 <1>  -0.0800 
 18 C        5.5260     8.7630    -0.8870 C.3   1 <1>  -0.1600 
 19 C        6.7950     6.6280    -0.5780 C.3   1 <1>  -0.1600 
 20 C        6.5480     9.4700     0.0030 C.3   1 <1>   0.3430 
 21 C        7.7930     7.3760     0.3040 C.3   1 <1>   0.3430 
 22 N        7.8900     8.8130    -0.1130 N.4   1 <1>  -0.9590 
 23 C        8.9650     9.5550     0.6270 C.3   1 <1>   0.4230 
 24 C        9.0430    11.0160     0.1380 C.3   1 <1>  -0.1600 
 25 C       10.3280     8.8600     0.4310 C.3   1 <1>  -0.1600 
 26 C       10.2030    11.7890     0.7830 C.3   1 <1>  -0.1600 
 27 C       11.4830     9.6410     1.0750 C.3   1 <1>  -0.1600 
 28 C       11.5390    11.0800     0.5560 C.3   1 <1>  -0.1600 
 29 H        1.7030    -1.6810     2.0840 H     1 <1>   0.3700 
 30 H        2.8470    -2.6270     0.1280 H     1 <1>   0.0800 
 31 H        3.9080    -2.4330     1.4960 H     1 <1>   0.0800 
 32 H        2.2040     3.0920     1.9970 H     1 <1>   0.1500 
 33 H        5.0260    -0.5760     0.5190 H     1 <1>   0.0800 
 34 H        4.2750     0.1710    -1.8460 H     1 <1>   0.0800 
 35 H        2.7020    -0.4810    -1.4190 H     1 <1>   0.0800 
 36 H        4.4750    -2.4530    -1.5260 H     1 <1>   0.4000 
 37 H        4.4650     4.4440    -1.7740 H     1 <1>   0.3700 
 38 H        3.4190     7.0500    -1.3370 H     1 <1>   0.0800 
 39 H        4.6860     6.6400    -2.4660 H     1 <1>   0.0800 
 40 H        5.0350     7.2180     0.4860 H     1 <1>   0.0800 
 41 H        4.5700     9.2400    -0.7560 H     1 <1>   0.0800 
 42 H        5.8080     8.8790    -1.9190 H     1 <1>   0.0800 
 43 H        7.1580     6.5950    -1.5900 H     1 <1>   0.0800 
 44 H        6.7320     5.6130    -0.2250 H     1 <1>   0.0800 
 45 H        6.2150     9.4380     1.0290 H     1 <1>   0.0800 
 46 H        6.6050    10.5010    -0.3020 H     1 <1>   0.0800 
 47 H        8.7500     6.8910     0.2150 H     1 <1>   0.0800 
 48 H        7.4770     7.3160     1.3330 H     1 <1>   0.0800 
 49 H        8.1530     8.8240    -1.1050 H     1 <1>   0.4500 
 50 H        8.7350     9.5610     1.6810 H     1 <1>   0.0800 
 51 H        8.1440    11.5500     0.3840 H     1 <1>   0.0800 
 52 H        9.1750    11.0340    -0.9300 H     1 <1>   0.0800 
 53 H       10.5330     8.7560    -0.6210 H     1 <1>   0.0800 
 54 H       10.3280     7.8850     0.8810 H     1 <1>   0.0800 
 55 H       10.0290    11.8900     1.8420 H     1 <1>   0.0800 
 56 H       10.2520    12.7820     0.3670 H     1 <1>   0.0800 
 57 H       12.4170     9.1490     0.8600 H     1 <1>   0.0800 
 58 H       11.3610     9.6540     2.1460 H     1 <1>   0.0800 
 59 H       12.3230    11.6160     1.0650 H     1 <1>   0.0800 
 60 H       11.7760    11.0780    -0.4950 H     1 <1>   0.0800 
@<TRIPOS>BOND
  1   1   2  2   
  2   2   3  am  
  3   2   4  1   
  4   3   5  1   
  5   3  29  1   
  6   4   6  1   
  7   4   7  2   
  8   5   8  1   
  9   5  30  1   
 10   5  31  1   
 11   6   9  1   
 12   6  10  1   
 13   7  11  1   
 14   7  32  1   
 15   8  10  1   
 16   8  12  1   
 17   8  33  1   
 18   9  11  2   
 19  10  34  1   
 20  10  35  1   
 21  11  13  1   
 22  12  36  1   
 23  13  14  2   
 24  13  15  am  
 25  15  16  1   
 26  15  37  1   
 27  16  17  1   
 28  16  38  1   
 29  16  39  1   
 30  17  18  1   
 31  17  19  1   
 32  17  40  1   
 33  18  20  1   
 34  18  41  1   
 35  18  42  1   
 36  19  21  1   
 37  19  43  1   
 38  19  44  1   
 39  20  22  1   
 40  20  45  1   
 41  20  46  1   
 42  21  22  1   
 43  21  47  1   
 44  21  48  1   
 45  22  23  1   
 46  22  49  1   
 47  23  24  1   
 48  23  25  1   
 49  23  50  1   
 50  24  26  1   
 51  24  51  1   
 52  24  52  1   
 53  25  27  1   
 54  25  53  1   
 55  25  54  1   
 56  26  28  1   
 57  26  55  1   
 58  26  56  1   
 59  27  28  1   
 60  27  57  1   
 61  27  58  1   
 62  28  59  1   
 63  28  60  1   
@<TRIPOS>SUBSTRUCTURE
  1 ****  15 GROUP 4 **** **** 0

# MOE 2024.06 (io_trps.svl 2023.06)
