@<TRIPOS>MOLECULE
NONAME
51 54 1 0 0 
SMALL
USER_CHARGES


@<TRIPOS>ATOM
  1 O        0.7910    -0.3410    -0.8020 O.2   1 <1>  -0.5700 
  2 C        1.4070    -1.3210    -0.4770 C.2   1 <1>   0.5690 
  3 N        0.8280    -2.3230     0.2160 N.am  1 <1>  -0.7300 
  4 C        2.8710    -1.4680    -0.8280 C.3   1 <1>  -0.0990 
  5 C        1.5570    -3.5050     0.7160 C.3   1 <1>   0.1400 
  6 C        3.1670    -2.9120    -1.2780 C.3   1 <1>  -0.0800 
  7 C        2.5890    -3.9900    -0.3280 C.3   1 <1>  -0.0800 
  8 C        4.6730    -3.1900    -1.4100 C.3   1 <1>  -0.1600 
  9 C        3.8070    -4.6720     0.3060 C.3   1 <1>  -0.1600 
 10 C        4.8910    -4.5540    -0.7630 C.3   1 <1>   0.4230 
 11 N        6.2980    -4.7760    -0.3000 N.4   1 <1>  -0.9590 
 12 C        6.6910    -4.2770     1.0600 C.3   1 <1>   0.4860 
 13 C        6.6570    -6.2190    -0.4390 C.3   1 <1>   0.2630 
 14 C        6.8200    -2.7680     1.0390 C.ar  1 <1>  -0.1440 
 15 C        7.8260    -2.1490     0.2520 C.ar  1 <1>   0.0000 
 16 C        5.9340    -2.0170     1.7660 C.ar  1 <1>  -0.1500 
 17 C        7.8290    -0.7360     0.1380 C.ar  1 <1>   0.0000 
 18 C        8.8350    -2.8720    -0.4290 C.ar  1 <1>  -0.1500 
 19 C        5.9710    -0.6240     1.6970 C.ar  1 <1>  -0.1500 
 20 C        8.7760    -0.1150    -0.7170 C.ar  1 <1>  -0.1440 
 21 C        6.8860    -0.0070     0.8960 C.ar  1 <1>  -0.1500 
 22 C        9.7440    -2.2490    -1.2340 C.ar  1 <1>  -0.1500 
 23 C        9.7040    -0.8630    -1.3870 C.ar  1 <1>  -0.1500 
 24 C        8.7840     1.3970    -0.9050 C.3   1 <1>  -0.0970 
 25 H       -0.1530    -2.1980     0.4800 H     1 <1>   0.3700 
 26 H        3.1180    -0.7750    -1.6120 H     1 <1>   0.0800 
 27 H        3.4440    -1.2120     0.0430 H     1 <1>   0.0800 
 28 H        2.0470    -3.2250     1.6330 H     1 <1>   0.0800 
 29 H        0.8570    -4.2940     0.9360 H     1 <1>   0.0800 
 30 H        2.7010    -3.0450    -2.2420 H     1 <1>   0.0800 
 31 H        2.0910    -4.7200    -0.9470 H     1 <1>   0.0800 
 32 H        5.2260    -2.4170    -0.9140 H     1 <1>   0.0800 
 33 H        4.9630    -3.2080    -2.4460 H     1 <1>   0.0800 
 34 H        3.5950    -5.6970     0.5520 H     1 <1>   0.0800 
 35 H        4.0720    -4.1290     1.1920 H     1 <1>   0.0800 
 36 H        4.6620    -5.2840    -1.5240 H     1 <1>   0.0800 
 37 H        6.8790    -4.2260    -0.9510 H     1 <1>   0.4500 
 38 H        5.9700    -4.5830     1.7990 H     1 <1>   0.0800 
 39 H        7.6450    -4.6920     1.3420 H     1 <1>   0.0800 
 40 H        6.0610    -6.8190     0.2300 H     1 <1>   0.0800 
 41 H        7.6990    -6.3720    -0.2050 H     1 <1>   0.0800 
 42 H        6.4820    -6.5530    -1.4490 H     1 <1>   0.0800 
 43 H        5.1840    -2.4620     2.3970 H     1 <1>   0.1500 
 44 H        8.9180    -3.9340    -0.3120 H     1 <1>   0.1500 
 45 H        5.2690    -0.0470     2.2760 H     1 <1>   0.1500 
 46 H        6.8900     1.0670     0.8480 H     1 <1>   0.1500 
 47 H       10.5070    -2.8030    -1.7550 H     1 <1>   0.1500 
 48 H       10.4300    -0.4020    -2.0360 H     1 <1>   0.1500 
 49 H        9.5410     1.6980    -1.6070 H     1 <1>   0.0800 
 50 H        8.9850     1.8840     0.0330 H     1 <1>   0.0800 
 51 H        7.8310     1.7290    -1.2780 H     1 <1>   0.0800 
@<TRIPOS>BOND
  1   1   2  2   
  2   2   3  am  
  3   2   4  1   
  4   3   5  1   
  5   3  25  1   
  6   4   6  1   
  7   4  26  1   
  8   4  27  1   
  9   5   7  1   
 10   5  28  1   
 11   5  29  1   
 12   6   7  1   
 13   6   8  1   
 14   6  30  1   
 15   7   9  1   
 16   7  31  1   
 17   8  10  1   
 18   8  32  1   
 19   8  33  1   
 20   9  10  1   
 21   9  34  1   
 22   9  35  1   
 23  10  11  1   
 24  10  36  1   
 25  11  12  1   
 26  11  13  1   
 27  11  37  1   
 28  12  14  1   
 29  12  38  1   
 30  12  39  1   
 31  13  40  1   
 32  13  41  1   
 33  13  42  1   
 34  14  15  ar  
 35  14  16  ar  
 36  15  17  ar  
 37  15  18  ar  
 38  16  19  ar  
 39  16  43  1   
 40  17  20  ar  
 41  17  21  ar  
 42  18  22  ar  
 43  18  44  1   
 44  19  21  ar  
 45  19  45  1   
 46  20  23  ar  
 47  20  24  1   
 48  21  46  1   
 49  22  23  ar  
 50  22  47  1   
 51  23  48  1   
 52  24  49  1   
 53  24  50  1   
 54  24  51  1   
@<TRIPOS>SUBSTRUCTURE
  1 ****   8 GROUP 4 **** **** 0

# MOE 2024.06 (io_trps.svl 2023.06)
