@<TRIPOS>MOLECULE
NONAME
48 50 1 0 0 
SMALL
USER_CHARGES


@<TRIPOS>ATOM
  1 O       -2.7460     0.9830    -2.0900 O.2   1 <1>  -0.5700 
  2 C       -2.4920     1.0380    -0.9000 C.2   1 <1>   0.6160 
  3 N       -2.6230    -0.1120    -0.1750 N.am  1 <1>  -0.7300 
  4 C       -2.0740     2.2750    -0.2820 C.2   1 <1>   0.0290 
  5 C       -2.9610    -1.4450    -0.7240 C.3   1 <1>   0.2200 
  6 C       -1.0000     2.1860     0.6600 C.2   1 <1>   0.6160 
  7 C       -2.6200     3.5210    -0.5410 C.2   1 <1>  -0.1380 
  8 C       -4.2180    -1.9580    -0.0430 C.3   1 <1>  -0.0800 
  9 C       -1.9080    -2.4690    -0.2950 C.3   1 <1>   0.1200 
 10 O       -0.4750     1.1440     1.0320 O.2   1 <1>  -0.5700 
 11 N       -0.5210     3.3300     1.2210 N.am  1 <1>  -0.5390 
 12 C       -2.0520     4.6900     0.0480 C.2   1 <1>  -0.1380 
 13 C       -3.8460     3.6750    -1.4490 C.3   1 <1>  -0.1020 
 14 C       -3.6380    -2.5930     1.2200 C.3   1 <1>   0.1200 
 15 C       -4.9570    -2.9830    -0.9230 C.3   1 <1>  -0.0170 
 16 O       -2.3870    -3.0950     0.8620 O.3   1 <1>  -0.5600 
 17 C       -1.0200     4.5670     0.9410 C.2   1 <1>  -0.0290 
 18 C       -2.5980     6.0650    -0.3450 C.3   1 <1>  -0.1020 
 19 C       -6.2220    -3.4870    -0.2470 C.ar  1 <1>  -0.1430 
 20 C       -0.3380     5.7050     1.6860 C.3   1 <1>  -0.1020 
 21 C       -6.2930    -4.7360     0.3380 C.ar  1 <1>  -0.1500 
 22 C       -7.3660    -2.7180    -0.1820 C.ar  1 <1>  -0.1500 
 23 C       -7.4710    -5.1410     0.9440 C.ar  1 <1>   0.1600 
 24 C       -8.4930    -3.2180     0.4490 C.ar  1 <1>   0.1600 
 25 N       -8.5720    -4.4120     1.0160 N.ar  1 <1>  -0.6200 
 26 H       -2.1160    -0.1420     0.7190 H     1 <1>   0.3700 
 27 H       -3.0550    -1.3990    -1.7960 H     1 <1>   0.0800 
 28 H       -4.8890    -1.1530     0.1990 H     1 <1>   0.0800 
 29 H       -0.9550    -2.0140    -0.0870 H     1 <1>   0.0800 
 30 H       -1.7910    -3.2290    -1.0470 H     1 <1>   0.0800 
 31 H        0.2500     3.1890     1.8740 H     1 <1>   0.3700 
 32 H       -4.5310     4.4020    -1.0540 H     1 <1>   0.0800 
 33 H       -4.3990     2.7590    -1.5390 H     1 <1>   0.0800 
 34 H       -3.5370     3.9800    -2.4330 H     1 <1>   0.0800 
 35 H       -4.2420    -3.3890     1.6170 H     1 <1>   0.0800 
 36 H       -3.4830    -1.8470     1.9810 H     1 <1>   0.0800 
 37 H       -4.3110    -3.8150    -1.1470 H     1 <1>   0.0800 
 38 H       -5.2270    -2.5220    -1.8580 H     1 <1>   0.0800 
 39 H       -2.7640     6.1150    -1.4060 H     1 <1>   0.0800 
 40 H       -1.9140     6.8570    -0.1100 H     1 <1>   0.0800 
 41 H       -3.5270     6.2520     0.1640 H     1 <1>   0.0800 
 42 H        0.0110     5.3680     2.6460 H     1 <1>   0.0800 
 43 H       -1.0130     6.5210     1.8620 H     1 <1>   0.0800 
 44 H        0.5040     6.0580     1.1180 H     1 <1>   0.0800 
 45 H       -5.4450    -5.3960     0.3290 H     1 <1>   0.1500 
 46 H       -7.3920    -1.7350    -0.6160 H     1 <1>   0.1500 
 47 H       -7.5070    -6.1180     1.3960 H     1 <1>   0.1500 
 48 H       -9.3760    -2.6040     0.4900 H     1 <1>   0.1500 
@<TRIPOS>BOND
  1   1   2  2   
  2   2   3  am  
  3   2   4  1   
  4   3   5  1   
  5   3  26  1   
  6   4   6  1   
  7   4   7  2   
  8   5   8  1   
  9   5   9  1   
 10   5  27  1   
 11   6  10  2   
 12   6  11  am  
 13   7  12  1   
 14   7  13  1   
 15   8  14  1   
 16   8  15  1   
 17   8  28  1   
 18   9  16  1   
 19   9  29  1   
 20   9  30  1   
 21  11  17  1   
 22  11  31  1   
 23  12  17  2   
 24  12  18  1   
 25  13  32  1   
 26  13  33  1   
 27  13  34  1   
 28  14  16  1   
 29  14  35  1   
 30  14  36  1   
 31  15  19  1   
 32  15  37  1   
 33  15  38  1   
 34  17  20  1   
 35  18  39  1   
 36  18  40  1   
 37  18  41  1   
 38  19  21  ar  
 39  19  22  ar  
 40  20  42  1   
 41  20  43  1   
 42  20  44  1   
 43  21  23  ar  
 44  21  45  1   
 45  22  24  ar  
 46  22  46  1   
 47  23  25  ar  
 48  23  47  1   
 49  24  25  ar  
 50  24  48  1   
@<TRIPOS>SUBSTRUCTURE
  1 ****   3 GROUP 4 **** **** 0

# MOE 2024.06 (io_trps.svl 2023.06)
