@<TRIPOS>MOLECULE
NONAME
42 43 1 0 0 
SMALL
USER_CHARGES


@<TRIPOS>ATOM
  1 F        0.1360    -0.6020     0.6600 F     1 <1>  -0.1900 
  2 C       -0.4810    -1.7210     0.3760 C.ar  1 <1>   0.1900 
  3 C        0.0600    -2.6630    -0.5070 C.ar  1 <1>   0.0830 
  4 C       -1.6950    -1.9300     1.0000 C.ar  1 <1>  -0.1500 
  5 O        1.2430    -2.5700    -1.1820 O.3   1 <1>  -0.3630 
  6 C       -0.6670    -3.8200    -0.7360 C.ar  1 <1>  -0.1500 
  7 C       -2.3920    -3.0980     0.7500 C.ar  1 <1>  -0.1500 
  8 C        2.0580    -1.4190    -1.1500 C.3   1 <1>   0.0400 
  9 C       -1.8980    -4.0680    -0.1240 C.ar  1 <1>   0.0530 
 10 C       -2.6090    -5.2990    -0.3810 C.2   1 <1>   0.0870 
 11 O       -1.9180    -6.3950    -0.6040 O.3   1 <1>  -0.0190 
 12 C       -3.9230    -5.6480    -0.4380 C.2   1 <1>  -0.2330 
 13 N       -2.6700    -7.4450    -0.7960 N.2   1 <1>  -0.4100 
 14 C       -3.8780    -7.0140    -0.7090 C.2   1 <1>   0.3720 
 15 C       -5.1360    -4.9030    -0.2740 C.2   1 <1>   1.0330 
 16 N       -4.9980    -7.8170    -0.8540 N.pl3 1 <1>  -0.8520 
 17 O       -5.1470    -3.6640    -0.3480 O.co2 1 <1>  -0.9000 
 18 O       -6.2100    -5.4890    -0.0310 O.co2 1 <1>  -0.9000 
 19 C       -5.0370    -8.9890     0.0460 C.3   1 <1>   0.2090 
 20 C       -6.4380    -9.6430     0.1140 C.3   1 <1>   0.0000 
 21 C       -6.3340   -10.8100     1.1240 C.3   1 <1>   0.1200 
 22 C       -6.8440   -10.1720    -1.2770 C.3   1 <1>  -0.2400 
 23 C       -7.4900    -8.6160     0.5910 C.3   1 <1>  -0.2400 
 24 O       -7.5440   -11.4750     1.2610 O.3   1 <1>  -0.6800 
 25 H       -2.0950    -1.1910     1.6700 H     1 <1>   0.1500 
 26 H       -0.2660    -4.5500    -1.4140 H     1 <1>   0.1500 
 27 H       -3.3390    -3.2590     1.2340 H     1 <1>   0.1500 
 28 H        2.8920    -1.5820    -1.8070 H     1 <1>   0.0800 
 29 H        2.4100    -1.2670    -0.1450 H     1 <1>   0.0800 
 30 H        1.4840    -0.5750    -1.4910 H     1 <1>   0.0800 
 31 H       -5.8100    -7.1970    -0.6400 H     1 <1>   0.4000 
 32 H       -4.7390    -8.6730     1.0320 H     1 <1>   0.0800 
 33 H       -4.3160    -9.7090    -0.3040 H     1 <1>   0.0800 
 34 H       -6.0510   -10.4410     2.0950 H     1 <1>   0.0800 
 35 H       -5.6020   -11.5300     0.7990 H     1 <1>   0.0800 
 36 H       -6.1240   -10.8890    -1.6290 H     1 <1>   0.0800 
 37 H       -6.8900    -9.3650    -1.9870 H     1 <1>   0.0800 
 38 H       -7.8080   -10.6450    -1.2430 H     1 <1>   0.0800 
 39 H       -7.2120    -8.2010     1.5430 H     1 <1>   0.0800 
 40 H       -8.4640    -9.0610     0.6770 H     1 <1>   0.0800 
 41 H       -7.5720    -7.8020    -0.1080 H     1 <1>   0.0800 
 42 H       -8.2610   -10.8220     1.3770 H     1 <1>   0.4000 
@<TRIPOS>BOND
  1   1   2  1   
  2   2   3  ar  
  3   2   4  ar  
  4   3   5  1   
  5   3   6  ar  
  6   4   7  ar  
  7   4  25  1   
  8   5   8  1   
  9   6   9  ar  
 10   6  26  1   
 11   7   9  ar  
 12   7  27  1   
 13   8  28  1   
 14   8  29  1   
 15   8  30  1   
 16   9  10  1   
 17  10  11  1   
 18  10  12  2   
 19  11  13  1   
 20  12  14  1   
 21  12  15  1   
 22  13  14  2   
 23  14  16  1   
 24  15  17  ar  
 25  15  18  ar  
 26  16  19  1   
 27  16  31  1   
 28  19  20  1   
 29  19  32  1   
 30  19  33  1   
 31  20  21  1   
 32  20  22  1   
 33  20  23  1   
 34  21  24  1   
 35  21  34  1   
 36  21  35  1   
 37  22  36  1   
 38  22  37  1   
 39  22  38  1   
 40  23  39  1   
 41  23  40  1   
 42  23  41  1   
 43  24  42  1   
@<TRIPOS>SUBSTRUCTURE
  1 ****  12 GROUP 4 **** **** 0

# MOE 2024.06 (io_trps.svl 2023.06)
