@<TRIPOS>MOLECULE
NONAME
45 48 1 0 0 
SMALL
USER_CHARGES


@<TRIPOS>ATOM
  1 O       -0.0680     0.2920    -0.1250 O.2   1 <1>  -0.5700 
  2 C       -1.1340     0.7010    -0.5280 C.2   1 <1>   0.5690 
  3 N       -2.2890    -0.0240    -0.3470 N.am  1 <1>  -0.6600 
  4 C       -1.1290     2.0540    -1.2560 C.3   1 <1>   0.1810 
  5 C       -2.2610    -1.2900     0.4450 C.3   1 <1>   0.1400 
  6 C       -3.6200     0.4330    -0.8540 C.3   1 <1>   0.1400 
  7 O       -2.0390     2.9950    -0.7310 O.3   1 <1>  -0.5600 
  8 C       -3.6010    -1.5270     1.1410 C.3   1 <1>  -0.1600 
  9 C       -4.5100    -0.7750    -1.1300 C.3   1 <1>  -0.1600 
 10 C       -1.7460     3.4140     0.5660 C.3   1 <1>   0.0400 
 11 C       -4.7850    -1.5670     0.1590 C.3   1 <1>   0.4600 
 12 O       -5.8520    -0.9480     0.8440 O.3   1 <1>  -0.5600 
 13 C       -5.1590    -3.0110    -0.1630 C.2   1 <1>  -0.3320 
 14 C       -7.1730    -1.2610     0.4650 C.3   1 <1>   0.1200 
 15 N       -4.3450    -3.9560    -0.7270 N.pl3 1 <1>   0.0330 
 16 C       -6.3670    -3.5570     0.0800 C.2   1 <1>  -0.1810 
 17 C       -7.4810    -2.7490     0.6940 C.3   1 <1>   0.0210 
 18 C       -5.0600    -5.1240    -0.8340 C.ar  1 <1>  -0.1520 
 19 C       -6.3400    -4.9060    -0.3310 C.ar  1 <1>   0.0000 
 20 C       -4.6920    -6.3750    -1.3370 C.ar  1 <1>  -0.1500 
 21 C       -7.2690    -5.9510    -0.3240 C.ar  1 <1>  -0.1500 
 22 C       -5.6160    -7.3940    -1.3260 C.ar  1 <1>  -0.1500 
 23 C       -6.9050    -7.1820    -0.8190 C.ar  1 <1>  -0.1500 
 24 H       -1.3880     1.8960    -2.2860 H     1 <1>   0.0800 
 25 H       -0.1430     2.4800    -1.2190 H     1 <1>   0.0800 
 26 H       -1.4820    -1.2370     1.1880 H     1 <1>   0.0800 
 27 H       -2.0340    -2.1080    -0.2150 H     1 <1>   0.0800 
 28 H       -3.4990     0.9990    -1.7610 H     1 <1>   0.0800 
 29 H       -4.0810     1.0690    -0.1170 H     1 <1>   0.0800 
 30 H       -3.7440    -0.7300     1.8490 H     1 <1>   0.0800 
 31 H       -3.5600    -2.4460     1.6970 H     1 <1>   0.0800 
 32 H       -4.0060    -1.4000    -1.8440 H     1 <1>   0.0800 
 33 H       -5.4290    -0.4600    -1.5820 H     1 <1>   0.0800 
 34 H       -2.4630     4.1680     0.8430 H     1 <1>   0.0800 
 35 H       -0.7540     3.8310     0.5920 H     1 <1>   0.0800 
 36 H       -1.8240     2.5790     1.2410 H     1 <1>   0.0800 
 37 H       -7.3010    -1.0120    -0.5730 H     1 <1>   0.0800 
 38 H       -7.8350    -0.6490     1.0510 H     1 <1>   0.0800 
 39 H       -3.3730    -3.8330    -1.0220 H     1 <1>   0.2700 
 40 H       -8.4190    -3.0000     0.2340 H     1 <1>   0.0800 
 41 H       -7.5440    -2.9540     1.7470 H     1 <1>   0.0800 
 42 H       -3.7010    -6.5300    -1.7230 H     1 <1>   0.1500 
 43 H       -8.2520    -5.7740     0.0680 H     1 <1>   0.1500 
 44 H       -5.3580    -8.3660    -1.7060 H     1 <1>   0.1500 
 45 H       -7.6080    -7.9960    -0.8210 H     1 <1>   0.1500 
@<TRIPOS>BOND
  1   1   2  2   
  2   2   3  am  
  3   2   4  1   
  4   3   5  1   
  5   3   6  1   
  6   4   7  1   
  7   4  24  1   
  8   4  25  1   
  9   5   8  1   
 10   5  26  1   
 11   5  27  1   
 12   6   9  1   
 13   6  28  1   
 14   6  29  1   
 15   7  10  1   
 16   8  11  1   
 17   8  30  1   
 18   8  31  1   
 19   9  11  1   
 20   9  32  1   
 21   9  33  1   
 22  10  34  1   
 23  10  35  1   
 24  10  36  1   
 25  11  12  1   
 26  11  13  1   
 27  12  14  1   
 28  13  15  1   
 29  13  16  2   
 30  14  17  1   
 31  14  37  1   
 32  14  38  1   
 33  15  18  1   
 34  15  39  1   
 35  16  17  1   
 36  16  19  1   
 37  17  40  1   
 38  17  41  1   
 39  18  19  ar  
 40  18  20  ar  
 41  19  21  ar  
 42  20  22  ar  
 43  20  42  1   
 44  21  23  ar  
 45  21  43  1   
 46  22  23  ar  
 47  22  44  1   
 48  23  45  1   
@<TRIPOS>SUBSTRUCTURE
  1 ****  11 GROUP 4 **** **** 0

# MOE 2024.06 (io_trps.svl 2023.06)
