@<TRIPOS>MOLECULE
NONAME
45 47 1 0 0 
SMALL
USER_CHARGES


@<TRIPOS>ATOM
  1 S        0.2440    -1.1490    -0.8010 S.3   1 <1>  -0.0800 
  2 C       -0.6250     0.0140     0.1710 C.2   1 <1>   0.1980 
  3 C        1.2690     0.1280    -1.3650 C.2   1 <1>  -0.1100 
  4 N       -0.1840     1.2030     0.0780 N.2   1 <1>  -0.5650 
  5 C       -1.7820    -0.4980     1.0080 C.3   1 <1>   0.0200 
  6 C        0.9050     1.3040    -0.8070 C.2   1 <1>   0.1410 
  7 C       -3.0090    -0.8180     0.1410 C.3   1 <1>  -0.1600 
  8 C        1.5520     2.5860    -1.0630 C.2   1 <1>   0.7160 
  9 C       -4.1880    -1.3050     0.9900 C.3   1 <1>  -0.2400 
 10 O        2.6190     2.6520    -1.6510 O.2   1 <1>  -0.5700 
 11 N        1.0630     3.7780    -0.5850 N.am  1 <1>  -0.6600 
 12 C        1.1630     4.0150     0.8960 C.3   1 <1>   0.2200 
 13 C        0.9840     4.9530    -1.5080 C.3   1 <1>   0.1400 
 14 C        0.1730     5.0740     1.4070 C.3   1 <1>   0.1200 
 15 C        2.6180     4.3790     1.2880 C.3   1 <1>   0.3430 
 16 C        1.5880     6.2560    -0.9500 C.3   1 <1>  -0.0800 
 17 O        0.7260     6.3540     1.3050 O.3   1 <1>  -0.5600 
 18 N        3.4490     4.8340     0.1140 N.4   1 <1>  -0.9590 
 19 C        0.6490     6.9450     0.0520 C.3   1 <1>   0.1200 
 20 C        3.0400     6.1690    -0.4300 C.3   1 <1>   0.3430 
 21 C        4.9050     4.7890     0.4220 C.3   1 <1>   0.2630 
 22 H        2.0480    -0.1170    -2.0640 H     1 <1>   0.1500 
 23 H       -1.4680    -1.3770     1.5410 H     1 <1>   0.0800 
 24 H       -2.0420     0.2550     1.7300 H     1 <1>   0.0800 
 25 H       -3.3000     0.0670    -0.3990 H     1 <1>   0.0800 
 26 H       -2.7540    -1.5760    -0.5790 H     1 <1>   0.0800 
 27 H       -4.4800    -0.5510     1.7010 H     1 <1>   0.0800 
 28 H       -3.9260    -2.2020     1.5230 H     1 <1>   0.0800 
 29 H       -5.0320    -1.5200     0.3570 H     1 <1>   0.0800 
 30 H        0.9070     3.1020     1.4030 H     1 <1>   0.0800 
 31 H        1.4820     4.7110    -2.4330 H     1 <1>   0.0800 
 32 H       -0.0520     5.1180    -1.7520 H     1 <1>   0.0800 
 33 H       -0.0130     4.9060     2.4530 H     1 <1>   0.0800 
 34 H       -0.7690     5.0270     0.8870 H     1 <1>   0.0800 
 35 H        3.0690     3.4990     1.7160 H     1 <1>   0.0800 
 36 H        2.6070     5.1390     2.0530 H     1 <1>   0.0800 
 37 H        1.6200     6.9330    -1.7850 H     1 <1>   0.0800 
 38 H        3.2500     4.1390    -0.6390 H     1 <1>   0.4500 
 39 H       -0.3760     6.9290    -0.2820 H     1 <1>   0.0800 
 40 H        0.9400     7.9740     0.1780 H     1 <1>   0.0800 
 41 H        3.1830     6.9230     0.3270 H     1 <1>   0.0800 
 42 H        3.6960     6.4090    -1.2510 H     1 <1>   0.0800 
 43 H        5.1440     5.4870     1.2080 H     1 <1>   0.0800 
 44 H        5.4790     5.0430    -0.4540 H     1 <1>   0.0800 
 45 H        5.1890     3.7990     0.7390 H     1 <1>   0.0800 
@<TRIPOS>BOND
  1   1   2  1   
  2   1   3  1   
  3   2   4  2   
  4   2   5  1   
  5   3   6  2   
  6   3  22  1   
  7   4   6  1   
  8   5   7  1   
  9   5  23  1   
 10   5  24  1   
 11   6   8  1   
 12   7   9  1   
 13   7  25  1   
 14   7  26  1   
 15   8  10  2   
 16   8  11  am  
 17   9  27  1   
 18   9  28  1   
 19   9  29  1   
 20  11  12  1   
 21  11  13  1   
 22  12  14  1   
 23  12  15  1   
 24  12  30  1   
 25  13  16  1   
 26  13  31  1   
 27  13  32  1   
 28  14  17  1   
 29  14  33  1   
 30  14  34  1   
 31  15  18  1   
 32  15  35  1   
 33  15  36  1   
 34  16  19  1   
 35  16  20  1   
 36  16  37  1   
 37  17  19  1   
 38  18  20  1   
 39  18  21  1   
 40  18  38  1   
 41  19  39  1   
 42  19  40  1   
 43  20  41  1   
 44  20  42  1   
 45  21  43  1   
 46  21  44  1   
 47  21  45  1   
@<TRIPOS>SUBSTRUCTURE
  1 ****  11 GROUP 4 **** **** 0

# MOE 2024.06 (io_trps.svl 2023.06)
