@<TRIPOS>MOLECULE
NONAME
46 49 1 0 0 
SMALL
USER_CHARGES


@<TRIPOS>ATOM
  1 O        1.5880    -0.5900    -2.2360 O.3   1 <1>  -0.6800 
  2 C        2.7610    -0.5020    -1.4950 C.3   1 <1>   0.2000 
  3 C        2.7830    -1.5600    -0.3990 C.3   1 <1>  -0.0800 
  4 C        2.8490     0.8140    -0.7310 C.3   1 <1>   0.2090 
  5 C        3.7250    -0.9660     0.6530 C.3   1 <1>   0.2090 
  6 C        3.2080    -2.9520    -0.8950 C.3   1 <1>  -0.0170 
  7 N        3.6970     0.5100     0.4580 N.pl3 1 <1>  -0.8380 
  8 C        3.1910    -3.9760     0.2300 C.ar  1 <1>   0.1660 
  9 C        4.9150     1.1560     0.5580 C.ar  1 <1>   0.4100 
 10 N        4.2850    -4.0620     0.9690 N.ar  1 <1>  -0.6200 
 11 C        2.0590    -4.7620     0.4390 C.ar  1 <1>   0.1600 
 12 N        5.6880     1.0870    -0.5220 N.ar  1 <1>  -0.6200 
 13 C        5.2870     1.8140     1.7360 C.ar  1 <1>   0.0730 
 14 C        4.1740    -4.9750     1.9190 C.ar  1 <1>   0.1600 
 15 N        1.9450    -5.6760     1.3880 N.ar  1 <1>  -0.6200 
 16 C        6.8610     1.6920    -0.4590 C.ar  1 <1>   0.1670 
 17 C        4.4170     1.8420     2.8710 C.1   1 <1>   0.4840 
 18 C        6.5180     2.4370     1.7790 C.ar  1 <1>  -0.1500 
 19 C        3.0420    -5.7560     2.1220 C.ar  1 <1>   0.1600 
 20 C        7.3240     2.3760     0.6600 C.ar  1 <1>  -0.1430 
 21 C        7.7100     1.5750    -1.7180 C.3   1 <1>  -0.0170 
 22 N        3.7750     1.8930     3.8140 N.1   1 <1>  -0.5570 
 23 C        8.6810     3.0710     0.6920 C.3   1 <1>  -0.0170 
 24 C        8.8860     2.5610    -1.7610 C.3   1 <1>  -0.1600 
 25 C        9.6180     2.5800    -0.4170 C.3   1 <1>  -0.1600 
 26 H        1.6210    -1.3540    -2.8410 H     1 <1>   0.4000 
 27 H        3.6080    -0.5880    -2.1540 H     1 <1>   0.0800 
 28 H        1.8050    -1.6170     0.0480 H     1 <1>   0.0800 
 29 H        1.8730     1.1170    -0.3940 H     1 <1>   0.0800 
 30 H        3.2810     1.5880    -1.3420 H     1 <1>   0.0800 
 31 H        4.7300    -1.3310     0.5090 H     1 <1>   0.0800 
 32 H        3.4020    -1.2210     1.6490 H     1 <1>   0.0800 
 33 H        4.1990    -2.9060    -1.3130 H     1 <1>   0.0800 
 34 H        2.5410    -3.2730    -1.6740 H     1 <1>   0.0800 
 35 H        1.2080    -4.6280    -0.2050 H     1 <1>   0.1500 
 36 H        5.0190    -5.1140     2.5700 H     1 <1>   0.1500 
 37 H        6.8380     2.9580     2.6650 H     1 <1>   0.1500 
 38 H        3.0460    -6.4740     2.9220 H     1 <1>   0.1500 
 39 H        8.0870     0.5700    -1.7670 H     1 <1>   0.0800 
 40 H        7.0860     1.7320    -2.5800 H     1 <1>   0.0800 
 41 H        8.5220     4.1290     0.5760 H     1 <1>   0.0800 
 42 H        9.1520     2.9100     1.6460 H     1 <1>   0.0800 
 43 H        9.5630     2.2770    -2.5480 H     1 <1>   0.0800 
 44 H        8.5150     3.5480    -1.9810 H     1 <1>   0.0800 
 45 H       10.4770     3.2270    -0.4760 H     1 <1>   0.0800 
 46 H        9.9630     1.5870    -0.1830 H     1 <1>   0.0800 
@<TRIPOS>BOND
  1   1   2  1   
  2   1  26  1   
  3   2   3  1   
  4   2   4  1   
  5   2  27  1   
  6   3   5  1   
  7   3   6  1   
  8   3  28  1   
  9   4   7  1   
 10   4  29  1   
 11   4  30  1   
 12   5   7  1   
 13   5  31  1   
 14   5  32  1   
 15   6   8  1   
 16   6  33  1   
 17   6  34  1   
 18   7   9  1   
 19   8  10  ar  
 20   8  11  ar  
 21   9  12  ar  
 22   9  13  ar  
 23  10  14  ar  
 24  11  15  ar  
 25  11  35  1   
 26  12  16  ar  
 27  13  17  1   
 28  13  18  ar  
 29  14  19  ar  
 30  14  36  1   
 31  15  19  ar  
 32  16  20  ar  
 33  16  21  1   
 34  17  22  3   
 35  18  20  ar  
 36  18  37  1   
 37  19  38  1   
 38  20  23  1   
 39  21  24  1   
 40  21  39  1   
 41  21  40  1   
 42  23  25  1   
 43  23  41  1   
 44  23  42  1   
 45  24  25  1   
 46  24  43  1   
 47  24  44  1   
 48  25  45  1   
 49  25  46  1   
@<TRIPOS>SUBSTRUCTURE
  1 ****   5 GROUP 4 **** **** 0

# MOE 2024.06 (io_trps.svl 2023.06)
