@<TRIPOS>MOLECULE
NONAME
63 66 1 0 0 
SMALL
USER_CHARGES


@<TRIPOS>ATOM
  1 O       -0.6130    -6.4840     1.2710 O.2   1 <1>  -0.5700 
  2 C        0.4820    -6.1070     0.9480 C.2   1 <1>   0.5690 
  3 N        1.5200    -6.9590     0.8300 N.am  1 <1>  -0.7300 
  4 C        0.7460    -4.6450     0.6670 C.3   1 <1>  -0.0990 
  5 C        2.8850    -6.5380     0.4630 C.3   1 <1>   0.1400 
  6 C        1.6280    -4.4880    -0.5890 C.3   1 <1>  -0.0800 
  7 C        2.8190    -5.4780    -0.6580 C.3   1 <1>  -0.0800 
  8 C        2.2160    -3.0780    -0.7430 C.3   1 <1>  -0.1600 
  9 C        4.0810    -4.6070    -0.7460 C.3   1 <1>  -0.1600 
 10 C        3.5870    -3.3030    -1.3710 C.3   1 <1>   0.4230 
 11 N        4.5060    -2.1420    -1.1970 N.4   1 <1>  -0.9590 
 12 C        4.9090    -1.8370     0.2090 C.3   1 <1>   0.4860 
 13 C        5.7090    -2.2730    -2.0790 C.3   1 <1>   0.2630 
 14 C        5.4940    -0.4390     0.2450 C.ar  1 <1>  -0.1440 
 15 C        6.8690    -0.2580     0.3000 C.ar  1 <1>  -0.1500 
 16 C        4.6610     0.6720     0.2260 C.ar  1 <1>  -0.1500 
 17 C        7.4130     1.0140     0.3230 C.ar  1 <1>   0.0820 
 18 C        5.2000     1.9480     0.2390 C.ar  1 <1>  -0.1500 
 19 O        8.7610     1.1090     0.3930 O.3   1 <1>  -0.3620 
 20 C        6.5720     2.1320     0.2700 C.ar  1 <1>   0.0820 
 21 C        9.2940     1.6270     1.5960 C.3   1 <1>   0.0400 
 22 O        7.0260     3.4090     0.2580 O.3   1 <1>  -0.3630 
 23 C        7.9190     3.8010    -0.7700 C.3   1 <1>   0.2640 
 24 C        9.1060     4.5310    -0.1590 C.ar  1 <1>  -0.1440 
 25 C       10.4000     4.1080    -0.4290 C.ar  1 <1>  -0.1500 
 26 C        8.9100     5.6240     0.6710 C.ar  1 <1>  -0.1500 
 27 C       11.4890     4.7630     0.1230 C.ar  1 <1>  -0.1440 
 28 C        9.9920     6.2840     1.2230 C.ar  1 <1>  -0.1500 
 29 C       11.2790     5.8550     0.9490 C.ar  1 <1>  -0.1500 
 30 C       12.8980     4.2890    -0.1790 C.3   1 <1>  -0.0970 
 31 H        1.3470    -7.9420     1.0580 H     1 <1>   0.3700 
 32 H       -0.1910    -4.1350     0.5310 H     1 <1>   0.0800 
 33 H        1.2310    -4.2340     1.5330 H     1 <1>   0.0800 
 34 H        3.3580    -6.1340     1.3420 H     1 <1>   0.0800 
 35 H        3.4530    -7.3920     0.1330 H     1 <1>   0.0800 
 36 H        0.9990    -4.6930    -1.4420 H     1 <1>   0.0800 
 37 H        2.7270    -6.0160    -1.5880 H     1 <1>   0.0800 
 38 H        2.2990    -2.6200     0.2240 H     1 <1>   0.0800 
 39 H        1.5890    -2.4700    -1.3730 H     1 <1>   0.0800 
 40 H        4.8340    -5.0810    -1.3500 H     1 <1>   0.0800 
 41 H        4.4610    -4.4410     0.2450 H     1 <1>   0.0800 
 42 H        3.4340    -3.4780    -2.4250 H     1 <1>   0.0800 
 43 H        3.9980    -1.3050    -1.5150 H     1 <1>   0.4500 
 44 H        4.0580    -1.8740     0.8670 H     1 <1>   0.0800 
 45 H        5.6380    -2.5520     0.5550 H     1 <1>   0.0800 
 46 H        6.3150    -3.1080    -1.7680 H     1 <1>   0.0800 
 47 H        6.3080    -1.3770    -2.0340 H     1 <1>   0.0800 
 48 H        5.4080    -2.4280    -3.1030 H     1 <1>   0.0800 
 49 H        7.5450    -1.0950     0.3330 H     1 <1>   0.1500 
 50 H        3.5890     0.5660     0.2060 H     1 <1>   0.1500 
 51 H        4.5600     2.8130     0.2260 H     1 <1>   0.1500 
 52 H       10.3620     1.6970     1.4900 H     1 <1>   0.0800 
 53 H        9.0440     0.9620     2.4020 H     1 <1>   0.0800 
 54 H        8.8860     2.6050     1.7830 H     1 <1>   0.0800 
 55 H        8.2400     2.9360    -1.3220 H     1 <1>   0.0800 
 56 H        7.3840     4.4570    -1.4330 H     1 <1>   0.0800 
 57 H       10.5600     3.2590    -1.0700 H     1 <1>   0.1500 
 58 H        7.9110     5.9580     0.8920 H     1 <1>   0.1500 
 59 H        9.8330     7.1310     1.8670 H     1 <1>   0.1500 
 60 H       12.1150     6.3760     1.3820 H     1 <1>   0.1500 
 61 H       13.5590     4.5300     0.6340 H     1 <1>   0.0800 
 62 H       13.2580     4.7660    -1.0730 H     1 <1>   0.0800 
 63 H       12.9120     3.2240    -0.3230 H     1 <1>   0.0800 
@<TRIPOS>BOND
  1   1   2  2   
  2   2   3  am  
  3   2   4  1   
  4   3   5  1   
  5   3  31  1   
  6   4   6  1   
  7   4  32  1   
  8   4  33  1   
  9   5   7  1   
 10   5  34  1   
 11   5  35  1   
 12   6   7  1   
 13   6   8  1   
 14   6  36  1   
 15   7   9  1   
 16   7  37  1   
 17   8  10  1   
 18   8  38  1   
 19   8  39  1   
 20   9  10  1   
 21   9  40  1   
 22   9  41  1   
 23  10  11  1   
 24  10  42  1   
 25  11  12  1   
 26  11  13  1   
 27  11  43  1   
 28  12  14  1   
 29  12  44  1   
 30  12  45  1   
 31  13  46  1   
 32  13  47  1   
 33  13  48  1   
 34  14  15  ar  
 35  14  16  ar  
 36  15  17  ar  
 37  15  49  1   
 38  16  18  ar  
 39  16  50  1   
 40  17  19  1   
 41  17  20  ar  
 42  18  20  ar  
 43  18  51  1   
 44  19  21  1   
 45  20  22  1   
 46  21  52  1   
 47  21  53  1   
 48  21  54  1   
 49  22  23  1   
 50  23  24  1   
 51  23  55  1   
 52  23  56  1   
 53  24  25  ar  
 54  24  26  ar  
 55  25  27  ar  
 56  25  57  1   
 57  26  28  ar  
 58  26  58  1   
 59  27  29  ar  
 60  27  30  1   
 61  28  29  ar  
 62  28  59  1   
 63  29  60  1   
 64  30  61  1   
 65  30  62  1   
 66  30  63  1   
@<TRIPOS>SUBSTRUCTURE
  1 ****  14 GROUP 4 **** **** 0

# MOE 2024.06 (io_trps.svl 2023.06)
