@<TRIPOS>MOLECULE
NONAME
37 39 1 0 0 
SMALL
USER_CHARGES


@<TRIPOS>ATOM
  1 S       -0.1940     0.1350    -0.8090 S.3   1 <1>  -0.0800 
  2 C       -0.7800     1.5830    -0.0250 C.2   1 <1>   0.4620 
  3 C       -1.3810    -0.8180     0.0630 C.2   1 <1>  -0.0450 
  4 N       -1.7460     1.3850     0.7920 N.2   1 <1>  -0.5650 
  5 N       -0.2040     2.7680    -0.3150 N.pl3 1 <1>  -0.8840 
  6 C       -1.4430    -2.2370    -0.1450 C.2   1 <1>   0.7150 
  7 C       -2.0660     0.0540     0.8400 C.2   1 <1>   0.0770 
  8 O       -0.4810    -2.8390    -0.5860 O.2   1 <1>  -0.5700 
  9 N       -2.5790    -2.9640     0.1460 N.am  1 <1>  -0.6600 
 10 C       -3.9630    -2.4240     0.1020 C.3   1 <1>   0.1400 
 11 C       -2.6020    -4.4460     0.0370 C.3   1 <1>   0.1400 
 12 C       -4.8370    -3.6160    -0.2870 C.3   1 <1>   0.2000 
 13 C       -4.0700    -4.8460     0.1890 C.3   1 <1>  -0.0800 
 14 O       -6.0800    -3.5620     0.3230 O.3   1 <1>  -0.6800 
 15 C       -4.4420    -6.1250    -0.5750 C.3   1 <1>   0.0200 
 16 C       -3.5840    -7.2910    -0.1250 C.2   1 <1>  -0.0400 
 17 O       -3.6240    -7.6890     1.1180 O.3   1 <1>  -0.0190 
 18 C       -2.7060    -8.0660    -0.7790 C.2   1 <1>  -0.1500 
 19 N       -2.8170    -8.6870     1.3330 N.2   1 <1>  -0.4100 
 20 C       -2.2510    -8.9370     0.2070 C.2   1 <1>   0.1080 
 21 C       -1.2290   -10.0310    -0.0060 C.3   1 <1>  -0.0590 
 22 H        0.5830     2.8580    -0.9590 H     1 <1>   0.4000 
 23 H       -0.5230     3.6200     0.1470 H     1 <1>   0.4000 
 24 H       -2.8550    -0.2340     1.5130 H     1 <1>   0.1500 
 25 H       -4.2330    -2.0630     1.0780 H     1 <1>   0.0800 
 26 H       -4.0470    -1.6360    -0.6280 H     1 <1>   0.0800 
 27 H       -2.2230    -4.7350    -0.9290 H     1 <1>   0.0800 
 28 H       -1.9900    -4.8940     0.8040 H     1 <1>   0.0800 
 29 H       -4.9820    -3.6290    -1.3540 H     1 <1>   0.0800 
 30 H       -4.2490    -4.9950     1.2400 H     1 <1>   0.0800 
 31 H       -5.9930    -3.6360     1.2930 H     1 <1>   0.4000 
 32 H       -4.3090    -5.9760    -1.6320 H     1 <1>   0.0800 
 33 H       -5.4770    -6.3620    -0.3990 H     1 <1>   0.0800 
 34 H       -2.3990    -8.0500    -1.8080 H     1 <1>   0.1500 
 35 H       -1.5800   -10.7190    -0.7530 H     1 <1>   0.0800 
 36 H       -1.0670   -10.5660     0.9120 H     1 <1>   0.0800 
 37 H       -0.2980    -9.6020    -0.3280 H     1 <1>   0.0800 
@<TRIPOS>BOND
  1   1   2  1   
  2   1   3  1   
  3   2   4  2   
  4   2   5  1   
  5   3   6  1   
  6   3   7  2   
  7   4   7  1   
  8   5  22  1   
  9   5  23  1   
 10   6   8  2   
 11   6   9  am  
 12   7  24  1   
 13   9  10  1   
 14   9  11  1   
 15  10  12  1   
 16  10  25  1   
 17  10  26  1   
 18  11  13  1   
 19  11  27  1   
 20  11  28  1   
 21  12  13  1   
 22  12  14  1   
 23  12  29  1   
 24  13  15  1   
 25  13  30  1   
 26  14  31  1   
 27  15  16  1   
 28  15  32  1   
 29  15  33  1   
 30  16  17  1   
 31  16  18  2   
 32  17  19  1   
 33  18  20  1   
 34  18  34  1   
 35  19  20  2   
 36  20  21  1   
 37  21  35  1   
 38  21  36  1   
 39  21  37  1   
@<TRIPOS>SUBSTRUCTURE
  1 ****  11 GROUP 4 **** **** 0

# MOE 2024.06 (io_trps.svl 2023.06)
