@<TRIPOS>MOLECULE
NONAME
56 59 1 0 0 
SMALL
USER_CHARGES


@<TRIPOS>ATOM
  1 F       -1.6850     0.8150     0.7800 F     1 <1>  -0.1900 
  2 C       -2.5160    -0.1860     0.6350 C.ar  1 <1>   0.1900 
  3 C       -3.7710    -0.0990     1.2050 C.ar  1 <1>  -0.1500 
  4 C       -2.1070    -1.2910    -0.0830 C.ar  1 <1>  -0.1500 
  5 C       -4.6550    -1.1560     1.0540 C.ar  1 <1>  -0.1440 
  6 C       -2.9920    -2.3430    -0.2310 C.ar  1 <1>  -0.1500 
  7 C       -4.2670    -2.2890     0.3310 C.ar  1 <1>   0.1000 
  8 C       -6.0390    -1.0680     1.6800 C.3   1 <1>  -0.0960 
  9 N       -5.1430    -3.3610     0.1660 N.pl3 1 <1>  -0.8380 
 10 C       -4.7990    -4.5990     0.8920 C.3   1 <1>   0.2090 
 11 C       -5.6890    -3.5510    -1.1900 C.3   1 <1>   0.2090 
 12 C       -6.0900    -5.3920     1.0750 C.3   1 <1>  -0.1600 
 13 C       -6.9980    -4.3240    -1.0530 C.3   1 <1>  -0.1600 
 14 C       -6.7720    -5.6260    -0.2750 C.3   1 <1>   0.4230 
 15 N       -8.0690    -6.2820    -0.0150 N.4   1 <1>  -0.9060 
 16 C       -8.7560    -6.8670    -1.2000 C.3   1 <1>   0.4230 
 17 C      -10.1320    -7.4030    -0.8010 C.3   1 <1>  -0.0800 
 18 C       -8.0650    -8.1820    -1.5440 C.3   1 <1>   0.1200 
 19 C       -9.8160    -8.8040    -0.2490 C.3   1 <1>   0.1200 
 20 C      -10.9810    -6.5310     0.1460 C.3   1 <1>  -0.0170 
 21 O       -8.4550    -9.0070    -0.4980 O.3   1 <1>  -0.5600 
 22 C      -12.3490    -7.1570     0.3580 C.ar  1 <1>  -0.1430 
 23 C      -12.6580    -7.8830     1.4920 C.ar  1 <1>  -0.1500 
 24 C      -13.3570    -7.0310    -0.5770 C.ar  1 <1>  -0.1500 
 25 C      -13.9190    -8.4390     1.6270 C.ar  1 <1>   0.1600 
 26 C      -14.5860    -7.6270    -0.3450 C.ar  1 <1>   0.1600 
 27 N      -14.8870    -8.3310     0.7330 N.ar  1 <1>  -0.6200 
 28 H       -4.0400     0.7840     1.7550 H     1 <1>   0.1500 
 29 H       -1.1220    -1.3220    -0.5120 H     1 <1>   0.1500 
 30 H       -2.6960    -3.2130    -0.7850 H     1 <1>   0.1500 
 31 H       -6.1730    -0.1380     2.2010 H     1 <1>   0.0800 
 32 H       -6.1730    -1.8750     2.3770 H     1 <1>   0.0800 
 33 H       -6.7880    -1.1440     0.9130 H     1 <1>   0.0800 
 34 H       -4.0730    -5.1630     0.3300 H     1 <1>   0.0800 
 35 H       -4.3730    -4.3510     1.8510 H     1 <1>   0.0800 
 36 H       -5.8670    -2.5900    -1.6450 H     1 <1>   0.0800 
 37 H       -4.9800    -4.0900    -1.7970 H     1 <1>   0.0800 
 38 H       -6.7300    -4.8290     1.7310 H     1 <1>   0.0800 
 39 H       -5.8510    -6.3300     1.5420 H     1 <1>   0.0800 
 40 H       -7.3710    -4.5250    -2.0400 H     1 <1>   0.0800 
 41 H       -7.6990    -3.6920    -0.5370 H     1 <1>   0.0800 
 42 H       -6.1410    -6.2760    -0.8610 H     1 <1>   0.0800 
 43 H       -8.6800    -5.6210     0.4720 H     1 <1>   0.4500 
 44 H       -7.9120    -7.0840     0.6150 H     1 <1>   0.4500 
 45 H       -8.8000    -6.1780    -2.0270 H     1 <1>   0.0800 
 46 H      -10.6980    -7.5460    -1.7060 H     1 <1>   0.0800 
 47 H       -6.9920    -8.1210    -1.5800 H     1 <1>   0.0800 
 48 H       -8.4380    -8.5990    -2.4660 H     1 <1>   0.0800 
 49 H      -10.3810    -9.5690    -0.7590 H     1 <1>   0.0800 
 50 H       -9.9790    -8.8860     0.8120 H     1 <1>   0.0800 
 51 H      -11.1150    -5.5510    -0.2780 H     1 <1>   0.0800 
 52 H      -10.5040    -6.4180     1.1030 H     1 <1>   0.0800 
 53 H      -11.9400    -8.0270     2.2780 H     1 <1>   0.1500 
 54 H      -13.2090    -6.4770    -1.4850 H     1 <1>   0.1500 
 55 H      -14.1450    -9.0030     2.5170 H     1 <1>   0.1500 
 56 H      -15.3620    -7.5200    -1.0830 H     1 <1>   0.1500 
@<TRIPOS>BOND
  1   1   2  1   
  2   2   3  ar  
  3   2   4  ar  
  4   3   5  ar  
  5   3  28  1   
  6   4   6  ar  
  7   4  29  1   
  8   5   7  ar  
  9   5   8  1   
 10   6   7  ar  
 11   6  30  1   
 12   7   9  1   
 13   8  31  1   
 14   8  32  1   
 15   8  33  1   
 16   9  10  1   
 17   9  11  1   
 18  10  12  1   
 19  10  34  1   
 20  10  35  1   
 21  11  13  1   
 22  11  36  1   
 23  11  37  1   
 24  12  14  1   
 25  12  38  1   
 26  12  39  1   
 27  13  14  1   
 28  13  40  1   
 29  13  41  1   
 30  14  15  1   
 31  14  42  1   
 32  15  16  1   
 33  15  43  1   
 34  15  44  1   
 35  16  17  1   
 36  16  18  1   
 37  16  45  1   
 38  17  19  1   
 39  17  20  1   
 40  17  46  1   
 41  18  21  1   
 42  18  47  1   
 43  18  48  1   
 44  19  21  1   
 45  19  49  1   
 46  19  50  1   
 47  20  22  1   
 48  20  51  1   
 49  20  52  1   
 50  22  23  ar  
 51  22  24  ar  
 52  23  25  ar  
 53  23  53  1   
 54  24  26  ar  
 55  24  54  1   
 56  25  27  ar  
 57  25  55  1   
 58  26  27  ar  
 59  26  56  1   
@<TRIPOS>SUBSTRUCTURE
  1 ****  14 GROUP 4 **** **** 0

# MOE 2024.06 (io_trps.svl 2023.06)
