@<TRIPOS>MOLECULE
NONAME
44 46 1 0 0 
SMALL
USER_CHARGES


@<TRIPOS>ATOM
  1 O       -0.2160     1.1460    -1.6160 O.co2 1 <1>  -0.9000 
  2 C       -0.6750     0.3250    -0.8050 C.2   1 <1>   0.9060 
  3 O       -0.2400    -0.8180    -0.6660 O.co2 1 <1>  -0.9000 
  4 C       -1.8640     0.8110     0.0520 C.3   1 <1>   0.3170 
  5 N       -2.0910     2.2900    -0.1450 N.4   1 <1>  -0.9590 
  6 C       -3.1860     0.1280    -0.3320 C.3   1 <1>  -0.1600 
  7 C       -3.4240     2.4630    -0.7690 C.3   1 <1>   0.3430 
  8 C       -1.8870     3.0720     1.0890 C.3   1 <1>   0.4860 
  9 C       -4.2260     1.2350    -0.3330 C.3   1 <1>   0.2000 
 10 C       -1.7060     4.5210     0.6900 C.ar  1 <1>  -0.1430 
 11 O       -4.6680     1.4180     0.9740 O.3   1 <1>  -0.6800 
 12 C       -0.4740     4.9300     0.2010 C.ar  1 <1>   0.0830 
 13 C       -2.7460     5.4340     0.7760 C.ar  1 <1>  -0.1500 
 14 O        0.5200     4.0130     0.1430 O.3   1 <1>  -0.3630 
 15 C       -0.2760     6.2440    -0.1970 C.ar  1 <1>  -0.1500 
 16 C       -2.5650     6.7440     0.3650 C.ar  1 <1>   0.0830 
 17 C        1.2380     3.8700    -1.0650 C.3   1 <1>   0.0400 
 18 C       -1.3090     7.1590    -0.1050 C.ar  1 <1>   0.0830 
 19 O       -3.6580     7.5540     0.4250 O.3   1 <1>  -0.3630 
 20 O       -1.0240     8.4400    -0.4580 O.3   1 <1>  -0.3630 
 21 C       -3.8100     8.5320    -0.5820 C.3   1 <1>   0.1200 
 22 C       -1.6090     9.4720     0.3060 C.3   1 <1>   0.1200 
 23 C       -3.0100     9.7860    -0.2230 C.3   1 <1>  -0.1600 
 24 H       -1.6350     0.6060     1.0820 H     1 <1>   0.0800 
 25 H       -1.3240     2.5340    -0.8150 H     1 <1>   0.4500 
 26 H       -3.4210    -0.6850     0.3320 H     1 <1>   0.0800 
 27 H       -3.0900    -0.2730    -1.3270 H     1 <1>   0.0800 
 28 H       -3.9030     3.3790    -0.4670 H     1 <1>   0.0800 
 29 H       -3.3140     2.4500    -1.8400 H     1 <1>   0.0800 
 30 H       -2.7310     2.9570     1.7480 H     1 <1>   0.0800 
 31 H       -0.9960     2.7340     1.5930 H     1 <1>   0.0800 
 32 H       -5.0730     1.0400    -0.9680 H     1 <1>   0.0800 
 33 H       -5.1800     0.6390     1.2750 H     1 <1>   0.4000 
 34 H       -3.7110     5.1420     1.1520 H     1 <1>   0.1500 
 35 H        0.6810     6.5690    -0.5580 H     1 <1>   0.1500 
 36 H        1.8030     2.9560    -1.0110 H     1 <1>   0.0800 
 37 H        1.9020     4.7060    -1.1860 H     1 <1>   0.0800 
 38 H        0.5440     3.8080    -1.8840 H     1 <1>   0.0800 
 39 H       -3.4770     8.1130    -1.5170 H     1 <1>   0.0800 
 40 H       -4.8570     8.7650    -0.6610 H     1 <1>   0.0800 
 41 H       -1.6450     9.1540     1.3350 H     1 <1>   0.0800 
 42 H       -0.9740    10.3380     0.2340 H     1 <1>   0.0800 
 43 H       -3.5450    10.3500     0.5190 H     1 <1>   0.0800 
 44 H       -2.9270    10.4070    -1.0970 H     1 <1>   0.0800 
@<TRIPOS>BOND
  1   1   2  ar  
  2   2   3  ar  
  3   2   4  1   
  4   4   5  1   
  5   4   6  1   
  6   4  24  1   
  7   5   7  1   
  8   5   8  1   
  9   5  25  1   
 10   6   9  1   
 11   6  26  1   
 12   6  27  1   
 13   7   9  1   
 14   7  28  1   
 15   7  29  1   
 16   8  10  1   
 17   8  30  1   
 18   8  31  1   
 19   9  11  1   
 20   9  32  1   
 21  10  12  ar  
 22  10  13  ar  
 23  11  33  1   
 24  12  14  1   
 25  12  15  ar  
 26  13  16  ar  
 27  13  34  1   
 28  14  17  1   
 29  15  18  ar  
 30  15  35  1   
 31  16  18  ar  
 32  16  19  1   
 33  17  36  1   
 34  17  37  1   
 35  17  38  1   
 36  18  20  1   
 37  19  21  1   
 38  20  22  1   
 39  21  23  1   
 40  21  39  1   
 41  21  40  1   
 42  22  23  1   
 43  22  41  1   
 44  22  42  1   
 45  23  43  1   
 46  23  44  1   
@<TRIPOS>SUBSTRUCTURE
  1 ****  10 GROUP 4 **** **** 0

# MOE 2024.06 (io_trps.svl 2023.06)
