@<TRIPOS>MOLECULE
NONAME
23 23 1 0 0 
SMALL
USER_CHARGES


@<TRIPOS>ATOM
  1 F       -0.0680     1.0070    -0.9090 F     1 <1>  -0.3400 
  2 C        0.0090     1.6640     0.2400 C.3   1 <1>   1.1640 
  3 F       -0.9950     1.2250     0.9890 F     1 <1>  -0.3400 
  4 F        1.1220     1.2480     0.8340 F     1 <1>  -0.3400 
  5 C       -0.0310     3.1880     0.0360 C.ar  1 <1>  -0.1440 
  6 C       -1.2440     3.8450    -0.1410 C.ar  1 <1>  -0.1500 
  7 C        1.1330     3.9450     0.0050 C.ar  1 <1>  -0.1500 
  8 C       -1.3080     5.2170    -0.3320 C.ar  1 <1>  -0.1440 
  9 C        1.0740     5.3130    -0.1780 C.ar  1 <1>  -0.1500 
 10 C       -0.1360     5.9870    -0.3320 C.ar  1 <1>   0.0860 
 11 C       -2.6800     5.8390    -0.5650 C.3   1 <1>  -0.0960 
 12 C       -0.1020     7.4260    -0.4840 C.2   1 <1>   0.4230 
 13 O        0.5960     7.9840    -1.2880 O.2   1 <1>  -0.5700 
 14 C       -0.9270     8.3030     0.4360 C.3   1 <1>  -0.1790 
 15 H       -2.1560     3.2710    -0.1360 H     1 <1>   0.1500 
 16 H        2.0960     3.4760     0.1220 H     1 <1>   0.1500 
 17 H        1.9880     5.8830    -0.2040 H     1 <1>   0.1500 
 18 H       -3.3890     5.0960    -0.8840 H     1 <1>   0.0800 
 19 H       -2.6290     6.5890    -1.3350 H     1 <1>   0.0800 
 20 H       -3.0470     6.2860     0.3410 H     1 <1>   0.0800 
 21 H       -1.2530     7.7510     1.2970 H     1 <1>   0.0800 
 22 H       -1.7790     8.6840    -0.0950 H     1 <1>   0.0800 
 23 H       -0.3290     9.1330     0.7650 H     1 <1>   0.0800 
@<TRIPOS>BOND
  1   1   2  1   
  2   2   3  1   
  3   2   4  1   
  4   2   5  1   
  5   5   6  ar  
  6   5   7  ar  
  7   6   8  ar  
  8   6  15  1   
  9   7   9  ar  
 10   7  16  1   
 11   8  10  ar  
 12   8  11  1   
 13   9  10  ar  
 14   9  17  1   
 15  10  12  1   
 16  11  18  1   
 17  11  19  1   
 18  11  20  1   
 19  12  13  2   
 20  12  14  1   
 21  14  21  1   
 22  14  22  1   
 23  14  23  1   
@<TRIPOS>SUBSTRUCTURE
  1 ****   6 GROUP 4 **** **** 0

# MOE 2024.06 (io_trps.svl 2023.06)
