@<TRIPOS>MOLECULE
NONAME
53 57 1 0 0 
SMALL
USER_CHARGES


@<TRIPOS>ATOM
  1 O        0.2340     0.8540    -0.9440 O.2   1 <1>  -0.5700 
  2 C       -0.3080     1.8520    -0.5060 C.2   1 <1>   0.7150 
  3 N       -1.6870     1.8860    -0.4360 N.am  1 <1>  -0.6600 
  4 C        0.5150     2.9360    -0.0470 C.2   1 <1>  -0.2370 
  5 C       -2.4520     2.8550     0.4170 C.3   1 <1>   0.1400 
  6 C       -2.5030     0.7190    -0.8870 C.3   1 <1>   0.1400 
  7 N        1.5950     2.7630     0.7540 N.pl3 1 <1>   0.3140 
  8 C        0.4650     4.2750    -0.2760 C.2   1 <1>  -0.1500 
  9 C       -3.7090     3.3830    -0.3080 C.3   1 <1>   0.1440 
 10 C       -3.7600     1.1900    -1.6260 C.3   1 <1>  -0.1600 
 11 N        2.2020     3.9160     1.0550 N.2   1 <1>  -0.7070 
 12 C        2.1090     1.4900     1.2850 C.3   1 <1>   0.0160 
 13 C        1.5160     4.8450     0.4350 C.2   1 <1>   0.2350 
 14 C       -4.5340     4.2650     0.6130 C.ar  1 <1>   0.1660 
 15 C       -4.5730     2.2010    -0.7980 C.3   1 <1>  -0.1600 
 16 C       -3.3670     4.3570    -1.4680 C.3   1 <1>  -0.1600 
 17 C        1.8240     6.2600     0.4900 C.ar  1 <1>   0.0540 
 18 N       -4.8600     3.9790     1.8510 N.ar  1 <1>  -0.6200 
 19 C       -4.9160     5.4180    -0.0070 C.ar  1 <1>  -0.1440 
 20 C       -4.4090     5.4880    -1.4250 C.3   1 <1>  -0.0170 
 21 C        3.1330     6.7010     0.6780 C.ar  1 <1>  -0.1500 
 22 C        0.8320     7.2330     0.3600 C.ar  1 <1>  -0.1500 
 23 C       -5.5860     4.9140     2.4470 C.ar  1 <1>   0.7200 
 24 C       -5.6770     6.3100     0.7100 C.ar  1 <1>   0.1600 
 25 C        3.4440     8.0480     0.7230 C.ar  1 <1>  -0.1500 
 26 C        1.1350     8.5820     0.4040 C.ar  1 <1>  -0.1500 
 27 N       -6.0250     6.0630     1.9520 N.ar  1 <1>  -0.6200 
 28 N       -5.9440     4.6540     3.7050 N.pl3 1 <1>  -0.9000 
 29 C        2.4430     8.9930     0.5840 C.ar  1 <1>  -0.1500 
 30 H       -1.8390     3.6810     0.7230 H     1 <1>   0.0800 
 31 H       -2.7600     2.3420     1.3120 H     1 <1>   0.0800 
 32 H       -2.7840     0.1390    -0.0250 H     1 <1>   0.0800 
 33 H       -1.9310     0.0840    -1.5420 H     1 <1>   0.0800 
 34 H       -0.2250     4.8140    -0.8920 H     1 <1>   0.1500 
 35 H       -4.3750     0.3350    -1.8460 H     1 <1>   0.0800 
 36 H       -3.4660     1.6200    -2.5660 H     1 <1>   0.0800 
 37 H        1.3130     0.9610     1.7730 H     1 <1>   0.0800 
 38 H        2.8960     1.6910     1.9880 H     1 <1>   0.0800 
 39 H        2.4940     0.9010     0.4730 H     1 <1>   0.0800 
 40 H       -5.4040     2.5650    -1.3760 H     1 <1>   0.0800 
 41 H       -4.9770     1.6930     0.0620 H     1 <1>   0.0800 
 42 H       -3.3410     3.8800    -2.4300 H     1 <1>   0.0800 
 43 H       -2.4040     4.7950    -1.2880 H     1 <1>   0.0800 
 44 H       -5.2160     5.2890    -2.1080 H     1 <1>   0.0800 
 45 H       -3.9670     6.4440    -1.6470 H     1 <1>   0.0800 
 46 H        3.9130     5.9680     0.7900 H     1 <1>   0.1500 
 47 H       -0.1910     6.9310     0.2310 H     1 <1>   0.1500 
 48 H       -6.0040     7.2320     0.2610 H     1 <1>   0.1500 
 49 H        4.4640     8.3600     0.8680 H     1 <1>   0.1500 
 50 H        0.3520     9.3140     0.3020 H     1 <1>   0.1500 
 51 H       -6.7330     5.1950     4.0480 H     1 <1>   0.4000 
 52 H       -5.9020     3.6760     3.9750 H     1 <1>   0.4000 
 53 H        2.6820    10.0420     0.6180 H     1 <1>   0.1500 
@<TRIPOS>BOND
  1   1   2  2   
  2   2   3  am  
  3   2   4  1   
  4   3   5  1   
  5   3   6  1   
  6   4   7  1   
  7   4   8  2   
  8   5   9  1   
  9   5  30  1   
 10   5  31  1   
 11   6  10  1   
 12   6  32  1   
 13   6  33  1   
 14   7  11  1   
 15   7  12  1   
 16   8  13  1   
 17   8  34  1   
 18   9  14  1   
 19   9  15  1   
 20   9  16  1   
 21  10  15  1   
 22  10  35  1   
 23  10  36  1   
 24  11  13  2   
 25  12  37  1   
 26  12  38  1   
 27  12  39  1   
 28  13  17  1   
 29  14  18  ar  
 30  14  19  ar  
 31  15  40  1   
 32  15  41  1   
 33  16  20  1   
 34  16  42  1   
 35  16  43  1   
 36  17  21  ar  
 37  17  22  ar  
 38  18  23  ar  
 39  19  20  1   
 40  19  24  ar  
 41  20  44  1   
 42  20  45  1   
 43  21  25  ar  
 44  21  46  1   
 45  22  26  ar  
 46  22  47  1   
 47  23  27  ar  
 48  23  28  1   
 49  24  27  ar  
 50  24  48  1   
 51  25  29  ar  
 52  25  49  1   
 53  26  29  ar  
 54  26  50  1   
 55  28  51  1   
 56  28  52  1   
 57  29  53  1   
@<TRIPOS>SUBSTRUCTURE
  1 ****   5 GROUP 4 **** **** 0

# MOE 2024.06 (io_trps.svl 2023.06)
