@<TRIPOS>MOLECULE
NONAME
52 54 1 0 0 
SMALL
USER_CHARGES


@<TRIPOS>ATOM
  1 O       -0.6820    -1.3260     1.1480 O.2   1 <1>  -0.5700 
  2 C        0.0840    -2.1880     0.7890 C.2   1 <1>   0.5690 
  3 N       -0.2890    -3.2480     0.0090 N.am  1 <1>  -0.6600 
  4 C        1.5350    -2.1110     1.2210 C.3   1 <1>  -0.0990 
  5 C        0.7010    -4.2910    -0.3600 C.3   1 <1>   0.1400 
  6 C       -1.6870    -3.4550    -0.4510 C.3   1 <1>   0.0600 
  7 C        2.4680    -2.4190     0.0360 C.3   1 <1>  -0.0800 
  8 C        2.0280    -3.6390    -0.7980 C.3   1 <1>  -0.0800 
  9 C        3.9190    -2.6830     0.4590 C.3   1 <1>  -0.1600 
 10 C        3.2090    -4.6140    -0.7530 C.3   1 <1>  -0.1600 
 11 C        4.4460    -3.7440    -0.5120 C.3   1 <1>   0.2200 
 12 N        5.6060    -4.5170     0.0400 N.am  1 <1>  -0.6600 
 13 C        6.6690    -3.9400     0.7140 C.2   1 <1>   0.6160 
 14 C        5.7440    -5.9370    -0.4060 C.3   1 <1>   0.0600 
 15 O        7.3180    -4.6470     1.4660 O.2   1 <1>  -0.5700 
 16 C        7.0280    -2.5520     0.6150 C.2   1 <1>   0.0290 
 17 C        7.2420    -1.9700    -0.6740 C.2   1 <1>   0.6160 
 18 C        7.1940    -1.7600     1.7260 C.2   1 <1>  -0.1500 
 19 O        7.1570    -2.5660    -1.7380 O.2   1 <1>  -0.5700 
 20 N        7.5630    -0.6410    -0.7420 N.am  1 <1>  -0.5390 
 21 C        7.5350    -0.3970     1.5980 C.2   1 <1>  -0.1500 
 22 C        7.7140     0.1540     0.3650 C.2   1 <1>  -0.0290 
 23 C        8.0810     1.6220     0.1600 C.3   1 <1>   0.0580 
 24 C        6.9850     2.3530    -0.6250 C.3   1 <1>  -0.2400 
 25 C        9.4330     1.7550    -0.5500 C.3   1 <1>  -0.2400 
 26 H        1.7430    -1.1310     1.6110 H     1 <1>   0.0800 
 27 H        1.6780    -2.8250     2.0110 H     1 <1>   0.0800 
 28 H        0.8610    -4.9180     0.5010 H     1 <1>   0.0800 
 29 H        0.3180    -4.9040    -1.1580 H     1 <1>   0.0800 
 30 H       -2.0650    -4.3850    -0.0650 H     1 <1>   0.0800 
 31 H       -1.7170    -3.4750    -1.5260 H     1 <1>   0.0800 
 32 H       -2.3210    -2.6550    -0.1050 H     1 <1>   0.0800 
 33 H        2.4550    -1.5640    -0.6200 H     1 <1>   0.0800 
 34 H        1.9080    -3.3100    -1.8170 H     1 <1>   0.0800 
 35 H        3.9460    -3.0790     1.4600 H     1 <1>   0.0800 
 36 H        4.4860    -1.7720     0.4140 H     1 <1>   0.0800 
 37 H        3.2860    -5.1720    -1.6690 H     1 <1>   0.0800 
 38 H        3.0850    -5.2860     0.0780 H     1 <1>   0.0800 
 39 H        4.7290    -3.2780    -1.4410 H     1 <1>   0.0800 
 40 H        5.5460    -6.0130    -1.4610 H     1 <1>   0.0800 
 41 H        5.0580    -6.5610     0.1390 H     1 <1>   0.0800 
 42 H        6.7440    -6.2970    -0.2290 H     1 <1>   0.0800 
 43 H        7.0670    -2.1730     2.7130 H     1 <1>   0.1500 
 44 H        7.7090    -0.2830    -1.6860 H     1 <1>   0.3700 
 45 H        7.6490     0.1860     2.4960 H     1 <1>   0.1500 
 46 H        8.1660     2.0900     1.1260 H     1 <1>   0.0800 
 47 H        6.8880     1.9500    -1.6170 H     1 <1>   0.0800 
 48 H        7.2190     3.4000    -0.7020 H     1 <1>   0.0800 
 49 H        6.0420     2.2500    -0.1190 H     1 <1>   0.0800 
 50 H        9.3900     1.3410    -1.5410 H     1 <1>   0.0800 
 51 H       10.1910     1.2320     0.0060 H     1 <1>   0.0800 
 52 H        9.7160     2.7900    -0.6220 H     1 <1>   0.0800 
@<TRIPOS>BOND
  1   1   2  2   
  2   2   3  am  
  3   2   4  1   
  4   3   5  1   
  5   3   6  1   
  6   4   7  1   
  7   4  26  1   
  8   4  27  1   
  9   5   8  1   
 10   5  28  1   
 11   5  29  1   
 12   6  30  1   
 13   6  31  1   
 14   6  32  1   
 15   7   8  1   
 16   7   9  1   
 17   7  33  1   
 18   8  10  1   
 19   8  34  1   
 20   9  11  1   
 21   9  35  1   
 22   9  36  1   
 23  10  11  1   
 24  10  37  1   
 25  10  38  1   
 26  11  12  1   
 27  11  39  1   
 28  12  13  am  
 29  12  14  1   
 30  13  15  2   
 31  13  16  1   
 32  14  40  1   
 33  14  41  1   
 34  14  42  1   
 35  16  17  1   
 36  16  18  2   
 37  17  19  2   
 38  17  20  am  
 39  18  21  1   
 40  18  43  1   
 41  20  22  1   
 42  20  44  1   
 43  21  22  2   
 44  21  45  1   
 45  22  23  1   
 46  23  24  1   
 47  23  25  1   
 48  23  46  1   
 49  24  47  1   
 50  24  48  1   
 51  24  49  1   
 52  25  50  1   
 53  25  51  1   
 54  25  52  1   
@<TRIPOS>SUBSTRUCTURE
  1 ****   9 GROUP 4 **** **** 0

# MOE 2024.06 (io_trps.svl 2023.06)
