@<TRIPOS>MOLECULE
NONAME
41 42 1 0 0 
SMALL
USER_CHARGES


@<TRIPOS>ATOM
  1 O        4.2930    -1.3720    -1.7070 O.2   1 <1>  -0.5700 
  2 C        3.2380    -1.6000    -1.1640 C.2   1 <1>   0.5690 
  3 N        2.4060    -0.6470    -0.6580 N.am  1 <1>  -0.5470 
  4 C        2.7700    -3.0520    -1.0240 C.3   1 <1>   0.1710 
  5 C        2.4420     0.7540    -0.5580 C.ar  1 <1>   0.1170 
  6 N        1.6750    -3.2430    -0.0200 N.3   1 <1>  -0.8100 
  7 C        1.4510     1.3900     0.1990 C.ar  1 <1>   0.0830 
  8 C        3.4160     1.5260    -1.1790 C.ar  1 <1>  -0.1500 
  9 C        0.9690    -4.5260    -0.2450 C.3   1 <1>   0.2900 
 10 C        2.2130    -3.1910     1.3550 C.3   1 <1>   0.0300 
 11 O        0.5100     0.5950     0.7970 O.3   1 <1>  -0.3630 
 12 C        1.4530     2.7770     0.3200 C.ar  1 <1>  -0.1500 
 13 C        3.4130     2.9040    -1.0540 C.ar  1 <1>  -0.1500 
 14 C       -0.3350    -4.5760     0.5350 C.2   1 <1>   0.0070 
 15 C       -0.4320     1.1350     1.6990 C.3   1 <1>   0.0400 
 16 C        2.4330     3.5290    -0.3060 C.ar  1 <1>  -0.1500 
 17 N       -1.1020    -3.4790     0.6940 N.pl3 1 <1>   0.0330 
 18 N       -0.8230    -5.6350     1.0990 N.2   1 <1>  -0.5650 
 19 C       -2.1610    -3.8820     1.4200 C.2   1 <1>  -0.3320 
 20 C       -1.9710    -5.2000     1.6550 C.2   1 <1>   0.0770 
 21 C       -3.2910    -2.9630     1.8410 C.3   1 <1>  -0.0600 
 22 H        1.6020    -1.0640    -0.1760 H     1 <1>   0.3700 
 23 H        3.6160    -3.6670    -0.7710 H     1 <1>   0.0800 
 24 H        2.4230    -3.3550    -1.9950 H     1 <1>   0.0800 
 25 H        4.1830     1.0550    -1.7660 H     1 <1>   0.1500 
 26 H        1.5930    -5.3560     0.0410 H     1 <1>   0.0800 
 27 H        0.7280    -4.6310    -1.2890 H     1 <1>   0.0800 
 28 H        2.7110    -2.2530     1.5310 H     1 <1>   0.0800 
 29 H        2.9150    -3.9910     1.5170 H     1 <1>   0.0800 
 30 H        1.4150    -3.2850     2.0730 H     1 <1>   0.0800 
 31 H        0.7060     3.2930     0.8900 H     1 <1>   0.1500 
 32 H        4.1760     3.4870    -1.5410 H     1 <1>   0.1500 
 33 H       -1.0200     0.3260     2.0930 H     1 <1>   0.0800 
 34 H       -1.0660     1.8250     1.1710 H     1 <1>   0.0800 
 35 H        0.0930     1.6270     2.4990 H     1 <1>   0.0800 
 36 H        2.4330     4.6010    -0.2110 H     1 <1>   0.1500 
 37 H       -0.8700    -2.5450     0.3410 H     1 <1>   0.2700 
 38 H       -2.6100    -5.8710     2.2050 H     1 <1>   0.1500 
 39 H       -3.7710    -2.5450     0.9750 H     1 <1>   0.0800 
 40 H       -2.9110    -2.1640     2.4530 H     1 <1>   0.0800 
 41 H       -4.0230    -3.5120     2.4070 H     1 <1>   0.0800 
@<TRIPOS>BOND
  1   1   2  2   
  2   2   3  am  
  3   2   4  1   
  4   3   5  1   
  5   3  22  1   
  6   4   6  1   
  7   4  23  1   
  8   4  24  1   
  9   5   7  ar  
 10   5   8  ar  
 11   6   9  1   
 12   6  10  1   
 13   7  11  1   
 14   7  12  ar  
 15   8  13  ar  
 16   8  25  1   
 17   9  14  1   
 18   9  26  1   
 19   9  27  1   
 20  10  28  1   
 21  10  29  1   
 22  10  30  1   
 23  11  15  1   
 24  12  16  ar  
 25  12  31  1   
 26  13  16  ar  
 27  13  32  1   
 28  14  17  1   
 29  14  18  2   
 30  15  33  1   
 31  15  34  1   
 32  15  35  1   
 33  16  36  1   
 34  17  19  1   
 35  17  37  1   
 36  18  20  1   
 37  19  20  2   
 38  19  21  1   
 39  20  38  1   
 40  21  39  1   
 41  21  40  1   
 42  21  41  1   
@<TRIPOS>SUBSTRUCTURE
  1 ****   3 GROUP 4 **** **** 0

# MOE 2024.06 (io_trps.svl 2023.06)
