@<TRIPOS>MOLECULE
NONAME
53 55 1 0 0 
SMALL
USER_CHARGES


@<TRIPOS>ATOM
  1 O       -2.4530     1.2850     3.4260 O.2   1 <1>  -0.5700 
  2 C       -1.5970     1.5690     2.6250 C.2   1 <1>   0.5690 
  3 N       -0.9210     0.6470     1.8890 N.am  1 <1>  -0.7300 
  4 C       -1.2410     3.0430     2.4010 C.3   1 <1>   0.1710 
  5 C       -0.9720    -0.8420     1.8790 C.3   1 <1>   0.2200 
  6 N       -0.5750     3.3140     1.0900 N.3   1 <1>  -0.8100 
  7 C       -2.0170    -1.4320     0.9420 C.3   1 <1>  -0.0800 
  8 C       -1.2870    -1.5360     3.2050 C.3   1 <1>   0.1200 
  9 C        0.1300     4.6100     1.1190 C.3   1 <1>   0.2530 
 10 C       -1.5510     3.2690    -0.0150 C.3   1 <1>   0.0300 
 11 C       -2.1100    -2.8550     1.4970 C.3   1 <1>   0.1200 
 12 C       -3.3870    -0.7200     0.9850 C.3   1 <1>  -0.0160 
 13 O       -1.8320    -2.7790     2.8640 O.3   1 <1>  -0.5600 
 14 C        0.9540     4.8160    -0.1450 C.ar  1 <1>  -0.1440 
 15 C       -4.4060    -1.3970     0.0800 C.ar  1 <1>  -0.1440 
 16 C        1.9890     3.9470    -0.4510 C.ar  1 <1>  -0.1500 
 17 C        0.6850     5.8730    -1.0010 C.ar  1 <1>  -0.1500 
 18 C       -5.4410    -2.1550     0.5880 C.ar  1 <1>  -0.1500 
 19 C       -4.3490    -1.2880    -1.2950 C.ar  1 <1>  -0.1500 
 20 C        2.7450     4.1300    -1.5960 C.ar  1 <1>  -0.1500 
 21 C        1.4410     6.0560    -2.1470 C.ar  1 <1>  -0.1500 
 22 C       -6.3400    -2.7550    -0.2780 C.ar  1 <1>   0.1600 
 23 C       -5.2990    -1.9280    -2.0720 C.ar  1 <1>   0.1600 
 24 C        2.4760     5.1870    -2.4490 C.ar  1 <1>  -0.1440 
 25 N       -6.2930    -2.6620    -1.5970 N.ar  1 <1>  -0.6200 
 26 C        3.3030     5.3880    -3.7060 C.3   1 <1>  -0.0970 
 27 H       -0.2940     1.0710     1.1950 H     1 <1>   0.3700 
 28 H       -0.5810     3.3230     3.2010 H     1 <1>   0.0800 
 29 H       -2.1350     3.6340     2.4900 H     1 <1>   0.0800 
 30 H       -0.0030    -1.1950     1.5710 H     1 <1>   0.0800 
 31 H       -1.6520    -1.4540    -0.0690 H     1 <1>   0.0800 
 32 H       -2.0330    -1.0160     3.7760 H     1 <1>   0.0800 
 33 H       -0.4050    -1.6920     3.7990 H     1 <1>   0.0800 
 34 H       -0.5810     5.4110     1.2340 H     1 <1>   0.0800 
 35 H        0.7990     4.6340     1.9620 H     1 <1>   0.0800 
 36 H       -1.0460     3.3680    -0.9610 H     1 <1>   0.0800 
 37 H       -2.2690     4.0660     0.0810 H     1 <1>   0.0800 
 38 H       -2.0740     2.3280    -0.0170 H     1 <1>   0.0800 
 39 H       -1.3600    -3.4850     1.0520 H     1 <1>   0.0800 
 40 H       -3.0760    -3.3080     1.3620 H     1 <1>   0.0800 
 41 H       -3.2790     0.3000     0.6630 H     1 <1>   0.0800 
 42 H       -3.7570    -0.6970     1.9960 H     1 <1>   0.0800 
 43 H        2.2010     3.1210     0.2050 H     1 <1>   0.1500 
 44 H       -0.1150     6.5580    -0.7830 H     1 <1>   0.1500 
 45 H       -5.5550    -2.2850     1.6490 H     1 <1>   0.1500 
 46 H       -3.5760    -0.7100    -1.7670 H     1 <1>   0.1500 
 47 H        3.5440     3.4450    -1.8180 H     1 <1>   0.1500 
 48 H        1.2190     6.8790    -2.8030 H     1 <1>   0.1500 
 49 H       -7.1400    -3.3430     0.1380 H     1 <1>   0.1500 
 50 H       -5.2390    -1.8320    -3.1430 H     1 <1>   0.1500 
 51 H        4.2950     4.9990    -3.5690 H     1 <1>   0.0800 
 52 H        3.3790     6.4340    -3.9420 H     1 <1>   0.0800 
 53 H        2.8390     4.8780    -4.5310 H     1 <1>   0.0800 
@<TRIPOS>BOND
  1   1   2  2   
  2   2   3  am  
  3   2   4  1   
  4   3   5  1   
  5   3  27  1   
  6   4   6  1   
  7   4  28  1   
  8   4  29  1   
  9   5   7  1   
 10   5   8  1   
 11   5  30  1   
 12   6   9  1   
 13   6  10  1   
 14   7  11  1   
 15   7  12  1   
 16   7  31  1   
 17   8  13  1   
 18   8  32  1   
 19   8  33  1   
 20   9  14  1   
 21   9  34  1   
 22   9  35  1   
 23  10  36  1   
 24  10  37  1   
 25  10  38  1   
 26  11  13  1   
 27  11  39  1   
 28  11  40  1   
 29  12  15  1   
 30  12  41  1   
 31  12  42  1   
 32  14  16  ar  
 33  14  17  ar  
 34  15  18  ar  
 35  15  19  ar  
 36  16  20  ar  
 37  16  43  1   
 38  17  21  ar  
 39  17  44  1   
 40  18  22  ar  
 41  18  45  1   
 42  19  23  ar  
 43  19  46  1   
 44  20  24  ar  
 45  20  47  1   
 46  21  24  ar  
 47  21  48  1   
 48  22  25  ar  
 49  22  49  1   
 50  23  25  ar  
 51  23  50  1   
 52  24  26  1   
 53  26  51  1   
 54  26  52  1   
 55  26  53  1   
@<TRIPOS>SUBSTRUCTURE
  1 ****   3 GROUP 4 **** **** 0

# MOE 2024.06 (io_trps.svl 2023.06)
