@<TRIPOS>MOLECULE
NONAME
46 47 1 0 0 
SMALL
USER_CHARGES


@<TRIPOS>ATOM
  1 S       -1.4770    -0.1470    -0.4330 S.3   1 <1>  -0.4600 
  2 C       -3.1140     0.4190    -1.0220 C.3   1 <1>   0.1310 
  3 C       -0.5910     1.3990    -0.1060 C.3   1 <1>  -0.0100 
  4 C       -3.9360    -0.7250    -1.6130 C.2   1 <1>   0.5690 
  5 O       -4.1310    -0.7000    -2.8060 O.2   1 <1>  -0.5700 
  6 N       -4.4740    -1.7130    -0.8230 N.am  1 <1>  -0.6600 
  7 C       -5.2000    -2.8730    -1.4320 C.3   1 <1>   0.1400 
  8 C       -4.3870    -1.7590     0.6630 C.3   1 <1>   0.1400 
  9 C       -6.7230    -2.7650    -1.2610 C.3   1 <1>   0.1400 
 10 C       -5.5450    -0.9940     1.3210 C.3   1 <1>  -0.1600 
 11 N       -7.1250    -2.5380     0.1680 N.am  1 <1>  -0.6600 
 12 C       -6.9070    -1.1400     0.6290 C.3   1 <1>   0.1400 
 13 C       -7.6710    -3.4800     1.0110 C.2   1 <1>   0.5690 
 14 O       -8.0290    -3.1730     2.1270 O.2   1 <1>  -0.5700 
 15 C       -7.8110    -4.9420     0.5850 C.3   1 <1>   0.2370 
 16 N       -9.0170    -5.0700    -0.2610 N.pl3 1 <1>   0.3140 
 17 C       -7.8400    -5.9410     1.7680 C.3   1 <1>  -0.1600 
 18 N       -8.9490    -5.5360    -1.5280 N.2   1 <1>  -0.7070 
 19 C      -10.2890    -4.7620     0.0700 C.2   1 <1>  -0.3020 
 20 C       -7.8600    -7.4110     1.3200 C.3   1 <1>  -0.2400 
 21 C      -10.1730    -5.5150    -1.9590 C.2   1 <1>   0.1390 
 22 C      -11.0600    -5.0380    -1.0020 C.2   1 <1>  -0.1500 
 23 H       -2.9340     1.1610    -1.7780 H     1 <1>   0.0800 
 24 H       -3.6230     0.8650    -0.1900 H     1 <1>   0.0800 
 25 H        0.3900     1.1430     0.2540 H     1 <1>   0.0800 
 26 H       -1.1400     1.9500     0.6370 H     1 <1>   0.0800 
 27 H       -0.5260     1.9480    -1.0290 H     1 <1>   0.0800 
 28 H       -4.8530    -3.7860    -0.9830 H     1 <1>   0.0800 
 29 H       -4.9750    -2.9360    -2.4830 H     1 <1>   0.0800 
 30 H       -3.4470    -1.3630     1.0040 H     1 <1>   0.0800 
 31 H       -4.4250    -2.7870     0.9820 H     1 <1>   0.0800 
 32 H       -7.1790    -3.6530    -1.6540 H     1 <1>   0.0800 
 33 H       -7.0790    -1.9480    -1.8650 H     1 <1>   0.0800 
 34 H       -5.2980     0.0500     1.3700 H     1 <1>   0.0800 
 35 H       -5.6410    -1.3360     2.3360 H     1 <1>   0.0800 
 36 H       -6.9510    -0.4750    -0.2170 H     1 <1>   0.0800 
 37 H       -7.6910    -0.8490     1.3070 H     1 <1>   0.0800 
 38 H       -6.9640    -5.1880    -0.0240 H     1 <1>   0.0800 
 39 H       -8.6980    -5.7410     2.3870 H     1 <1>   0.0800 
 40 H       -6.9660    -5.7770     2.3720 H     1 <1>   0.0800 
 41 H      -10.5640    -4.3690     1.0330 H     1 <1>   0.1500 
 42 H       -8.7530    -7.6290     0.7600 H     1 <1>   0.0800 
 43 H       -7.8350    -8.0580     2.1800 H     1 <1>   0.0800 
 44 H       -7.0070    -7.6310     0.7020 H     1 <1>   0.0800 
 45 H      -10.4600    -5.8320    -2.9480 H     1 <1>   0.1500 
 46 H      -12.1230    -4.9240    -1.1200 H     1 <1>   0.1500 
@<TRIPOS>BOND
  1   1   2  1   
  2   1   3  1   
  3   2   4  1   
  4   2  23  1   
  5   2  24  1   
  6   3  25  1   
  7   3  26  1   
  8   3  27  1   
  9   4   5  2   
 10   4   6  am  
 11   6   7  1   
 12   6   8  1   
 13   7   9  1   
 14   7  28  1   
 15   7  29  1   
 16   8  10  1   
 17   8  30  1   
 18   8  31  1   
 19   9  11  1   
 20   9  32  1   
 21   9  33  1   
 22  10  12  1   
 23  10  34  1   
 24  10  35  1   
 25  11  12  1   
 26  11  13  am  
 27  12  36  1   
 28  12  37  1   
 29  13  14  2   
 30  13  15  1   
 31  15  16  1   
 32  15  17  1   
 33  15  38  1   
 34  16  18  1   
 35  16  19  1   
 36  17  20  1   
 37  17  39  1   
 38  17  40  1   
 39  18  21  2   
 40  19  22  2   
 41  19  41  1   
 42  20  42  1   
 43  20  43  1   
 44  20  44  1   
 45  21  22  1   
 46  21  45  1   
 47  22  46  1   
@<TRIPOS>SUBSTRUCTURE
  1 ****  11 GROUP 4 **** **** 0

# MOE 2024.06 (io_trps.svl 2023.06)
