@<TRIPOS>MOLECULE
NONAME
35 36 1 0 0 
SMALL
USER_CHARGES


@<TRIPOS>ATOM
  1 CL       0.8360     0.2120    -1.8720 Cl    1 <1>  -0.1770 
  2 C        1.5660    -0.8540    -0.6810 C.ar  1 <1>   0.1770 
  3 C        1.1660    -2.1790    -0.5200 C.ar  1 <1>   0.4100 
  4 C        2.5730    -0.3800     0.1140 C.ar  1 <1>   0.1600 
  5 N        1.7690    -2.9460     0.3750 N.ar  1 <1>  -0.6200 
  6 N        0.1440    -2.7640    -1.2500 N.pl3 1 <1>  -0.8380 
  7 N        3.1710    -1.1390     1.0160 N.ar  1 <1>  -0.6200 
  8 C        2.7280    -2.3830     1.0870 C.ar  1 <1>   0.4770 
  9 C        0.2440    -4.1810    -1.6940 C.3   1 <1>   0.2090 
 10 C       -1.2360    -2.2180    -1.1710 C.3   1 <1>   0.2090 
 11 C        3.4090    -3.2660     2.1050 C.3   1 <1>  -0.0960 
 12 C       -0.5990    -5.0710    -0.7810 C.3   1 <1>  -0.1600 
 13 C       -2.0760    -3.0980    -0.2470 C.3   1 <1>  -0.1600 
 14 C       -2.0350    -4.5560    -0.7030 C.3   1 <1>   0.2200 
 15 N       -2.7860    -5.3780     0.2590 N.am  1 <1>  -0.7300 
 16 C       -3.9290    -6.0450    -0.0200 C.2   1 <1>   0.5690 
 17 O       -4.4500    -6.0200    -1.1060 O.2   1 <1>  -0.5700 
 18 C       -4.5670    -6.8470     1.0840 C.3   1 <1>  -0.1790 
 19 H        2.9000     0.6390     0.0100 H     1 <1>   0.1500 
 20 H        1.2720    -4.5030    -1.6740 H     1 <1>   0.0800 
 21 H       -0.1080    -4.2560    -2.7090 H     1 <1>   0.0800 
 22 H       -1.6650    -2.1970    -2.1580 H     1 <1>   0.0800 
 23 H       -1.2200    -1.2130    -0.7870 H     1 <1>   0.0800 
 24 H        2.8030    -4.1250     2.3210 H     1 <1>   0.0800 
 25 H        3.5720    -2.7160     3.0130 H     1 <1>   0.0800 
 26 H        4.3550    -3.5910     1.7150 H     1 <1>   0.0800 
 27 H       -0.1510    -5.0750     0.1970 H     1 <1>   0.0800 
 28 H       -0.5950    -6.0740    -1.1660 H     1 <1>   0.0800 
 29 H       -3.0920    -2.7470    -0.2560 H     1 <1>   0.0800 
 30 H       -1.6890    -3.0110     0.7530 H     1 <1>   0.0800 
 31 H       -2.4890    -4.6320    -1.6780 H     1 <1>   0.0800 
 32 H       -2.3840    -5.4230     1.1950 H     1 <1>   0.3700 
 33 H       -3.8830    -7.5990     1.4280 H     1 <1>   0.0800 
 34 H       -5.4560    -7.3260     0.7160 H     1 <1>   0.0800 
 35 H       -4.8320    -6.1980     1.8970 H     1 <1>   0.0800 
@<TRIPOS>BOND
  1   1   2  1   
  2   2   3  ar  
  3   2   4  ar  
  4   3   5  ar  
  5   3   6  1   
  6   4   7  ar  
  7   4  19  1   
  8   5   8  ar  
  9   6   9  1   
 10   6  10  1   
 11   7   8  ar  
 12   8  11  1   
 13   9  12  1   
 14   9  20  1   
 15   9  21  1   
 16  10  13  1   
 17  10  22  1   
 18  10  23  1   
 19  11  24  1   
 20  11  25  1   
 21  11  26  1   
 22  12  14  1   
 23  12  27  1   
 24  12  28  1   
 25  13  14  1   
 26  13  29  1   
 27  13  30  1   
 28  14  15  1   
 29  14  31  1   
 30  15  16  am  
 31  15  32  1   
 32  16  17  2   
 33  16  18  1   
 34  18  33  1   
 35  18  34  1   
 36  18  35  1   
@<TRIPOS>SUBSTRUCTURE
  1 ****   6 GROUP 4 **** **** 0

# MOE 2024.06 (io_trps.svl 2023.06)
