@<TRIPOS>MOLECULE
NONAME
45 46 1 0 0 
SMALL
USER_CHARGES


@<TRIPOS>ATOM
  1 O       -1.3360    -0.1300    -0.1000 O.2   1 <1>  -0.5700 
  2 C       -2.0560     0.6400     0.4970 C.2   1 <1>   0.5690 
  3 N       -3.0830     0.1780     1.2750 N.am  1 <1>  -0.6600 
  4 C       -1.8200     2.1370     0.3480 C.3   1 <1>  -0.0990 
  5 C       -3.2590    -1.2900     1.4820 C.3   1 <1>   0.3200 
  6 C       -4.1770     1.0320     1.8300 C.3   1 <1>   0.1400 
  7 C       -0.6080     2.4960    -0.5250 C.3   1 <1>  -0.0170 
  8 C       -4.0100    -1.9010     0.3120 C.2   1 <1>   0.0060 
  9 C       -5.3320     1.1560     0.8290 C.3   1 <1>   0.1200 
 10 C       -0.4370     4.0100    -0.5860 C.ar  1 <1>  -0.1440 
 11 N       -5.1850    -2.4430     0.3770 N.2   1 <1>  -0.5650 
 12 N       -3.4760    -1.9110    -0.9270 N.pl3 1 <1>   0.0330 
 13 O       -6.2960     2.0040     1.3530 O.3   1 <1>  -0.6800 
 14 C        0.3710     4.7130     0.3040 C.ar  1 <1>  -0.1430 
 15 C       -1.1260     4.7050    -1.5690 C.ar  1 <1>  -0.1500 
 16 C       -5.4280    -2.8300    -0.8910 C.2   1 <1>   0.0770 
 17 C       -4.3950    -2.5110    -1.7020 C.2   1 <1>  -0.3020 
 18 C        0.4710     6.0920     0.1910 C.ar  1 <1>  -0.1500 
 19 C        1.1590     4.0160     1.4060 C.3   1 <1>  -0.0970 
 20 C       -1.0200     6.0790    -1.6730 C.ar  1 <1>  -0.1500 
 21 C       -0.2180     6.7810    -0.7910 C.ar  1 <1>  -0.1430 
 22 C       -0.0980     8.2910    -0.8980 C.3   1 <1>  -0.0970 
 23 H       -1.6750     2.5560     1.3250 H     1 <1>   0.0800 
 24 H       -2.6960     2.5840    -0.0820 H     1 <1>   0.0800 
 25 H       -3.8020    -1.4760     2.3920 H     1 <1>   0.0800 
 26 H       -2.2960    -1.7630     1.5720 H     1 <1>   0.0800 
 27 H       -3.8020     2.0130     2.0570 H     1 <1>   0.0800 
 28 H       -4.5410     0.5970     2.7450 H     1 <1>   0.0800 
 29 H       -0.7560     2.1110    -1.5190 H     1 <1>   0.0800 
 30 H        0.2790     2.0280    -0.1380 H     1 <1>   0.0800 
 31 H       -5.7910     0.2020     0.6310 H     1 <1>   0.0800 
 32 H       -4.9840     1.5880    -0.0930 H     1 <1>   0.0800 
 33 H       -2.5620    -1.5060    -1.1750 H     1 <1>   0.2700 
 34 H       -6.8600     1.5290     1.9960 H     1 <1>   0.4000 
 35 H       -1.7540     4.1770    -2.2640 H     1 <1>   0.1500 
 36 H       -6.3470    -3.3250    -1.1570 H     1 <1>   0.1500 
 37 H       -4.2680    -2.6740    -2.7570 H     1 <1>   0.1500 
 38 H        1.0920     6.6400     0.8760 H     1 <1>   0.1500 
 39 H        0.5110     3.3980     1.9980 H     1 <1>   0.0800 
 40 H        1.6250     4.7320     2.0580 H     1 <1>   0.0800 
 41 H        1.9300     3.4050     0.9720 H     1 <1>   0.0800 
 42 H       -1.5640     6.5980    -2.4410 H     1 <1>   0.1500 
 43 H        0.8750     8.6140    -0.5750 H     1 <1>   0.0800 
 44 H       -0.8440     8.7580    -0.2810 H     1 <1>   0.0800 
 45 H       -0.2390     8.6090    -1.9150 H     1 <1>   0.0800 
@<TRIPOS>BOND
  1   1   2  2   
  2   2   3  am  
  3   2   4  1   
  4   3   5  1   
  5   3   6  1   
  6   4   7  1   
  7   4  23  1   
  8   4  24  1   
  9   5   8  1   
 10   5  25  1   
 11   5  26  1   
 12   6   9  1   
 13   6  27  1   
 14   6  28  1   
 15   7  10  1   
 16   7  29  1   
 17   7  30  1   
 18   8  11  2   
 19   8  12  1   
 20   9  13  1   
 21   9  31  1   
 22   9  32  1   
 23  10  14  ar  
 24  10  15  ar  
 25  11  16  1   
 26  12  17  1   
 27  12  33  1   
 28  13  34  1   
 29  14  18  ar  
 30  14  19  1   
 31  15  20  ar  
 32  15  35  1   
 33  16  17  2   
 34  16  36  1   
 35  17  37  1   
 36  18  21  ar  
 37  18  38  1   
 38  19  39  1   
 39  19  40  1   
 40  19  41  1   
 41  20  21  ar  
 42  20  42  1   
 43  21  22  1   
 44  22  43  1   
 45  22  44  1   
 46  22  45  1   
@<TRIPOS>SUBSTRUCTURE
  1 ****   4 GROUP 4 **** **** 0

# MOE 2024.06 (io_trps.svl 2023.06)
