@<TRIPOS>MOLECULE
NONAME
49 50 1 0 0 
SMALL
USER_CHARGES


@<TRIPOS>ATOM
  1 S       -3.1170    -0.3780    -1.4320 S.3   1 <1>  -0.0800 
  2 C       -2.0200    -1.0210    -0.2380 C.2   1 <1>  -0.1400 
  3 C       -3.0060     1.1830    -0.6560 C.2   1 <1>   0.2280 
  4 C       -1.6800    -0.0320     0.6060 C.2   1 <1>   0.0460 
  5 C       -1.6650    -2.4900    -0.3560 C.3   1 <1>   0.0200 
  6 N       -2.2470     1.2050     0.3640 N.2   1 <1>  -0.5650 
  7 C       -0.7470    -0.0970     1.7980 C.3   1 <1>  -0.0590 
  8 C       -2.9240    -3.3300    -0.1120 C.3   1 <1>   0.3430 
  9 N       -2.7060    -4.7950    -0.3640 N.4   1 <1>  -0.9590 
 10 C       -3.9730    -5.6400    -0.3900 C.3   1 <1>   0.4840 
 11 C       -1.7030    -5.3910     0.5820 C.3   1 <1>   0.2630 
 12 C       -3.6580    -7.1010    -0.8100 C.2   1 <1>   0.5690 
 13 C       -5.0270    -5.0170    -1.3340 C.3   1 <1>  -0.1600 
 14 O       -2.7910    -7.2640    -1.6380 O.2   1 <1>  -0.5700 
 15 N       -4.3010    -8.1520    -0.2280 N.am  1 <1>  -0.7300 
 16 C       -6.3150    -5.8470    -1.4690 C.3   1 <1>  -0.2400 
 17 C       -4.0830    -9.5690    -0.5740 C.3   1 <1>   0.2200 
 18 C       -5.3740   -10.1300    -1.1570 C.3   1 <1>  -0.1600 
 19 C       -3.9100   -10.3620     0.7140 C.3   1 <1>  -0.1600 
 20 C       -6.2680   -10.4530     0.0450 C.3   1 <1>  -0.1600 
 21 C       -5.3260   -10.6130     1.2460 C.3   1 <1>  -0.1600 
 22 H       -3.5720     1.9920    -1.0850 H     1 <1>   0.1500 
 23 H       -0.9060    -2.7280     0.3640 H     1 <1>   0.0800 
 24 H       -1.2810    -2.6720    -1.3440 H     1 <1>   0.0800 
 25 H       -0.3410    -1.0810     1.9290 H     1 <1>   0.0800 
 26 H       -1.2800     0.1830     2.6880 H     1 <1>   0.0800 
 27 H        0.0630     0.5960     1.6550 H     1 <1>   0.0800 
 28 H       -3.6860    -2.9590    -0.7760 H     1 <1>   0.0800 
 29 H       -3.2650    -3.1740     0.8990 H     1 <1>   0.0800 
 30 H       -2.3200    -4.9240    -1.3160 H     1 <1>   0.4500 
 31 H       -4.3890    -5.6730     0.6020 H     1 <1>   0.0800 
 32 H       -2.0620    -5.3360     1.5970 H     1 <1>   0.0800 
 33 H       -0.7640    -4.8660     0.5180 H     1 <1>   0.0800 
 34 H       -1.5200    -6.4250     0.3350 H     1 <1>   0.0800 
 35 H       -4.6010    -4.8950    -2.3150 H     1 <1>   0.0800 
 36 H       -5.3270    -4.0530    -0.9660 H     1 <1>   0.0800 
 37 H       -5.0750    -8.0300     0.4270 H     1 <1>   0.3700 
 38 H       -6.1260    -6.7890    -1.9560 H     1 <1>   0.0800 
 39 H       -7.0310    -5.3110    -2.0700 H     1 <1>   0.0800 
 40 H       -6.7610    -6.0320    -0.5070 H     1 <1>   0.0800 
 41 H       -3.2460    -9.6850    -1.2450 H     1 <1>   0.0800 
 42 H       -5.1420   -11.0460    -1.6720 H     1 <1>   0.0800 
 43 H       -5.8380    -9.4570    -1.8560 H     1 <1>   0.0800 
 44 H       -3.2780    -9.8620     1.4270 H     1 <1>   0.0800 
 45 H       -3.4610   -11.3100     0.4690 H     1 <1>   0.0800 
 46 H       -6.8350   -11.3510    -0.1310 H     1 <1>   0.0800 
 47 H       -6.9550    -9.6430     0.2250 H     1 <1>   0.0800 
 48 H       -5.5740    -9.8910     2.0040 H     1 <1>   0.0800 
 49 H       -5.4030   -11.5990     1.6730 H     1 <1>   0.0800 
@<TRIPOS>BOND
  1   1   2  1   
  2   1   3  1   
  3   2   4  2   
  4   2   5  1   
  5   3   6  2   
  6   3  22  1   
  7   4   6  1   
  8   4   7  1   
  9   5   8  1   
 10   5  23  1   
 11   5  24  1   
 12   7  25  1   
 13   7  26  1   
 14   7  27  1   
 15   8   9  1   
 16   8  28  1   
 17   8  29  1   
 18   9  10  1   
 19   9  11  1   
 20   9  30  1   
 21  10  12  1   
 22  10  13  1   
 23  10  31  1   
 24  11  32  1   
 25  11  33  1   
 26  11  34  1   
 27  12  14  2   
 28  12  15  am  
 29  13  16  1   
 30  13  35  1   
 31  13  36  1   
 32  15  17  1   
 33  15  37  1   
 34  16  38  1   
 35  16  39  1   
 36  16  40  1   
 37  17  18  1   
 38  17  19  1   
 39  17  41  1   
 40  18  20  1   
 41  18  42  1   
 42  18  43  1   
 43  19  21  1   
 44  19  44  1   
 45  19  45  1   
 46  20  21  1   
 47  20  46  1   
 48  20  47  1   
 49  21  48  1   
 50  21  49  1   
@<TRIPOS>SUBSTRUCTURE
  1 ****   9 GROUP 4 **** **** 0

# MOE 2024.06 (io_trps.svl 2023.06)
