@<TRIPOS>MOLECULE
NONAME
49 51 1 0 0 
SMALL
USER_CHARGES


@<TRIPOS>ATOM
  1 S        0.0310     0.7080     0.7120 S.o2  1 <1>   1.0900 
  2 O       -0.4370    -0.0910    -0.3970 O.2   1 <1>  -0.6500 
  3 O       -0.3540     0.4250     2.0740 O.2   1 <1>  -0.6500 
  4 C       -0.2870     2.4130     0.3440 C.3   1 <1>  -0.0550 
  5 C        1.8040     0.8530     0.5880 C.3   1 <1>  -0.0550 
  6 C        0.8910     2.8960    -0.5040 C.3   1 <1>   0.1900 
  7 C        2.1440     2.2880     0.1550 C.3   1 <1>  -0.1600 
  8 N        0.9670     4.3740    -0.5390 N.3   1 <1>  -0.8100 
  9 C        2.0980     4.8660    -1.4000 C.3   1 <1>   0.1710 
 10 C       -0.2940     4.9750    -1.0300 C.3   1 <1>   0.0300 
 11 C        2.4390     6.3520    -1.2330 C.2   1 <1>   0.5690 
 12 O        2.9640     6.9490    -2.1450 O.2   1 <1>  -0.5700 
 13 N        2.1540     6.9590    -0.0520 N.am  1 <1>  -0.7300 
 14 C        2.3540     8.3970     0.2360 C.3   1 <1>   0.1400 
 15 C        3.8030     8.6600     0.6440 C.3   1 <1>   0.0200 
 16 C        4.0670    10.1500     0.6610 C.2   1 <1>   0.0060 
 17 N        4.4040    10.8310    -0.4650 N.pl3 1 <1>   0.0330 
 18 N        3.9870    10.8860     1.7130 N.2   1 <1>  -0.5650 
 19 C        4.5520    12.1240    -0.0870 C.ar  1 <1>  -0.1520 
 20 C        4.2900    12.1390     1.2700 C.ar  1 <1>   0.2270 
 21 C        4.8860    13.2920    -0.7760 C.ar  1 <1>  -0.1500 
 22 C        4.3590    13.3390     1.9740 C.ar  1 <1>  -0.1500 
 23 C        4.9530    14.4780    -0.0750 C.ar  1 <1>  -0.1430 
 24 C        4.6880    14.4960     1.3020 C.ar  1 <1>  -0.1500 
 25 C        5.3120    15.7780    -0.7710 C.3   1 <1>  -0.0970 
 26 H       -0.3150     2.9760     1.2570 H     1 <1>   0.0800 
 27 H       -1.2190     2.5170    -0.1770 H     1 <1>   0.0800 
 28 H        2.1640     0.1590    -0.1480 H     1 <1>   0.0800 
 29 H        2.2730     0.6260     1.5270 H     1 <1>   0.0800 
 30 H        0.7860     2.5060    -1.5040 H     1 <1>   0.0800 
 31 H        2.9840     2.2730    -0.5150 H     1 <1>   0.0800 
 32 H        2.3950     2.8640     1.0300 H     1 <1>   0.0800 
 33 H        1.8730     4.6820    -2.4360 H     1 <1>   0.0800 
 34 H        3.0010     4.3370    -1.1670 H     1 <1>   0.0800 
 35 H       -1.0980     4.7900    -0.3390 H     1 <1>   0.0800 
 36 H       -0.5570     4.5690    -1.9930 H     1 <1>   0.0800 
 37 H       -0.1960     6.0430    -1.1250 H     1 <1>   0.0800 
 38 H        1.6640     6.3920     0.6480 H     1 <1>   0.3700 
 39 H        1.6880     8.7130     1.0220 H     1 <1>   0.0800 
 40 H        2.1220     8.9640    -0.6500 H     1 <1>   0.0800 
 41 H        4.4760     8.1900    -0.0510 H     1 <1>   0.0800 
 42 H        3.9800     8.2570     1.6250 H     1 <1>   0.0800 
 43 H        4.5180    10.4490    -1.4070 H     1 <1>   0.2700 
 44 H        5.0850    13.2520    -1.8320 H     1 <1>   0.1500 
 45 H        4.1520    13.3290     3.0270 H     1 <1>   0.1500 
 46 H        4.7440    15.4280     1.8370 H     1 <1>   0.1500 
 47 H        5.4840    15.6180    -1.8200 H     1 <1>   0.0800 
 48 H        6.2050    16.1910    -0.3360 H     1 <1>   0.0800 
 49 H        4.5110    16.4860    -0.6590 H     1 <1>   0.0800 
@<TRIPOS>BOND
  1   1   2  2   
  2   1   3  2   
  3   1   4  1   
  4   1   5  1   
  5   4   6  1   
  6   4  26  1   
  7   4  27  1   
  8   5   7  1   
  9   5  28  1   
 10   5  29  1   
 11   6   7  1   
 12   6   8  1   
 13   6  30  1   
 14   7  31  1   
 15   7  32  1   
 16   8   9  1   
 17   8  10  1   
 18   9  11  1   
 19   9  33  1   
 20   9  34  1   
 21  10  35  1   
 22  10  36  1   
 23  10  37  1   
 24  11  12  2   
 25  11  13  am  
 26  13  14  1   
 27  13  38  1   
 28  14  15  1   
 29  14  39  1   
 30  14  40  1   
 31  15  16  1   
 32  15  41  1   
 33  15  42  1   
 34  16  17  1   
 35  16  18  2   
 36  17  19  1   
 37  17  43  1   
 38  18  20  1   
 39  19  20  ar  
 40  19  21  ar  
 41  20  22  ar  
 42  21  23  ar  
 43  21  44  1   
 44  22  24  ar  
 45  22  45  1   
 46  23  24  ar  
 47  23  25  1   
 48  24  46  1   
 49  25  47  1   
 50  25  48  1   
 51  25  49  1   
@<TRIPOS>SUBSTRUCTURE
  1 ****  13 GROUP 4 **** **** 0

# MOE 2024.06 (io_trps.svl 2023.06)
