@<TRIPOS>MOLECULE
NONAME
41 42 1 0 0 
SMALL
USER_CHARGES


@<TRIPOS>ATOM
  1 N       -0.5290    -1.0510     1.3450 N.ar  1 <1>  -0.6200 
  2 C       -1.5100    -1.2050     0.4730 C.ar  1 <1>   0.4100 
  3 C       -0.3920    -2.1070     2.1370 C.ar  1 <1>   0.1600 
  4 N       -1.7400    -0.1340    -0.4040 N.pl3 1 <1>  -0.8380 
  5 C       -2.3190    -2.3850     0.4050 C.ar  1 <1>   0.4100 
  6 C       -1.1740    -3.2460     2.0680 C.ar  1 <1>   0.1600 
  7 C       -0.5370     0.5240    -0.9850 C.3   1 <1>   0.1290 
  8 C       -2.7570     0.8390     0.0700 C.3   1 <1>   0.1290 
  9 N       -2.1630    -3.4290     1.2000 N.ar  1 <1>  -0.6200 
 10 N       -3.3300    -2.4670    -0.5450 N.pl3 1 <1>  -0.8690 
 11 C       -3.5800    -3.7470    -1.2450 C.3   1 <1>   0.2090 
 12 C       -4.6590    -4.5420    -0.4960 C.3   1 <1>   0.2090 
 13 N       -4.9450    -5.8580    -1.1550 N.pl3 1 <1>  -0.8690 
 14 C       -5.3990    -7.0050    -0.5850 C.ar  1 <1>   0.4610 
 15 N       -5.2370    -8.1200    -1.3220 N.ar  1 <1>  -0.1790 
 16 C       -6.0180    -7.1530     0.6890 C.ar  1 <1>  -0.1430 
 17 C       -5.6010    -9.3630    -0.9030 C.ar  1 <1>   0.2110 
 18 C       -6.3890    -8.4020     1.1290 C.ar  1 <1>  -0.1500 
 19 C       -6.3350    -5.9830     1.6190 C.3   1 <1>  -0.0970 
 20 C       -6.1760    -9.5240     0.3230 C.ar  1 <1>  -0.1500 
 21 H        0.3870    -2.0560     2.8780 H     1 <1>   0.1500 
 22 H       -0.9810    -4.0480     2.7580 H     1 <1>   0.1500 
 23 H        0.1950    -0.2200    -1.2480 H     1 <1>   0.0800 
 24 H       -0.1020     1.1970    -0.2660 H     1 <1>   0.0800 
 25 H       -0.8090     1.0730    -1.8700 H     1 <1>   0.0800 
 26 H       -3.5990     0.3170     0.4910 H     1 <1>   0.0800 
 27 H       -3.0990     1.4450    -0.7510 H     1 <1>   0.0800 
 28 H       -2.3300     1.4740     0.8280 H     1 <1>   0.0800 
 29 H       -3.2210    -1.6600    -1.1770 H     1 <1>   0.4000 
 30 H       -2.6670    -4.3170    -1.2830 H     1 <1>   0.0800 
 31 H       -3.9090    -3.5360    -2.2470 H     1 <1>   0.0800 
 32 H       -5.5590    -3.9530    -0.4600 H     1 <1>   0.0800 
 33 H       -4.3050    -4.7080     0.5040 H     1 <1>   0.0800 
 34 H       -4.7020    -5.8150    -2.1490 H     1 <1>   0.4000 
 35 H       -4.7890    -8.0030    -2.2270 H     1 <1>   0.4570 
 36 H       -5.4220   -10.2030    -1.5560 H     1 <1>   0.1500 
 37 H       -6.8540    -8.5460     2.0920 H     1 <1>   0.1500 
 38 H       -6.8070    -5.1830     1.0780 H     1 <1>   0.0800 
 39 H       -5.4400    -5.6220     2.0930 H     1 <1>   0.0800 
 40 H       -7.0140    -6.2810     2.3990 H     1 <1>   0.0800 
 41 H       -6.4710   -10.4970     0.6820 H     1 <1>   0.1500 
@<TRIPOS>BOND
  1   1   2  ar  
  2   1   3  ar  
  3   2   4  1   
  4   2   5  ar  
  5   3   6  ar  
  6   3  21  1   
  7   4   7  1   
  8   4   8  1   
  9   5   9  ar  
 10   5  10  1   
 11   6   9  ar  
 12   6  22  1   
 13   7  23  1   
 14   7  24  1   
 15   7  25  1   
 16   8  26  1   
 17   8  27  1   
 18   8  28  1   
 19  10  11  1   
 20  10  29  1   
 21  11  12  1   
 22  11  30  1   
 23  11  31  1   
 24  12  13  1   
 25  12  32  1   
 26  12  33  1   
 27  13  14  1   
 28  13  34  1   
 29  14  15  ar  
 30  14  16  ar  
 31  15  17  ar  
 32  15  35  1   
 33  16  18  ar  
 34  16  19  1   
 35  17  20  ar  
 36  17  36  1   
 37  18  20  ar  
 38  18  37  1   
 39  19  38  1   
 40  19  39  1   
 41  19  40  1   
 42  20  41  1   
@<TRIPOS>SUBSTRUCTURE
  1 ****  12 GROUP 4 **** **** 0

# MOE 2024.06 (io_trps.svl 2023.06)
