@<TRIPOS>MOLECULE
NONAME
49 51 1 0 0 
SMALL
USER_CHARGES


@<TRIPOS>ATOM
  1 O       -1.0240    -0.2000    -0.0760 O.2   1 <1>  -0.5700 
  2 C       -1.6640     0.7530    -0.4880 C.2   1 <1>   0.7160 
  3 N       -2.8880     0.4870    -1.0640 N.am  1 <1>  -0.6600 
  4 C       -1.1810     2.1040    -0.3380 C.2   1 <1>  -0.0860 
  5 C       -3.2090    -0.8950    -1.5060 C.3   1 <1>   0.1400 
  6 C       -4.0970     1.2620    -0.6830 C.3   1 <1>   0.1400 
  7 C       -0.4160     2.7090     0.6180 C.2   1 <1>  -0.3320 
  8 C       -1.4300     3.1380    -1.2440 C.2   1 <1>   0.1390 
  9 C       -3.8380    -1.6570    -0.3180 C.3   1 <1>   0.4230 
 10 C       -4.7540     0.5690     0.5220 C.3   1 <1>  -0.1600 
 11 N       -0.2650     3.9980     0.2590 N.pl3 1 <1>   0.3140 
 12 C        0.1880     2.1040     1.8770 C.3   1 <1>  -0.0600 
 13 N       -0.9000     4.2640    -0.8920 N.2   1 <1>  -0.7070 
 14 N       -4.0370    -3.1440    -0.5550 N.4   1 <1>  -0.9590 
 15 C       -5.0760    -0.9420     0.3100 C.3   1 <1>   0.0000 
 16 C        0.4850     5.0450     0.9650 C.3   1 <1>   0.0160 
 17 C       -4.9000    -3.8040     0.4760 C.3   1 <1>   0.3430 
 18 C       -4.5280    -3.4780    -1.9310 C.3   1 <1>   0.2630 
 19 C       -5.3320    -1.5890     1.7030 C.3   1 <1>  -0.1600 
 20 C       -6.3920    -1.0740    -0.5130 C.3   1 <1>   0.1200 
 21 C       -4.8520    -3.0540     1.8100 C.3   1 <1>  -0.1600 
 22 O       -6.2160    -0.7870    -1.8560 O.3   1 <1>  -0.6800 
 23 H       -3.8670    -0.8450    -2.3530 H     1 <1>   0.0800 
 24 H       -2.3040    -1.3870    -1.8150 H     1 <1>   0.0800 
 25 H       -3.8330     2.2720    -0.4160 H     1 <1>   0.0800 
 26 H       -4.7750     1.3090    -1.5180 H     1 <1>   0.0800 
 27 H       -2.0030     3.0170    -2.1470 H     1 <1>   0.1500 
 28 H       -3.0820    -1.5890     0.4470 H     1 <1>   0.0800 
 29 H       -4.0710     0.6870     1.3450 H     1 <1>   0.0800 
 30 H       -5.6480     1.1070     0.7870 H     1 <1>   0.0800 
 31 H       -0.0920     1.0710     1.9790 H     1 <1>   0.0800 
 32 H       -0.1540     2.6340     2.7480 H     1 <1>   0.0800 
 33 H        1.2610     2.1570     1.8340 H     1 <1>   0.0800 
 34 H       -3.0940    -3.5480    -0.4580 H     1 <1>   0.4500 
 35 H        1.5100     4.7430     1.0580 H     1 <1>   0.0800 
 36 H        0.0540     5.1930     1.9370 H     1 <1>   0.0800 
 37 H        0.4290     5.9590     0.4030 H     1 <1>   0.0800 
 38 H       -5.9210    -3.8250     0.1330 H     1 <1>   0.0800 
 39 H       -4.5810    -4.8250     0.6190 H     1 <1>   0.0800 
 40 H       -5.4970    -3.0380    -2.1010 H     1 <1>   0.0800 
 41 H       -4.6090    -4.5460    -2.0500 H     1 <1>   0.0800 
 42 H       -3.8480    -3.1040    -2.6780 H     1 <1>   0.0800 
 43 H       -4.8270    -1.0390     2.4790 H     1 <1>   0.0800 
 44 H       -6.3820    -1.5380     1.9430 H     1 <1>   0.0800 
 45 H       -7.1360    -0.3950    -0.1280 H     1 <1>   0.0800 
 46 H       -6.7940    -2.0690    -0.4510 H     1 <1>   0.0800 
 47 H       -5.4600    -3.5730     2.5300 H     1 <1>   0.0800 
 48 H       -3.8410    -3.0790     2.1810 H     1 <1>   0.0800 
 49 H       -7.0760    -0.5890    -2.2850 H     1 <1>   0.4000 
@<TRIPOS>BOND
  1   1   2  2   
  2   2   3  am  
  3   2   4  1   
  4   3   5  1   
  5   3   6  1   
  6   4   7  2   
  7   4   8  1   
  8   5   9  1   
  9   5  23  1   
 10   5  24  1   
 11   6  10  1   
 12   6  25  1   
 13   6  26  1   
 14   7  11  1   
 15   7  12  1   
 16   8  13  2   
 17   8  27  1   
 18   9  14  1   
 19   9  15  1   
 20   9  28  1   
 21  10  15  1   
 22  10  29  1   
 23  10  30  1   
 24  11  13  1   
 25  11  16  1   
 26  12  31  1   
 27  12  32  1   
 28  12  33  1   
 29  14  17  1   
 30  14  18  1   
 31  14  34  1   
 32  15  19  1   
 33  15  20  1   
 34  16  35  1   
 35  16  36  1   
 36  16  37  1   
 37  17  21  1   
 38  17  38  1   
 39  17  39  1   
 40  18  40  1   
 41  18  41  1   
 42  18  42  1   
 43  19  21  1   
 44  19  43  1   
 45  19  44  1   
 46  20  22  1   
 47  20  45  1   
 48  20  46  1   
 49  21  47  1   
 50  21  48  1   
 51  22  49  1   
@<TRIPOS>SUBSTRUCTURE
  1 ****   3 GROUP 4 **** **** 0

# MOE 2024.06 (io_trps.svl 2023.06)
