@<TRIPOS>MOLECULE
NONAME
57 59 1 0 0 
SMALL
USER_CHARGES


@<TRIPOS>ATOM
  1 O        0.7020    -1.7510    -1.6530 O.3   1 <1>  -0.6800 
  2 C        0.2080    -2.2620    -0.4600 C.3   1 <1>   0.1200 
  3 C        1.3040    -2.3110     0.6450 C.3   1 <1>   0.0000 
  4 C        2.6460    -2.9440     0.1740 C.3   1 <1>   0.4230 
  5 C        1.5790    -0.8710     1.1570 C.3   1 <1>  -0.1600 
  6 C        0.7560    -3.1500     1.8340 C.3   1 <1>  -0.1600 
  7 N        2.4960    -4.3850    -0.3170 N.4   1 <1>  -0.9590 
  8 C        3.4610    -1.9940    -0.7620 C.3   1 <1>   0.3430 
  9 C        2.3060     0.0220     0.1480 C.3   1 <1>   0.3430 
 10 C        1.2150    -4.6230     1.8210 C.3   1 <1>  -0.1600 
 11 C        1.4350    -5.1660     0.4090 C.3   1 <1>   0.3430 
 12 C        2.2740    -4.5330    -1.7970 C.3   1 <1>   0.2630 
 13 N        3.6150    -0.5950    -0.2230 N.4   1 <1>  -0.9590 
 14 C        4.3460     0.2890    -1.1800 C.3   1 <1>   0.4860 
 15 C        4.6580     1.5920    -0.4650 C.ar  1 <1>  -0.1440 
 16 C        5.6150     1.6270     0.5490 C.ar  1 <1>  -0.1440 
 17 C        3.9710     2.7550    -0.8120 C.ar  1 <1>  -0.1440 
 18 C        5.8370     2.8110     1.2330 C.ar  1 <1>  -0.1500 
 19 C        6.4630     0.4260     0.9570 C.3   1 <1>  -0.0970 
 20 C        4.2160     3.9250    -0.1140 C.ar  1 <1>  -0.1500 
 21 C        2.9580     2.8090    -1.9520 C.3   1 <1>  -0.0970 
 22 C        5.1380     3.9590     0.9140 C.ar  1 <1>  -0.1440 
 23 C        5.3950     5.2500     1.6710 C.3   1 <1>  -0.0970 
 24 H       -0.0400    -1.5750    -2.2780 H     1 <1>   0.4000 
 25 H       -0.6130    -1.6360    -0.1460 H     1 <1>   0.0800 
 26 H       -0.1880    -3.2400    -0.6670 H     1 <1>   0.0800 
 27 H        3.2390    -3.0090     1.0710 H     1 <1>   0.0800 
 28 H        2.1710    -0.8940     2.0570 H     1 <1>   0.0800 
 29 H        0.6480    -0.3960     1.4170 H     1 <1>   0.0800 
 30 H        1.0640    -2.7320     2.7790 H     1 <1>   0.0800 
 31 H       -0.3220    -3.1160     1.8380 H     1 <1>   0.0800 
 32 H        3.3800    -4.8700    -0.0980 H     1 <1>   0.4500 
 33 H        2.9620    -1.9390    -1.7150 H     1 <1>   0.0800 
 34 H        4.4380    -2.4190    -0.9220 H     1 <1>   0.0800 
 35 H        2.4690     0.9960     0.5850 H     1 <1>   0.0800 
 36 H        1.6960     0.1520    -0.7320 H     1 <1>   0.0800 
 37 H        0.4730    -5.2260     2.3180 H     1 <1>   0.0800 
 38 H        2.1270    -4.7330     2.3830 H     1 <1>   0.0800 
 39 H        0.5020    -5.1040    -0.1290 H     1 <1>   0.0800 
 40 H        1.7130    -6.2080     0.4580 H     1 <1>   0.0800 
 41 H        1.3600    -4.0450    -2.0940 H     1 <1>   0.0800 
 42 H        2.2010    -5.5770    -2.0610 H     1 <1>   0.0800 
 43 H        3.0910    -4.1040    -2.3530 H     1 <1>   0.0800 
 44 H        4.1960    -0.5720     0.6260 H     1 <1>   0.4500 
 45 H        5.2690    -0.1700    -1.4920 H     1 <1>   0.0800 
 46 H        3.7460     0.4700    -2.0560 H     1 <1>   0.0800 
 47 H        6.5670     2.8500     2.0240 H     1 <1>   0.1500 
 48 H        7.3930     0.7630     1.3840 H     1 <1>   0.0800 
 49 H        6.7130    -0.1890     0.1120 H     1 <1>   0.0800 
 50 H        5.9550    -0.1590     1.7010 H     1 <1>   0.0800 
 51 H        3.6900     4.8300    -0.3690 H     1 <1>   0.1500 
 52 H        2.5970     3.8130    -2.0950 H     1 <1>   0.0800 
 53 H        2.1090     2.1850    -1.7460 H     1 <1>   0.0800 
 54 H        3.4170     2.4990    -2.8740 H     1 <1>   0.0800 
 55 H        5.7130     5.0430     2.6770 H     1 <1>   0.0800 
 56 H        4.5000     5.8450     1.7160 H     1 <1>   0.0800 
 57 H        6.1620     5.8170     1.1740 H     1 <1>   0.0800 
@<TRIPOS>BOND
  1   1   2  1   
  2   1  24  1   
  3   2   3  1   
  4   2  25  1   
  5   2  26  1   
  6   3   4  1   
  7   3   5  1   
  8   3   6  1   
  9   4   7  1   
 10   4   8  1   
 11   4  27  1   
 12   5   9  1   
 13   5  28  1   
 14   5  29  1   
 15   6  10  1   
 16   6  30  1   
 17   6  31  1   
 18   7  11  1   
 19   7  12  1   
 20   7  32  1   
 21   8  13  1   
 22   8  33  1   
 23   8  34  1   
 24   9  13  1   
 25   9  35  1   
 26   9  36  1   
 27  10  11  1   
 28  10  37  1   
 29  10  38  1   
 30  11  39  1   
 31  11  40  1   
 32  12  41  1   
 33  12  42  1   
 34  12  43  1   
 35  13  14  1   
 36  13  44  1   
 37  14  15  1   
 38  14  45  1   
 39  14  46  1   
 40  15  16  ar  
 41  15  17  ar  
 42  16  18  ar  
 43  16  19  1   
 44  17  20  ar  
 45  17  21  1   
 46  18  22  ar  
 47  18  47  1   
 48  19  48  1   
 49  19  49  1   
 50  19  50  1   
 51  20  22  ar  
 52  20  51  1   
 53  21  52  1   
 54  21  53  1   
 55  21  54  1   
 56  22  23  1   
 57  23  55  1   
 58  23  56  1   
 59  23  57  1   
@<TRIPOS>SUBSTRUCTURE
  1 ****  13 GROUP 4 **** **** 0

# MOE 2024.06 (io_trps.svl 2023.06)
