@<TRIPOS>MOLECULE
NONAME
49 51 1 0 0 
SMALL
USER_CHARGES


@<TRIPOS>ATOM
  1 O        4.3130    -2.3870     0.6560 O.2   1 <1>  -0.5700 
  2 C        3.2310    -2.2170     0.1270 C.2   1 <1>   0.5440 
  3 N        2.6510    -0.9670     0.1730 N.am  1 <1>  -0.6600 
  4 C        2.5930    -3.3360    -0.5380 C.ar  1 <1>   0.0860 
  5 C        3.2400     0.0920     1.0470 C.3   1 <1>   0.1400 
  6 C        1.5560    -0.5500    -0.7570 C.3   1 <1>   0.1400 
  7 C        1.2690    -3.6760    -0.3390 C.ar  1 <1>  -0.1500 
  8 C        3.2810    -4.1560    -1.4230 C.ar  1 <1>  -0.1500 
  9 C        2.2080     1.1830     1.3490 C.3   1 <1>  -0.1600 
 10 C        1.7140     0.9230    -1.1500 C.3   1 <1>  -0.1600 
 11 C        0.7090    -4.7530    -1.0080 C.ar  1 <1>   0.4100 
 12 C        2.6320    -5.2030    -2.0460 C.ar  1 <1>   0.1600 
 13 C        1.6810     1.8590     0.0710 C.3   1 <1>  -0.1600 
 14 N        1.3600    -5.5140    -1.8650 N.ar  1 <1>  -0.6200 
 15 N       -0.5930    -5.0970    -0.8290 N.pl3 1 <1>  -0.8690 
 16 C       -0.8900    -6.0000     0.2810 C.3   1 <1>   0.4690 
 17 C       -2.0570    -6.8590    -0.1640 C.2   1 <1>  -0.3320 
 18 C       -1.1640    -5.2030     1.5670 C.3   1 <1>  -0.1600 
 19 N       -3.2990    -6.4230    -0.4870 N.pl3 1 <1>   0.3140 
 20 C       -2.0660    -8.2020    -0.3210 C.2   1 <1>  -0.1500 
 21 C       -1.6610    -6.0730     2.7320 C.3   1 <1>  -0.2400 
 22 N       -4.0970    -7.4470    -0.8360 N.2   1 <1>  -0.7070 
 23 C       -3.8280    -5.0510    -0.5000 C.3   1 <1>   0.0160 
 24 C       -3.3550    -8.5050    -0.7370 C.2   1 <1>   0.1390 
 25 H        4.0940     0.5200     0.5500 H     1 <1>   0.0800 
 26 H        3.5780    -0.3520     1.9690 H     1 <1>   0.0800 
 27 H        0.6070    -0.6910    -0.2690 H     1 <1>   0.0800 
 28 H        1.5770    -1.1550    -1.6470 H     1 <1>   0.0800 
 29 H        0.6600    -3.1070     0.3360 H     1 <1>   0.1500 
 30 H        4.3220    -3.9660    -1.6150 H     1 <1>   0.1500 
 31 H        2.6450     1.9230     1.9960 H     1 <1>   0.0800 
 32 H        1.3910     0.7310     1.8840 H     1 <1>   0.0800 
 33 H        0.9370     1.2010    -1.8390 H     1 <1>   0.0800 
 34 H        2.6540     1.0330    -1.6630 H     1 <1>   0.0800 
 35 H        3.1880    -5.8200    -2.7330 H     1 <1>   0.1500 
 36 H        2.2760     2.7290    -0.1490 H     1 <1>   0.0800 
 37 H        0.6730     2.1910     0.2480 H     1 <1>   0.0800 
 38 H       -0.8900    -5.6050    -1.6670 H     1 <1>   0.4000 
 39 H       -0.0410    -6.6440     0.4500 H     1 <1>   0.0800 
 40 H       -1.8850    -4.4320     1.3700 H     1 <1>   0.0800 
 41 H       -0.2490    -4.7290     1.8720 H     1 <1>   0.0800 
 42 H       -1.2710    -8.9100    -0.1680 H     1 <1>   0.1500 
 43 H       -2.6110    -6.5230     2.4970 H     1 <1>   0.0800 
 44 H       -1.7820    -5.4720     3.6160 H     1 <1>   0.0800 
 45 H       -0.9540    -6.8560     2.9460 H     1 <1>   0.0800 
 46 H       -3.0960    -4.3810    -0.9070 H     1 <1>   0.0800 
 47 H       -4.0780    -4.7620     0.5030 H     1 <1>   0.0800 
 48 H       -4.7130    -5.0240    -1.1090 H     1 <1>   0.0800 
 49 H       -3.7080    -9.4990    -0.9550 H     1 <1>   0.1500 
@<TRIPOS>BOND
  1   1   2  2   
  2   2   3  am  
  3   2   4  1   
  4   3   5  1   
  5   3   6  1   
  6   4   7  ar  
  7   4   8  ar  
  8   5   9  1   
  9   5  25  1   
 10   5  26  1   
 11   6  10  1   
 12   6  27  1   
 13   6  28  1   
 14   7  11  ar  
 15   7  29  1   
 16   8  12  ar  
 17   8  30  1   
 18   9  13  1   
 19   9  31  1   
 20   9  32  1   
 21  10  13  1   
 22  10  33  1   
 23  10  34  1   
 24  11  14  ar  
 25  11  15  1   
 26  12  14  ar  
 27  12  35  1   
 28  13  36  1   
 29  13  37  1   
 30  15  16  1   
 31  15  38  1   
 32  16  17  1   
 33  16  18  1   
 34  16  39  1   
 35  17  19  1   
 36  17  20  2   
 37  18  21  1   
 38  18  40  1   
 39  18  41  1   
 40  19  22  1   
 41  19  23  1   
 42  20  24  1   
 43  20  42  1   
 44  21  43  1   
 45  21  44  1   
 46  21  45  1   
 47  22  24  2   
 48  23  46  1   
 49  23  47  1   
 50  23  48  1   
 51  24  49  1   
@<TRIPOS>SUBSTRUCTURE
  1 ****   7 GROUP 4 **** **** 0

# MOE 2024.06 (io_trps.svl 2023.06)
