@<TRIPOS>MOLECULE
NONAME
36 37 1 0 0 
SMALL
USER_CHARGES


@<TRIPOS>ATOM
  1 S        0.3590     0.1040    -0.4320 S.3   1 <1>  -0.0800 
  2 C        1.6400    -0.9570     0.1030 C.2   1 <1>   0.1980 
  3 C        1.3980     1.4630    -0.1210 C.2   1 <1>  -0.1100 
  4 N        2.7010    -0.3570     0.4630 N.2   1 <1>  -0.5650 
  5 C        1.3660    -2.4420     0.0850 C.3   1 <1>  -0.0600 
  6 C        2.5820     1.0230     0.3420 C.2   1 <1>   0.0460 
  7 C        3.8230     1.8200     0.7590 C.3   1 <1>   0.2910 
  8 N        3.7740     3.2950     0.5880 N.3   1 <1>  -0.8100 
  9 C        3.6270     3.7250    -0.8370 C.3   1 <1>   0.1710 
 10 C        2.8370     3.9580     1.5110 C.3   1 <1>   0.0300 
 11 C        4.1530     5.1320    -1.1280 C.2   1 <1>   0.5690 
 12 O        3.7550     5.7100    -2.1140 O.2   1 <1>  -0.5700 
 13 N        5.0480     5.6580    -0.2540 N.am  1 <1>  -0.4930 
 14 C        5.6810     6.8940    -0.2210 C.2   1 <1>   0.3520 
 15 N        6.4340     7.2000     0.7870 N.2   1 <1>  -0.7070 
 16 C        5.6230     7.9140    -1.1670 C.2   1 <1>  -0.1500 
 17 N        6.8850     8.4400     0.5100 N.pl3 1 <1>   0.3140 
 18 C        6.4070     8.8900    -0.6660 C.2   1 <1>  -0.3020 
 19 C        7.7850     9.1470     1.4280 C.3   1 <1>   0.0160 
 20 H        0.9990     2.4380    -0.3210 H     1 <1>   0.1500 
 21 H        0.5330    -2.6670     0.7240 H     1 <1>   0.0800 
 22 H        2.2300    -2.9750     0.4360 H     1 <1>   0.0800 
 23 H        1.1420    -2.7590    -0.9170 H     1 <1>   0.0800 
 24 H        4.6590     1.4420     0.1960 H     1 <1>   0.0800 
 25 H        4.0250     1.6010     1.7930 H     1 <1>   0.0800 
 26 H        2.5960     3.6860    -1.1330 H     1 <1>   0.0800 
 27 H        4.1740     3.0490    -1.4700 H     1 <1>   0.0800 
 28 H        3.0570     3.6680     2.5250 H     1 <1>   0.0800 
 29 H        1.8190     3.6940     1.2900 H     1 <1>   0.0800 
 30 H        2.9370     5.0280     1.4400 H     1 <1>   0.0800 
 31 H        5.2490     5.0750     0.5590 H     1 <1>   0.3700 
 32 H        5.0640     7.8890    -2.0850 H     1 <1>   0.1500 
 33 H        6.6440     9.8560    -1.0730 H     1 <1>   0.1500 
 34 H        8.6800     8.5670     1.5520 H     1 <1>   0.0800 
 35 H        7.2950     9.2590     2.3770 H     1 <1>   0.0800 
 36 H        8.0270    10.1120     1.0250 H     1 <1>   0.0800 
@<TRIPOS>BOND
  1   1   2  1   
  2   1   3  1   
  3   2   4  2   
  4   2   5  1   
  5   3   6  2   
  6   3  20  1   
  7   4   6  1   
  8   5  21  1   
  9   5  22  1   
 10   5  23  1   
 11   6   7  1   
 12   7   8  1   
 13   7  24  1   
 14   7  25  1   
 15   8   9  1   
 16   8  10  1   
 17   9  11  1   
 18   9  26  1   
 19   9  27  1   
 20  10  28  1   
 21  10  29  1   
 22  10  30  1   
 23  11  12  2   
 24  11  13  am  
 25  13  14  1   
 26  13  31  1   
 27  14  15  2   
 28  14  16  1   
 29  15  17  1   
 30  16  18  2   
 31  16  32  1   
 32  17  18  1   
 33  17  19  1   
 34  18  33  1   
 35  19  34  1   
 36  19  35  1   
 37  19  36  1   
@<TRIPOS>SUBSTRUCTURE
  1 ****   9 GROUP 4 **** **** 0

# MOE 2024.06 (io_trps.svl 2023.06)
