@<TRIPOS>MOLECULE
NONAME
57 60 1 0 0 
SMALL
USER_CHARGES


@<TRIPOS>ATOM
  1 O        0.3180     0.9510    -0.7970 O.2   1 <1>  -0.5700 
  2 C        0.3590     2.1530    -0.7580 C.2   1 <1>   0.5690 
  3 N       -0.5610     2.8530    -0.0580 N.am  1 <1>  -0.7300 
  4 C        1.4510     2.9090    -1.5270 C.3   1 <1>   0.1810 
  5 C       -0.5430     4.3260     0.0660 C.3   1 <1>   0.3640 
  6 O        1.6110     4.2500    -1.1010 O.3   1 <1>  -0.5600 
  7 C       -1.9610     4.8690    -0.0550 C.ar  1 <1>  -0.1440 
  8 C        0.3870     4.9630    -0.9920 C.3   1 <1>   0.2610 
  9 C       -2.7900     4.4850    -1.1010 C.ar  1 <1>  -0.1500 
 10 C       -2.4340     5.7750     0.8850 C.ar  1 <1>  -0.1500 
 11 C        0.6380     6.4430    -0.6860 C.2   1 <1>   0.5690 
 12 C       -4.0690     5.0020    -1.2070 C.ar  1 <1>  -0.1500 
 13 C       -3.7140     6.2910     0.7780 C.ar  1 <1>  -0.1500 
 14 O        0.5420     7.2350    -1.5960 O.2   1 <1>  -0.5700 
 15 N        1.0640     6.8980     0.5400 N.am  1 <1>  -0.6600 
 16 C       -4.5310     5.9060    -0.2690 C.ar  1 <1>  -0.1500 
 17 C        0.8250     8.3200     0.9600 C.3   1 <1>   0.1400 
 18 C        2.0860     6.1790     1.3600 C.3   1 <1>   0.1400 
 19 C        2.1410     9.1290     1.1150 C.3   1 <1>   0.0000 
 20 C        3.4060     6.9870     1.4200 C.3   1 <1>   0.0000 
 21 C        2.8340     9.3620    -0.2480 C.3   1 <1>   0.3430 
 22 C        3.1100     8.3660     2.0360 C.3   1 <1>  -0.1600 
 23 C        1.8180    10.4940     1.7460 C.3   1 <1>  -0.2400 
 24 C        4.0370     7.1710     0.0120 C.3   1 <1>   0.3430 
 25 C        4.4040     6.2390     2.3200 C.3   1 <1>  -0.2400 
 26 N        3.2500     8.0800    -0.8900 N.4   1 <1>  -0.9590 
 27 C        3.9050     8.2930    -2.2100 C.3   1 <1>   0.2630 
 28 H       -1.3090     2.3470     0.4220 H     1 <1>   0.3700 
 29 H        1.2080     2.9120    -2.5740 H     1 <1>   0.0800 
 30 H        2.3910     2.4060    -1.3940 H     1 <1>   0.0800 
 31 H       -0.1700     4.5620     1.0470 H     1 <1>   0.0800 
 32 H       -0.0980     4.9130    -1.9510 H     1 <1>   0.0800 
 33 H       -2.4490     3.7800    -1.8390 H     1 <1>   0.1500 
 34 H       -1.8150     6.0890     1.7070 H     1 <1>   0.1500 
 35 H       -4.7050     4.7010    -2.0220 H     1 <1>   0.1500 
 36 H       -4.0770     6.9930     1.5090 H     1 <1>   0.1500 
 37 H       -5.5260     6.3080    -0.3530 H     1 <1>   0.1500 
 38 H        0.1750     8.8110     0.2550 H     1 <1>   0.0800 
 39 H        0.3090     8.3030     1.9050 H     1 <1>   0.0800 
 40 H        1.6970     6.0500     2.3560 H     1 <1>   0.0800 
 41 H        2.2860     5.2010     0.9640 H     1 <1>   0.0800 
 42 H        3.7000     9.9830    -0.0970 H     1 <1>   0.0800 
 43 H        2.1550     9.8860    -0.9020 H     1 <1>   0.0800 
 44 H        2.6710     8.2460     3.0130 H     1 <1>   0.0800 
 45 H        4.0240     8.9240     2.1540 H     1 <1>   0.0800 
 46 H        1.3580    10.3690     2.7110 H     1 <1>   0.0800 
 47 H        1.1400    11.0520     1.1230 H     1 <1>   0.0800 
 48 H        2.7130    11.0780     1.8780 H     1 <1>   0.0800 
 49 H        4.1380     6.2040    -0.4540 H     1 <1>   0.0800 
 50 H        5.0250     7.5810     0.1370 H     1 <1>   0.0800 
 51 H        4.0020     6.1120     3.3110 H     1 <1>   0.0800 
 52 H        5.3280     6.7840     2.4050 H     1 <1>   0.0800 
 53 H        4.6230     5.2630     1.9210 H     1 <1>   0.0800 
 54 H        2.3430     7.6010    -1.0710 H     1 <1>   0.4500 
 55 H        4.8380     8.8180    -2.0870 H     1 <1>   0.0800 
 56 H        3.2610     8.8700    -2.8540 H     1 <1>   0.0800 
 57 H        4.0980     7.3450    -2.6850 H     1 <1>   0.0800 
@<TRIPOS>BOND
  1   1   2  2   
  2   2   3  am  
  3   2   4  1   
  4   3   5  1   
  5   3  28  1   
  6   4   6  1   
  7   4  29  1   
  8   4  30  1   
  9   5   7  1   
 10   5   8  1   
 11   5  31  1   
 12   6   8  1   
 13   7   9  ar  
 14   7  10  ar  
 15   8  11  1   
 16   8  32  1   
 17   9  12  ar  
 18   9  33  1   
 19  10  13  ar  
 20  10  34  1   
 21  11  14  2   
 22  11  15  am  
 23  12  16  ar  
 24  12  35  1   
 25  13  16  ar  
 26  13  36  1   
 27  15  17  1   
 28  15  18  1   
 29  16  37  1   
 30  17  19  1   
 31  17  38  1   
 32  17  39  1   
 33  18  20  1   
 34  18  40  1   
 35  18  41  1   
 36  19  21  1   
 37  19  22  1   
 38  19  23  1   
 39  20  22  1   
 40  20  24  1   
 41  20  25  1   
 42  21  26  1   
 43  21  42  1   
 44  21  43  1   
 45  22  44  1   
 46  22  45  1   
 47  23  46  1   
 48  23  47  1   
 49  23  48  1   
 50  24  26  1   
 51  24  49  1   
 52  24  50  1   
 53  25  51  1   
 54  25  52  1   
 55  25  53  1   
 56  26  27  1   
 57  26  54  1   
 58  27  55  1   
 59  27  56  1   
 60  27  57  1   
@<TRIPOS>SUBSTRUCTURE
  1 ****  11 GROUP 4 **** **** 0

# MOE 2024.06 (io_trps.svl 2023.06)
