@<TRIPOS>MOLECULE
NONAME
34 35 1 0 0 
SMALL
USER_CHARGES


@<TRIPOS>ATOM
  1 S       -0.0010    -0.4600     0.5760 S.3   1 <1>  -0.0800 
  2 C       -1.5110     0.4420     0.4730 C.2   1 <1>   0.4620 
  3 C        0.8360     0.8580    -0.1960 C.2   1 <1>  -0.1400 
  4 N       -1.3690     1.5920    -0.0810 N.2   1 <1>  -0.5650 
  5 N       -2.6840    -0.1080     0.9550 N.pl3 1 <1>  -0.8220 
  6 C       -0.0600     1.8250    -0.4540 C.2   1 <1>   0.0460 
  7 C        2.3250     0.6800    -0.4190 C.3   1 <1>  -0.0600 
  8 C       -2.8120    -1.4860     1.5250 C.3   1 <1>   0.2090 
  9 C       -3.9620     0.6510     0.8930 C.3   1 <1>   0.2090 
 10 C        0.2050     3.1600    -1.1160 C.3   1 <1>  -0.0590 
 11 C       -3.7920    -2.3070     0.6700 C.3   1 <1>   0.2000 
 12 C       -4.9970    -0.1390     0.0820 C.3   1 <1>  -0.1600 
 13 O       -3.2510    -2.4170    -0.5990 O.3   1 <1>  -0.6800 
 14 C       -5.1590    -1.5980     0.5740 C.3   1 <1>  -0.0800 
 15 C       -6.1230    -2.3950    -0.3200 C.3   1 <1>   0.1200 
 16 O       -7.3940    -1.8440    -0.2470 O.3   1 <1>  -0.6800 
 17 H        2.7460     1.5430    -0.8990 H     1 <1>   0.0800 
 18 H        2.4990    -0.1800    -1.0400 H     1 <1>   0.0800 
 19 H        2.8190     0.5330     0.5250 H     1 <1>   0.0800 
 20 H       -1.8670    -1.9950     1.5670 H     1 <1>   0.0800 
 21 H       -3.1860    -1.4130     2.5310 H     1 <1>   0.0800 
 22 H       -4.3230     0.8100     1.8950 H     1 <1>   0.0800 
 23 H       -3.8130     1.6170     0.4410 H     1 <1>   0.0800 
 24 H        1.2400     3.2640    -1.3790 H     1 <1>   0.0800 
 25 H       -0.0670     3.9530    -0.4440 H     1 <1>   0.0800 
 26 H       -0.3910     3.2410    -2.0070 H     1 <1>   0.0800 
 27 H       -3.9020    -3.3000     1.0700 H     1 <1>   0.0800 
 28 H       -5.9410     0.3720     0.1380 H     1 <1>   0.0800 
 29 H       -4.6950    -0.1320    -0.9500 H     1 <1>   0.0800 
 30 H       -2.9070    -1.5260    -0.8350 H     1 <1>   0.4000 
 31 H       -5.5690    -1.5780     1.5680 H     1 <1>   0.0800 
 32 H       -6.1840    -3.4230    -0.0070 H     1 <1>   0.0800 
 33 H       -5.8050    -2.3620    -1.3480 H     1 <1>   0.0800 
 34 H       -7.7570    -1.9250     0.6560 H     1 <1>   0.4000 
@<TRIPOS>BOND
  1   1   2  1   
  2   1   3  1   
  3   2   4  2   
  4   2   5  1   
  5   3   6  2   
  6   3   7  1   
  7   4   6  1   
  8   5   8  1   
  9   5   9  1   
 10   6  10  1   
 11   7  17  1   
 12   7  18  1   
 13   7  19  1   
 14   8  11  1   
 15   8  20  1   
 16   8  21  1   
 17   9  12  1   
 18   9  22  1   
 19   9  23  1   
 20  10  24  1   
 21  10  25  1   
 22  10  26  1   
 23  11  13  1   
 24  11  14  1   
 25  11  27  1   
 26  12  14  1   
 27  12  28  1   
 28  12  29  1   
 29  13  30  1   
 30  14  15  1   
 31  14  31  1   
 32  15  16  1   
 33  15  32  1   
 34  15  33  1   
 35  16  34  1   
@<TRIPOS>SUBSTRUCTURE
  1 ****   5 GROUP 4 **** **** 0

# MOE 2024.06 (io_trps.svl 2023.06)
