@<TRIPOS>MOLECULE
NONAME
49 51 1 0 0 
SMALL
USER_CHARGES


@<TRIPOS>ATOM
  1 O        1.6410     0.4160    -1.1900 O.3   1 <1>  -0.6800 
  2 C        1.6650     0.0440     0.1410 C.3   1 <1>   0.2800 
  3 C        3.1310     0.0340     0.6750 C.3   1 <1>  -0.0800 
  4 C        1.0670    -1.3730     0.2070 C.3   1 <1>  -0.1600 
  5 C        0.7580     1.0360     0.9020 C.3   1 <1>  -0.1600 
  6 C        3.8290    -1.3370     0.6400 C.3   1 <1>  -0.0800 
  7 C        4.1140     0.9730    -0.0350 C.3   1 <1>   0.2090 
  8 C        1.8780    -2.4240    -0.5810 C.3   1 <1>  -0.1600 
  9 C        1.1900     2.5120     0.8460 C.3   1 <1>  -0.2400 
 10 C        3.3930    -2.1440    -0.5940 C.3   1 <1>  -0.1600 
 11 C        5.3270    -1.0220     0.6420 C.3   1 <1>   0.2090 
 12 N        5.4630     0.3840     0.1870 N.pl3 1 <1>  -0.8380 
 13 C        6.6130     1.0450    -0.0550 C.ar  1 <1>   0.4100 
 14 N        6.5180     2.3040    -0.5050 N.ar  1 <1>  -0.6200 
 15 C        7.8720     0.4640     0.1420 C.ar  1 <1>  -0.1500 
 16 C        7.6080     2.9600    -0.7580 C.ar  1 <1>   0.5280 
 17 C        8.9980     1.1810    -0.1320 C.ar  1 <1>   0.2180 
 18 N        8.8400     2.4390    -0.5880 N.ar  1 <1>  -0.1790 
 19 C        7.4880     4.3880    -1.2760 C.3   1 <1>  -0.0170 
 20 C       10.4000     0.6270     0.0530 C.3   1 <1>  -0.0970 
 21 C        8.1340     5.4270    -0.3430 C.3   1 <1>  -0.2400 
 22 H        0.7290     0.3590    -1.5240 H     1 <1>   0.4000 
 23 H        3.1090     0.3290     1.7080 H     1 <1>   0.0800 
 24 H        1.0430    -1.6730     1.2410 H     1 <1>   0.0800 
 25 H        0.0480    -1.3710    -0.1370 H     1 <1>   0.0800 
 26 H       -0.2430     0.9590     0.5160 H     1 <1>   0.0800 
 27 H        0.7140     0.7380     1.9350 H     1 <1>   0.0800 
 28 H        3.5860    -1.9060     1.5200 H     1 <1>   0.0800 
 29 H        4.0560     1.9700     0.3620 H     1 <1>   0.0800 
 30 H        3.9400     1.0060    -1.0960 H     1 <1>   0.0800 
 31 H        1.6940    -3.3940    -0.1520 H     1 <1>   0.0800 
 32 H        1.5320    -2.4530    -1.6000 H     1 <1>   0.0800 
 33 H        1.3000     2.8400    -0.1730 H     1 <1>   0.0800 
 34 H        2.1210     2.6590     1.3620 H     1 <1>   0.0800 
 35 H        0.4460     3.1270     1.3210 H     1 <1>   0.0800 
 36 H        3.6340    -1.5790    -1.4790 H     1 <1>   0.0800 
 37 H        3.9300    -3.0750    -0.6460 H     1 <1>   0.0800 
 38 H        5.8660    -1.6890    -0.0100 H     1 <1>   0.0800 
 39 H        5.7140    -1.1060     1.6430 H     1 <1>   0.0800 
 40 H        7.9300    -0.5420     0.5080 H     1 <1>   0.1500 
 41 H        9.6470     3.0220    -0.8070 H     1 <1>   0.4570 
 42 H        7.9280     4.4510    -2.2550 H     1 <1>   0.0800 
 43 H        6.4430     4.6290    -1.3830 H     1 <1>   0.0800 
 44 H       10.3600    -0.3840     0.4200 H     1 <1>   0.0800 
 45 H       10.9490     1.2190     0.7650 H     1 <1>   0.0800 
 46 H       10.9300     0.6210    -0.8830 H     1 <1>   0.0800 
 47 H        9.1960     5.2860    -0.2620 H     1 <1>   0.0800 
 48 H        7.6960     5.3690     0.6390 H     1 <1>   0.0800 
 49 H        7.9560     6.4170    -0.7270 H     1 <1>   0.0800 
@<TRIPOS>BOND
  1   1   2  1   
  2   1  22  1   
  3   2   3  1   
  4   2   4  1   
  5   2   5  1   
  6   3   6  1   
  7   3   7  1   
  8   3  23  1   
  9   4   8  1   
 10   4  24  1   
 11   4  25  1   
 12   5   9  1   
 13   5  26  1   
 14   5  27  1   
 15   6  10  1   
 16   6  11  1   
 17   6  28  1   
 18   7  12  1   
 19   7  29  1   
 20   7  30  1   
 21   8  10  1   
 22   8  31  1   
 23   8  32  1   
 24   9  33  1   
 25   9  34  1   
 26   9  35  1   
 27  10  36  1   
 28  10  37  1   
 29  11  12  1   
 30  11  38  1   
 31  11  39  1   
 32  12  13  1   
 33  13  14  ar  
 34  13  15  ar  
 35  14  16  ar  
 36  15  17  ar  
 37  15  40  1   
 38  16  18  ar  
 39  16  19  1   
 40  17  18  ar  
 41  17  20  1   
 42  18  41  1   
 43  19  21  1   
 44  19  42  1   
 45  19  43  1   
 46  20  44  1   
 47  20  45  1   
 48  20  46  1   
 49  21  47  1   
 50  21  48  1   
 51  21  49  1   
@<TRIPOS>SUBSTRUCTURE
  1 ****  12 GROUP 4 **** **** 0

# MOE 2024.06 (io_trps.svl 2023.06)
