@<TRIPOS>MOLECULE
NONAME
49 51 1 0 0 
SMALL
USER_CHARGES


@<TRIPOS>ATOM
  1 O       -2.6340     0.6880     2.4680 O.2   1 <1>  -0.5700 
  2 C       -2.3480     1.1330     1.3820 C.2   1 <1>   0.5690 
  3 N       -2.4520     0.3740     0.2500 N.am  1 <1>  -0.6600 
  4 C       -1.8590     2.5650     1.3040 C.3   1 <1>  -0.0990 
  5 C       -2.1730     0.7980    -1.1470 C.3   1 <1>   0.1400 
  6 C       -2.8830    -1.0450     0.2800 C.3   1 <1>   0.1400 
  7 C       -0.3330     2.6260     1.1690 C.3   1 <1>  -0.0160 
  8 C       -2.9030    -0.2350    -2.0040 C.3   1 <1>   0.2000 
  9 C       -2.8090    -1.5210    -1.1760 C.3   1 <1>  -0.0800 
 10 C        0.1120     4.0350     0.8030 C.ar  1 <1>  -0.1440 
 11 O       -4.2290     0.1550    -2.1070 O.3   1 <1>  -0.6800 
 12 C       -3.8400    -2.6090    -1.5280 C.3   1 <1>  -0.0170 
 13 C        0.0510     4.4900    -0.5140 C.ar  1 <1>   0.0820 
 14 C        0.5820     4.8770     1.7990 C.ar  1 <1>  -0.1500 
 15 C       -3.5970    -3.8720    -0.7160 C.ar  1 <1>  -0.1440 
 16 O       -0.4250     3.6370    -1.4630 O.3   1 <1>  -0.3630 
 17 C        0.4690     5.7870    -0.8100 C.ar  1 <1>  -0.1500 
 18 C        0.9940     6.1630     1.4970 C.ar  1 <1>  -0.1500 
 19 C       -2.6710    -4.8180    -1.1050 C.ar  1 <1>  -0.1500 
 20 C       -4.2860    -4.1380     0.4500 C.ar  1 <1>  -0.1500 
 21 C       -0.5470     4.0290    -2.8130 C.3   1 <1>   0.0400 
 22 C        0.9370     6.6170     0.1920 C.ar  1 <1>  -0.1500 
 23 C       -2.4810    -5.9510    -0.3300 C.ar  1 <1>   0.1600 
 24 C       -4.0200    -5.3020     1.1520 C.ar  1 <1>   0.1600 
 25 N       -3.1330    -6.2150     0.7900 N.ar  1 <1>  -0.6200 
 26 H       -2.3280     3.0580     0.4740 H     1 <1>   0.0800 
 27 H       -2.1570     3.0870     2.1950 H     1 <1>   0.0800 
 28 H       -2.5190     1.7960    -1.3530 H     1 <1>   0.0800 
 29 H       -1.1140     0.7400    -1.3270 H     1 <1>   0.0800 
 30 H       -2.2380    -1.6250     0.9200 H     1 <1>   0.0800 
 31 H       -3.8910    -1.0940     0.6550 H     1 <1>   0.0800 
 32 H        0.0040     1.9420     0.4110 H     1 <1>   0.0800 
 33 H        0.1180     2.3170     2.0960 H     1 <1>   0.0800 
 34 H       -2.4940    -0.3300    -2.9950 H     1 <1>   0.0800 
 35 H       -1.8250    -1.9300    -1.3250 H     1 <1>   0.0800 
 36 H       -4.5500     0.4000    -1.2150 H     1 <1>   0.4000 
 37 H       -3.7700    -2.8410    -2.5770 H     1 <1>   0.0800 
 38 H       -4.8390    -2.2540    -1.3450 H     1 <1>   0.0800 
 39 H        0.6290     4.5350     2.8180 H     1 <1>   0.1500 
 40 H        0.4380     6.1700    -1.8120 H     1 <1>   0.1500 
 41 H        1.3570     6.8080     2.2770 H     1 <1>   0.1500 
 42 H       -2.0950    -4.6870    -2.0030 H     1 <1>   0.1500 
 43 H       -5.0270    -3.4540     0.8210 H     1 <1>   0.1500 
 44 H       -0.9520     3.2020    -3.3670 H     1 <1>   0.0800 
 45 H        0.4280     4.2800    -3.1920 H     1 <1>   0.0800 
 46 H       -1.2140     4.8710    -2.8730 H     1 <1>   0.0800 
 47 H        1.2590     7.6160    -0.0420 H     1 <1>   0.1500 
 48 H       -1.7540    -6.6780    -0.6490 H     1 <1>   0.1500 
 49 H       -4.5660    -5.4920     2.0610 H     1 <1>   0.1500 
@<TRIPOS>BOND
  1   1   2  2   
  2   2   3  am  
  3   2   4  1   
  4   3   5  1   
  5   3   6  1   
  6   4   7  1   
  7   4  26  1   
  8   4  27  1   
  9   5   8  1   
 10   5  28  1   
 11   5  29  1   
 12   6   9  1   
 13   6  30  1   
 14   6  31  1   
 15   7  10  1   
 16   7  32  1   
 17   7  33  1   
 18   8   9  1   
 19   8  11  1   
 20   8  34  1   
 21   9  12  1   
 22   9  35  1   
 23  10  13  ar  
 24  10  14  ar  
 25  11  36  1   
 26  12  15  1   
 27  12  37  1   
 28  12  38  1   
 29  13  16  1   
 30  13  17  ar  
 31  14  18  ar  
 32  14  39  1   
 33  15  19  ar  
 34  15  20  ar  
 35  16  21  1   
 36  17  22  ar  
 37  17  40  1   
 38  18  22  ar  
 39  18  41  1   
 40  19  23  ar  
 41  19  42  1   
 42  20  24  ar  
 43  20  43  1   
 44  21  44  1   
 45  21  45  1   
 46  21  46  1   
 47  22  47  1   
 48  23  25  ar  
 49  23  48  1   
 50  24  25  ar  
 51  24  49  1   
@<TRIPOS>SUBSTRUCTURE
  1 ****   3 GROUP 4 **** **** 0

# MOE 2024.06 (io_trps.svl 2023.06)
