@<TRIPOS>MOLECULE
NONAME
55 57 1 0 0 
SMALL
USER_CHARGES


@<TRIPOS>ATOM
  1 F       -1.8680    -1.2700     2.2190 F     1 <1>  -0.3400 
  2 C       -1.3830    -2.3400     1.6090 C.3   1 <1>   1.3000 
  3 F       -0.2730    -1.9830     0.9770 F     1 <1>  -0.3400 
  4 F       -1.0660    -3.2310     2.5430 F     1 <1>  -0.3400 
  5 O       -2.3430    -2.8650     0.7140 O.3   1 <1>  -0.3630 
  6 C       -2.0050    -3.9690     0.0180 C.ar  1 <1>   0.0830 
  7 C       -2.2930    -5.2200     0.5380 C.ar  1 <1>  -0.1500 
  8 C       -1.3920    -3.8470    -1.2180 C.ar  1 <1>  -0.1500 
  9 C       -1.9640    -6.3610    -0.1780 C.ar  1 <1>  -0.1440 
 10 C       -1.0520    -4.9840    -1.9280 C.ar  1 <1>  -0.1500 
 11 C       -1.3340    -6.2370    -1.4100 C.ar  1 <1>  -0.1500 
 12 C       -2.2970    -7.7340     0.3690 C.3   1 <1>   0.4870 
 13 N       -3.5400    -8.2000    -0.2990 N.4   1 <1>  -0.9590 
 14 C       -3.7700    -9.6600    -0.0540 C.3   1 <1>   0.5660 
 15 C       -4.7350    -7.3780     0.0890 C.3   1 <1>   0.3430 
 16 C       -2.6390   -10.4220    -0.7320 C.ar  1 <1>  -0.1430 
 17 C       -5.1610   -10.1580    -0.5350 C.3   1 <1>   0.2000 
 18 C       -6.0310    -7.9510    -0.5060 C.3   1 <1>   0.1200 
 19 C       -1.7820   -11.1830     0.0510 C.ar  1 <1>  -0.1500 
 20 C       -2.4370   -10.3710    -2.1070 C.ar  1 <1>  -0.1500 
 21 O       -6.1840    -9.2840    -0.1210 O.3   1 <1>  -0.5600 
 22 C       -5.4550   -11.5580     0.0280 C.3   1 <1>   0.1200 
 23 C       -0.7280   -11.8750    -0.5190 C.ar  1 <1>   0.0830 
 24 C       -1.3780   -11.0530    -2.6820 C.ar  1 <1>  -0.1500 
 25 O       -5.1620   -11.5990     1.3890 O.3   1 <1>  -0.6800 
 26 O        0.0460   -12.6090     0.3150 O.3   1 <1>  -0.3630 
 27 C       -0.5080   -11.7900    -1.8980 C.ar  1 <1>   0.0830 
 28 C        0.0460   -14.0070     0.1170 C.3   1 <1>   0.0400 
 29 O        0.5250   -12.4010    -2.5250 O.3   1 <1>  -0.3630 
 30 C        1.8250   -11.9670    -2.1880 C.3   1 <1>   0.0400 
 31 H       -2.7710    -5.2840     1.5010 H     1 <1>   0.1500 
 32 H       -1.1790    -2.8710    -1.6210 H     1 <1>   0.1500 
 33 H       -0.5640    -4.8900    -2.8850 H     1 <1>   0.1500 
 34 H       -1.0510    -7.1080    -1.9780 H     1 <1>   0.1500 
 35 H       -2.4340    -7.6910     1.4370 H     1 <1>   0.0800 
 36 H       -1.4790    -8.4050     0.1550 H     1 <1>   0.0800 
 37 H       -3.3820    -8.0880    -1.3030 H     1 <1>   0.4500 
 38 H       -3.7180    -9.8430     1.0070 H     1 <1>   0.0800 
 39 H       -4.8350    -7.3600     1.1620 H     1 <1>   0.0800 
 40 H       -4.6080    -6.3620    -0.2490 H     1 <1>   0.0800 
 41 H       -5.1950   -10.2040    -1.6090 H     1 <1>   0.0800 
 42 H       -6.0310    -7.8930    -1.5810 H     1 <1>   0.0800 
 43 H       -6.8810    -7.4050    -0.1330 H     1 <1>   0.0800 
 44 H       -1.9220   -11.2620     1.1160 H     1 <1>   0.1500 
 45 H       -3.0900    -9.8100    -2.7540 H     1 <1>   0.1500 
 46 H       -4.8470   -12.3000    -0.4620 H     1 <1>   0.0800 
 47 H       -6.4940   -11.8040    -0.1130 H     1 <1>   0.0800 
 48 H       -1.2130   -11.0180    -3.7450 H     1 <1>   0.1500 
 49 H       -5.5610   -12.3940     1.8040 H     1 <1>   0.4000 
 50 H        0.6090   -14.4590     0.9130 H     1 <1>   0.0800 
 51 H        0.5030   -14.2370    -0.8290 H     1 <1>   0.0800 
 52 H       -0.9690   -14.3620     0.1370 H     1 <1>   0.0800 
 53 H        2.5240   -12.4750    -2.8280 H     1 <1>   0.0800 
 54 H        2.0310   -12.2070    -1.1610 H     1 <1>   0.0800 
 55 H        1.8890   -10.9050    -2.3440 H     1 <1>   0.0800 
@<TRIPOS>BOND
  1   1   2  1   
  2   2   3  1   
  3   2   4  1   
  4   2   5  1   
  5   5   6  1   
  6   6   7  ar  
  7   6   8  ar  
  8   7   9  ar  
  9   7  31  1   
 10   8  10  ar  
 11   8  32  1   
 12   9  11  ar  
 13   9  12  1   
 14  10  11  ar  
 15  10  33  1   
 16  11  34  1   
 17  12  13  1   
 18  12  35  1   
 19  12  36  1   
 20  13  14  1   
 21  13  15  1   
 22  13  37  1   
 23  14  16  1   
 24  14  17  1   
 25  14  38  1   
 26  15  18  1   
 27  15  39  1   
 28  15  40  1   
 29  16  19  ar  
 30  16  20  ar  
 31  17  21  1   
 32  17  22  1   
 33  17  41  1   
 34  18  21  1   
 35  18  42  1   
 36  18  43  1   
 37  19  23  ar  
 38  19  44  1   
 39  20  24  ar  
 40  20  45  1   
 41  22  25  1   
 42  22  46  1   
 43  22  47  1   
 44  23  26  1   
 45  23  27  ar  
 46  24  27  ar  
 47  24  48  1   
 48  25  49  1   
 49  26  28  1   
 50  27  29  1   
 51  28  50  1   
 52  28  51  1   
 53  28  52  1   
 54  29  30  1   
 55  30  53  1   
 56  30  54  1   
 57  30  55  1   
@<TRIPOS>SUBSTRUCTURE
  1 ****  12 GROUP 4 **** **** 0

# MOE 2024.06 (io_trps.svl 2023.06)
