@<TRIPOS>MOLECULE
NONAME
42 43 1 0 0 
SMALL
USER_CHARGES


@<TRIPOS>ATOM
  1 S       -0.2600     0.5070     1.4210 S.o2  1 <1>   1.3330 
  2 O        1.1080     0.3410     1.8620 O.2   1 <1>  -0.6500 
  3 O       -1.3370     0.2770     2.3600 O.2   1 <1>  -0.6500 
  4 N       -0.5000    -0.5940     0.1450 N.am  1 <1>  -0.8490 
  5 C       -0.4620     2.0980     0.6230 C.3   1 <1>  -0.0550 
  6 C       -1.9120    -0.7710    -0.2080 C.3   1 <1>   0.1160 
  7 C        0.1100    -1.8960     0.4240 C.3   1 <1>   0.1160 
  8 C        0.5730     2.3750    -0.4890 C.3   1 <1>  -0.0800 
  9 C        0.1890     3.5160    -1.4400 C.3   1 <1>   0.2000 
 10 C        1.9430     2.7460     0.0900 C.3   1 <1>   0.1400 
 11 O       -0.6660     4.4090    -0.8230 O.3   1 <1>  -0.6800 
 12 C        1.4980     4.2230    -1.7830 C.3   1 <1>   0.1400 
 13 N        2.4790     3.8480    -0.7360 N.am  1 <1>  -0.6600 
 14 C        3.1870     4.8230    -0.0660 C.2   1 <1>   0.5440 
 15 O        4.3840     4.5870     0.0940 O.2   1 <1>  -0.5700 
 16 C        2.6270     6.0890     0.3430 C.ar  1 <1>   0.0860 
 17 C        1.3220     6.2380     0.8970 C.ar  1 <1>  -0.1710 
 18 C        3.3770     7.2680     0.1820 C.ar  1 <1>   0.0820 
 19 O        0.5890     5.2650     1.1880 O.3   1 <1>  -0.8290 
 20 C        0.8180     7.5200     1.1620 C.ar  1 <1>  -0.1500 
 21 O        4.6490     7.1890    -0.2500 O.3   1 <1>  -0.5330 
 22 C        2.8680     8.5200     0.4580 C.ar  1 <1>  -0.1500 
 23 C        1.5710     8.6450     0.9440 C.ar  1 <1>  -0.1500 
 24 H       -1.4440     2.1490     0.2000 H     1 <1>   0.0800 
 25 H       -0.3990     2.8790     1.3590 H     1 <1>   0.0800 
 26 H       -2.0000    -1.4120    -1.0680 H     1 <1>   0.0800 
 27 H       -2.3590     0.1780    -0.4480 H     1 <1>   0.0800 
 28 H       -2.4550    -1.2100     0.6130 H     1 <1>   0.0800 
 29 H       -0.0510    -2.5690    -0.4000 H     1 <1>   0.0800 
 30 H       -0.3110    -2.3210     1.3200 H     1 <1>   0.0800 
 31 H        1.1730    -1.7830     0.5610 H     1 <1>   0.0800 
 32 H        0.7050     1.4920    -1.0860 H     1 <1>   0.0800 
 33 H       -0.3090     3.1570    -2.3220 H     1 <1>   0.0800 
 34 H        2.6170     1.9080     0.0690 H     1 <1>   0.0800 
 35 H        1.8490     3.0860     1.1090 H     1 <1>   0.0800 
 36 H       -0.1740     4.8160    -0.0160 H     1 <1>   0.4000 
 37 H        1.3590     5.2890    -1.8380 H     1 <1>   0.0800 
 38 H        1.8640     3.8660    -2.7280 H     1 <1>   0.0800 
 39 H       -0.1810     7.5790     1.5520 H     1 <1>   0.1500 
 40 H        4.9230     6.2350    -0.2480 H     1 <1>   0.4500 
 41 H        3.4750     9.3910     0.3020 H     1 <1>   0.1500 
 42 H        1.1690     9.6190     1.1550 H     1 <1>   0.1500 
@<TRIPOS>BOND
  1   1   2  2   
  2   1   3  2   
  3   1   4  am  
  4   1   5  1   
  5   4   6  1   
  6   4   7  1   
  7   5   8  1   
  8   5  24  1   
  9   5  25  1   
 10   6  26  1   
 11   6  27  1   
 12   6  28  1   
 13   7  29  1   
 14   7  30  1   
 15   7  31  1   
 16   8   9  1   
 17   8  10  1   
 18   8  32  1   
 19   9  11  1   
 20   9  12  1   
 21   9  33  1   
 22  10  13  1   
 23  10  34  1   
 24  10  35  1   
 25  11  36  1   
 26  12  13  1   
 27  12  37  1   
 28  12  38  1   
 29  13  14  am  
 30  14  15  2   
 31  14  16  1   
 32  16  17  ar  
 33  16  18  ar  
 34  17  19  1   
 35  17  20  ar  
 36  18  21  1   
 37  18  22  ar  
 38  20  23  ar  
 39  20  39  1   
 40  21  40  1   
 41  22  23  ar  
 42  22  41  1   
 43  23  42  1   
@<TRIPOS>SUBSTRUCTURE
  1 ****  10 GROUP 4 **** **** 0

# MOE 2024.06 (io_trps.svl 2023.06)
