@<TRIPOS>MOLECULE
NONAME
42 45 1 0 0 
SMALL
USER_CHARGES


@<TRIPOS>ATOM
  1 O        0.1300    -0.0610     0.0370 O.2   1 <1>  -0.5700 
  2 C        1.2470    -0.5260     0.1570 C.2   1 <1>   0.5440 
  3 N        2.3380     0.3000     0.3060 N.am  1 <1>  -0.4940 
  4 C        1.4490    -1.9600     0.1210 C.ar  1 <1>   0.0860 
  5 C        2.4130     1.7100     0.4210 C.2   1 <1>  -0.0880 
  6 C        0.6940    -2.7600    -0.7430 C.ar  1 <1>  -0.1500 
  7 C        2.4030    -2.5870     0.9420 C.ar  1 <1>  -0.1500 
  8 N        3.5610     2.4350     0.5730 N.pl3 1 <1>   0.3140 
  9 C        1.4020     2.6110     0.4090 C.2   1 <1>  -0.1500 
 10 C        0.9240    -4.1180    -0.7750 C.ar  1 <1>   0.0830 
 11 C        2.6220    -3.9570     0.8990 C.ar  1 <1>  -0.1500 
 12 N        3.2930     3.7620     0.6620 N.2   1 <1>  -0.7070 
 13 C        4.9690     1.9570     0.6940 C.3   1 <1>   0.2710 
 14 C        2.0070     3.8500     0.5590 C.2   1 <1>   0.1080 
 15 O        0.3210    -5.0440    -1.5290 O.3   1 <1>  -0.3630 
 16 C        1.8630    -4.7040     0.0210 C.ar  1 <1>   0.0830 
 17 C        5.3970     1.1100    -0.5200 C.3   1 <1>  -0.1950 
 18 C        5.1890     1.1950     2.0080 C.3   1 <1>  -0.2400 
 19 C        1.2790     5.1730     0.6040 C.3   1 <1>  -0.0590 
 20 C        0.9080    -6.2980    -1.1850 C.3   1 <1>   0.4000 
 21 O        1.8950    -6.0180    -0.1950 O.3   1 <1>  -0.3630 
 22 C        6.7960     1.1910    -1.0470 C.3   1 <1>  -0.2000 
 23 C        5.6550     1.7480    -1.8480 C.3   1 <1>  -0.2000 
 24 H        3.2330    -0.1830     0.2640 H     1 <1>   0.3700 
 25 H       -0.0570    -2.3220    -1.3770 H     1 <1>   0.1500 
 26 H        2.9750    -1.9970     1.6350 H     1 <1>   0.1500 
 27 H        0.3490     2.4250     0.3050 H     1 <1>   0.1500 
 28 H        3.3520    -4.4390     1.5250 H     1 <1>   0.1500 
 29 H        5.5850     2.8390     0.7160 H     1 <1>   0.0800 
 30 H        4.9590     0.1290    -0.5240 H     1 <1>   0.1000 
 31 H        4.5930     0.3020     2.0440 H     1 <1>   0.0800 
 32 H        4.9300     1.8260     2.8400 H     1 <1>   0.0800 
 33 H        6.2250     0.9210     2.1000 H     1 <1>   0.0800 
 34 H        0.2200     5.0220     0.5010 H     1 <1>   0.0800 
 35 H        1.6270     5.7990    -0.1960 H     1 <1>   0.0800 
 36 H        1.4780     5.6590     1.5410 H     1 <1>   0.0800 
 37 H        1.3770    -6.7280    -2.0530 H     1 <1>   0.0800 
 38 H        0.1570    -6.9480    -0.7740 H     1 <1>   0.0800 
 39 H        7.2770     0.2930    -1.3970 H     1 <1>   0.1000 
 40 H        7.4940     1.8860    -0.6100 H     1 <1>   0.1000 
 41 H        5.5530     2.8170    -1.9380 H     1 <1>   0.1000 
 42 H        5.3390     1.2320    -2.7390 H     1 <1>   0.1000 
@<TRIPOS>BOND
  1   1   2  2   
  2   2   3  am  
  3   2   4  1   
  4   3   5  1   
  5   3  24  1   
  6   4   6  ar  
  7   4   7  ar  
  8   5   8  1   
  9   5   9  2   
 10   6  10  ar  
 11   6  25  1   
 12   7  11  ar  
 13   7  26  1   
 14   8  12  1   
 15   8  13  1   
 16   9  14  1   
 17   9  27  1   
 18  10  15  1   
 19  10  16  ar  
 20  11  16  ar  
 21  11  28  1   
 22  12  14  2   
 23  13  17  1   
 24  13  18  1   
 25  13  29  1   
 26  14  19  1   
 27  15  20  1   
 28  16  21  1   
 29  17  22  1   
 30  17  23  1   
 31  17  30  1   
 32  18  31  1   
 33  18  32  1   
 34  18  33  1   
 35  19  34  1   
 36  19  35  1   
 37  19  36  1   
 38  20  21  1   
 39  20  37  1   
 40  20  38  1   
 41  22  23  1   
 42  22  39  1   
 43  22  40  1   
 44  23  41  1   
 45  23  42  1   
@<TRIPOS>SUBSTRUCTURE
  1 ****   3 GROUP 4 **** **** 0

# MOE 2024.06 (io_trps.svl 2023.06)
