@<TRIPOS>MOLECULE
NONAME
51 52 1 0 0 
SMALL
USER_CHARGES


@<TRIPOS>ATOM
  1 O       -1.3210     0.7860    -2.2080 O.2   1 <1>  -0.5700 
  2 C       -2.1910     0.9190    -1.3750 C.2   1 <1>   0.5690 
  3 N       -3.2790     0.0870    -1.3890 N.am  1 <1>  -0.6600 
  4 C       -2.0730     2.0610    -0.3230 C.3   1 <1>   0.6280 
  5 C       -3.1010    -1.3370    -1.8170 C.3   1 <1>   0.3210 
  6 C       -4.7110     0.5120    -1.2600 C.3   1 <1>   0.1400 
  7 N       -2.8010     3.3460    -0.6920 N.4   1 <1>  -0.9590 
  8 C       -0.6440     2.3650     0.1450 C.ar  1 <1>  -0.1430 
  9 C       -3.4220    -2.2750    -0.6590 C.2   1 <1>   0.0460 
 10 C       -5.1980     0.6520     0.1880 C.3   1 <1>   0.1200 
 11 C       -2.5720     3.7420    -2.1150 C.3   1 <1>   0.2630 
 12 C       -2.4920     4.4710     0.2430 C.3   1 <1>   0.2630 
 13 C        0.3710     2.7470    -0.7240 C.ar  1 <1>  -0.1500 
 14 C       -0.3600     2.2730     1.5010 C.ar  1 <1>  -0.1500 
 15 N       -4.7010    -2.5650    -0.3330 N.2   1 <1>  -0.5650 
 16 C       -2.5580    -2.9210     0.1610 C.2   1 <1>  -0.3320 
 17 O       -4.8240     1.8880     0.7170 O.3   1 <1>  -0.6800 
 18 C        1.6340     3.0420    -0.2450 C.ar  1 <1>  -0.1500 
 19 C        0.9040     2.5690     1.9790 C.ar  1 <1>  -0.1500 
 20 C       -4.5890    -3.3850     0.6600 C.2   1 <1>   0.0360 
 21 N       -3.3130    -3.6420     1.0100 N.pl3 1 <1>   0.0330 
 22 C       -1.0390    -2.9190     0.2120 C.3   1 <1>  -0.0600 
 23 C        1.9070     2.9600     1.1090 C.ar  1 <1>  -0.1430 
 24 C        3.2950     3.2810     1.6330 C.3   1 <1>  -0.0970 
 25 H       -2.5660     1.6660     0.5460 H     1 <1>   0.0800 
 26 H       -2.0890    -1.5110    -2.1370 H     1 <1>   0.0800 
 27 H       -3.7460    -1.5580    -2.6480 H     1 <1>   0.0800 
 28 H       -5.3290    -0.2330    -1.7340 H     1 <1>   0.0800 
 29 H       -4.8750     1.4310    -1.7930 H     1 <1>   0.0800 
 30 H       -3.7960     3.0870    -0.5480 H     1 <1>   0.4500 
 31 H       -4.8010    -0.1360     0.8070 H     1 <1>   0.0800 
 32 H       -6.2740     0.6000     0.2090 H     1 <1>   0.0800 
 33 H       -1.5350     3.9920    -2.2700 H     1 <1>   0.0800 
 34 H       -3.1730     4.6010    -2.3650 H     1 <1>   0.0800 
 35 H       -2.8330     2.9360    -2.7820 H     1 <1>   0.0800 
 36 H       -1.4550     4.7550     0.1580 H     1 <1>   0.0800 
 37 H       -2.6830     4.1730     1.2610 H     1 <1>   0.0800 
 38 H       -3.1040     5.3270     0.0130 H     1 <1>   0.0800 
 39 H        0.2000     2.8080    -1.7850 H     1 <1>   0.1500 
 40 H       -1.1150     1.9690     2.2060 H     1 <1>   0.1500 
 41 H       -5.2500     1.9930     1.5970 H     1 <1>   0.4000 
 42 H        2.4110     3.3320    -0.9330 H     1 <1>   0.1500 
 43 H        1.1090     2.4910     3.0330 H     1 <1>   0.1500 
 44 H       -5.4230    -3.8340     1.1730 H     1 <1>   0.1500 
 45 H       -2.9920    -4.2630     1.7590 H     1 <1>   0.2700 
 46 H       -0.6300    -2.2440    -0.5170 H     1 <1>   0.0800 
 47 H       -0.6600    -3.9060     0.0110 H     1 <1>   0.0800 
 48 H       -0.7000    -2.6100     1.1850 H     1 <1>   0.0800 
 49 H        3.7720     4.0160     1.0110 H     1 <1>   0.0800 
 50 H        3.8960     2.3890     1.6380 H     1 <1>   0.0800 
 51 H        3.2410     3.6680     2.6340 H     1 <1>   0.0800 
@<TRIPOS>BOND
  1   1   2  2   
  2   2   3  am  
  3   2   4  1   
  4   3   5  1   
  5   3   6  1   
  6   4   7  1   
  7   4   8  1   
  8   4  25  1   
  9   5   9  1   
 10   5  26  1   
 11   5  27  1   
 12   6  10  1   
 13   6  28  1   
 14   6  29  1   
 15   7  11  1   
 16   7  12  1   
 17   7  30  1   
 18   8  13  ar  
 19   8  14  ar  
 20   9  15  1   
 21   9  16  2   
 22  10  17  1   
 23  10  31  1   
 24  10  32  1   
 25  11  33  1   
 26  11  34  1   
 27  11  35  1   
 28  12  36  1   
 29  12  37  1   
 30  12  38  1   
 31  13  18  ar  
 32  13  39  1   
 33  14  19  ar  
 34  14  40  1   
 35  15  20  2   
 36  16  21  1   
 37  16  22  1   
 38  17  41  1   
 39  18  23  ar  
 40  18  42  1   
 41  19  23  ar  
 42  19  43  1   
 43  20  21  1   
 44  20  44  1   
 45  21  45  1   
 46  22  46  1   
 47  22  47  1   
 48  22  48  1   
 49  23  24  1   
 50  24  49  1   
 51  24  50  1   
 52  24  51  1   
@<TRIPOS>SUBSTRUCTURE
  1 ****   2 GROUP 4 **** **** 0

# MOE 2024.06 (io_trps.svl 2023.06)
