@<TRIPOS>MOLECULE
NONAME
53 55 1 0 0 
SMALL
USER_CHARGES


@<TRIPOS>ATOM
  1 S       -0.6780     0.0410     1.2810 S.3   1 <1>  -0.0800 
  2 C       -1.9650     0.6940     0.2770 C.2   1 <1>  -0.1400 
  3 C        0.4450     1.2650     0.7160 C.2   1 <1>  -0.1100 
  4 C       -1.5250     1.7620    -0.4140 C.2   1 <1>  -0.1500 
  5 C       -3.3180     0.0110     0.3320 C.3   1 <1>   0.0200 
  6 C       -0.1530     2.0870    -0.1650 C.2   1 <1>  -0.1500 
  7 C       -3.2760    -1.3620    -0.3510 C.3   1 <1>  -0.1600 
  8 C       -4.6460    -2.0670    -0.3060 C.3   1 <1>  -0.0990 
  9 C       -4.6740    -3.4440    -0.9640 C.2   1 <1>   0.5690 
 10 O       -3.7170    -3.7810    -1.6190 O.2   1 <1>  -0.5700 
 11 N       -5.7660    -4.2660    -0.8100 N.am  1 <1>  -0.6600 
 12 C       -5.7740    -5.6550    -1.3860 C.3   1 <1>   0.1400 
 13 C       -7.0590    -3.8540    -0.1990 C.3   1 <1>   0.1400 
 14 C       -6.1420    -6.7190    -0.3220 C.3   1 <1>   0.0000 
 15 C       -7.4440    -4.8460     0.8970 C.3   1 <1>  -0.1600 
 16 C       -7.4790    -6.2640     0.3250 C.3   1 <1>   0.2000 
 17 C       -6.4230    -8.0730    -1.0230 C.3   1 <1>   0.1200 
 18 C       -5.0060    -6.8490     0.7440 C.3   1 <1>  -0.0170 
 19 O       -7.8750    -7.1240     1.3350 O.3   1 <1>  -0.6800 
 20 O       -5.4250    -8.4020    -1.9300 O.3   1 <1>  -0.6800 
 21 C       -3.7490    -7.5790     0.2800 C.ar  1 <1>  -0.1430 
 22 C       -3.6080    -8.9400     0.5110 C.ar  1 <1>  -0.1500 
 23 C       -2.7340    -6.8990    -0.3740 C.ar  1 <1>  -0.1500 
 24 C       -2.4790    -9.6130     0.0780 C.ar  1 <1>  -0.1500 
 25 C       -1.6050    -7.5690    -0.8080 C.ar  1 <1>  -0.1500 
 26 C       -1.4770    -8.9280    -0.5840 C.ar  1 <1>  -0.1500 
 27 H        1.4460     1.2380     1.1090 H     1 <1>   0.1500 
 28 H       -2.1120     2.3480    -1.0990 H     1 <1>   0.1500 
 29 H       -3.6140    -0.0950     1.3610 H     1 <1>   0.0800 
 30 H       -4.0410     0.6350    -0.1630 H     1 <1>   0.0800 
 31 H        0.3150     2.9200    -0.6600 H     1 <1>   0.1500 
 32 H       -2.9700    -1.2360    -1.3760 H     1 <1>   0.0800 
 33 H       -2.5420    -1.9840     0.1330 H     1 <1>   0.0800 
 34 H       -5.3740    -1.4500    -0.7980 H     1 <1>   0.0800 
 35 H       -4.9310    -2.1820     0.7240 H     1 <1>   0.0800 
 36 H       -6.4940    -5.6850    -2.1860 H     1 <1>   0.0800 
 37 H       -4.8180    -5.8900    -1.8210 H     1 <1>   0.0800 
 38 H       -7.0080    -2.8640     0.2150 H     1 <1>   0.0800 
 39 H       -7.8160    -3.8490    -0.9660 H     1 <1>   0.0800 
 40 H       -8.4200    -4.5870     1.2690 H     1 <1>   0.0800 
 41 H       -6.7390    -4.7700     1.7050 H     1 <1>   0.0800 
 42 H       -8.2520    -6.3020    -0.4250 H     1 <1>   0.0800 
 43 H       -7.3440    -8.0290    -1.5770 H     1 <1>   0.0800 
 44 H       -6.5000    -8.8680    -0.3010 H     1 <1>   0.0800 
 45 H       -4.7180    -5.8720     1.0900 H     1 <1>   0.0800 
 46 H       -5.3740    -7.3780     1.6020 H     1 <1>   0.0800 
 47 H       -7.3120    -7.0090     2.1230 H     1 <1>   0.4000 
 48 H       -4.5500    -8.4100    -1.4750 H     1 <1>   0.4000 
 49 H       -4.3790    -9.4880     1.0250 H     1 <1>   0.1500 
 50 H       -2.8140    -5.8410    -0.5530 H     1 <1>   0.1500 
 51 H       -2.3800   -10.6700     0.2570 H     1 <1>   0.1500 
 52 H       -0.8280    -7.0280    -1.3200 H     1 <1>   0.1500 
 53 H       -0.5980    -9.4490    -0.9240 H     1 <1>   0.1500 
@<TRIPOS>BOND
  1   1   2  1   
  2   1   3  1   
  3   2   4  2   
  4   2   5  1   
  5   3   6  2   
  6   3  27  1   
  7   4   6  1   
  8   4  28  1   
  9   5   7  1   
 10   5  29  1   
 11   5  30  1   
 12   6  31  1   
 13   7   8  1   
 14   7  32  1   
 15   7  33  1   
 16   8   9  1   
 17   8  34  1   
 18   8  35  1   
 19   9  10  2   
 20   9  11  am  
 21  11  12  1   
 22  11  13  1   
 23  12  14  1   
 24  12  36  1   
 25  12  37  1   
 26  13  15  1   
 27  13  38  1   
 28  13  39  1   
 29  14  16  1   
 30  14  17  1   
 31  14  18  1   
 32  15  16  1   
 33  15  40  1   
 34  15  41  1   
 35  16  19  1   
 36  16  42  1   
 37  17  20  1   
 38  17  43  1   
 39  17  44  1   
 40  18  21  1   
 41  18  45  1   
 42  18  46  1   
 43  19  47  1   
 44  20  48  1   
 45  21  22  ar  
 46  21  23  ar  
 47  22  24  ar  
 48  22  49  1   
 49  23  25  ar  
 50  23  50  1   
 51  24  26  ar  
 52  24  51  1   
 53  25  26  ar  
 54  25  52  1   
 55  26  53  1   
@<TRIPOS>SUBSTRUCTURE
  1 ****   9 GROUP 4 **** **** 0

# MOE 2024.06 (io_trps.svl 2023.06)
