@<TRIPOS>MOLECULE
NONAME
35 35 1 0 0 
SMALL
USER_CHARGES


@<TRIPOS>ATOM
  1 O        0.0270     0.7320    -1.5730 O.2   1 <1>  -0.5700 
  2 C       -0.3640     1.4780    -0.6970 C.2   1 <1>   0.7800 
  3 O       -1.5760     1.3300    -0.1510 O.3   1 <1>  -0.4300 
  4 N        0.3750     2.5330    -0.2540 N.am  1 <1>  -0.6600 
  5 C       -2.4950     0.2890    -0.3920 C.3   1 <1>   0.2800 
  6 C        1.8600     2.6810    -0.4570 C.3   1 <1>   0.1140 
  7 C       -0.0820     3.5670     0.6900 C.3   1 <1>   0.1400 
  8 C       -3.6760     0.5810     0.5340 C.3   1 <1>  -0.2400 
  9 C       -2.9730     0.3270    -1.8480 C.3   1 <1>  -0.2400 
 10 C       -1.8760    -1.0610    -0.0110 C.3   1 <1>  -0.2400 
 11 C        2.7440     1.6600     0.2960 C.2   1 <1>   0.9060 
 12 C        2.1650     4.1170     0.0260 C.3   1 <1>  -0.1600 
 13 C        0.8180     4.7570     0.3560 C.3   1 <1>   0.2800 
 14 O        2.5090     1.4100     1.4900 O.co2 1 <1>  -0.9000 
 15 O        3.7330     1.1880    -0.2820 O.co2 1 <1>  -0.9000 
 16 O        0.3450     5.3260    -0.8070 O.3   1 <1>  -0.6800 
 17 C        0.8760     5.8470     1.4210 C.3   1 <1>  -0.2400 
 18 H        2.0770     2.5870    -1.5050 H     1 <1>   0.0800 
 19 H       -1.1250     3.8000     0.5660 H     1 <1>   0.0800 
 20 H        0.1070     3.2240     1.6920 H     1 <1>   0.0800 
 21 H       -4.4350    -0.1720     0.4210 H     1 <1>   0.0800 
 22 H       -4.1060     1.5380     0.2990 H     1 <1>   0.0800 
 23 H       -3.3500     0.5850     1.5590 H     1 <1>   0.0800 
 24 H       -3.7750    -0.3730    -1.9900 H     1 <1>   0.0800 
 25 H       -2.1810     0.0550    -2.5220 H     1 <1>   0.0800 
 26 H       -3.3270     1.3100    -2.0990 H     1 <1>   0.0800 
 27 H       -2.6210    -1.8350    -0.0520 H     1 <1>   0.0800 
 28 H       -1.4780    -1.0190     0.9870 H     1 <1>   0.0800 
 29 H       -1.0870    -1.3310    -0.6890 H     1 <1>   0.0800 
 30 H        2.7250     4.6740    -0.7030 H     1 <1>   0.0800 
 31 H        2.7580     4.0570     0.9220 H     1 <1>   0.0800 
 32 H        0.2520     4.5940    -1.4510 H     1 <1>   0.4000 
 33 H        1.2410     5.4360     2.3450 H     1 <1>   0.0800 
 34 H       -0.1050     6.2530     1.5890 H     1 <1>   0.0800 
 35 H        1.5410     6.6320     1.1080 H     1 <1>   0.0800 
@<TRIPOS>BOND
  1   1   2  2   
  2   2   3  1   
  3   2   4  am  
  4   3   5  1   
  5   4   6  1   
  6   4   7  1   
  7   5   8  1   
  8   5   9  1   
  9   5  10  1   
 10   6  11  1   
 11   6  12  1   
 12   6  18  1   
 13   7  13  1   
 14   7  19  1   
 15   7  20  1   
 16   8  21  1   
 17   8  22  1   
 18   8  23  1   
 19   9  24  1   
 20   9  25  1   
 21   9  26  1   
 22  10  27  1   
 23  10  28  1   
 24  10  29  1   
 25  11  14  ar  
 26  11  15  ar  
 27  12  13  1   
 28  12  30  1   
 29  12  31  1   
 30  13  16  1   
 31  13  17  1   
 32  16  32  1   
 33  17  33  1   
 34  17  34  1   
 35  17  35  1   
@<TRIPOS>SUBSTRUCTURE
  1 ****   4 GROUP 4 **** **** 0

# MOE 2024.06 (io_trps.svl 2023.06)
