@<TRIPOS>MOLECULE
NONAME
46 47 1 0 0 
SMALL
USER_CHARGES


@<TRIPOS>ATOM
  1 O       -0.2500     0.4290     0.4700 O.2   1 <1>  -0.5700 
  2 C       -1.3580     0.9020     0.3510 C.2   1 <1>   0.5690 
  3 N       -2.4870     0.1240     0.3910 N.am  1 <1>  -0.6600 
  4 C       -1.4320     2.4280     0.1540 C.3   1 <1>   0.4040 
  5 C       -2.4020    -1.3550     0.6320 C.3   1 <1>   0.1400 
  6 C       -3.9010     0.6040     0.2700 C.3   1 <1>   0.1400 
  7 N       -0.1140     3.0450    -0.2650 N.4   1 <1>  -0.9590 
  8 C       -3.2930    -2.1280    -0.3540 C.3   1 <1>   0.1200 
  9 C       -4.6990    -0.2800    -0.7040 C.3   1 <1>   0.1200 
 10 C       -0.0830     4.5100     0.0020 C.3   1 <1>   0.3430 
 11 C        0.2070     2.7010    -1.6870 C.3   1 <1>   0.2630 
 12 O       -4.5970    -1.6230    -0.3360 O.3   1 <1>  -0.5600 
 13 C        1.3410     5.0570    -0.0870 C.3   1 <1>  -0.1600 
 14 C        1.3380     6.5580     0.2080 C.3   1 <1>   0.2000 
 15 O        0.3320     7.1240    -0.5750 O.3   1 <1>  -0.5600 
 16 C        2.6860     7.2150    -0.1280 C.3   1 <1>  -0.1600 
 17 C        0.1260     8.4920    -0.3750 C.3   1 <1>   0.1200 
 18 C        2.6050     8.7380     0.0280 C.3   1 <1>  -0.1600 
 19 C        1.3950     9.2670    -0.7470 C.3   1 <1>  -0.1600 
 20 H       -1.7420     2.8550     1.0920 H     1 <1>   0.0800 
 21 H       -2.1840     2.6510    -0.5820 H     1 <1>   0.0800 
 22 H       -2.7240    -1.5700     1.6360 H     1 <1>   0.0800 
 23 H       -1.3880    -1.7020     0.5320 H     1 <1>   0.0800 
 24 H       -3.9420     1.6220    -0.0710 H     1 <1>   0.0800 
 25 H       -4.3730     0.5570     1.2380 H     1 <1>   0.0800 
 26 H        0.5940     2.5690     0.3230 H     1 <1>   0.4500 
 27 H       -3.3390    -3.1660    -0.0760 H     1 <1>   0.0800 
 28 H       -2.9070    -2.0570    -1.3560 H     1 <1>   0.0800 
 29 H       -4.3370    -0.1710    -1.7120 H     1 <1>   0.0800 
 30 H       -5.7420    -0.0150    -0.6810 H     1 <1>   0.0800 
 31 H       -0.4670     4.7110     0.9890 H     1 <1>   0.0800 
 32 H       -0.7080     5.0270    -0.7090 H     1 <1>   0.0800 
 33 H       -0.5060     3.1560    -2.3550 H     1 <1>   0.0800 
 34 H        0.1830     1.6310    -1.8250 H     1 <1>   0.0800 
 35 H        1.1930     3.0500    -1.9450 H     1 <1>   0.0800 
 36 H        1.7390     4.9100    -1.0740 H     1 <1>   0.0800 
 37 H        1.9790     4.5640     0.6240 H     1 <1>   0.0800 
 38 H        1.0890     6.7320     1.2420 H     1 <1>   0.0800 
 39 H        2.9570     6.9780    -1.1430 H     1 <1>   0.0800 
 40 H        3.4530     6.8270     0.5180 H     1 <1>   0.0800 
 41 H       -0.1390     8.6550     0.6560 H     1 <1>   0.0800 
 42 H       -0.6960     8.7980    -0.9990 H     1 <1>   0.0800 
 43 H        3.5080     9.1980    -0.3350 H     1 <1>   0.0800 
 44 H        2.4990     8.9870     1.0710 H     1 <1>   0.0800 
 45 H        1.2540    10.3130    -0.5350 H     1 <1>   0.0800 
 46 H        1.5640     9.1680    -1.8050 H     1 <1>   0.0800 
@<TRIPOS>BOND
  1   1   2  2   
  2   2   3  am  
  3   2   4  1   
  4   3   5  1   
  5   3   6  1   
  6   4   7  1   
  7   4  20  1   
  8   4  21  1   
  9   5   8  1   
 10   5  22  1   
 11   5  23  1   
 12   6   9  1   
 13   6  24  1   
 14   6  25  1   
 15   7  10  1   
 16   7  11  1   
 17   7  26  1   
 18   8  12  1   
 19   8  27  1   
 20   8  28  1   
 21   9  12  1   
 22   9  29  1   
 23   9  30  1   
 24  10  13  1   
 25  10  31  1   
 26  10  32  1   
 27  11  33  1   
 28  11  34  1   
 29  11  35  1   
 30  13  14  1   
 31  13  36  1   
 32  13  37  1   
 33  14  15  1   
 34  14  16  1   
 35  14  38  1   
 36  15  17  1   
 37  16  18  1   
 38  16  39  1   
 39  16  40  1   
 40  17  19  1   
 41  17  41  1   
 42  17  42  1   
 43  18  19  1   
 44  18  43  1   
 45  18  44  1   
 46  19  45  1   
 47  19  46  1   
@<TRIPOS>SUBSTRUCTURE
  1 ****   7 GROUP 4 **** **** 0

# MOE 2024.06 (io_trps.svl 2023.06)
