@<TRIPOS>MOLECULE
NONAME
43 44 1 0 0 
SMALL
USER_CHARGES


@<TRIPOS>ATOM
  1 O        1.0930     0.7380     0.8240 O.co2 1 <1>  -0.9000 
  2 C        2.2810     1.0360     0.9820 C.2   1 <1>   0.9060 
  3 O        3.0280     0.3950     1.7300 O.co2 1 <1>  -0.9000 
  4 C        2.8590     2.2100     0.2070 C.3   1 <1>  -0.1860 
  5 C        3.9860     2.8950     0.9660 C.3   1 <1>   0.1100 
  6 C        1.8870     3.3550    -0.1090 C.3   1 <1>  -0.1600 
  7 N        4.0480     4.2660     0.4390 N.3   1 <1>  -0.8100 
  8 C        2.6390     4.6370     0.2420 C.3   1 <1>   0.1100 
  9 C        4.8040     4.3020    -0.8540 C.3   1 <1>   0.1710 
 10 C        5.2130     5.7160    -1.2720 C.2   1 <1>   0.5690 
 11 O        5.5540     5.9270    -2.4120 O.2   1 <1>  -0.5700 
 12 N        5.1610     6.6610    -0.2890 N.am  1 <1>  -0.5470 
 13 C        5.4360     8.0370    -0.2450 C.ar  1 <1>   0.1170 
 14 C        5.9760     8.7430    -1.3150 C.ar  1 <1>  -0.1500 
 15 C        5.1580     8.7280     0.9280 C.ar  1 <1>  -0.1500 
 16 C        6.2280    10.0990    -1.2130 C.ar  1 <1>  -0.1500 
 17 C        5.4100    10.0840     1.0320 C.ar  1 <1>  -0.1500 
 18 C        5.9500    10.7840    -0.0380 C.ar  1 <1>   0.1170 
 19 N        6.2090    12.1570     0.0660 N.am  1 <1>  -0.4770 
 20 C        7.3950    12.6880     0.5140 C.2   1 <1>   0.5690 
 21 C        5.1230    13.0750    -0.3610 C.3   1 <1>   0.0600 
 22 O        7.5840    13.8790     0.5900 O.2   1 <1>  -0.5700 
 23 C        8.5180    11.7650     0.9340 C.3   1 <1>  -0.1790 
 24 H        3.2520     1.8100    -0.7070 H     1 <1>   0.0800 
 25 H        4.9180     2.3650     0.8630 H     1 <1>   0.0800 
 26 H        3.7340     2.9340     2.0140 H     1 <1>   0.0800 
 27 H        0.9930     3.2850     0.4860 H     1 <1>   0.0800 
 28 H        1.6090     3.3370    -1.1470 H     1 <1>   0.0800 
 29 H        2.2550     5.0200     1.1730 H     1 <1>   0.0800 
 30 H        2.5190     5.3910    -0.5170 H     1 <1>   0.0800 
 31 H        4.2220     3.8590    -1.6430 H     1 <1>   0.0800 
 32 H        5.7080     3.7310    -0.7510 H     1 <1>   0.0800 
 33 H        4.7980     6.2370     0.5730 H     1 <1>   0.3700 
 34 H        6.2040     8.2390    -2.2350 H     1 <1>   0.1500 
 35 H        4.7400     8.2000     1.7670 H     1 <1>   0.1500 
 36 H        6.6440    10.6330    -2.0480 H     1 <1>   0.1500 
 37 H        5.1890    10.6090     1.9440 H     1 <1>   0.1500 
 38 H        4.2400    12.5170    -0.6200 H     1 <1>   0.0800 
 39 H        5.4480    13.6410    -1.2160 H     1 <1>   0.0800 
 40 H        4.8900    13.7550     0.4400 H     1 <1>   0.0800 
 41 H        8.1980    11.1550     1.7570 H     1 <1>   0.0800 
 42 H        9.3700    12.3430     1.2380 H     1 <1>   0.0800 
 43 H        8.7990    11.1360     0.1100 H     1 <1>   0.0800 
@<TRIPOS>BOND
  1   1   2  ar  
  2   2   3  ar  
  3   2   4  1   
  4   4   5  1   
  5   4   6  1   
  6   4  24  1   
  7   5   7  1   
  8   5  25  1   
  9   5  26  1   
 10   6   8  1   
 11   6  27  1   
 12   6  28  1   
 13   7   8  1   
 14   7   9  1   
 15   8  29  1   
 16   8  30  1   
 17   9  10  1   
 18   9  31  1   
 19   9  32  1   
 20  10  11  2   
 21  10  12  am  
 22  12  13  1   
 23  12  33  1   
 24  13  14  ar  
 25  13  15  ar  
 26  14  16  ar  
 27  14  34  1   
 28  15  17  ar  
 29  15  35  1   
 30  16  18  ar  
 31  16  36  1   
 32  17  18  ar  
 33  17  37  1   
 34  18  19  1   
 35  19  20  am  
 36  19  21  1   
 37  20  22  2   
 38  20  23  1   
 39  21  38  1   
 40  21  39  1   
 41  21  40  1   
 42  23  41  1   
 43  23  42  1   
 44  23  43  1   
@<TRIPOS>SUBSTRUCTURE
  1 ****  12 GROUP 4 **** **** 0

# MOE 2024.06 (io_trps.svl 2023.06)
