@<TRIPOS>MOLECULE
NONAME
41 42 1 0 0 
SMALL
USER_CHARGES


@<TRIPOS>ATOM
  1 F       -2.0660     3.8690    -1.7530 F     1 <1>  -0.1900 
  2 C       -2.1480     3.3230    -0.5610 C.ar  1 <1>   0.1900 
  3 C       -1.0450     2.6750    -0.0040 C.ar  1 <1>   0.1000 
  4 C       -3.3510     3.4140     0.1130 C.ar  1 <1>   0.1600 
  5 N        0.2240     2.5210    -0.5790 N.pl3 1 <1>  -0.8380 
  6 C       -1.2860     2.1420     1.2520 C.ar  1 <1>  -0.1500 
  7 N       -3.5650     2.9100     1.3230 N.ar  1 <1>  -0.6200 
  8 C        0.8740     3.6310    -1.3190 C.3   1 <1>   0.2090 
  9 C        0.5470     1.1660    -1.1070 C.3   1 <1>   0.1290 
 10 C       -2.5240     2.2820     1.8560 C.ar  1 <1>   0.1600 
 11 C        0.9370     4.8670    -0.4160 C.3   1 <1>  -0.1600 
 12 C        1.8030     5.9990    -0.9870 C.3   1 <1>   0.4230 
 13 N        1.8110     7.1490    -0.0360 N.4   1 <1>  -0.9590 
 14 C        1.2650     6.4850    -2.3380 C.3   1 <1>  -0.2400 
 15 C        2.6500     8.3010    -0.4590 C.3   1 <1>   0.3430 
 16 C        2.2730     6.8220     1.3390 C.3   1 <1>   0.3430 
 17 C        2.8410     9.1270     0.8050 C.3   1 <1>  -0.1600 
 18 C        2.5930     8.1680     1.9710 C.3   1 <1>  -0.1600 
 19 H       -4.1710     3.9210    -0.3620 H     1 <1>   0.1500 
 20 H       -0.4970     1.6190     1.7580 H     1 <1>   0.1500 
 21 H        0.3280     3.8270    -2.2250 H     1 <1>   0.0800 
 22 H        1.8740     3.3310    -1.5860 H     1 <1>   0.0800 
 23 H       -0.0820     0.4240    -0.6440 H     1 <1>   0.0800 
 24 H        1.5740     0.9260    -0.8960 H     1 <1>   0.0800 
 25 H        0.3850     1.1360    -2.1710 H     1 <1>   0.0800 
 26 H       -2.6700     1.8550     2.8340 H     1 <1>   0.1500 
 27 H        1.3430     4.5350     0.5210 H     1 <1>   0.0800 
 28 H       -0.0610     5.2310    -0.2540 H     1 <1>   0.0800 
 29 H        2.8110     5.6370    -1.1170 H     1 <1>   0.0800 
 30 H        0.8450     7.4900     0.0450 H     1 <1>   0.4500 
 31 H        0.2530     6.8400    -2.2430 H     1 <1>   0.0800 
 32 H        1.2690     5.6830    -3.0530 H     1 <1>   0.0800 
 33 H        1.8790     7.2620    -2.7540 H     1 <1>   0.0800 
 34 H        2.1780     8.8770    -1.2390 H     1 <1>   0.0800 
 35 H        3.6080     7.9460    -0.8050 H     1 <1>   0.0800 
 36 H        3.1700     6.2250     1.2890 H     1 <1>   0.0800 
 37 H        1.5200     6.2900     1.8990 H     1 <1>   0.0800 
 38 H        2.1310     9.9350     0.8250 H     1 <1>   0.0800 
 39 H        3.8340     9.5440     0.8350 H     1 <1>   0.0800 
 40 H        3.4520     8.0870     2.6150 H     1 <1>   0.0800 
 41 H        1.7560     8.5020     2.5610 H     1 <1>   0.0800 
@<TRIPOS>BOND
  1   1   2  1   
  2   2   3  ar  
  3   2   4  ar  
  4   3   5  1   
  5   3   6  ar  
  6   4   7  ar  
  7   4  19  1   
  8   5   8  1   
  9   5   9  1   
 10   6  10  ar  
 11   6  20  1   
 12   7  10  ar  
 13   8  11  1   
 14   8  21  1   
 15   8  22  1   
 16   9  23  1   
 17   9  24  1   
 18   9  25  1   
 19  10  26  1   
 20  11  12  1   
 21  11  27  1   
 22  11  28  1   
 23  12  13  1   
 24  12  14  1   
 25  12  29  1   
 26  13  15  1   
 27  13  16  1   
 28  13  30  1   
 29  14  31  1   
 30  14  32  1   
 31  14  33  1   
 32  15  17  1   
 33  15  34  1   
 34  15  35  1   
 35  16  18  1   
 36  16  36  1   
 37  16  37  1   
 38  17  18  1   
 39  17  38  1   
 40  17  39  1   
 41  18  40  1   
 42  18  41  1   
@<TRIPOS>SUBSTRUCTURE
  1 ****  11 GROUP 4 **** **** 0

# MOE 2024.06 (io_trps.svl 2023.06)
