@<TRIPOS>MOLECULE
NONAME
46 48 1 0 0 
SMALL
USER_CHARGES


@<TRIPOS>ATOM
  1 F       -1.3070    -1.4060    -1.8990 F     1 <1>  -0.3400 
  2 C       -1.1260    -0.5700    -0.8830 C.3   1 <1>   1.3000 
  3 F       -2.2720     0.0630    -0.6570 F     1 <1>  -0.3400 
  4 F       -0.2310     0.3330    -1.2550 F     1 <1>  -0.3400 
  5 O       -0.6790    -1.2510     0.2710 O.3   1 <1>  -0.3630 
  6 C       -1.4210    -2.2880     0.7130 C.ar  1 <1>   0.0830 
  7 C       -1.0480    -3.5820     0.3860 C.ar  1 <1>  -0.1500 
  8 C       -2.5360    -2.0650     1.5060 C.ar  1 <1>  -0.1500 
  9 C       -1.8000    -4.6520     0.8380 C.ar  1 <1>  -0.1500 
 10 C       -3.2880    -3.1360     1.9550 C.ar  1 <1>  -0.1500 
 11 C       -2.9270    -4.4350     1.6210 C.ar  1 <1>  -0.1430 
 12 C       -3.7700    -5.6020     2.1080 C.3   1 <1>   0.4870 
 13 N       -4.3500    -6.3020     0.9380 N.4   1 <1>  -0.9590 
 14 C       -5.0640    -5.4320    -0.0510 C.3   1 <1>   0.3430 
 15 C       -5.2390    -7.4470     1.2380 C.3   1 <1>   0.3430 
 16 C       -6.2680    -6.2520    -0.5410 C.3   1 <1>   0.2000 
 17 C       -5.9750    -7.6830    -0.0830 C.3   1 <1>  -0.0800 
 18 O       -7.4250    -5.8050     0.0860 O.3   1 <1>  -0.6800 
 19 C       -5.1210    -8.4320    -1.1450 C.3   1 <1>   0.0210 
 20 C       -3.8360    -9.0520    -0.6190 C.2   1 <1>   0.1080 
 21 N       -2.7810    -8.3570    -0.3020 N.2   1 <1>  -0.7070 
 22 C       -3.6450   -10.4160    -0.4330 C.2   1 <1>  -0.1500 
 23 N       -1.8670    -9.2870     0.0660 N.pl3 1 <1>   0.3000 
 24 C       -2.3760   -10.5330     0.0080 C.2   1 <1>  -0.3320 
 25 C       -1.6000   -11.7890     0.3680 C.3   1 <1>  -0.0600 
 26 H       -0.1720    -3.7470    -0.2180 H     1 <1>   0.1500 
 27 H       -2.8100    -1.0580     1.7730 H     1 <1>   0.1500 
 28 H       -1.4950    -5.6510     0.5730 H     1 <1>   0.1500 
 29 H       -4.1510    -2.9400     2.5690 H     1 <1>   0.1500 
 30 H       -4.5570    -5.2360     2.7470 H     1 <1>   0.0800 
 31 H       -3.1530    -6.2800     2.6760 H     1 <1>   0.0800 
 32 H       -3.5570    -6.7460     0.4220 H     1 <1>   0.4500 
 33 H       -5.3990    -4.5110     0.3950 H     1 <1>   0.0800 
 34 H       -4.4030    -5.2080    -0.8730 H     1 <1>   0.0800 
 35 H       -4.6800    -8.3140     1.5520 H     1 <1>   0.0800 
 36 H       -5.9440    -7.1770     2.0070 H     1 <1>   0.0800 
 37 H       -6.4200    -6.1570    -1.6040 H     1 <1>   0.0800 
 38 H       -6.8820    -8.2380     0.0830 H     1 <1>   0.0800 
 39 H       -7.4330    -5.9560     1.0500 H     1 <1>   0.4000 
 40 H       -4.8420    -7.7720    -1.9480 H     1 <1>   0.0800 
 41 H       -5.7210    -9.2070    -1.5880 H     1 <1>   0.0800 
 42 H       -4.3630   -11.1960    -0.6190 H     1 <1>   0.1500 
 43 H       -0.9020    -9.0550     0.3370 H     1 <1>   0.2700 
 44 H       -2.2190   -12.6590     0.2340 H     1 <1>   0.0800 
 45 H       -1.2810   -11.7520     1.3940 H     1 <1>   0.0800 
 46 H       -0.7350   -11.8870    -0.2640 H     1 <1>   0.0800 
@<TRIPOS>BOND
  1   1   2  1   
  2   2   3  1   
  3   2   4  1   
  4   2   5  1   
  5   5   6  1   
  6   6   7  ar  
  7   6   8  ar  
  8   7   9  ar  
  9   7  26  1   
 10   8  10  ar  
 11   8  27  1   
 12   9  11  ar  
 13   9  28  1   
 14  10  11  ar  
 15  10  29  1   
 16  11  12  1   
 17  12  13  1   
 18  12  30  1   
 19  12  31  1   
 20  13  14  1   
 21  13  15  1   
 22  13  32  1   
 23  14  16  1   
 24  14  33  1   
 25  14  34  1   
 26  15  17  1   
 27  15  35  1   
 28  15  36  1   
 29  16  17  1   
 30  16  18  1   
 31  16  37  1   
 32  17  19  1   
 33  17  38  1   
 34  18  39  1   
 35  19  20  1   
 36  19  40  1   
 37  19  41  1   
 38  20  21  2   
 39  20  22  1   
 40  21  23  1   
 41  22  24  2   
 42  22  42  1   
 43  23  24  1   
 44  23  43  1   
 45  24  25  1   
 46  25  44  1   
 47  25  45  1   
 48  25  46  1   
@<TRIPOS>SUBSTRUCTURE
  1 ****   9 GROUP 4 **** **** 0

# MOE 2024.06 (io_trps.svl 2023.06)
