@<TRIPOS>MOLECULE
NONAME
50 53 1 0 0 
SMALL
USER_CHARGES


@<TRIPOS>ATOM
  1 O       -0.6750    -0.4670    -0.5920 O.2   1 <1>  -0.5700 
  2 C       -1.7700    -0.1900    -0.1700 C.2   1 <1>   0.5690 
  3 N       -2.7520    -1.0640     0.2140 N.am  1 <1>  -0.4770 
  4 C       -2.2090     1.2390    -0.0010 C.3   1 <1>  -0.0990 
  5 C       -2.7400    -2.4690     0.1540 C.ar  1 <1>   0.1170 
  6 C       -3.9380    -0.3280     0.6980 C.3   1 <1>   0.1400 
  7 C       -3.7140     1.1250     0.2640 C.3   1 <1>  -0.1600 
  8 C       -3.4070    -3.2360     1.1070 C.ar  1 <1>  -0.1500 
  9 C       -2.0700    -3.1470    -0.8600 C.ar  1 <1>  -0.1500 
 10 C       -3.4140    -4.6160     1.0380 C.ar  1 <1>  -0.1500 
 11 C       -2.0760    -4.5270    -0.9260 C.ar  1 <1>  -0.1500 
 12 C       -2.7590    -5.2990     0.0120 C.ar  1 <1>   0.0860 
 13 C       -2.7760    -6.7460    -0.0790 C.2   1 <1>   0.5440 
 14 O       -1.7350    -7.3540    -0.2390 O.2   1 <1>  -0.5700 
 15 N       -3.9510    -7.4610    -0.0050 N.am  1 <1>  -0.6600 
 16 C       -5.3000    -6.8950    -0.2530 C.3   1 <1>   0.1400 
 17 C       -3.9820    -8.9420    -0.1070 C.3   1 <1>   0.1400 
 18 C       -6.1650    -8.0910    -0.6500 C.3   1 <1>   0.2000 
 19 C       -5.4650    -9.3150    -0.0650 C.3   1 <1>  -0.0800 
 20 O       -7.4480    -7.9850    -0.1360 O.3   1 <1>  -0.6800 
 21 C       -5.8110   -10.6120    -0.8150 C.3   1 <1>  -0.0160 
 22 C       -5.1510   -11.8230    -0.1770 C.ar  1 <1>   0.1670 
 23 N       -3.9010   -12.0680    -0.5370 N.ar  1 <1>  -0.6200 
 24 C       -5.8620   -12.5940     0.7310 C.ar  1 <1>  -0.1500 
 25 C       -3.3350   -13.1210     0.0310 C.ar  1 <1>   0.1600 
 26 C       -5.2610   -13.6890     1.3140 C.ar  1 <1>  -0.1500 
 27 C       -3.9590   -13.9500     0.9470 C.ar  1 <1>  -0.1500 
 28 H       -1.6950     1.6620     0.8420 H     1 <1>   0.0800 
 29 H       -1.9970     1.8110    -0.8860 H     1 <1>   0.0800 
 30 H       -4.8390    -0.7320     0.2680 H     1 <1>   0.0800 
 31 H       -3.9820    -0.3950     1.7720 H     1 <1>   0.0800 
 32 H       -4.2560     1.3030    -0.6480 H     1 <1>   0.0800 
 33 H       -4.0510     1.8220     1.0100 H     1 <1>   0.0800 
 34 H       -3.9170    -2.7520     1.9190 H     1 <1>   0.1500 
 35 H       -1.5340    -2.5880    -1.6060 H     1 <1>   0.1500 
 36 H       -3.9240    -5.1850     1.7940 H     1 <1>   0.1500 
 37 H       -1.5420    -5.0280    -1.7150 H     1 <1>   0.1500 
 38 H       -5.6670    -6.4440     0.6520 H     1 <1>   0.0800 
 39 H       -5.2660    -6.1680    -1.0460 H     1 <1>   0.0800 
 40 H       -3.5350    -9.2410    -1.0400 H     1 <1>   0.0800 
 41 H       -3.4340    -9.3950     0.7030 H     1 <1>   0.0800 
 42 H       -6.2310    -8.1520    -1.7230 H     1 <1>   0.0800 
 43 H       -5.7340    -9.4210     0.9720 H     1 <1>   0.0800 
 44 H       -7.4240    -7.9830     0.8400 H     1 <1>   0.4000 
 45 H       -5.4960   -10.5410    -1.8410 H     1 <1>   0.0800 
 46 H       -6.8780   -10.7470    -0.8150 H     1 <1>   0.0800 
 47 H       -6.8760   -12.3420     0.9810 H     1 <1>   0.1500 
 48 H       -2.3180   -13.3340    -0.2500 H     1 <1>   0.1500 
 49 H       -5.7830   -14.3090     2.0230 H     1 <1>   0.1500 
 50 H       -3.4300   -14.7880     1.3640 H     1 <1>   0.1500 
@<TRIPOS>BOND
  1   1   2  2   
  2   2   3  am  
  3   2   4  1   
  4   3   5  1   
  5   3   6  1   
  6   4   7  1   
  7   4  28  1   
  8   4  29  1   
  9   5   8  ar  
 10   5   9  ar  
 11   6   7  1   
 12   6  30  1   
 13   6  31  1   
 14   7  32  1   
 15   7  33  1   
 16   8  10  ar  
 17   8  34  1   
 18   9  11  ar  
 19   9  35  1   
 20  10  12  ar  
 21  10  36  1   
 22  11  12  ar  
 23  11  37  1   
 24  12  13  1   
 25  13  14  2   
 26  13  15  am  
 27  15  16  1   
 28  15  17  1   
 29  16  18  1   
 30  16  38  1   
 31  16  39  1   
 32  17  19  1   
 33  17  40  1   
 34  17  41  1   
 35  18  19  1   
 36  18  20  1   
 37  18  42  1   
 38  19  21  1   
 39  19  43  1   
 40  20  44  1   
 41  21  22  1   
 42  21  45  1   
 43  21  46  1   
 44  22  23  ar  
 45  22  24  ar  
 46  23  25  ar  
 47  24  26  ar  
 48  24  47  1   
 49  25  27  ar  
 50  25  48  1   
 51  26  27  ar  
 52  26  49  1   
 53  27  50  1   
@<TRIPOS>SUBSTRUCTURE
  1 ****  13 GROUP 4 **** **** 0

# MOE 2024.06 (io_trps.svl 2023.06)
