@<TRIPOS>MOLECULE
NONAME
66 68 1 0 0 
SMALL
USER_CHARGES


@<TRIPOS>ATOM
  1 O        0.1630    -0.8200    -0.4010 O.3   1 <1>  -0.5600 
  2 C        1.4980    -1.0840    -0.7500 C.3   1 <1>   0.2000 
  3 C       -0.2070     0.5220    -0.4570 C.3   1 <1>   0.1200 
  4 C        2.4860    -0.2600     0.1260 C.3   1 <1>   0.5660 
  5 C        1.7590    -2.5890    -0.5790 C.3   1 <1>   0.1200 
  6 C        0.6160     1.3230     0.5640 C.3   1 <1>   0.3430 
  7 N        2.1010     1.1850     0.3480 N.4   1 <1>  -0.9590 
  8 C        3.8840    -0.2370    -0.4800 C.ar  1 <1>  -0.1440 
  9 O        1.9080    -2.9020     0.7700 O.3   1 <1>  -0.6800 
 10 C        2.8560     1.7440     1.5160 C.3   1 <1>   0.3430 
 11 C        4.9680    -0.5940     0.3090 C.ar  1 <1>  -0.1500 
 12 C        4.1080     0.1810    -1.7860 C.ar  1 <1>  -0.1500 
 13 C        3.5950     3.0720     1.2240 C.3   1 <1>  -0.0800 
 14 C        6.2660    -0.4880    -0.1690 C.ar  1 <1>   0.0820 
 15 C        5.3990     0.2820    -2.2710 C.ar  1 <1>  -0.1500 
 16 C        2.7120     4.2030     0.6680 C.3   1 <1>  -0.1600 
 17 C        4.8220     2.9020     0.3130 C.3   1 <1>  -0.1600 
 18 O        7.2800    -0.7840     0.6790 O.3   1 <1>  -0.3620 
 19 C        6.4900    -0.0270    -1.4760 C.ar  1 <1>   0.0820 
 20 C        3.5160     5.5000     0.4870 C.3   1 <1>   0.3430 
 21 C        5.5970     4.2090     0.1450 C.3   1 <1>   0.3430 
 22 C        7.3640    -2.1100     1.1610 C.3   1 <1>   0.0400 
 23 O        7.6980     0.1740    -2.0700 O.3   1 <1>  -0.3630 
 24 N        4.7020     5.2790    -0.4040 N.4   1 <1>  -0.9590 
 25 C        8.8830    -0.4380    -1.6110 C.3   1 <1>   0.0400 
 26 C        5.4540     6.5440    -0.6720 C.3   1 <1>   0.4230 
 27 C        4.5200     7.5960    -1.2750 C.3   1 <1>  -0.2400 
 28 C        6.5930     6.2780    -1.6600 C.3   1 <1>  -0.2400 
 29 H        1.6030    -0.8370    -1.7900 H     1 <1>   0.0800 
 30 H       -0.0680     0.8870    -1.4600 H     1 <1>   0.0800 
 31 H       -1.2540     0.5780    -0.2120 H     1 <1>   0.0800 
 32 H        2.5370    -0.7490     1.0850 H     1 <1>   0.0800 
 33 H        2.6660    -2.8770    -1.0840 H     1 <1>   0.0800 
 34 H        0.9370    -3.1570    -0.9810 H     1 <1>   0.0800 
 35 H        0.3580     0.9610     1.5460 H     1 <1>   0.0800 
 36 H        0.3320     2.3610     0.5120 H     1 <1>   0.0800 
 37 H        2.3830     1.6700    -0.5070 H     1 <1>   0.4500 
 38 H        1.7930    -3.8660     0.9140 H     1 <1>   0.4000 
 39 H        2.1740     1.8990     2.3370 H     1 <1>   0.0800 
 40 H        3.5860     1.0250     1.8520 H     1 <1>   0.0800 
 41 H        4.8160    -0.9400     1.3160 H     1 <1>   0.1500 
 42 H        3.3000     0.4430    -2.4480 H     1 <1>   0.1500 
 43 H        3.9680     3.4030     2.1810 H     1 <1>   0.0800 
 44 H        5.5780     0.6060    -3.2820 H     1 <1>   0.1500 
 45 H        1.9040     4.4000     1.3510 H     1 <1>   0.0800 
 46 H        2.2810     3.9290    -0.2790 H     1 <1>   0.0800 
 47 H        4.5330     2.5570    -0.6610 H     1 <1>   0.0800 
 48 H        5.4910     2.1720     0.7350 H     1 <1>   0.0800 
 49 H        3.8510     5.8540     1.4490 H     1 <1>   0.0800 
 50 H        2.8670     6.2500     0.0640 H     1 <1>   0.0800 
 51 H        6.4250     4.0310    -0.5230 H     1 <1>   0.0800 
 52 H        5.9970     4.5200     1.0970 H     1 <1>   0.0800 
 53 H        8.3090    -2.2260     1.6590 H     1 <1>   0.0800 
 54 H        7.3030    -2.7890     0.3280 H     1 <1>   0.0800 
 55 H        6.5640    -2.2910     1.8550 H     1 <1>   0.0800 
 56 H        4.3650     4.9620    -1.3200 H     1 <1>   0.4500 
 57 H        9.6450    -0.2920    -2.3550 H     1 <1>   0.0800 
 58 H        8.7040    -1.4900    -1.4730 H     1 <1>   0.0800 
 59 H        9.1840     0.0250    -0.6890 H     1 <1>   0.0800 
 60 H        5.8690     6.9280     0.2480 H     1 <1>   0.0800 
 61 H        4.0100     7.2150    -2.1430 H     1 <1>   0.0800 
 62 H        5.0930     8.4540    -1.5820 H     1 <1>   0.0800 
 63 H        3.8050     7.9520    -0.5570 H     1 <1>   0.0800 
 64 H        6.2320     5.8020    -2.5540 H     1 <1>   0.0800 
 65 H        7.3720     5.6840    -1.2200 H     1 <1>   0.0800 
 66 H        7.0500     7.2100    -1.9450 H     1 <1>   0.0800 
@<TRIPOS>BOND
  1   1   2  1   
  2   1   3  1   
  3   2   4  1   
  4   2   5  1   
  5   2  29  1   
  6   3   6  1   
  7   3  30  1   
  8   3  31  1   
  9   4   7  1   
 10   4   8  1   
 11   4  32  1   
 12   5   9  1   
 13   5  33  1   
 14   5  34  1   
 15   6   7  1   
 16   6  35  1   
 17   6  36  1   
 18   7  10  1   
 19   7  37  1   
 20   8  11  ar  
 21   8  12  ar  
 22   9  38  1   
 23  10  13  1   
 24  10  39  1   
 25  10  40  1   
 26  11  14  ar  
 27  11  41  1   
 28  12  15  ar  
 29  12  42  1   
 30  13  16  1   
 31  13  17  1   
 32  13  43  1   
 33  14  18  1   
 34  14  19  ar  
 35  15  19  ar  
 36  15  44  1   
 37  16  20  1   
 38  16  45  1   
 39  16  46  1   
 40  17  21  1   
 41  17  47  1   
 42  17  48  1   
 43  18  22  1   
 44  19  23  1   
 45  20  24  1   
 46  20  49  1   
 47  20  50  1   
 48  21  24  1   
 49  21  51  1   
 50  21  52  1   
 51  22  53  1   
 52  22  54  1   
 53  22  55  1   
 54  23  25  1   
 55  24  26  1   
 56  24  56  1   
 57  25  57  1   
 58  25  58  1   
 59  25  59  1   
 60  26  27  1   
 61  26  28  1   
 62  26  60  1   
 63  27  61  1   
 64  27  62  1   
 65  27  63  1   
 66  28  64  1   
 67  28  65  1   
 68  28  66  1   
@<TRIPOS>SUBSTRUCTURE
  1 ****   8 GROUP 4 **** **** 0

# MOE 2024.06 (io_trps.svl 2023.06)
