@<TRIPOS>MOLECULE
NONAME
49 51 1 0 0 
SMALL
USER_CHARGES


@<TRIPOS>ATOM
  1 O        2.5670     0.4320     2.1210 O.2   1 <1>  -0.5700 
  2 C        3.0360    -0.4600     1.4340 C.2   1 <1>   0.7160 
  3 N        4.3920    -0.4570     1.1800 N.am  1 <1>  -0.6600 
  4 C        2.1760    -1.4970     0.9010 C.2   1 <1>  -0.0860 
  5 C        5.2730     0.6160     1.7210 C.3   1 <1>   0.1400 
  6 C        5.0250    -1.3480     0.1730 C.3   1 <1>   0.1400 
  7 C        2.0520    -2.8010     1.3190 C.2   1 <1>  -0.3320 
  8 C        1.2860    -1.3700    -0.1780 C.2   1 <1>  -0.1810 
  9 C        5.1510     1.9280     0.9240 C.3   1 <1>   0.1400 
 10 C        5.1330    -0.6650    -1.1960 C.3   1 <1>  -0.1600 
 11 N        1.1460    -3.4380     0.5580 N.pl3 1 <1>   0.0330 
 12 C        2.7800    -3.4810     2.4660 C.3   1 <1>  -0.0600 
 13 C        0.6500    -2.5720    -0.3820 C.2   1 <1>  -0.2370 
 14 C        1.0950    -0.0760    -0.9550 C.3   1 <1>  -0.0590 
 15 N        4.9910     1.7330    -0.5550 N.am  1 <1>  -0.6600 
 16 C        5.8520     0.6910    -1.1850 C.3   1 <1>   0.1400 
 17 C       -0.3540    -2.9580    -1.3370 C.2   1 <1>   0.5940 
 18 C        4.1130     2.4830    -1.3230 C.2   1 <1>   0.7150 
 19 O       -0.8330    -2.2180    -2.1570 O.2   1 <1>  -0.5700 
 20 C       -0.8630    -4.3840    -1.3340 C.3   1 <1>  -0.1790 
 21 O        4.0990     2.3030    -2.5290 O.2   1 <1>  -0.5700 
 22 C        3.2130     3.4590    -0.7450 C.2   1 <1>   0.0550 
 23 O        3.2800     4.7390    -1.1040 O.3   1 <1>  -0.2800 
 24 C        2.2140     3.3280     0.1750 C.2   1 <1>  -0.1500 
 25 C        2.3640     5.4150    -0.4480 C.2   1 <1>  -0.0100 
 26 C        1.6660     4.5970     0.3660 C.2   1 <1>  -0.1500 
 27 H        6.2950     0.2840     1.7080 H     1 <1>   0.0800 
 28 H        5.0140     0.8060     2.7490 H     1 <1>   0.0800 
 29 H        4.4570    -2.2560     0.0700 H     1 <1>   0.0800 
 30 H        6.0060    -1.6250     0.5180 H     1 <1>   0.0800 
 31 H        6.0250     2.5280     1.1040 H     1 <1>   0.0800 
 32 H        4.3150     2.4670     1.3250 H     1 <1>   0.0800 
 33 H        4.1530    -0.5490    -1.6230 H     1 <1>   0.0800 
 34 H        5.6770    -1.3250    -1.8470 H     1 <1>   0.0800 
 35 H        0.8580    -4.4160     0.6700 H     1 <1>   0.2700 
 36 H        3.4500    -2.7920     2.9500 H     1 <1>   0.0800 
 37 H        3.3530    -4.3150     2.1020 H     1 <1>   0.0800 
 38 H        2.0730    -3.8330     3.1960 H     1 <1>   0.0800 
 39 H        2.0270     0.4480    -1.0480 H     1 <1>   0.0800 
 40 H        0.3920     0.5530    -0.4410 H     1 <1>   0.0800 
 41 H        0.7260    -0.2690    -1.9450 H     1 <1>   0.0800 
 42 H        6.0750     0.9770    -2.2000 H     1 <1>   0.0800 
 43 H        6.7880     0.6180    -0.6610 H     1 <1>   0.0800 
 44 H       -0.0500    -5.0630    -1.5050 H     1 <1>   0.0800 
 45 H       -1.5880    -4.5120    -2.1170 H     1 <1>   0.0800 
 46 H       -1.3330    -4.6010    -0.3930 H     1 <1>   0.0800 
 47 H        1.8890     2.4310     0.6720 H     1 <1>   0.1500 
 48 H        2.2750     6.4740    -0.6190 H     1 <1>   0.1500 
 49 H        0.8550     4.8360     1.0310 H     1 <1>   0.1500 
@<TRIPOS>BOND
  1   1   2  2   
  2   2   3  am  
  3   2   4  1   
  4   3   5  1   
  5   3   6  1   
  6   4   7  2   
  7   4   8  1   
  8   5   9  1   
  9   5  27  1   
 10   5  28  1   
 11   6  10  1   
 12   6  29  1   
 13   6  30  1   
 14   7  11  1   
 15   7  12  1   
 16   8  13  2   
 17   8  14  1   
 18   9  15  1   
 19   9  31  1   
 20   9  32  1   
 21  10  16  1   
 22  10  33  1   
 23  10  34  1   
 24  11  13  1   
 25  11  35  1   
 26  12  36  1   
 27  12  37  1   
 28  12  38  1   
 29  13  17  1   
 30  14  39  1   
 31  14  40  1   
 32  14  41  1   
 33  15  16  1   
 34  15  18  am  
 35  16  42  1   
 36  16  43  1   
 37  17  19  2   
 38  17  20  1   
 39  18  21  2   
 40  18  22  1   
 41  20  44  1   
 42  20  45  1   
 43  20  46  1   
 44  22  23  1   
 45  22  24  2   
 46  23  25  1   
 47  24  26  1   
 48  24  47  1   
 49  25  26  2   
 50  25  48  1   
 51  26  49  1   
@<TRIPOS>SUBSTRUCTURE
  1 ****   2 GROUP 4 **** **** 0

# MOE 2024.06 (io_trps.svl 2023.06)
