@<TRIPOS>MOLECULE
NONAME
60 63 1 0 0 
SMALL
USER_CHARGES


@<TRIPOS>ATOM
  1 O       -2.2660    -0.3990     1.3640 O.2   1 <1>  -0.5700 
  2 C       -2.4520     0.2960     0.3830 C.2   1 <1>   0.7160 
  3 N       -3.2170    -0.2070    -0.6290 N.am  1 <1>  -0.5790 
  4 C       -1.8570     1.5860     0.2400 C.2   1 <1>  -0.0860 
  5 C       -4.0490    -1.4330    -0.5910 C.3   1 <1>   0.0540 
  6 C       -2.3370     2.6090    -0.5840 C.2   1 <1>   0.3720 
  7 C       -0.7150     2.1110     0.7580 C.2   1 <1>   0.0870 
  8 C       -5.1230    -1.4990    -1.6330 C.3   1 <1>  -0.2000 
  9 C       -5.4790    -1.2260    -0.2060 C.3   1 <1>  -0.2000 
 10 C       -3.3030    -2.7150    -0.1340 C.3   1 <1>   0.4380 
 11 N       -1.5590     3.6310    -0.5580 N.2   1 <1>  -0.4100 
 12 N       -3.5120     2.5300    -1.3440 N.pl3 1 <1>  -0.8210 
 13 O       -0.5890     3.3140     0.2580 O.3   1 <1>  -0.0190 
 14 C        0.2980     1.5810     1.6320 C.ar  1 <1>   0.0530 
 15 N       -1.9260    -2.7590    -0.7200 N.4   1 <1>  -0.9590 
 16 C       -3.4460     3.2580    -2.6550 C.3   1 <1>   0.2090 
 17 C       -4.7120     3.0100    -0.5880 C.3   1 <1>   0.2090 
 18 C       -0.0160     0.9800     2.8500 C.ar  1 <1>  -0.1500 
 19 C        1.6440     1.6530     1.2750 C.ar  1 <1>  -0.1500 
 20 C       -1.7390    -3.7750    -1.7890 C.3   1 <1>   0.3430 
 21 C       -0.9150    -2.9070     0.3610 C.3   1 <1>   0.3430 
 22 C       -4.7660     3.1080    -3.4330 C.3   1 <1>   0.1200 
 23 C       -5.9900     2.8690    -1.4360 C.3   1 <1>   0.1200 
 24 C        0.9680     0.4550     3.6670 C.ar  1 <1>  -0.1500 
 25 C        2.6330     1.1320     2.0880 C.ar  1 <1>  -0.1500 
 26 C       -2.5020    -3.3740    -3.0440 C.3   1 <1>  -0.2400 
 27 C        0.3920    -2.2620    -0.0820 C.3   1 <1>  -0.2400 
 28 O       -5.8530     3.5340    -2.6600 O.3   1 <1>  -0.5600 
 29 C        2.2960     0.5280     3.2860 C.ar  1 <1>  -0.1500 
 30 H       -3.5380     0.5270    -1.2830 H     1 <1>   0.3700 
 31 H       -5.4610    -2.4390    -2.0330 H     1 <1>   0.1000 
 32 H       -5.2240    -0.6970    -2.3450 H     1 <1>   0.1000 
 33 H       -5.8050    -0.2380     0.0720 H     1 <1>   0.1000 
 34 H       -6.0060    -1.9940     0.3350 H     1 <1>   0.1000 
 35 H       -3.8680    -3.5890    -0.4100 H     1 <1>   0.0800 
 36 H       -3.2380    -2.6890     0.9420 H     1 <1>   0.0800 
 37 H       -1.7960    -1.8200    -1.1200 H     1 <1>   0.4500 
 38 H       -2.6340     2.8670    -3.2440 H     1 <1>   0.0800 
 39 H       -3.2580     4.3060    -2.4870 H     1 <1>   0.0800 
 40 H       -4.5800     4.0450    -0.3160 H     1 <1>   0.0800 
 41 H       -4.8220     2.4410     0.3190 H     1 <1>   0.0800 
 42 H       -1.0430     0.9260     3.1640 H     1 <1>   0.1500 
 43 H        1.9160     2.1270     0.3470 H     1 <1>   0.1500 
 44 H       -2.0670    -4.7440    -1.4470 H     1 <1>   0.0800 
 45 H       -0.6920    -3.8460    -2.0360 H     1 <1>   0.0800 
 46 H       -0.7620    -3.9490     0.5940 H     1 <1>   0.0800 
 47 H       -1.2550    -2.4110     1.2570 H     1 <1>   0.0800 
 48 H       -4.9250     2.0830    -3.7160 H     1 <1>   0.0800 
 49 H       -4.7410     3.7130    -4.3230 H     1 <1>   0.0800 
 50 H       -6.8270     3.3050    -0.9200 H     1 <1>   0.0800 
 51 H       -6.2040     1.8340    -1.6300 H     1 <1>   0.0800 
 52 H        0.7030    -0.0050     4.6030 H     1 <1>   0.1500 
 53 H        3.6660     1.1990     1.7930 H     1 <1>   0.1500 
 54 H       -3.5600    -3.4800    -2.9020 H     1 <1>   0.0800 
 55 H       -2.2190    -4.0280    -3.8500 H     1 <1>   0.0800 
 56 H       -2.2660    -2.3660    -3.3350 H     1 <1>   0.0800 
 57 H        0.8080    -2.7570    -0.9410 H     1 <1>   0.0800 
 58 H        1.1060    -2.3330     0.7190 H     1 <1>   0.0800 
 59 H        0.2470    -1.2180    -0.2950 H     1 <1>   0.0800 
 60 H        3.0650     0.1240     3.9230 H     1 <1>   0.1500 
@<TRIPOS>BOND
  1   1   2  2   
  2   2   3  am  
  3   2   4  1   
  4   3   5  1   
  5   3  30  1   
  6   4   6  1   
  7   4   7  2   
  8   5   8  1   
  9   5   9  1   
 10   5  10  1   
 11   6  11  2   
 12   6  12  1   
 13   7  13  1   
 14   7  14  1   
 15   8   9  1   
 16   8  31  1   
 17   8  32  1   
 18   9  33  1   
 19   9  34  1   
 20  10  15  1   
 21  10  35  1   
 22  10  36  1   
 23  11  13  1   
 24  12  16  1   
 25  12  17  1   
 26  14  18  ar  
 27  14  19  ar  
 28  15  20  1   
 29  15  21  1   
 30  15  37  1   
 31  16  22  1   
 32  16  38  1   
 33  16  39  1   
 34  17  23  1   
 35  17  40  1   
 36  17  41  1   
 37  18  24  ar  
 38  18  42  1   
 39  19  25  ar  
 40  19  43  1   
 41  20  26  1   
 42  20  44  1   
 43  20  45  1   
 44  21  27  1   
 45  21  46  1   
 46  21  47  1   
 47  22  28  1   
 48  22  48  1   
 49  22  49  1   
 50  23  28  1   
 51  23  50  1   
 52  23  51  1   
 53  24  29  ar  
 54  24  52  1   
 55  25  29  ar  
 56  25  53  1   
 57  26  54  1   
 58  26  55  1   
 59  26  56  1   
 60  27  57  1   
 61  27  58  1   
 62  27  59  1   
 63  29  60  1   
@<TRIPOS>SUBSTRUCTURE
  1 ****   2 GROUP 4 **** **** 0

# MOE 2024.06 (io_trps.svl 2023.06)
