@<TRIPOS>MOLECULE
NONAME
42 43 1 0 0 
SMALL
USER_CHARGES


@<TRIPOS>ATOM
  1 S        0.2240    -0.2210    -0.2780 S.3   1 <1>  -0.4600 
  2 C        1.1480    -0.2100     1.2710 C.3   1 <1>   0.0700 
  3 C        0.3070     1.5000    -0.8140 C.3   1 <1>   0.0700 
  4 C        2.5490     0.3240     0.9680 C.3   1 <1>  -0.1600 
  5 C        1.7850     1.8750    -0.9290 C.3   1 <1>  -0.1600 
  6 C        2.5120     1.7600     0.4250 C.3   1 <1>   0.4230 
  7 N        3.9090     2.2860     0.3560 N.4   1 <1>  -0.9590 
  8 C        3.9240     3.7900     0.2580 C.3   1 <1>   0.3430 
  9 C        4.7430     1.6690    -0.7240 C.3   1 <1>   0.3430 
 10 C        5.3460     4.3770     0.3140 C.3   1 <1>   0.2000 
 11 C        6.1840     2.1730    -0.6180 C.3   1 <1>  -0.1600 
 12 O        5.2230     5.7260     0.0080 O.3   1 <1>  -0.5600 
 13 C        6.2690     3.7050    -0.7140 C.3   1 <1>  -0.1600 
 14 C        6.2810     6.5450     0.4020 C.3   1 <1>   0.1200 
 15 C        5.9120     7.9830     0.0470 C.3   1 <1>  -0.1600 
 16 C        7.0240     8.9590     0.4480 C.3   1 <1>  -0.2400 
 17 H        1.1770    -1.2260     1.6290 H     1 <1>   0.0800 
 18 H        0.6100     0.4090     1.9690 H     1 <1>   0.0800 
 19 H       -0.2180     2.0950    -0.0860 H     1 <1>   0.0800 
 20 H       -0.1960     1.5580    -1.7640 H     1 <1>   0.0800 
 21 H        3.0130    -0.3390     0.2590 H     1 <1>   0.0800 
 22 H        3.1140     0.2970     1.8820 H     1 <1>   0.0800 
 23 H        1.8320     2.8840    -1.2940 H     1 <1>   0.0800 
 24 H        2.2330     1.2260    -1.6600 H     1 <1>   0.0800 
 25 H        1.9660     2.3570     1.1390 H     1 <1>   0.0800 
 26 H        4.3580     2.0440     1.2470 H     1 <1>   0.4500 
 27 H        3.3460     4.2170     1.0600 H     1 <1>   0.0800 
 28 H        3.4830     4.0920    -0.6770 H     1 <1>   0.0800 
 29 H        4.3450     1.9340    -1.6910 H     1 <1>   0.0800 
 30 H        4.7320     0.5950    -0.6370 H     1 <1>   0.0800 
 31 H        5.7350     4.2810     1.3140 H     1 <1>   0.0800 
 32 H        6.7630     1.7390    -1.4160 H     1 <1>   0.0800 
 33 H        6.6160     1.8350     0.3090 H     1 <1>   0.0800 
 34 H        7.2880     4.0100    -0.5530 H     1 <1>   0.0800 
 35 H        5.9760     4.0120    -1.7040 H     1 <1>   0.0800 
 36 H        7.1740     6.2500    -0.1220 H     1 <1>   0.0800 
 37 H        6.4270     6.4470     1.4650 H     1 <1>   0.0800 
 38 H        5.0040     8.2540     0.5570 H     1 <1>   0.0800 
 39 H        5.7460     8.0550    -1.0140 H     1 <1>   0.0800 
 40 H        7.1980     8.9200     1.5090 H     1 <1>   0.0800 
 41 H        6.7410     9.9640     0.1870 H     1 <1>   0.0800 
 42 H        7.9400     8.7200    -0.0640 H     1 <1>   0.0800 
@<TRIPOS>BOND
  1   1   2  1   
  2   1   3  1   
  3   2   4  1   
  4   2  17  1   
  5   2  18  1   
  6   3   5  1   
  7   3  19  1   
  8   3  20  1   
  9   4   6  1   
 10   4  21  1   
 11   4  22  1   
 12   5   6  1   
 13   5  23  1   
 14   5  24  1   
 15   6   7  1   
 16   6  25  1   
 17   7   8  1   
 18   7   9  1   
 19   7  26  1   
 20   8  10  1   
 21   8  27  1   
 22   8  28  1   
 23   9  11  1   
 24   9  29  1   
 25   9  30  1   
 26  10  12  1   
 27  10  13  1   
 28  10  31  1   
 29  11  13  1   
 30  11  32  1   
 31  11  33  1   
 32  12  14  1   
 33  13  34  1   
 34  13  35  1   
 35  14  15  1   
 36  14  36  1   
 37  14  37  1   
 38  15  16  1   
 39  15  38  1   
 40  15  39  1   
 41  16  40  1   
 42  16  41  1   
 43  16  42  1   
@<TRIPOS>SUBSTRUCTURE
  1 ****   8 GROUP 4 **** **** 0

# MOE 2024.06 (io_trps.svl 2023.06)
