@<TRIPOS>MOLECULE
NONAME
51 53 1 0 0 
SMALL
USER_CHARGES


@<TRIPOS>ATOM
  1 S       -0.1070     0.3340     0.3250 S.3   1 <1>  -0.4600 
  2 C        0.3230     1.1590    -1.2310 C.3   1 <1>   0.2510 
  3 C       -1.4030    -0.8310    -0.1640 C.3   1 <1>   0.0700 
  4 C        1.3610     2.2250    -0.9340 C.2   1 <1>  -0.1810 
  5 C       -1.8420    -1.5930     1.0860 C.3   1 <1>  -0.1600 
  6 C        2.6560     2.3050    -1.3100 C.2   1 <1>  -0.0400 
  7 C        1.1240     3.3720    -0.1750 C.2   1 <1>  -0.1500 
  8 C       -2.9460    -2.6070     0.7590 C.3   1 <1>  -0.1600 
  9 O        3.1980     3.4040    -0.8400 O.3   1 <1>  -0.2800 
 10 C        3.5250     1.3810    -2.1360 C.3   1 <1>  -0.0600 
 11 C        2.2880     4.0770    -0.1390 C.2   1 <1>   0.0550 
 12 C       -3.3820    -3.3680     2.0130 C.3   1 <1>  -0.2400 
 13 C        2.5790     5.3420     0.5080 C.2   1 <1>   0.7150 
 14 O        1.6560     6.0250     0.9230 O.2   1 <1>  -0.5700 
 15 N        3.8600     5.8070     0.6990 N.am  1 <1>  -0.6600 
 16 C        4.1380     7.1700     1.2180 C.3   1 <1>   0.4010 
 17 C        5.0360     4.9300     0.8700 C.3   1 <1>   0.1400 
 18 C        3.9300     8.2500     0.1460 C.2   1 <1>   0.1080 
 19 C        5.5690     7.0900     1.7750 C.3   1 <1>  -0.1600 
 20 C        5.8470     5.6020     1.9680 C.3   1 <1>  -0.1600 
 21 N        4.8510     8.8120    -0.5650 N.2   1 <1>  -0.4100 
 22 C        2.6810     8.7700    -0.1930 C.2   1 <1>  -0.1500 
 23 O        4.2480     9.6630    -1.3430 O.3   1 <1>  -0.0190 
 24 C        2.9570     9.6650    -1.1510 C.2   1 <1>  -0.0400 
 25 C        2.0700    10.5830    -1.9630 C.3   1 <1>  -0.0600 
 26 H       -0.5760     1.5950    -1.6280 H     1 <1>   0.0800 
 27 H        0.7000     0.4080    -1.9000 H     1 <1>   0.0800 
 28 H       -0.9840    -1.4910    -0.9040 H     1 <1>   0.0800 
 29 H       -2.2120    -0.2590    -0.5840 H     1 <1>   0.0800 
 30 H       -2.2030    -0.8900     1.8170 H     1 <1>   0.0800 
 31 H       -0.9920    -2.1060     1.5020 H     1 <1>   0.0800 
 32 H        0.1920     3.6350     0.2920 H     1 <1>   0.1500 
 33 H       -2.5860    -3.3100     0.0270 H     1 <1>   0.0800 
 34 H       -3.7970    -2.0950     0.3420 H     1 <1>   0.0800 
 35 H        2.9730     0.5150    -2.4490 H     1 <1>   0.0800 
 36 H        4.3680     1.0620    -1.5500 H     1 <1>   0.0800 
 37 H        3.8830     1.9030    -3.0050 H     1 <1>   0.0800 
 38 H       -2.5510    -3.9050     2.4360 H     1 <1>   0.0800 
 39 H       -4.1560    -4.0740     1.7660 H     1 <1>   0.0800 
 40 H       -3.7660    -2.6860     2.7520 H     1 <1>   0.0800 
 41 H        3.4640     7.3650     2.0360 H     1 <1>   0.0800 
 42 H        5.5910     4.9050    -0.0530 H     1 <1>   0.0800 
 43 H        4.7510     3.9290     1.1500 H     1 <1>   0.0800 
 44 H        5.6640     7.6480     2.6890 H     1 <1>   0.0800 
 45 H        6.2720     7.4820     1.0630 H     1 <1>   0.0800 
 46 H        6.8940     5.3660     1.8930 H     1 <1>   0.0800 
 47 H        5.4790     5.2770     2.9260 H     1 <1>   0.0800 
 48 H        1.7360     8.4870     0.2330 H     1 <1>   0.1500 
 49 H        1.0420    10.4530    -1.6780 H     1 <1>   0.0800 
 50 H        2.1750    10.3570    -3.0090 H     1 <1>   0.0800 
 51 H        2.3550    11.6060    -1.7950 H     1 <1>   0.0800 
@<TRIPOS>BOND
  1   1   2  1   
  2   1   3  1   
  3   2   4  1   
  4   2  26  1   
  5   2  27  1   
  6   3   5  1   
  7   3  28  1   
  8   3  29  1   
  9   4   6  2   
 10   4   7  1   
 11   5   8  1   
 12   5  30  1   
 13   5  31  1   
 14   6   9  1   
 15   6  10  1   
 16   7  11  2   
 17   7  32  1   
 18   8  12  1   
 19   8  33  1   
 20   8  34  1   
 21   9  11  1   
 22  10  35  1   
 23  10  36  1   
 24  10  37  1   
 25  11  13  1   
 26  12  38  1   
 27  12  39  1   
 28  12  40  1   
 29  13  14  2   
 30  13  15  am  
 31  15  16  1   
 32  15  17  1   
 33  16  18  1   
 34  16  19  1   
 35  16  41  1   
 36  17  20  1   
 37  17  42  1   
 38  17  43  1   
 39  18  21  2   
 40  18  22  1   
 41  19  20  1   
 42  19  44  1   
 43  19  45  1   
 44  20  46  1   
 45  20  47  1   
 46  21  23  1   
 47  22  24  2   
 48  22  48  1   
 49  23  24  1   
 50  24  25  1   
 51  25  49  1   
 52  25  50  1   
 53  25  51  1   
@<TRIPOS>SUBSTRUCTURE
  1 ****  11 GROUP 4 **** **** 0

# MOE 2024.06 (io_trps.svl 2023.06)
