@<TRIPOS>MOLECULE
NONAME
45 45 1 0 0 
SMALL
USER_CHARGES


@<TRIPOS>ATOM
  1 O       -1.4400    -0.2100    -1.6950 O.2   1 <1>  -0.5700 
  2 C       -2.1400     0.6040    -1.1280 C.2   1 <1>   0.5690 
  3 N       -3.4640     0.3200    -0.8870 N.am  1 <1>  -0.6600 
  4 C       -1.5130     1.9500    -0.6770 C.3   1 <1>   0.2810 
  5 C       -4.0130    -1.0290    -1.2100 C.3   1 <1>   0.3200 
  6 C       -4.4230     1.2420    -0.2110 C.3   1 <1>   0.1400 
  7 N       -1.6720     2.9870    -1.7350 N.am  1 <1>  -0.7300 
  8 C       -0.0180     1.8760    -0.3010 C.3   1 <1>  -0.1600 
  9 C       -3.5900    -2.0250    -0.1440 C.2   1 <1>   0.0060 
 10 C       -4.5040     0.9300     1.2860 C.3   1 <1>   0.1200 
 11 C       -2.0970     4.2630    -1.6210 C.2   1 <1>   0.5690 
 12 C        0.2520     1.3880     1.1380 C.3   1 <1>  -0.0800 
 13 N       -4.3660    -2.5240     0.7650 N.2   1 <1>  -0.5650 
 14 N       -2.3160    -2.4640    -0.0680 N.pl3 1 <1>   0.0330 
 15 O       -5.0400     2.0300     1.9380 O.3   1 <1>  -0.6800 
 16 O       -2.2340     4.9400    -2.6050 O.2   1 <1>  -0.5700 
 17 C       -2.3990     4.8650    -0.2700 C.3   1 <1>  -0.1790 
 18 C        1.7540     1.4770     1.4320 C.3   1 <1>  -0.2400 
 19 C       -0.2240    -0.0480     1.3870 C.3   1 <1>  -0.2400 
 20 C       -3.5530    -3.3370     1.4680 C.2   1 <1>   0.0770 
 21 C       -2.2960    -3.3120     0.9760 C.2   1 <1>  -0.3020 
 22 H       -2.0350     2.2800     0.2010 H     1 <1>   0.0800 
 23 H       -5.0870    -0.9940    -1.2580 H     1 <1>   0.0800 
 24 H       -3.6490    -1.3510    -2.1700 H     1 <1>   0.0800 
 25 H       -4.1150     2.2610    -0.3560 H     1 <1>   0.0800 
 26 H       -5.4000     1.1370    -0.6500 H     1 <1>   0.0800 
 27 H       -1.4620     2.6710    -2.6850 H     1 <1>   0.3700 
 28 H        0.5070     1.2530    -1.0040 H     1 <1>   0.0800 
 29 H        0.3960     2.8660    -0.3830 H     1 <1>   0.0800 
 30 H       -3.5260     0.7460     1.6960 H     1 <1>   0.0800 
 31 H       -5.1400     0.0790     1.4630 H     1 <1>   0.0800 
 32 H       -0.2570     2.0400     1.8280 H     1 <1>   0.0800 
 33 H       -1.5470    -2.1540    -0.6790 H     1 <1>   0.2700 
 34 H       -5.2120     1.8190     2.8780 H     1 <1>   0.4000 
 35 H       -1.5690     4.7180     0.3930 H     1 <1>   0.0800 
 36 H       -3.2810     4.4160     0.1450 H     1 <1>   0.0800 
 37 H       -2.5700     5.9210    -0.3780 H     1 <1>   0.0800 
 38 H        2.3090     0.8340     0.7710 H     1 <1>   0.0800 
 39 H        1.9570     1.1810     2.4460 H     1 <1>   0.0800 
 40 H        2.1050     2.4860     1.3020 H     1 <1>   0.0800 
 41 H        0.1970    -0.7180     0.6580 H     1 <1>   0.0800 
 42 H       -1.2950    -0.1140     1.3460 H     1 <1>   0.0800 
 43 H        0.0800    -0.3780     2.3650 H     1 <1>   0.0800 
 44 H       -3.9220    -3.9070     2.3060 H     1 <1>   0.1500 
 45 H       -1.4140    -3.8340     1.3000 H     1 <1>   0.1500 
@<TRIPOS>BOND
  1   1   2  2   
  2   2   3  am  
  3   2   4  1   
  4   3   5  1   
  5   3   6  1   
  6   4   7  1   
  7   4   8  1   
  8   4  22  1   
  9   5   9  1   
 10   5  23  1   
 11   5  24  1   
 12   6  10  1   
 13   6  25  1   
 14   6  26  1   
 15   7  11  am  
 16   7  27  1   
 17   8  12  1   
 18   8  28  1   
 19   8  29  1   
 20   9  13  2   
 21   9  14  1   
 22  10  15  1   
 23  10  30  1   
 24  10  31  1   
 25  11  16  2   
 26  11  17  1   
 27  12  18  1   
 28  12  19  1   
 29  12  32  1   
 30  13  20  1   
 31  14  21  1   
 32  14  33  1   
 33  15  34  1   
 34  17  35  1   
 35  17  36  1   
 36  17  37  1   
 37  18  38  1   
 38  18  39  1   
 39  18  40  1   
 40  19  41  1   
 41  19  42  1   
 42  19  43  1   
 43  20  21  2   
 44  20  44  1   
 45  21  45  1   
@<TRIPOS>SUBSTRUCTURE
  1 ****   2 GROUP 4 **** **** 0

# MOE 2024.06 (io_trps.svl 2023.06)
