@<TRIPOS>MOLECULE
NONAME
49 52 1 0 0 
SMALL
USER_CHARGES


@<TRIPOS>ATOM
  1 O       -0.1780     0.1330     0.5830 O.2   1 <1>  -0.5700 
  2 C       -1.2050     0.7800     0.6560 C.2   1 <1>   0.5440 
  3 N       -2.4090     0.1150     0.6220 N.am  1 <1>  -0.6600 
  4 C       -1.1420     2.2210     0.7560 C.ar  1 <1>   0.0860 
  5 C       -3.7010     0.7270     0.2110 C.3   1 <1>   0.1400 
  6 C       -2.4890    -1.3660     0.5410 C.3   1 <1>   0.1400 
  7 C       -1.8870     2.9080     1.7070 C.ar  1 <1>   0.1600 
  8 C       -0.3440     2.9800    -0.0860 C.ar  1 <1>  -0.1500 
  9 C       -4.4930    -0.4220    -0.4080 C.3   1 <1>   0.2000 
 10 C       -3.9610    -1.6810     0.2700 C.3   1 <1>  -0.0800 
 11 N       -1.9280     4.2210     1.8590 N.ar  1 <1>  -0.6200 
 12 C       -0.3570     4.3520     0.0520 C.ar  1 <1>  -0.1430 
 13 O       -5.8530    -0.2880    -0.1800 O.3   1 <1>  -0.6800 
 14 C       -4.1730    -2.9550    -0.5610 C.3   1 <1>   0.0210 
 15 C       -1.1670     4.9220     1.0320 C.ar  1 <1>   0.1670 
 16 C        0.5080     5.1910    -0.8810 C.3   1 <1>  -0.0170 
 17 C       -3.5390    -4.1530     0.1170 C.2   1 <1>   0.1080 
 18 C       -1.2140     6.4300     1.2380 C.3   1 <1>  -0.0170 
 19 C        0.7240     6.6160    -0.3590 C.3   1 <1>  -0.1600 
 20 N       -3.9140    -4.5820     1.2820 N.2   1 <1>  -0.7070 
 21 C       -2.4960    -4.9070    -0.4100 C.2   1 <1>  -0.1500 
 22 C       -0.6090     7.2300     0.0760 C.3   1 <1>  -0.1600 
 23 N       -3.1140    -5.6360     1.5300 N.pl3 1 <1>   0.3000 
 24 C       -2.2440    -5.8510     0.5200 C.2   1 <1>  -0.3320 
 25 C       -1.2100    -6.9620     0.5070 C.3   1 <1>  -0.0600 
 26 H       -4.2050     1.1080     1.0820 H     1 <1>   0.0800 
 27 H       -3.5450     1.5140    -0.5060 H     1 <1>   0.0800 
 28 H       -1.8650    -1.7080    -0.2680 H     1 <1>   0.0800 
 29 H       -2.1540    -1.8180     1.4600 H     1 <1>   0.0800 
 30 H       -2.4880     2.3270     2.3850 H     1 <1>   0.1500 
 31 H        0.2650     2.4910    -0.8260 H     1 <1>   0.1500 
 32 H       -4.3260    -0.4450    -1.4720 H     1 <1>   0.0800 
 33 H       -4.4370    -1.8040     1.2270 H     1 <1>   0.0800 
 34 H       -6.0560    -0.4430     0.7630 H     1 <1>   0.4000 
 35 H       -3.7490    -2.8330    -1.5410 H     1 <1>   0.0800 
 36 H       -5.2270    -3.1400    -0.6720 H     1 <1>   0.0800 
 37 H        1.4640     4.7170    -1.0170 H     1 <1>   0.0800 
 38 H        0.0240     5.2370    -1.8410 H     1 <1>   0.0800 
 39 H       -2.2350     6.7350     1.3840 H     1 <1>   0.0800 
 40 H       -0.6760     6.6530     2.1420 H     1 <1>   0.0800 
 41 H        1.3990     6.5920     0.4790 H     1 <1>   0.0800 
 42 H        1.1720     7.2180    -1.1310 H     1 <1>   0.0800 
 43 H       -2.0120    -4.7490    -1.3570 H     1 <1>   0.1500 
 44 H       -1.2940     7.2230    -0.7540 H     1 <1>   0.0800 
 45 H       -0.4640     8.2520     0.3810 H     1 <1>   0.0800 
 46 H       -3.1860    -6.1850     2.3950 H     1 <1>   0.2700 
 47 H       -0.6390    -6.9240    -0.4030 H     1 <1>   0.0800 
 48 H       -1.6930    -7.9210     0.5690 H     1 <1>   0.0800 
 49 H       -0.5360    -6.8520     1.3380 H     1 <1>   0.0800 
@<TRIPOS>BOND
  1   1   2  2   
  2   2   3  am  
  3   2   4  1   
  4   3   5  1   
  5   3   6  1   
  6   4   7  ar  
  7   4   8  ar  
  8   5   9  1   
  9   5  26  1   
 10   5  27  1   
 11   6  10  1   
 12   6  28  1   
 13   6  29  1   
 14   7  11  ar  
 15   7  30  1   
 16   8  12  ar  
 17   8  31  1   
 18   9  10  1   
 19   9  13  1   
 20   9  32  1   
 21  10  14  1   
 22  10  33  1   
 23  11  15  ar  
 24  12  15  ar  
 25  12  16  1   
 26  13  34  1   
 27  14  17  1   
 28  14  35  1   
 29  14  36  1   
 30  15  18  1   
 31  16  19  1   
 32  16  37  1   
 33  16  38  1   
 34  17  20  2   
 35  17  21  1   
 36  18  22  1   
 37  18  39  1   
 38  18  40  1   
 39  19  22  1   
 40  19  41  1   
 41  19  42  1   
 42  20  23  1   
 43  21  24  2   
 44  21  43  1   
 45  22  44  1   
 46  22  45  1   
 47  23  24  1   
 48  23  46  1   
 49  24  25  1   
 50  25  47  1   
 51  25  48  1   
 52  25  49  1   
@<TRIPOS>SUBSTRUCTURE
  1 ****   3 GROUP 4 **** **** 0

# MOE 2024.06 (io_trps.svl 2023.06)
