@<TRIPOS>MOLECULE
NONAME
52 54 1 0 0 
SMALL
USER_CHARGES


@<TRIPOS>ATOM
  1 O       -0.7920     0.8450    -2.1230 O.co2 1 <1>  -0.9000 
  2 C       -1.1380     0.8780    -0.9380 C.2   1 <1>   0.9060 
  3 O       -1.7590    -0.0370    -0.3910 O.co2 1 <1>  -0.9000 
  4 C       -0.8290     2.1170    -0.1250 C.3   1 <1>  -0.1060 
  5 C       -2.1690     2.5770     0.4900 C.3   1 <1>   0.2000 
  6 C       -0.4060     3.1870    -1.1320 C.3   1 <1>   0.3430 
  7 C        0.2680     1.7620     0.9330 C.3   1 <1>  -0.0170 
  8 O       -2.4370     1.8090     1.6010 O.3   1 <1>  -0.6800 
  9 C       -2.2230     4.0630     0.8840 C.3   1 <1>  -0.1600 
 10 N       -0.2590     4.5570    -0.5360 N.4   1 <1>  -0.9590 
 11 C        1.7210     1.9990     0.5200 C.ar  1 <1>  -0.1440 
 12 C       -0.8570     4.7390     0.8190 C.3   1 <1>   0.3430 
 13 C        1.1530     5.0180    -0.5880 C.3   1 <1>   0.5230 
 14 C        2.2290     1.4850    -0.6640 C.ar  1 <1>  -0.1500 
 15 C        2.5680     2.7100     1.3600 C.ar  1 <1>  -0.1500 
 16 C        1.1710     6.5350    -0.7300 C.2   1 <1>   0.0060 
 17 C        3.5470     1.7090    -1.0210 C.ar  1 <1>  -0.1500 
 18 C        3.8900     2.9250     1.0110 C.ar  1 <1>  -0.1500 
 19 N        0.1140     7.2280    -0.9990 N.2   1 <1>  -0.3380 
 20 N        2.2530     7.3210    -0.6070 N.pl3 1 <1>   0.0480 
 21 C        4.3790     2.4310    -0.1850 C.ar  1 <1>  -0.1500 
 22 N        0.4800     8.5020    -1.0520 N.2   1 <1>  -0.3380 
 23 C        1.7450     8.5370    -0.8200 C.2   1 <1>   0.0360 
 24 C        3.6810     7.0380    -0.3030 C.3   1 <1>   0.1760 
 25 C        4.2730     6.0140    -1.2790 C.3   1 <1>  -0.2400 
 26 C        3.8400     6.5920     1.1540 C.3   1 <1>  -0.2400 
 27 H       -2.9680     2.3860    -0.2100 H     1 <1>   0.0800 
 28 H       -1.1630     3.2220    -1.8990 H     1 <1>   0.0800 
 29 H        0.5040     2.8820    -1.6200 H     1 <1>   0.0800 
 30 H        0.0820     2.3080     1.8390 H     1 <1>   0.0800 
 31 H        0.1690     0.7240     1.2050 H     1 <1>   0.0800 
 32 H       -2.4210     0.8640     1.2910 H     1 <1>   0.4000 
 33 H       -2.8820     4.5770     0.2080 H     1 <1>   0.0800 
 34 H       -2.6320     4.1740     1.8730 H     1 <1>   0.0800 
 35 H       -0.7450     5.2260    -1.1560 H     1 <1>   0.4500 
 36 H       -0.2140     4.3030     1.5640 H     1 <1>   0.0800 
 37 H       -0.9590     5.7910     1.0360 H     1 <1>   0.0800 
 38 H        1.6750     4.7160     0.3020 H     1 <1>   0.0800 
 39 H        1.6480     4.5820    -1.4400 H     1 <1>   0.0800 
 40 H        1.6070     0.8920    -1.3170 H     1 <1>   0.1500 
 41 H        2.2080     3.0840     2.3030 H     1 <1>   0.1500 
 42 H        3.9240     1.3040    -1.9450 H     1 <1>   0.1500 
 43 H        4.5440     3.4630     1.6750 H     1 <1>   0.1500 
 44 H        5.4080     2.5900    -0.4580 H     1 <1>   0.1500 
 45 H        2.3340     9.4380    -0.7960 H     1 <1>   0.1500 
 46 H        4.2250     7.9600    -0.4280 H     1 <1>   0.0800 
 47 H        3.8430     5.0400    -1.1470 H     1 <1>   0.0800 
 48 H        5.3330     5.9300    -1.1140 H     1 <1>   0.0800 
 49 H        4.1230     6.3370    -2.2950 H     1 <1>   0.0800 
 50 H        3.3080     5.6800     1.3480 H     1 <1>   0.0800 
 51 H        3.4780     7.3580     1.8180 H     1 <1>   0.0800 
 52 H        4.8810     6.4290     1.3750 H     1 <1>   0.0800 
@<TRIPOS>BOND
  1   1   2  ar  
  2   2   3  ar  
  3   2   4  1   
  4   4   5  1   
  5   4   6  1   
  6   4   7  1   
  7   5   8  1   
  8   5   9  1   
  9   5  27  1   
 10   6  10  1   
 11   6  28  1   
 12   6  29  1   
 13   7  11  1   
 14   7  30  1   
 15   7  31  1   
 16   8  32  1   
 17   9  12  1   
 18   9  33  1   
 19   9  34  1   
 20  10  12  1   
 21  10  13  1   
 22  10  35  1   
 23  11  14  ar  
 24  11  15  ar  
 25  12  36  1   
 26  12  37  1   
 27  13  16  1   
 28  13  38  1   
 29  13  39  1   
 30  14  17  ar  
 31  14  40  1   
 32  15  18  ar  
 33  15  41  1   
 34  16  19  2   
 35  16  20  1   
 36  17  21  ar  
 37  17  42  1   
 38  18  21  ar  
 39  18  43  1   
 40  19  22  1   
 41  20  23  1   
 42  20  24  1   
 43  21  44  1   
 44  22  23  2   
 45  23  45  1   
 46  24  25  1   
 47  24  26  1   
 48  24  46  1   
 49  25  47  1   
 50  25  48  1   
 51  25  49  1   
 52  26  50  1   
 53  26  51  1   
 54  26  52  1   
@<TRIPOS>SUBSTRUCTURE
  1 ****  13 GROUP 4 **** **** 0

# MOE 2024.06 (io_trps.svl 2023.06)
