@<TRIPOS>MOLECULE
NONAME
57 60 1 0 0 
SMALL
USER_CHARGES


@<TRIPOS>ATOM
  1 N        0.4040     0.1440    -0.3820 N.ar  1 <1>  -0.6200 
  2 C       -0.6150     0.9650    -0.6520 C.ar  1 <1>   0.7200 
  3 C        1.3740     0.6760     0.3160 C.ar  1 <1>   0.1660 
  4 N       -0.7100     2.2480    -0.2900 N.ar  1 <1>  -0.6200 
  5 N       -1.6590     0.4380    -1.3820 N.pl3 1 <1>  -0.8380 
  6 C        1.3750     1.9740     0.7270 C.ar  1 <1>  -0.1430 
  7 C        2.6420    -0.0470     0.7190 C.3   1 <1>   0.1430 
  8 C        0.2890     2.7440     0.4000 C.ar  1 <1>   0.1600 
  9 C       -1.9680    -1.0180    -1.3940 C.3   1 <1>   0.1290 
 10 C       -2.6760     1.3100    -2.0330 C.3   1 <1>   0.1290 
 11 C        2.6330     2.3260     1.4780 C.3   1 <1>  -0.0160 
 12 C        3.4450    -0.1960    -0.5930 C.3   1 <1>   0.3430 
 13 C        2.3550    -1.4140     1.3880 C.3   1 <1>  -0.1600 
 14 C        3.2840     0.9520     1.7200 C.3   1 <1>  -0.1600 
 15 N        4.3140    -1.4290    -0.6500 N.4   1 <1>  -0.9590 
 16 C        2.2660    -2.5440     0.3470 C.3   1 <1>  -0.1600 
 17 C        3.5230    -2.6940    -0.5260 C.3   1 <1>   0.3430 
 18 C        5.4500    -1.3720     0.3210 C.3   1 <1>   0.5240 
 19 C        6.5230    -0.4140    -0.1830 C.2   1 <1>   0.0460 
 20 N        6.2740     0.9060    -0.2960 N.2   1 <1>  -0.5650 
 21 C        7.7900    -0.6970    -0.5690 C.2   1 <1>  -0.3320 
 22 C        7.3830     1.4030    -0.7370 C.2   1 <1>   0.0060 
 23 N        8.3460     0.4770    -0.9240 N.pl3 1 <1>   0.0330 
 24 C        8.5640    -2.0050    -0.6320 C.3   1 <1>  -0.0600 
 25 C        7.6010     2.8790    -1.0210 C.3   1 <1>   0.0200 
 26 C        8.5550     3.5080     0.0000 C.3   1 <1>  -0.2400 
 27 H        0.2380     3.7760     0.7030 H     1 <1>   0.1500 
 28 H       -1.4770    -1.5190    -0.5770 H     1 <1>   0.0800 
 29 H       -1.6340    -1.4490    -2.3210 H     1 <1>   0.0800 
 30 H       -3.0280    -1.1700    -1.2930 H     1 <1>   0.0800 
 31 H       -2.2320     2.2430    -2.3360 H     1 <1>   0.0800 
 32 H       -3.4730     1.5130    -1.3390 H     1 <1>   0.0800 
 33 H       -3.0760     0.8260    -2.9060 H     1 <1>   0.0800 
 34 H        2.4160     2.8320     2.4030 H     1 <1>   0.0800 
 35 H        3.2640     2.9450     0.8620 H     1 <1>   0.0800 
 36 H        4.0290     0.6940    -0.7560 H     1 <1>   0.0800 
 37 H        2.7340    -0.2540    -1.4010 H     1 <1>   0.0800 
 38 H        1.4340    -1.3570     1.9430 H     1 <1>   0.0800 
 39 H        3.1360    -1.6540     2.0880 H     1 <1>   0.0800 
 40 H        4.3540     1.0120     1.6300 H     1 <1>   0.0800 
 41 H        3.0470     0.6550     2.7270 H     1 <1>   0.0800 
 42 H        4.7750    -1.4050    -1.5690 H     1 <1>   0.4500 
 43 H        1.4250    -2.3600    -0.2990 H     1 <1>   0.0800 
 44 H        2.0690    -3.4800     0.8420 H     1 <1>   0.0800 
 45 H        4.1510    -3.4680    -0.1130 H     1 <1>   0.0800 
 46 H        3.2130    -3.0200    -1.5060 H     1 <1>   0.0800 
 47 H        5.8900    -2.3480     0.4250 H     1 <1>   0.0800 
 48 H        5.1070    -1.0500     1.2880 H     1 <1>   0.0800 
 49 H        9.2990     0.6490    -1.2580 H     1 <1>   0.2700 
 50 H        7.9590    -2.8310    -0.3070 H     1 <1>   0.0800 
 51 H        9.4320    -1.9510     0.0020 H     1 <1>   0.0800 
 52 H        8.8880    -2.1950    -1.6410 H     1 <1>   0.0800 
 53 H        6.6530     3.3870    -0.9780 H     1 <1>   0.0800 
 54 H        7.9940     3.0000    -2.0150 H     1 <1>   0.0800 
 55 H        8.1610     3.3860     0.9930 H     1 <1>   0.0800 
 56 H        8.6680     4.5590    -0.1990 H     1 <1>   0.0800 
 57 H        9.5230     3.0430    -0.0480 H     1 <1>   0.0800 
@<TRIPOS>BOND
  1   1   2  ar  
  2   1   3  ar  
  3   2   4  ar  
  4   2   5  1   
  5   3   6  ar  
  6   3   7  1   
  7   4   8  ar  
  8   5   9  1   
  9   5  10  1   
 10   6   8  ar  
 11   6  11  1   
 12   7  12  1   
 13   7  13  1   
 14   7  14  1   
 15   8  27  1   
 16   9  28  1   
 17   9  29  1   
 18   9  30  1   
 19  10  31  1   
 20  10  32  1   
 21  10  33  1   
 22  11  14  1   
 23  11  34  1   
 24  11  35  1   
 25  12  15  1   
 26  12  36  1   
 27  12  37  1   
 28  13  16  1   
 29  13  38  1   
 30  13  39  1   
 31  14  40  1   
 32  14  41  1   
 33  15  17  1   
 34  15  18  1   
 35  15  42  1   
 36  16  17  1   
 37  16  43  1   
 38  16  44  1   
 39  17  45  1   
 40  17  46  1   
 41  18  19  1   
 42  18  47  1   
 43  18  48  1   
 44  19  20  1   
 45  19  21  2   
 46  20  22  2   
 47  21  23  1   
 48  21  24  1   
 49  22  23  1   
 50  22  25  1   
 51  23  49  1   
 52  24  50  1   
 53  24  51  1   
 54  24  52  1   
 55  25  26  1   
 56  25  53  1   
 57  25  54  1   
 58  26  55  1   
 59  26  56  1   
 60  26  57  1   
@<TRIPOS>SUBSTRUCTURE
  1 ****  12 GROUP 4 **** **** 0

# MOE 2024.06 (io_trps.svl 2023.06)
