@<TRIPOS>MOLECULE
NONAME
46 49 1 0 0 
SMALL
USER_CHARGES


@<TRIPOS>ATOM
  1 N       -0.4710     0.7560    -0.9230 N.ar  1 <1>  -0.6200 
  2 C       -0.3990     1.9270    -0.3020 C.ar  1 <1>   0.4100 
  3 C        0.6190     0.4680    -1.6080 C.ar  1 <1>   0.1660 
  4 N       -1.5350     2.2950     0.4030 N.pl3 1 <1>  -0.8380 
  5 C        0.7420     2.7580    -0.3740 C.ar  1 <1>   0.1660 
  6 C        1.7310     1.2990    -1.6750 C.ar  1 <1>   0.1600 
  7 C        0.5980    -0.8550    -2.3440 C.3   1 <1>  -0.0960 
  8 C       -2.5850     2.9770    -0.4240 C.3   1 <1>   0.2090 
  9 C       -2.0300     1.3400     1.4420 C.3   1 <1>   0.2090 
 10 N        1.8290     2.4680    -1.0630 N.ar  1 <1>  -0.6200 
 11 C        0.7770     4.0870     0.3620 C.3   1 <1>  -0.0970 
 12 C       -3.8850     3.2180     0.3660 C.3   1 <1>   0.1430 
 13 C       -3.4060     0.7760     1.0680 C.3   1 <1>  -0.1600 
 14 C       -4.8410     3.9960    -0.5240 C.ar  1 <1>   0.1670 
 15 C       -4.4770     1.8640     0.8410 C.3   1 <1>  -0.1600 
 16 C       -3.6520     4.2120     1.5430 C.3   1 <1>  -0.1600 
 17 N       -5.4830     3.5110    -1.5650 N.ar  1 <1>  -0.6200 
 18 C       -4.9490     5.2980    -0.1370 C.ar  1 <1>  -0.1430 
 19 C       -4.0890     5.6050     1.0610 C.3   1 <1>  -0.0160 
 20 C       -6.2530     4.3860    -2.1950 C.ar  1 <1>   0.4770 
 21 C       -5.7760     6.1190    -0.8620 C.ar  1 <1>   0.1600 
 22 N       -6.4420     5.6670    -1.9040 N.ar  1 <1>  -0.6200 
 23 C       -7.0090     3.8550    -3.3890 C.3   1 <1>  -0.0970 
 24 H        2.5790     0.9890    -2.2590 H     1 <1>   0.1500 
 25 H       -0.2230    -0.8660    -3.0370 H     1 <1>   0.0800 
 26 H        0.4640    -1.6550    -1.6390 H     1 <1>   0.0800 
 27 H        1.5120    -1.0150    -2.8850 H     1 <1>   0.0800 
 28 H       -2.8050     2.3650    -1.2830 H     1 <1>   0.0800 
 29 H       -2.1980     3.9150    -0.7800 H     1 <1>   0.0800 
 30 H       -2.0940     1.8530     2.3850 H     1 <1>   0.0800 
 31 H       -1.3300     0.5290     1.5570 H     1 <1>   0.0800 
 32 H        0.2100     4.0350     1.2720 H     1 <1>   0.0800 
 33 H        0.3670     4.8540    -0.2680 H     1 <1>   0.0800 
 34 H        1.7910     4.3450     0.6090 H     1 <1>   0.0800 
 35 H       -3.7360     0.0950     1.8310 H     1 <1>   0.0800 
 36 H       -3.2830     0.2060     0.1630 H     1 <1>   0.0800 
 37 H       -5.1570     1.4900     0.0960 H     1 <1>   0.0800 
 38 H       -5.0540     2.0020     1.7360 H     1 <1>   0.0800 
 39 H       -2.6290     4.2230     1.8760 H     1 <1>   0.0800 
 40 H       -4.2700     3.9450     2.3810 H     1 <1>   0.0800 
 41 H       -3.2360     6.1860     0.7550 H     1 <1>   0.0800 
 42 H       -4.6390     6.1330     1.8210 H     1 <1>   0.0800 
 43 H       -5.8940     7.1540    -0.5920 H     1 <1>   0.1500 
 44 H       -6.3940     3.1620    -3.9320 H     1 <1>   0.0800 
 45 H       -7.2880     4.6610    -4.0420 H     1 <1>   0.0800 
 46 H       -7.8950     3.3520    -3.0500 H     1 <1>   0.0800 
@<TRIPOS>BOND
  1   1   2  ar  
  2   1   3  ar  
  3   2   4  1   
  4   2   5  ar  
  5   3   6  ar  
  6   3   7  1   
  7   4   8  1   
  8   4   9  1   
  9   5  10  ar  
 10   5  11  1   
 11   6  10  ar  
 12   6  24  1   
 13   7  25  1   
 14   7  26  1   
 15   7  27  1   
 16   8  12  1   
 17   8  28  1   
 18   8  29  1   
 19   9  13  1   
 20   9  30  1   
 21   9  31  1   
 22  11  32  1   
 23  11  33  1   
 24  11  34  1   
 25  12  14  1   
 26  12  15  1   
 27  12  16  1   
 28  13  15  1   
 29  13  35  1   
 30  13  36  1   
 31  14  17  ar  
 32  14  18  ar  
 33  15  37  1   
 34  15  38  1   
 35  16  19  1   
 36  16  39  1   
 37  16  40  1   
 38  17  20  ar  
 39  18  19  1   
 40  18  21  ar  
 41  19  41  1   
 42  19  42  1   
 43  20  22  ar  
 44  20  23  1   
 45  21  22  ar  
 46  21  43  1   
 47  23  44  1   
 48  23  45  1   
 49  23  46  1   
@<TRIPOS>SUBSTRUCTURE
  1 ****   8 GROUP 4 **** **** 0

# MOE 2024.06 (io_trps.svl 2023.06)
