@<TRIPOS>MOLECULE
NONAME
56 60 1 0 0 
SMALL
USER_CHARGES


@<TRIPOS>ATOM
  1 S       -0.4440    -0.3340    -0.6600 S.3   1 <1>  -0.0800 
  2 C       -2.1620    -0.4770    -1.0470 C.2   1 <1>  -0.0450 
  3 C       -0.6890     1.1430     0.2510 C.2   1 <1>  -0.1400 
  4 C       -2.5980    -1.5990    -1.8430 C.2   1 <1>   0.7150 
  5 C       -2.8160     0.5760    -0.4900 C.2   1 <1>  -0.1500 
  6 C       -1.9920     1.4800     0.2410 C.2   1 <1>  -0.1500 
  7 C        0.5350     1.7880     0.8810 C.3   1 <1>   0.3800 
  8 O       -1.8900    -2.0080    -2.7470 O.2   1 <1>  -0.5700 
  9 N       -3.8100    -2.2230    -1.6160 N.am  1 <1>  -0.6600 
 10 O        0.1430     2.8920     1.6460 O.3   1 <1>  -0.5600 
 11 C        1.5320     2.3110    -0.1520 C.3   1 <1>  -0.1600 
 12 C       -4.5090    -2.2180    -0.3010 C.3   1 <1>   0.1400 
 13 C       -4.3940    -3.1820    -2.5970 C.3   1 <1>   0.1400 
 14 C        0.7110     4.0720     1.1770 C.3   1 <1>   0.1200 
 15 C        1.9530     3.6530     0.4110 C.3   1 <1>  -0.1600 
 16 C       -4.4550    -3.6220     0.3070 C.3   1 <1>  -0.1600 
 17 C       -4.3400    -4.5990    -2.0210 C.3   1 <1>  -0.1600 
 18 C       -5.0250    -4.6920    -0.6460 C.3   1 <1>   0.4240 
 19 O       -6.3630    -4.3250    -0.9110 O.3   1 <1>  -0.5600 
 20 C       -4.9300    -6.1300    -0.0580 C.ar  1 <1>  -0.1430 
 21 C       -7.3400    -4.7270    -0.0080 C.3   1 <1>   0.1200 
 22 C       -3.7000    -6.7350     0.2360 C.ar  1 <1>   0.0830 
 23 C       -6.0940    -6.8570     0.1930 C.ar  1 <1>  -0.1430 
 24 C       -7.4510    -6.2420    -0.0780 C.3   1 <1>  -0.0170 
 25 O       -2.5540    -6.0370     0.0220 O.3   1 <1>  -0.3620 
 26 C       -3.6590    -8.0310     0.7470 C.ar  1 <1>  -0.1500 
 27 C       -6.0410    -8.1450     0.6980 C.ar  1 <1>  -0.1500 
 28 C       -1.2750    -6.6290     0.0780 C.3   1 <1>   0.0400 
 29 C       -4.8240    -8.7340     0.9730 C.ar  1 <1>  -0.1500 
 30 H       -3.8740     0.7500    -0.5780 H     1 <1>   0.1500 
 31 H       -2.4030     2.3460     0.7310 H     1 <1>   0.1500 
 32 H        1.0150     1.0960     1.5520 H     1 <1>   0.0800 
 33 H        1.0340     2.4450    -1.0970 H     1 <1>   0.0800 
 34 H        2.3570     1.6350    -0.2840 H     1 <1>   0.0800 
 35 H       -5.5330    -1.9170    -0.4470 H     1 <1>   0.0800 
 36 H       -4.0480    -1.5290     0.3820 H     1 <1>   0.0800 
 37 H       -3.8570    -3.1480    -3.5290 H     1 <1>   0.0800 
 38 H       -5.4150    -2.9040    -2.7950 H     1 <1>   0.0800 
 39 H        0.9330     4.7160     2.0110 H     1 <1>   0.0800 
 40 H       -0.0050     4.5430     0.5240 H     1 <1>   0.0800 
 41 H        2.2180     4.3620    -0.3520 H     1 <1>   0.0800 
 42 H        2.7730     3.5370     1.0980 H     1 <1>   0.0800 
 43 H       -4.9850    -3.6420     1.2390 H     1 <1>   0.0800 
 44 H       -3.4290    -3.8350     0.5310 H     1 <1>   0.0800 
 45 H       -3.3080    -4.8800    -1.9570 H     1 <1>   0.0800 
 46 H       -4.8150    -5.2850    -2.6960 H     1 <1>   0.0800 
 47 H       -8.2680    -4.2660    -0.2970 H     1 <1>   0.0800 
 48 H       -7.0720    -4.4000     0.9810 H     1 <1>   0.0800 
 49 H       -7.7960    -6.5340    -1.0530 H     1 <1>   0.0800 
 50 H       -8.1660    -6.5770     0.6520 H     1 <1>   0.0800 
 51 H       -2.7290    -8.5120     0.9790 H     1 <1>   0.1500 
 52 H       -6.9470    -8.6960     0.8790 H     1 <1>   0.1500 
 53 H       -0.5550    -5.8910    -0.2270 H     1 <1>   0.0800 
 54 H       -1.2480    -7.4660    -0.5970 H     1 <1>   0.0800 
 55 H       -1.0770    -6.9370     1.0890 H     1 <1>   0.0800 
 56 H       -4.7860    -9.7360     1.3650 H     1 <1>   0.1500 
@<TRIPOS>BOND
  1   1   2  1   
  2   1   3  1   
  3   2   4  1   
  4   2   5  2   
  5   3   6  2   
  6   3   7  1   
  7   4   8  2   
  8   4   9  am  
  9   5   6  1   
 10   5  30  1   
 11   6  31  1   
 12   7  10  1   
 13   7  11  1   
 14   7  32  1   
 15   9  12  1   
 16   9  13  1   
 17  10  14  1   
 18  11  15  1   
 19  11  33  1   
 20  11  34  1   
 21  12  16  1   
 22  12  35  1   
 23  12  36  1   
 24  13  17  1   
 25  13  37  1   
 26  13  38  1   
 27  14  15  1   
 28  14  39  1   
 29  14  40  1   
 30  15  41  1   
 31  15  42  1   
 32  16  18  1   
 33  16  43  1   
 34  16  44  1   
 35  17  18  1   
 36  17  45  1   
 37  17  46  1   
 38  18  19  1   
 39  18  20  1   
 40  19  21  1   
 41  20  22  ar  
 42  20  23  ar  
 43  21  24  1   
 44  21  47  1   
 45  21  48  1   
 46  22  25  1   
 47  22  26  ar  
 48  23  24  1   
 49  23  27  ar  
 50  24  49  1   
 51  24  50  1   
 52  25  28  1   
 53  26  29  ar  
 54  26  51  1   
 55  27  29  ar  
 56  27  52  1   
 57  28  53  1   
 58  28  54  1   
 59  28  55  1   
 60  29  56  1   
@<TRIPOS>SUBSTRUCTURE
  1 ****  12 GROUP 4 **** **** 0

# MOE 2024.06 (io_trps.svl 2023.06)
