@<TRIPOS>MOLECULE
NONAME
47 48 1 0 0 
SMALL
USER_CHARGES


@<TRIPOS>ATOM
  1 S        0.2460     0.1960    -0.7140 S.o2  1 <1>   1.3330 
  2 O        0.2120    -1.2400    -0.5610 O.2   1 <1>  -0.6500 
  3 O       -0.0040     0.7790    -2.0130 O.2   1 <1>  -0.6500 
  4 N       -0.8680     0.8590     0.3820 N.am  1 <1>  -0.8490 
  5 C        1.8100     0.8560    -0.1410 C.3   1 <1>  -0.0550 
  6 C       -2.2110     0.9650    -0.1970 C.3   1 <1>   0.1160 
  7 C       -0.9340     0.1250     1.6510 C.3   1 <1>   0.1160 
  8 C        3.0210     0.4010    -0.9920 C.3   1 <1>  -0.0800 
  9 C        4.3150     1.1540    -0.6940 C.3   1 <1>   0.2200 
 10 C        3.4400    -1.0100    -0.5860 C.3   1 <1>   0.1200 
 11 N        4.1120     2.6030    -0.4350 N.am  1 <1>  -0.7300 
 12 C        4.8900     0.3850     0.5020 C.3   1 <1>   0.1200 
 13 O        4.2000    -0.8320     0.5640 O.3   1 <1>  -0.5600 
 14 C        5.1030     3.4700    -0.0650 C.2   1 <1>   0.5440 
 15 O        6.2190     3.0250     0.1190 O.2   1 <1>  -0.5700 
 16 C        4.8280     4.8900     0.0750 C.ar  1 <1>   0.0860 
 17 C        5.8320     5.8380    -0.1180 C.ar  1 <1>  -0.1500 
 18 C        3.5600     5.3670     0.4030 C.ar  1 <1>  -0.1500 
 19 C        5.5950     7.1990    -0.0080 C.ar  1 <1>  -0.1440 
 20 C        3.3080     6.7210     0.5150 C.ar  1 <1>  -0.1500 
 21 C        4.3180     7.6470     0.3090 C.ar  1 <1>  -0.1440 
 22 C        6.7440     8.1700    -0.2360 C.3   1 <1>  -0.0970 
 23 C        4.0030     9.1300     0.4410 C.3   1 <1>  -0.0970 
 24 H        1.7250     1.9230    -0.1710 H     1 <1>   0.0800 
 25 H        1.9710     0.5770     0.8830 H     1 <1>   0.0800 
 26 H       -2.8910     1.4000     0.5150 H     1 <1>   0.0800 
 27 H       -2.5730    -0.0090    -0.4850 H     1 <1>   0.0800 
 28 H       -2.1880     1.5960    -1.0690 H     1 <1>   0.0800 
 29 H       -1.5910     0.6320     2.3380 H     1 <1>   0.0800 
 30 H        0.0430     0.0650     2.1000 H     1 <1>   0.0800 
 31 H       -1.3010    -0.8760     1.4910 H     1 <1>   0.0800 
 32 H        2.7850     0.4460    -2.0410 H     1 <1>   0.0800 
 33 H        4.9970     1.0440    -1.5210 H     1 <1>   0.0800 
 34 H        4.0730    -1.4570    -1.3350 H     1 <1>   0.0800 
 35 H        2.6210    -1.6720    -0.3680 H     1 <1>   0.0800 
 36 H        3.2730     3.0050    -0.8510 H     1 <1>   0.3700 
 37 H        4.7260     0.9080     1.4270 H     1 <1>   0.0800 
 38 H        5.9390     0.1850     0.3690 H     1 <1>   0.0800 
 39 H        6.8200     5.4860    -0.3600 H     1 <1>   0.1500 
 40 H        2.7580     4.6740     0.5820 H     1 <1>   0.1500 
 41 H        2.3160     7.0530     0.7670 H     1 <1>   0.1500 
 42 H        7.6550     7.6460    -0.4610 H     1 <1>   0.0800 
 43 H        6.9070     8.7630     0.6460 H     1 <1>   0.0800 
 44 H        6.5180     8.8220    -1.0600 H     1 <1>   0.0800 
 45 H        2.9670     9.2860     0.6800 H     1 <1>   0.0800 
 46 H        4.2160     9.6360    -0.4840 H     1 <1>   0.0800 
 47 H        4.5990     9.5650     1.2240 H     1 <1>   0.0800 
@<TRIPOS>BOND
  1   1   2  2   
  2   1   3  2   
  3   1   4  am  
  4   1   5  1   
  5   4   6  1   
  6   4   7  1   
  7   5   8  1   
  8   5  24  1   
  9   5  25  1   
 10   6  26  1   
 11   6  27  1   
 12   6  28  1   
 13   7  29  1   
 14   7  30  1   
 15   7  31  1   
 16   8   9  1   
 17   8  10  1   
 18   8  32  1   
 19   9  11  1   
 20   9  12  1   
 21   9  33  1   
 22  10  13  1   
 23  10  34  1   
 24  10  35  1   
 25  11  14  am  
 26  11  36  1   
 27  12  13  1   
 28  12  37  1   
 29  12  38  1   
 30  14  15  2   
 31  14  16  1   
 32  16  17  ar  
 33  16  18  ar  
 34  17  19  ar  
 35  17  39  1   
 36  18  20  ar  
 37  18  40  1   
 38  19  21  ar  
 39  19  22  1   
 40  20  21  ar  
 41  20  41  1   
 42  21  23  1   
 43  22  42  1   
 44  22  43  1   
 45  22  44  1   
 46  23  45  1   
 47  23  46  1   
 48  23  47  1   
@<TRIPOS>SUBSTRUCTURE
  1 ****  11 GROUP 4 **** **** 0

# MOE 2024.06 (io_trps.svl 2023.06)
