@<TRIPOS>MOLECULE
NONAME
47 49 1 0 0 
SMALL
USER_CHARGES


@<TRIPOS>ATOM
  1 S       -0.1280     0.5950     0.8010 S.o2  1 <1>   1.3330 
  2 O       -1.4830     0.2830     0.4190 O.2   1 <1>  -0.6500 
  3 O        0.1370     1.2500     2.0590 O.2   1 <1>  -0.6500 
  4 N        0.4440     1.5470    -0.4490 N.am  1 <1>  -0.9140 
  5 C        0.8580    -0.8810     0.6650 C.3   1 <1>  -0.1350 
  6 C        1.3200     2.6510    -0.0870 C.3   1 <1>   0.2760 
  7 C        1.4040     3.5780    -1.3040 C.3   1 <1>  -0.1600 
  8 C        2.7120     2.1350     0.3020 C.3   1 <1>  -0.1600 
  9 C        2.4080     4.7020    -1.0580 C.3   1 <1>   0.2090 
 10 C        3.6820     3.3000     0.4980 C.3   1 <1>   0.2090 
 11 N        3.7250     4.0930    -0.7510 N.pl3 1 <1>  -0.8210 
 12 C        4.7970     4.9890    -0.7940 C.2   1 <1>   0.3720 
 13 N        5.8190     4.7980    -1.5520 N.2   1 <1>  -0.4100 
 14 C        4.9310     6.1670    -0.0610 C.2   1 <1>  -0.2330 
 15 O        6.6090     5.8190    -1.3420 O.3   1 <1>  -0.0190 
 16 C        6.1260     6.6680    -0.4640 C.2   1 <1>   0.0870 
 17 C        3.9890     6.6550     0.8870 C.2   1 <1>   1.0330 
 18 C        6.8680     7.8560    -0.1130 C.ar  1 <1>   0.0530 
 19 O        3.1610     7.5220     0.5560 O.co2 1 <1>  -0.9000 
 20 O        3.9670     6.2160     2.0490 O.co2 1 <1>  -0.9000 
 21 C        8.2520     7.9140    -0.2980 C.ar  1 <1>  -0.1500 
 22 C        6.2410     8.9860     0.4170 C.ar  1 <1>  -0.1500 
 23 C        9.0020     9.0330     0.0250 C.ar  1 <1>   0.0820 
 24 C        6.9580    10.1190     0.7520 C.ar  1 <1>  -0.1500 
 25 O       10.3420     8.9300    -0.2140 O.3   1 <1>  -0.3620 
 26 C        8.3250    10.1370     0.5560 C.ar  1 <1>   0.1900 
 27 C       11.2620     9.9490     0.1110 C.3   1 <1>   0.0400 
 28 F        8.9470    11.2400     0.8890 F     1 <1>  -0.1900 
 29 H       -0.4060     1.9550    -0.8310 H     1 <1>   0.4200 
 30 H        0.5410    -1.6020     1.3930 H     1 <1>   0.0800 
 31 H        1.8920    -0.6560     0.8300 H     1 <1>   0.0800 
 32 H        0.7480    -1.3060    -0.3130 H     1 <1>   0.0800 
 33 H        0.9010     3.2080     0.7370 H     1 <1>   0.0800 
 34 H        0.4430     4.0130    -1.5010 H     1 <1>   0.0800 
 35 H        1.7220     3.0250    -2.1700 H     1 <1>   0.0800 
 36 H        3.0990     1.4950    -0.4700 H     1 <1>   0.0800 
 37 H        2.6630     1.5880     1.2240 H     1 <1>   0.0800 
 38 H        2.0750     5.3120    -0.2350 H     1 <1>   0.0800 
 39 H        2.4950     5.3260    -1.9310 H     1 <1>   0.0800 
 40 H        4.6680     2.9290     0.7230 H     1 <1>   0.0800 
 41 H        3.3580     3.9180     1.3190 H     1 <1>   0.0800 
 42 H        8.7620     7.0590    -0.7030 H     1 <1>   0.1500 
 43 H        5.1740     8.9850     0.5660 H     1 <1>   0.1500 
 44 H        6.4580    10.9790     1.1610 H     1 <1>   0.1500 
 45 H       12.2470     9.6050    -0.1480 H     1 <1>   0.0800 
 46 H       11.2090    10.1430     1.1680 H     1 <1>   0.0800 
 47 H       11.0220    10.8300    -0.4570 H     1 <1>   0.0800 
@<TRIPOS>BOND
  1   1   2  2   
  2   1   3  2   
  3   1   4  am  
  4   1   5  1   
  5   4   6  1   
  6   4  29  1   
  7   5  30  1   
  8   5  31  1   
  9   5  32  1   
 10   6   7  1   
 11   6   8  1   
 12   6  33  1   
 13   7   9  1   
 14   7  34  1   
 15   7  35  1   
 16   8  10  1   
 17   8  36  1   
 18   8  37  1   
 19   9  11  1   
 20   9  38  1   
 21   9  39  1   
 22  10  11  1   
 23  10  40  1   
 24  10  41  1   
 25  11  12  1   
 26  12  13  2   
 27  12  14  1   
 28  13  15  1   
 29  14  16  2   
 30  14  17  1   
 31  15  16  1   
 32  16  18  1   
 33  17  19  ar  
 34  17  20  ar  
 35  18  21  ar  
 36  18  22  ar  
 37  21  23  ar  
 38  21  42  1   
 39  22  24  ar  
 40  22  43  1   
 41  23  25  1   
 42  23  26  ar  
 43  24  26  ar  
 44  24  44  1   
 45  25  27  1   
 46  26  28  1   
 47  27  45  1   
 48  27  46  1   
 49  27  47  1   
@<TRIPOS>SUBSTRUCTURE
  1 ****  14 GROUP 4 **** **** 0

# MOE 2024.06 (io_trps.svl 2023.06)
