@<TRIPOS>MOLECULE
NONAME
46 47 1 0 0 
SMALL
USER_CHARGES


@<TRIPOS>ATOM
  1 O       -1.8310     1.3870     2.4310 O.2   1 <1>  -0.5700 
  2 C       -2.2230     1.4590     1.2810 C.2   1 <1>   0.5440 
  3 N       -3.1760     0.5740     0.8290 N.am  1 <1>  -0.6600 
  4 C       -1.6750     2.4750     0.4100 C.ar  1 <1>   0.0860 
  5 C       -3.6230     0.5450    -0.6070 C.3   1 <1>   0.1400 
  6 C       -3.7970    -0.4440     1.7390 C.3   1 <1>   0.1400 
  7 C       -0.4210     2.3370    -0.1920 C.ar  1 <1>   0.1660 
  8 C       -2.3900     3.6320     0.1380 C.ar  1 <1>  -0.1500 
  9 C       -4.2640    -0.8040    -0.9540 C.3   1 <1>   0.2000 
 10 C       -5.2740    -0.6220     1.3780 C.3   1 <1>  -0.1600 
 11 N        0.1300     3.2260    -1.0040 N.ar  1 <1>  -0.6200 
 12 C        0.4080     1.0910     0.0690 C.3   1 <1>  -0.0970 
 13 C       -1.8240     4.5640    -0.7030 C.ar  1 <1>  -0.1500 
 14 O       -4.6000    -0.8660    -2.2950 O.3   1 <1>  -0.6800 
 15 C       -5.4840    -1.1780    -0.0700 C.3   1 <1>  -0.1060 
 16 C       -0.5730     4.3180    -1.2450 C.ar  1 <1>   0.1670 
 17 C       -5.4760    -2.7180    -0.1090 C.2   1 <1>   0.9060 
 18 C       -6.8740    -0.6860    -0.5940 C.3   1 <1>  -0.1600 
 19 C        0.0710     5.3260    -2.1710 C.3   1 <1>  -0.0960 
 20 O       -5.3030    -3.3760     0.9230 O.co2 1 <1>  -0.9000 
 21 O       -5.5940    -3.2680    -1.2150 O.co2 1 <1>  -0.9000 
 22 C       -7.0180     0.8140    -0.9190 C.3   1 <1>  -0.1600 
 23 C       -8.4570     1.1460    -1.3240 C.3   1 <1>  -0.2400 
 24 H       -4.3310     1.3350    -0.7670 H     1 <1>   0.0800 
 25 H       -2.7770     0.6970    -1.2530 H     1 <1>   0.0800 
 26 H       -3.2800    -1.3850     1.6380 H     1 <1>   0.0800 
 27 H       -3.7160    -0.1250     2.7640 H     1 <1>   0.0800 
 28 H       -3.3590     3.7870     0.5800 H     1 <1>   0.1500 
 29 H       -3.4960    -1.5490    -0.8130 H     1 <1>   0.0800 
 30 H       -5.7360    -1.2770     2.0940 H     1 <1>   0.0800 
 31 H       -5.7430     0.3340     1.5030 H     1 <1>   0.0800 
 32 H       -0.1600     0.2100    -0.1650 H     1 <1>   0.0800 
 33 H        0.6970     1.0580     1.1040 H     1 <1>   0.0800 
 34 H        1.2970     1.0950    -0.5360 H     1 <1>   0.0800 
 35 H       -2.3480     5.4730    -0.9340 H     1 <1>   0.1500 
 36 H       -5.0350    -1.7530    -2.4060 H     1 <1>   0.4000 
 37 H       -7.1170    -1.2350    -1.4880 H     1 <1>   0.0800 
 38 H       -7.6160    -0.9610     0.1370 H     1 <1>   0.0800 
 39 H       -0.5600     6.1830    -2.3160 H     1 <1>   0.0800 
 40 H        0.2600     4.8670    -3.1240 H     1 <1>   0.0800 
 41 H        1.0070     5.6490    -1.7530 H     1 <1>   0.0800 
 42 H       -6.7480     1.4210    -0.0750 H     1 <1>   0.0800 
 43 H       -6.3670     1.0660    -1.7380 H     1 <1>   0.0800 
 44 H       -9.1340     0.9220    -0.5180 H     1 <1>   0.0800 
 45 H       -8.7430     0.5700    -2.1860 H     1 <1>   0.0800 
 46 H       -8.5400     2.1900    -1.5650 H     1 <1>   0.0800 
@<TRIPOS>BOND
  1   1   2  2   
  2   2   3  am  
  3   2   4  1   
  4   3   5  1   
  5   3   6  1   
  6   4   7  ar  
  7   4   8  ar  
  8   5   9  1   
  9   5  24  1   
 10   5  25  1   
 11   6  10  1   
 12   6  26  1   
 13   6  27  1   
 14   7  11  ar  
 15   7  12  1   
 16   8  13  ar  
 17   8  28  1   
 18   9  14  1   
 19   9  15  1   
 20   9  29  1   
 21  10  15  1   
 22  10  30  1   
 23  10  31  1   
 24  11  16  ar  
 25  12  32  1   
 26  12  33  1   
 27  12  34  1   
 28  13  16  ar  
 29  13  35  1   
 30  14  36  1   
 31  15  17  1   
 32  15  18  1   
 33  16  19  1   
 34  17  20  ar  
 35  17  21  ar  
 36  18  22  1   
 37  18  37  1   
 38  18  38  1   
 39  19  39  1   
 40  19  40  1   
 41  19  41  1   
 42  22  23  1   
 43  22  42  1   
 44  22  43  1   
 45  23  44  1   
 46  23  45  1   
 47  23  46  1   
@<TRIPOS>SUBSTRUCTURE
  1 ****   5 GROUP 4 **** **** 0

# MOE 2024.06 (io_trps.svl 2023.06)
