@<TRIPOS>MOLECULE
NONAME
51 53 1 0 0 
SMALL
USER_CHARGES


@<TRIPOS>ATOM
  1 O        1.7680     0.3790     1.5990 O.2   1 <1>  -0.5700 
  2 C        2.1990    -0.3520     0.7280 C.2   1 <1>   0.5440 
  3 N        2.9410     0.1990    -0.2990 N.am  1 <1>  -0.6600 
  4 C        1.9230    -1.7750     0.8020 C.ar  1 <1>   0.0860 
  5 C        3.0420     1.6830    -0.4840 C.3   1 <1>   0.1400 
  6 C        3.8270    -0.5950    -1.1970 C.3   1 <1>   0.1400 
  7 C        1.3190    -2.4580    -0.2540 C.ar  1 <1>  -0.1500 
  8 C        2.2490    -2.5080     1.9420 C.ar  1 <1>  -0.1500 
  9 C        4.4940     2.1700    -0.3440 C.3   1 <1>   0.2890 
 10 C        5.2800    -0.1350    -1.0330 C.3   1 <1>  -0.1600 
 11 C        1.0680    -3.8160    -0.1840 C.ar  1 <1>  -0.1500 
 12 C        2.0010    -3.8670     2.0200 C.ar  1 <1>  -0.1500 
 13 N        4.5910     3.6050    -0.7090 N.pl3 1 <1>  -0.8690 
 14 C        5.4310     1.3780    -1.2620 C.3   1 <1>  -0.1600 
 15 C        1.4120    -4.5240     0.9540 C.ar  1 <1>  -0.1500 
 16 C        5.3880     4.5120    -0.0560 C.ar  1 <1>   0.4100 
 17 N        6.3510     4.0380     0.7070 N.ar  1 <1>  -0.6200 
 18 C        5.1880     5.8790    -0.1970 C.ar  1 <1>  -0.1430 
 19 C        7.0960     4.9310     1.3230 C.ar  1 <1>   0.4770 
 20 C        6.0340     6.7030     0.5000 C.ar  1 <1>   0.1600 
 21 C        4.0900     6.4660    -1.0780 C.3   1 <1>  -0.0170 
 22 N        7.0000     6.2460     1.2700 N.ar  1 <1>  -0.6200 
 23 C        8.1990     4.3840     2.1960 C.3   1 <1>  -0.0970 
 24 C        2.7380     6.4450    -0.3530 C.3   1 <1>  -0.1600 
 25 C        1.6180     7.0000    -1.2380 C.3   1 <1>  -0.2400 
 26 H        2.4320     2.1980     0.2370 H     1 <1>   0.0800 
 27 H        2.6800     1.9250    -1.4670 H     1 <1>   0.0800 
 28 H        3.5110    -0.4530    -2.2160 H     1 <1>   0.0800 
 29 H        3.7670    -1.6450    -0.9700 H     1 <1>   0.0800 
 30 H        1.0420    -1.9080    -1.1370 H     1 <1>   0.1500 
 31 H        2.7000    -1.9950     2.7740 H     1 <1>   0.1500 
 32 H        4.7940     2.0360     0.6830 H     1 <1>   0.0800 
 33 H        5.9020    -0.6670    -1.7290 H     1 <1>   0.0800 
 34 H        5.6130    -0.3840    -0.0400 H     1 <1>   0.0800 
 35 H        0.6020    -4.3240    -1.0110 H     1 <1>   0.1500 
 36 H        2.2630    -4.4120     2.9100 H     1 <1>   0.1500 
 37 H        3.7790     3.9800    -1.1960 H     1 <1>   0.4000 
 38 H        6.4470     1.6730    -1.0630 H     1 <1>   0.0800 
 39 H        5.2040     1.6080    -2.2870 H     1 <1>   0.0800 
 40 H        1.2170    -5.5810     1.0130 H     1 <1>   0.1500 
 41 H        5.9250     7.7720     0.4330 H     1 <1>   0.1500 
 42 H        4.0290     5.9100    -1.9980 H     1 <1>   0.0800 
 43 H        4.3390     7.4800    -1.3370 H     1 <1>   0.0800 
 44 H        7.9430     3.4020     2.5460 H     1 <1>   0.0800 
 45 H        8.3510     5.0270     3.0430 H     1 <1>   0.0800 
 46 H        9.1060     4.3310     1.6250 H     1 <1>   0.0800 
 47 H        2.8090     7.0360     0.5450 H     1 <1>   0.0800 
 48 H        2.4950     5.4380    -0.0610 H     1 <1>   0.0800 
 49 H        1.8240     8.0190    -1.5150 H     1 <1>   0.0800 
 50 H        0.6840     6.9760    -0.7040 H     1 <1>   0.0800 
 51 H        1.5130     6.4110    -2.1320 H     1 <1>   0.0800 
@<TRIPOS>BOND
  1   1   2  2   
  2   2   3  am  
  3   2   4  1   
  4   3   5  1   
  5   3   6  1   
  6   4   7  ar  
  7   4   8  ar  
  8   5   9  1   
  9   5  26  1   
 10   5  27  1   
 11   6  10  1   
 12   6  28  1   
 13   6  29  1   
 14   7  11  ar  
 15   7  30  1   
 16   8  12  ar  
 17   8  31  1   
 18   9  13  1   
 19   9  14  1   
 20   9  32  1   
 21  10  14  1   
 22  10  33  1   
 23  10  34  1   
 24  11  15  ar  
 25  11  35  1   
 26  12  15  ar  
 27  12  36  1   
 28  13  16  1   
 29  13  37  1   
 30  14  38  1   
 31  14  39  1   
 32  15  40  1   
 33  16  17  ar  
 34  16  18  ar  
 35  17  19  ar  
 36  18  20  ar  
 37  18  21  1   
 38  19  22  ar  
 39  19  23  1   
 40  20  22  ar  
 41  20  41  1   
 42  21  24  1   
 43  21  42  1   
 44  21  43  1   
 45  23  44  1   
 46  23  45  1   
 47  23  46  1   
 48  24  25  1   
 49  24  47  1   
 50  24  48  1   
 51  25  49  1   
 52  25  50  1   
 53  25  51  1   
@<TRIPOS>SUBSTRUCTURE
  1 ****   9 GROUP 4 **** **** 0

# MOE 2024.06 (io_trps.svl 2023.06)
