@<TRIPOS>MOLECULE
NONAME
42 43 1 0 0 
SMALL
USER_CHARGES


@<TRIPOS>ATOM
  1 S       -0.0960    -0.2440     0.7630 S.3   1 <1>  -0.0800 
  2 C       -1.4230    -0.8890    -0.1520 C.2   1 <1>   0.4420 
  3 C       -0.4930     1.3060     0.1070 C.2   1 <1>   0.1980 
  4 N       -2.0200     0.0210    -0.8350 N.2   1 <1>  -0.3380 
  5 N       -1.6480    -2.2450    -0.0400 N.am  1 <1>  -0.4940 
  6 N       -1.4860     1.2680    -0.6820 N.2   1 <1>  -0.3380 
  7 C        0.3340     2.5050     0.5120 C.3   1 <1>   0.0200 
  8 C       -2.6770    -3.0090    -0.5360 C.2   1 <1>   0.5440 
  9 C       -0.2510     3.7560    -0.1550 C.3   1 <1>   0.3430 
 10 O       -3.6420    -2.4780    -1.0400 O.2   1 <1>  -0.5700 
 11 C       -2.6090    -4.4520    -0.4090 C.ar  1 <1>   0.0860 
 12 N        0.4600     5.0200     0.2350 N.4   1 <1>  -0.9590 
 13 C       -3.7580    -5.2020    -0.1620 C.ar  1 <1>  -0.1500 
 14 C       -1.4060    -5.1490    -0.5180 C.ar  1 <1>  -0.1500 
 15 C       -0.3320     6.2010    -0.2300 C.3   1 <1>   0.2630 
 16 C        1.8520     5.0900    -0.3160 C.3   1 <1>   0.2630 
 17 C       -3.7230    -6.5780    -0.0090 C.ar  1 <1>  -0.1430 
 18 C       -1.3560    -6.5220    -0.3660 C.ar  1 <1>  -0.1500 
 19 C       -2.5080    -7.2460    -0.1080 C.ar  1 <1>  -0.1430 
 20 C       -5.0220    -7.3240     0.2620 C.3   1 <1>  -0.0970 
 21 C       -2.4150    -8.7570     0.0540 C.3   1 <1>  -0.0970 
 22 H       -0.9790    -2.7520     0.5300 H     1 <1>   0.3700 
 23 H        1.3470     2.3420     0.1960 H     1 <1>   0.0800 
 24 H        0.2980     2.6030     1.5820 H     1 <1>   0.0800 
 25 H       -1.2900     3.8290     0.1270 H     1 <1>   0.0800 
 26 H       -0.2180     3.6330    -1.2260 H     1 <1>   0.0800 
 27 H        0.5080     5.0650     1.2660 H     1 <1>   0.4500 
 28 H       -4.6970    -4.6780    -0.0920 H     1 <1>   0.1500 
 29 H       -0.4960    -4.6200    -0.7360 H     1 <1>   0.1500 
 30 H       -0.4160     6.1970    -1.3050 H     1 <1>   0.0800 
 31 H        0.1460     7.1190     0.0740 H     1 <1>   0.0800 
 32 H       -1.3250     6.1770     0.1910 H     1 <1>   0.0800 
 33 H        1.8330     5.0320    -1.3920 H     1 <1>   0.0800 
 34 H        2.4520     4.2790     0.0640 H     1 <1>   0.0800 
 35 H        2.3200     6.0190    -0.0310 H     1 <1>   0.0800 
 36 H       -0.4110    -7.0280    -0.4550 H     1 <1>   0.1500 
 37 H       -5.8570    -6.6480     0.2970 H     1 <1>   0.0800 
 38 H       -4.9640    -7.8370     1.2050 H     1 <1>   0.0800 
 39 H       -5.2040    -8.0420    -0.5170 H     1 <1>   0.0800 
 40 H       -3.0070    -9.2460    -0.6990 H     1 <1>   0.0800 
 41 H       -2.7740    -9.0480     1.0250 H     1 <1>   0.0800 
 42 H       -1.3990    -9.0960    -0.0440 H     1 <1>   0.0800 
@<TRIPOS>BOND
  1   1   2  1   
  2   1   3  1   
  3   2   4  2   
  4   2   5  1   
  5   3   6  2   
  6   3   7  1   
  7   4   6  1   
  8   5   8  am  
  9   5  22  1   
 10   7   9  1   
 11   7  23  1   
 12   7  24  1   
 13   8  10  2   
 14   8  11  1   
 15   9  12  1   
 16   9  25  1   
 17   9  26  1   
 18  11  13  ar  
 19  11  14  ar  
 20  12  15  1   
 21  12  16  1   
 22  12  27  1   
 23  13  17  ar  
 24  13  28  1   
 25  14  18  ar  
 26  14  29  1   
 27  15  30  1   
 28  15  31  1   
 29  15  32  1   
 30  16  33  1   
 31  16  34  1   
 32  16  35  1   
 33  17  19  ar  
 34  17  20  1   
 35  18  19  ar  
 36  18  36  1   
 37  19  21  1   
 38  20  37  1   
 39  20  38  1   
 40  20  39  1   
 41  21  40  1   
 42  21  41  1   
 43  21  42  1   
@<TRIPOS>SUBSTRUCTURE
  1 ****   5 GROUP 4 **** **** 0

# MOE 2024.06 (io_trps.svl 2023.06)
