@<TRIPOS>MOLECULE
NONAME
43 45 1 0 0 
SMALL
USER_CHARGES


@<TRIPOS>ATOM
  1 F        1.5120     0.3970     1.0170 F     1 <1>  -0.1900 
  2 C        2.1150    -0.4820     0.2610 C.ar  1 <1>   0.1900 
  3 C        3.5020    -0.4300     0.1760 C.ar  1 <1>   0.0860 
  4 C        1.3410    -1.4150    -0.4180 C.ar  1 <1>  -0.1440 
  5 C        4.0870    -1.3760    -0.6590 C.ar  1 <1>   0.1900 
  6 C        4.2840     0.5370     0.8980 C.2   1 <1>   0.5440 
  7 C        1.9790    -2.3440    -1.2290 C.ar  1 <1>  -0.1500 
  8 C       -0.1760    -1.4300    -0.2810 C.3   1 <1>  -0.0970 
  9 F        5.3820    -1.3600    -0.8190 F     1 <1>  -0.1900 
 10 C        3.3590    -2.3250    -1.3530 C.ar  1 <1>  -0.1500 
 11 O        4.9640     0.2020     1.8480 O.2   1 <1>  -0.5700 
 12 N        4.3660     1.8510     0.5030 N.am  1 <1>  -0.6600 
 13 C        4.6770     2.9020     1.5440 C.3   1 <1>   0.2200 
 14 C        4.5670     2.1830    -0.9360 C.3   1 <1>   0.1400 
 15 C        4.1880     4.3060     1.1550 C.3   1 <1>   0.1200 
 16 C        6.1900     2.9270     1.8720 C.3   1 <1>   0.3430 
 17 C        5.6870     3.2140    -1.1820 C.3   1 <1>  -0.0800 
 18 O        5.1580     4.9710     0.3980 O.3   1 <1>  -0.5600 
 19 N        7.0040     2.2250     0.8220 N.4   1 <1>  -0.9590 
 20 C        5.1980     4.6540    -0.9520 C.3   1 <1>   0.1200 
 21 C        7.0500     2.9330    -0.5010 C.3   1 <1>   0.3430 
 22 C        8.3600     1.8820     1.3310 C.3   1 <1>   0.2630 
 23 H        1.4080    -3.0830    -1.7670 H     1 <1>   0.1500 
 24 H       -0.6090    -2.2340    -0.8490 H     1 <1>   0.0800 
 25 H       -0.5870    -0.5020    -0.6350 H     1 <1>   0.0800 
 26 H       -0.4500    -1.5570     0.7510 H     1 <1>   0.0800 
 27 H        3.8640    -3.0390    -1.9820 H     1 <1>   0.1500 
 28 H        4.1480     2.6330     2.4430 H     1 <1>   0.0800 
 29 H        4.8130     1.2840    -1.4750 H     1 <1>   0.0800 
 30 H        3.6380     2.5510    -1.3400 H     1 <1>   0.0800 
 31 H        4.0490     4.8890     2.0490 H     1 <1>   0.0800 
 32 H        3.2510     4.2760     0.6250 H     1 <1>   0.0800 
 33 H        6.3230     2.4220     2.8140 H     1 <1>   0.0800 
 34 H        6.5250     3.9440     1.9950 H     1 <1>   0.0800 
 35 H        5.8800     3.1740    -2.2390 H     1 <1>   0.0800 
 36 H        6.4710     1.3430     0.6920 H     1 <1>   0.4500 
 37 H        4.2220     4.8170    -1.3780 H     1 <1>   0.0800 
 38 H        5.8800     5.3490    -1.4120 H     1 <1>   0.0800 
 39 H        7.5710     3.8690    -0.3830 H     1 <1>   0.0800 
 40 H        7.6320     2.3280    -1.1780 H     1 <1>   0.0800 
 41 H        8.9220     2.7790     1.5330 H     1 <1>   0.0800 
 42 H        8.8940     1.2930     0.6030 H     1 <1>   0.0800 
 43 H        8.2810     1.3090     2.2410 H     1 <1>   0.0800 
@<TRIPOS>BOND
  1   1   2  1   
  2   2   3  ar  
  3   2   4  ar  
  4   3   5  ar  
  5   3   6  1   
  6   4   7  ar  
  7   4   8  1   
  8   5   9  1   
  9   5  10  ar  
 10   6  11  2   
 11   6  12  am  
 12   7  10  ar  
 13   7  23  1   
 14   8  24  1   
 15   8  25  1   
 16   8  26  1   
 17  10  27  1   
 18  12  13  1   
 19  12  14  1   
 20  13  15  1   
 21  13  16  1   
 22  13  28  1   
 23  14  17  1   
 24  14  29  1   
 25  14  30  1   
 26  15  18  1   
 27  15  31  1   
 28  15  32  1   
 29  16  19  1   
 30  16  33  1   
 31  16  34  1   
 32  17  20  1   
 33  17  21  1   
 34  17  35  1   
 35  18  20  1   
 36  19  21  1   
 37  19  22  1   
 38  19  36  1   
 39  20  37  1   
 40  20  38  1   
 41  21  39  1   
 42  21  40  1   
 43  22  41  1   
 44  22  42  1   
 45  22  43  1   
@<TRIPOS>SUBSTRUCTURE
  1 ****  12 GROUP 4 **** **** 0

# MOE 2024.06 (io_trps.svl 2023.06)
