@<TRIPOS>MOLECULE
NONAME
59 61 1 0 0 
SMALL
USER_CHARGES


@<TRIPOS>ATOM
  1 O        0.1510    -1.3840    -1.3630 O.3   1 <1>  -0.3630 
  2 C       -0.1930    -2.4940    -0.6580 C.ar  1 <1>   0.0820 
  3 C        1.3390    -1.2990    -2.1150 C.3   1 <1>   0.1200 
  4 C       -1.3300    -2.4390     0.1470 C.ar  1 <1>  -0.1440 
  5 C        0.5510    -3.6690    -0.7190 C.ar  1 <1>  -0.1500 
  6 C        1.4230     0.1050    -2.7040 C.3   1 <1>  -0.2400 
  7 C       -1.6910    -3.5670     0.8670 C.ar  1 <1>  -0.1500 
  8 C       -2.1810    -1.1660     0.2570 C.3   1 <1>   0.0630 
  9 C        0.1840    -4.7920     0.0040 C.ar  1 <1>  -0.1430 
 10 C       -0.9560    -4.7410     0.7980 C.ar  1 <1>  -0.1430 
 11 C       -2.1880    -0.6320     1.6940 C.3   1 <1>  -0.2400 
 12 C       -3.6120    -1.4150    -0.2360 C.3   1 <1>  -0.2400 
 13 C        1.0580    -6.0350    -0.1160 C.3   1 <1>  -0.0970 
 14 C       -1.4500    -5.9370     1.5910 C.3   1 <1>   0.4860 
 15 N       -2.0640    -6.9050     0.6470 N.4   1 <1>  -0.9590 
 16 C       -3.1450    -6.3330    -0.2250 C.3   1 <1>   0.3430 
 17 C       -2.6090    -8.1370     1.2570 C.3   1 <1>   0.3430 
 18 C       -4.2230    -7.4270    -0.3320 C.3   1 <1>   0.2000 
 19 C       -3.5340    -8.6960     0.1740 C.3   1 <1>  -0.0800 
 20 O       -5.2880    -7.1290     0.5100 O.3   1 <1>  -0.6800 
 21 C       -2.7820    -9.3910    -0.9940 C.3   1 <1>  -0.0170 
 22 C       -1.4760   -10.0600    -0.5910 C.ar  1 <1>   0.1670 
 23 N       -0.4310    -9.2560    -0.4370 N.ar  1 <1>  -0.6200 
 24 C       -1.4240   -11.4420    -0.4130 C.ar  1 <1>   0.1600 
 25 C        0.6650    -9.9330    -0.1190 C.ar  1 <1>   0.1600 
 26 N       -0.3360   -12.1060    -0.0700 N.ar  1 <1>  -0.6200 
 27 C        0.7100   -11.3100     0.0600 C.ar  1 <1>   0.1600 
 28 H        2.1720    -1.4880    -1.4600 H     1 <1>   0.0800 
 29 H        1.3010    -2.0370    -2.8980 H     1 <1>   0.0800 
 30 H        1.4280    -3.7210    -1.3340 H     1 <1>   0.1500 
 31 H        1.4430     0.8350    -1.9140 H     1 <1>   0.0800 
 32 H        0.5770     0.2900    -3.3420 H     1 <1>   0.0800 
 33 H        2.3210     0.2040    -3.2860 H     1 <1>   0.0800 
 34 H       -2.5650    -3.5190     1.4920 H     1 <1>   0.1500 
 35 H       -1.7670    -0.3900    -0.3630 H     1 <1>   0.0800 
 36 H       -2.6600    -1.3250     2.3660 H     1 <1>   0.0800 
 37 H       -2.7160     0.3030     1.7380 H     1 <1>   0.0800 
 38 H       -1.1770    -0.4670     2.0230 H     1 <1>   0.0800 
 39 H       -4.1220    -2.1240     0.3890 H     1 <1>   0.0800 
 40 H       -3.5870    -1.7920    -1.2430 H     1 <1>   0.0800 
 41 H       -4.1670    -0.4940    -0.2330 H     1 <1>   0.0800 
 42 H        2.0670    -5.7580    -0.3690 H     1 <1>   0.0800 
 43 H        0.6850    -6.6750    -0.8960 H     1 <1>   0.0800 
 44 H        1.0990    -6.5820     0.8070 H     1 <1>   0.0800 
 45 H       -2.1760    -5.6140     2.3180 H     1 <1>   0.0800 
 46 H       -0.6250    -6.3940     2.1120 H     1 <1>   0.0800 
 47 H       -1.3030    -7.2240     0.0210 H     1 <1>   0.4500 
 48 H       -3.5680    -5.4360     0.1970 H     1 <1>   0.0800 
 49 H       -2.7400    -6.1060    -1.1970 H     1 <1>   0.0800 
 50 H       -1.8280    -8.8300     1.5290 H     1 <1>   0.0800 
 51 H       -3.1850    -7.8920     2.1350 H     1 <1>   0.0800 
 52 H       -4.6160    -7.5180    -1.3320 H     1 <1>   0.0800 
 53 H       -4.2360    -9.3930     0.6000 H     1 <1>   0.0800 
 54 H       -5.0340    -7.0340     1.4470 H     1 <1>   0.4000 
 55 H       -2.5420    -8.6800    -1.7670 H     1 <1>   0.0800 
 56 H       -3.4370   -10.1150    -1.4470 H     1 <1>   0.0800 
 57 H       -2.3170   -12.0260    -0.5580 H     1 <1>   0.1500 
 58 H        1.5780    -9.3770     0.0060 H     1 <1>   0.1500 
 59 H        1.6480   -11.7720     0.3210 H     1 <1>   0.1500 
@<TRIPOS>BOND
  1   1   2  1   
  2   1   3  1   
  3   2   4  ar  
  4   2   5  ar  
  5   3   6  1   
  6   3  28  1   
  7   3  29  1   
  8   4   7  ar  
  9   4   8  1   
 10   5   9  ar  
 11   5  30  1   
 12   6  31  1   
 13   6  32  1   
 14   6  33  1   
 15   7  10  ar  
 16   7  34  1   
 17   8  11  1   
 18   8  12  1   
 19   8  35  1   
 20   9  10  ar  
 21   9  13  1   
 22  10  14  1   
 23  11  36  1   
 24  11  37  1   
 25  11  38  1   
 26  12  39  1   
 27  12  40  1   
 28  12  41  1   
 29  13  42  1   
 30  13  43  1   
 31  13  44  1   
 32  14  15  1   
 33  14  45  1   
 34  14  46  1   
 35  15  16  1   
 36  15  17  1   
 37  15  47  1   
 38  16  18  1   
 39  16  48  1   
 40  16  49  1   
 41  17  19  1   
 42  17  50  1   
 43  17  51  1   
 44  18  19  1   
 45  18  20  1   
 46  18  52  1   
 47  19  21  1   
 48  19  53  1   
 49  20  54  1   
 50  21  22  1   
 51  21  55  1   
 52  21  56  1   
 53  22  23  ar  
 54  22  24  ar  
 55  23  25  ar  
 56  24  26  ar  
 57  24  57  1   
 58  25  27  ar  
 59  25  58  1   
 60  26  27  ar  
 61  27  59  1   
@<TRIPOS>SUBSTRUCTURE
  1 ****  10 GROUP 4 **** **** 0

# MOE 2024.06 (io_trps.svl 2023.06)
