@<TRIPOS>MOLECULE
NONAME
50 53 1 0 0 
SMALL
USER_CHARGES


@<TRIPOS>ATOM
  1 O        0.5030    -0.2120     0.7730 O.2   1 <1>  -0.5700 
  2 C       -0.4600     0.2530     0.2050 C.2   1 <1>   0.5690 
  3 N       -1.7390    -0.1500     0.5160 N.am  1 <1>  -0.6600 
  4 C       -0.1700     1.2770    -0.8820 C.3   1 <1>   0.0810 
  5 C       -2.9910     0.3560    -0.1150 C.3   1 <1>   0.1400 
  6 C       -1.9960    -1.0990     1.6370 C.3   1 <1>   0.1400 
  7 C       -0.4020     2.7010    -0.4090 C.2   1 <1>  -0.0400 
  8 C       -3.7960    -0.8270    -0.6580 C.3   1 <1>  -0.1600 
  9 C       -2.7940    -2.2970     1.1190 C.3   1 <1>  -0.1600 
 10 O       -1.6150     3.1730    -0.2980 O.3   1 <1>  -0.0190 
 11 C        0.4510     3.6740    -0.0540 C.2   1 <1>  -0.1500 
 12 C       -4.1000    -1.8650     0.4360 C.3   1 <1>   0.4240 
 13 N       -1.6210     4.4080     0.1120 N.2   1 <1>  -0.4100 
 14 C       -0.3890     4.7360     0.2700 C.2   1 <1>   0.1080 
 15 O       -4.8520    -1.2320     1.4440 O.3   1 <1>  -0.5600 
 16 C       -4.8400    -3.0890    -0.1460 C.ar  1 <1>  -0.1430 
 17 C        0.0760     6.0940     0.7450 C.3   1 <1>  -0.0590 
 18 C       -6.2280    -1.1270     1.2540 C.3   1 <1>   0.1200 
 19 C       -6.1360    -3.4030     0.2520 C.ar  1 <1>  -0.1430 
 20 C       -4.2230    -3.9020    -1.0910 C.ar  1 <1>  -0.1500 
 21 C       -6.8350    -2.5260     1.2720 C.3   1 <1>  -0.0170 
 22 C       -6.7920    -4.5050    -0.2740 C.ar  1 <1>  -0.1500 
 23 C       -4.8760    -5.0000    -1.6180 C.ar  1 <1>  -0.1500 
 24 C       -6.1620    -5.3120    -1.2160 C.ar  1 <1>   0.0820 
 25 O       -6.7320    -6.4070    -1.7790 O.3   1 <1>  -0.3620 
 26 C       -8.0300    -6.8240    -1.4210 C.3   1 <1>   0.0400 
 27 H       -0.7590     1.0720    -1.7550 H     1 <1>   0.0800 
 28 H        0.8610     1.1770    -1.1650 H     1 <1>   0.0800 
 29 H       -2.7840     1.0360    -0.9190 H     1 <1>   0.0800 
 30 H       -3.5670     0.8860     0.6260 H     1 <1>   0.0800 
 31 H       -2.5530    -0.5900     2.4070 H     1 <1>   0.0800 
 32 H       -1.0730    -1.4430     2.0710 H     1 <1>   0.0800 
 33 H       -3.2260    -1.2890    -1.4420 H     1 <1>   0.0800 
 34 H       -4.7100    -0.4780    -1.0990 H     1 <1>   0.0800 
 35 H       -3.0270    -2.9590     1.9330 H     1 <1>   0.0800 
 36 H       -2.1720    -2.8370     0.4310 H     1 <1>   0.0800 
 37 H        1.5240     3.6680    -0.0140 H     1 <1>   0.1500 
 38 H        0.6420     5.9880     1.6520 H     1 <1>   0.0800 
 39 H       -0.7720     6.7260     0.9370 H     1 <1>   0.0800 
 40 H        0.6900     6.5530    -0.0070 H     1 <1>   0.0800 
 41 H       -6.4220    -0.6310     0.3190 H     1 <1>   0.0800 
 42 H       -6.6280    -0.5330     2.0570 H     1 <1>   0.0800 
 43 H       -3.2240    -3.6890    -1.4270 H     1 <1>   0.1500 
 44 H       -7.8850    -2.4590     1.0490 H     1 <1>   0.0800 
 45 H       -6.7230    -2.9520     2.2530 H     1 <1>   0.0800 
 46 H       -7.7880    -4.7230     0.0560 H     1 <1>   0.1500 
 47 H       -4.3930    -5.6250    -2.3470 H     1 <1>   0.1500 
 48 H       -8.2630    -7.7100    -1.9850 H     1 <1>   0.0800 
 49 H       -8.7270    -6.0420    -1.6650 H     1 <1>   0.0800 
 50 H       -8.0480    -7.0450    -0.3690 H     1 <1>   0.0800 
@<TRIPOS>BOND
  1   1   2  2   
  2   2   3  am  
  3   2   4  1   
  4   3   5  1   
  5   3   6  1   
  6   4   7  1   
  7   4  27  1   
  8   4  28  1   
  9   5   8  1   
 10   5  29  1   
 11   5  30  1   
 12   6   9  1   
 13   6  31  1   
 14   6  32  1   
 15   7  10  1   
 16   7  11  2   
 17   8  12  1   
 18   8  33  1   
 19   8  34  1   
 20   9  12  1   
 21   9  35  1   
 22   9  36  1   
 23  10  13  1   
 24  11  14  1   
 25  11  37  1   
 26  12  15  1   
 27  12  16  1   
 28  13  14  2   
 29  14  17  1   
 30  15  18  1   
 31  16  19  ar  
 32  16  20  ar  
 33  17  38  1   
 34  17  39  1   
 35  17  40  1   
 36  18  21  1   
 37  18  41  1   
 38  18  42  1   
 39  19  21  1   
 40  19  22  ar  
 41  20  23  ar  
 42  20  43  1   
 43  21  44  1   
 44  21  45  1   
 45  22  24  ar  
 46  22  46  1   
 47  23  24  ar  
 48  23  47  1   
 49  24  25  1   
 50  25  26  1   
 51  26  48  1   
 52  26  49  1   
 53  26  50  1   
@<TRIPOS>SUBSTRUCTURE
  1 ****   8 GROUP 4 **** **** 0

# MOE 2024.06 (io_trps.svl 2023.06)
