@<TRIPOS>MOLECULE
NONAME
37 37 1 0 0 
SMALL
USER_CHARGES


@<TRIPOS>ATOM
  1 O        0.1340     0.0930    -1.5510 O.2   1 <1>  -0.5700 
  2 C        0.9310    -0.5060    -0.8760 C.2   1 <1>   0.5690 
  3 N        2.0340     0.0650    -0.3070 N.am  1 <1>  -0.4940 
  4 C        0.6990    -1.9820    -0.6430 C.3   1 <1>  -0.0990 
  5 C        2.4230     1.4090    -0.2950 C.2   1 <1>   0.2040 
  6 C       -0.2070    -2.2040     0.5730 C.3   1 <1>   0.2200 
  7 O        1.6440     2.3670    -0.7400 O.3   1 <1>  -0.0190 
  8 C        3.5620     1.9830     0.1450 C.2   1 <1>  -0.1810 
  9 N       -0.0990    -3.6030     1.0430 N.am  1 <1>  -0.7300 
 10 C       -1.6690    -1.8230     0.3340 C.3   1 <1>  -0.2400 
 11 N        2.2010     3.5440    -0.6190 N.2   1 <1>  -0.4100 
 12 C        3.3540     3.3420    -0.0910 C.2   1 <1>   0.1080 
 13 C        4.8000     1.3490     0.7570 C.3   1 <1>  -0.0590 
 14 C       -0.5120    -4.7920     0.5450 C.2   1 <1>   0.5690 
 15 C        4.3320     4.4630     0.2160 C.3   1 <1>   0.0210 
 16 O       -0.2480    -5.7950     1.1530 O.2   1 <1>  -0.5700 
 17 C       -1.2930    -4.9230    -0.7400 C.3   1 <1>  -0.1790 
 18 C        5.3210     4.6700    -0.9360 C.3   1 <1>  -0.2400 
 19 H        2.6730    -0.5660     0.1670 H     1 <1>   0.3700 
 20 H        1.6450    -2.4670    -0.4890 H     1 <1>   0.0800 
 21 H        0.2500    -2.3920    -1.5270 H     1 <1>   0.0800 
 22 H        0.1560    -1.5820     1.3750 H     1 <1>   0.0800 
 23 H        0.3650    -3.7020     1.9480 H     1 <1>   0.3700 
 24 H       -2.0510    -2.2720    -0.5630 H     1 <1>   0.0800 
 25 H       -1.7520    -0.7560     0.2200 H     1 <1>   0.0800 
 26 H       -2.2750    -2.1170     1.1720 H     1 <1>   0.0800 
 27 H        4.7000     0.2800     0.8010 H     1 <1>   0.0800 
 28 H        4.9490     1.7230     1.7540 H     1 <1>   0.0800 
 29 H        5.6640     1.5870     0.1630 H     1 <1>   0.0800 
 30 H        4.8650     4.2400     1.1220 H     1 <1>   0.0800 
 31 H        3.7770     5.3710     0.3750 H     1 <1>   0.0800 
 32 H       -0.8440    -4.3480    -1.5230 H     1 <1>   0.0800 
 33 H       -2.3040    -4.6020    -0.5810 H     1 <1>   0.0800 
 34 H       -1.3090    -5.9540    -1.0430 H     1 <1>   0.0800 
 35 H        5.8960     3.7770    -1.1050 H     1 <1>   0.0800 
 36 H        5.9920     5.4780    -0.7080 H     1 <1>   0.0800 
 37 H        4.7850     4.9090    -1.8380 H     1 <1>   0.0800 
@<TRIPOS>BOND
  1   1   2  2   
  2   2   3  am  
  3   2   4  1   
  4   3   5  1   
  5   3  19  1   
  6   4   6  1   
  7   4  20  1   
  8   4  21  1   
  9   5   7  1   
 10   5   8  2   
 11   6   9  1   
 12   6  10  1   
 13   6  22  1   
 14   7  11  1   
 15   8  12  1   
 16   8  13  1   
 17   9  14  am  
 18   9  23  1   
 19  10  24  1   
 20  10  25  1   
 21  10  26  1   
 22  11  12  2   
 23  12  15  1   
 24  13  27  1   
 25  13  28  1   
 26  13  29  1   
 27  14  16  2   
 28  14  17  1   
 29  15  18  1   
 30  15  30  1   
 31  15  31  1   
 32  17  32  1   
 33  17  33  1   
 34  17  34  1   
 35  18  35  1   
 36  18  36  1   
 37  18  37  1   
@<TRIPOS>SUBSTRUCTURE
  1 ****   3 GROUP 4 **** **** 0

# MOE 2024.06 (io_trps.svl 2023.06)
