@<TRIPOS>MOLECULE
NONAME
61 64 1 0 0 
SMALL
USER_CHARGES


@<TRIPOS>ATOM
  1 O       -2.9270     0.5980    -1.6930 O.2   1 <1>  -0.5700 
  2 C       -2.2420     0.8510    -0.7180 C.2   1 <1>   0.7160 
  3 N       -1.7190    -0.2030    -0.0200 N.am  1 <1>  -0.7300 
  4 C       -1.9390     2.1850    -0.3050 C.2   1 <1>  -0.0860 
  5 C       -1.8340    -1.6170    -0.4190 C.3   1 <1>   0.1400 
  6 C       -2.8120     3.2750    -0.2170 C.2   1 <1>   0.3720 
  7 C       -0.7630     2.6930     0.1490 C.2   1 <1>   0.0870 
  8 C       -3.1970    -2.1460     0.0330 C.3   1 <1>  -0.1600 
  9 N       -2.2100     4.3140     0.2520 N.2   1 <1>  -0.4100 
 10 N       -4.1660     3.2590    -0.5600 N.pl3 1 <1>  -0.8210 
 11 O       -0.9770     3.9420     0.4670 O.3   1 <1>  -0.0190 
 12 C        0.5410     2.1060     0.3160 C.ar  1 <1>   0.0530 
 13 C       -3.4750    -3.5130    -0.5890 C.3   1 <1>   0.3430 
 14 C       -5.0340     4.1920     0.2230 C.3   1 <1>   0.2090 
 15 C       -4.4030     3.4610    -2.0220 C.3   1 <1>   0.2090 
 16 C        1.3010     2.3670     1.4550 C.ar  1 <1>  -0.1500 
 17 C        1.0840     1.2540    -0.6450 C.ar  1 <1>  -0.1500 
 18 N       -4.8900    -3.9110    -0.3490 N.4   1 <1>  -0.9590 
 19 C       -6.5080     4.0590    -0.2010 C.3   1 <1>   0.1200 
 20 C       -5.9010     3.3580    -2.3550 C.3   1 <1>   0.1200 
 21 C        2.5440     1.7880     1.6360 C.ar  1 <1>  -0.1500 
 22 C        2.3250     0.6720    -0.4690 C.ar  1 <1>  -0.1500 
 23 C       -5.1510    -4.2290     1.1020 C.3   1 <1>   0.3430 
 24 C       -5.2710    -5.0540    -1.2310 C.3   1 <1>   0.3430 
 25 O       -6.6530     4.2530    -1.5810 O.3   1 <1>  -0.5600 
 26 C        3.0570     0.9360     0.6740 C.ar  1 <1>  -0.1500 
 27 C       -6.6180    -4.6210     1.3590 C.3   1 <1>   0.2000 
 28 C       -6.7540    -5.3860    -1.0430 C.3   1 <1>  -0.1600 
 29 O       -6.7090    -5.0890     2.6520 O.3   1 <1>  -0.6800 
 30 C       -7.0860    -5.7340     0.4170 C.3   1 <1>  -0.1600 
 31 H       -1.0770     0.0110     0.7490 H     1 <1>   0.3700 
 32 H       -1.0330    -2.1840     0.0260 H     1 <1>   0.0800 
 33 H       -1.7440    -1.6820    -1.4920 H     1 <1>   0.0800 
 34 H       -3.9560    -1.4560    -0.2930 H     1 <1>   0.0800 
 35 H       -3.2050    -2.2070     1.1060 H     1 <1>   0.0800 
 36 H       -2.8030    -4.2520    -0.1810 H     1 <1>   0.0800 
 37 H       -3.3000    -3.4470    -1.6520 H     1 <1>   0.0800 
 38 H       -4.7140     5.2090     0.0670 H     1 <1>   0.0800 
 39 H       -4.9400     3.9700     1.2720 H     1 <1>   0.0800 
 40 H       -3.8640     2.7210    -2.5860 H     1 <1>   0.0800 
 41 H       -4.0400     4.4310    -2.3150 H     1 <1>   0.0800 
 42 H        0.9120     3.0310     2.2070 H     1 <1>   0.1500 
 43 H        0.5310     1.0510    -1.5460 H     1 <1>   0.1500 
 44 H       -5.4830    -3.1110    -0.6090 H     1 <1>   0.4500 
 45 H       -7.1060     4.8000     0.2990 H     1 <1>   0.0800 
 46 H       -6.8820     3.0820     0.0500 H     1 <1>   0.0800 
 47 H       -6.2560     2.3590    -2.1700 H     1 <1>   0.0800 
 48 H       -6.0680     3.5990    -3.3900 H     1 <1>   0.0800 
 49 H        3.1140     2.0010     2.5240 H     1 <1>   0.1500 
 50 H        2.7270     0.0170    -1.2230 H     1 <1>   0.1500 
 51 H       -4.9140    -3.3760     1.7160 H     1 <1>   0.0800 
 52 H       -4.5260    -5.0520     1.4040 H     1 <1>   0.0800 
 53 H       -4.6770    -5.9200    -0.9850 H     1 <1>   0.0800 
 54 H       -5.0890    -4.8010    -2.2640 H     1 <1>   0.0800 
 55 H        4.0250     0.4860     0.8130 H     1 <1>   0.1500 
 56 H       -7.2510    -3.7530     1.2750 H     1 <1>   0.0800 
 57 H       -7.0050    -6.2250    -1.6690 H     1 <1>   0.0800 
 58 H       -7.3530    -4.5530    -1.3710 H     1 <1>   0.0800 
 59 H       -7.6290    -5.3420     2.8750 H     1 <1>   0.4000 
 60 H       -8.1480    -5.8790     0.5200 H     1 <1>   0.0800 
 61 H       -6.5900    -6.6560     0.6770 H     1 <1>   0.0800 
@<TRIPOS>BOND
  1   1   2  2   
  2   2   3  am  
  3   2   4  1   
  4   3   5  1   
  5   3  31  1   
  6   4   6  1   
  7   4   7  2   
  8   5   8  1   
  9   5  32  1   
 10   5  33  1   
 11   6   9  2   
 12   6  10  1   
 13   7  11  1   
 14   7  12  1   
 15   8  13  1   
 16   8  34  1   
 17   8  35  1   
 18   9  11  1   
 19  10  14  1   
 20  10  15  1   
 21  12  16  ar  
 22  12  17  ar  
 23  13  18  1   
 24  13  36  1   
 25  13  37  1   
 26  14  19  1   
 27  14  38  1   
 28  14  39  1   
 29  15  20  1   
 30  15  40  1   
 31  15  41  1   
 32  16  21  ar  
 33  16  42  1   
 34  17  22  ar  
 35  17  43  1   
 36  18  23  1   
 37  18  24  1   
 38  18  44  1   
 39  19  25  1   
 40  19  45  1   
 41  19  46  1   
 42  20  25  1   
 43  20  47  1   
 44  20  48  1   
 45  21  26  ar  
 46  21  49  1   
 47  22  26  ar  
 48  22  50  1   
 49  23  27  1   
 50  23  51  1   
 51  23  52  1   
 52  24  28  1   
 53  24  53  1   
 54  24  54  1   
 55  26  55  1   
 56  27  29  1   
 57  27  30  1   
 58  27  56  1   
 59  28  30  1   
 60  28  57  1   
 61  28  58  1   
 62  29  59  1   
 63  30  60  1   
 64  30  61  1   
@<TRIPOS>SUBSTRUCTURE
  1 ****   2 GROUP 4 **** **** 0

# MOE 2024.06 (io_trps.svl 2023.06)
