@<TRIPOS>MOLECULE
NONAME
35 36 1 0 0 
SMALL
USER_CHARGES


@<TRIPOS>ATOM
  1 CL      -0.5190    -0.3050    -0.6280 Cl    1 <1>  -0.1770 
  2 C       -1.8010     0.6480     0.0870 C.ar  1 <1>   0.1770 
  3 C       -2.7970     0.0050     0.8190 C.ar  1 <1>   0.0860 
  4 C       -1.8000     2.0240    -0.1060 C.ar  1 <1>  -0.1440 
  5 C       -2.7950    -1.4250     1.0200 C.2   1 <1>   0.5440 
  6 C       -3.8140     0.7920     1.3540 C.ar  1 <1>  -0.1500 
  7 C       -2.8250     2.7780     0.4430 C.ar  1 <1>  -0.1500 
  8 C       -0.6990     2.7080    -0.9050 C.3   1 <1>  -0.0960 
  9 O       -2.0850    -1.9020     1.8860 O.2   1 <1>  -0.5700 
 10 N       -3.6110    -2.2520     0.2820 N.am  1 <1>  -0.6600 
 11 C       -3.8300     2.1620     1.1690 C.ar  1 <1>  -0.1500 
 12 C       -3.8020    -3.6980     0.6510 C.3   1 <1>   0.1400 
 13 C       -4.4670    -1.7910    -0.8440 C.3   1 <1>   0.1400 
 14 C       -5.2250    -4.2210     0.3530 C.3   1 <1>   0.2000 
 15 C       -5.9520    -1.9020    -0.4630 C.3   1 <1>  -0.1600 
 16 O       -5.2830    -4.7350    -0.9330 O.3   1 <1>  -0.6800 
 17 C       -6.2690    -3.1020     0.4690 C.3   1 <1>  -0.1860 
 18 C       -7.6650    -3.6530     0.2560 C.2   1 <1>   0.9060 
 19 O       -8.5310    -3.4190     1.1020 O.co2 1 <1>  -0.9000 
 20 O       -7.8850    -4.3300    -0.7580 O.co2 1 <1>  -0.9000 
 21 H       -4.5960     0.3130     1.9200 H     1 <1>   0.1500 
 22 H       -2.8480     3.8460     0.3100 H     1 <1>   0.1500 
 23 H       -0.8490     3.7710    -0.9420 H     1 <1>   0.0800 
 24 H       -0.6850     2.3290    -1.9120 H     1 <1>   0.0800 
 25 H        0.2570     2.5150    -0.4510 H     1 <1>   0.0800 
 26 H       -4.6260     2.7520     1.5930 H     1 <1>   0.1500 
 27 H       -3.0770    -4.3020     0.1360 H     1 <1>   0.0800 
 28 H       -3.6290    -3.8030     1.7070 H     1 <1>   0.0800 
 29 H       -4.2330    -0.7830    -1.1370 H     1 <1>   0.0800 
 30 H       -4.2740    -2.4280    -1.6920 H     1 <1>   0.0800 
 31 H       -5.4680    -5.0280     1.0230 H     1 <1>   0.0800 
 32 H       -6.2760    -0.9940     0.0130 H     1 <1>   0.0800 
 33 H       -6.5180    -2.0010    -1.3730 H     1 <1>   0.0800 
 34 H       -6.2610    -4.7660    -1.1590 H     1 <1>   0.4000 
 35 H       -6.2320    -2.7470     1.4820 H     1 <1>   0.0800 
@<TRIPOS>BOND
  1   1   2  1   
  2   2   3  ar  
  3   2   4  ar  
  4   3   5  1   
  5   3   6  ar  
  6   4   7  ar  
  7   4   8  1   
  8   5   9  2   
  9   5  10  am  
 10   6  11  ar  
 11   6  21  1   
 12   7  11  ar  
 13   7  22  1   
 14   8  23  1   
 15   8  24  1   
 16   8  25  1   
 17  10  12  1   
 18  10  13  1   
 19  11  26  1   
 20  12  14  1   
 21  12  27  1   
 22  12  28  1   
 23  13  15  1   
 24  13  29  1   
 25  13  30  1   
 26  14  16  1   
 27  14  17  1   
 28  14  31  1   
 29  15  17  1   
 30  15  32  1   
 31  15  33  1   
 32  16  34  1   
 33  17  18  1   
 34  17  35  1   
 35  18  19  ar  
 36  18  20  ar  
@<TRIPOS>SUBSTRUCTURE
  1 ****  10 GROUP 4 **** **** 0

# MOE 2024.06 (io_trps.svl 2023.06)
