@<TRIPOS>MOLECULE
NONAME
50 53 1 0 0 
SMALL
USER_CHARGES


@<TRIPOS>ATOM
  1 S        0.3300     0.2350     0.6560 S.o2  1 <1>   1.4470 
  2 O       -0.9220     0.4690    -0.0170 O.2   1 <1>  -0.6500 
  3 O        0.6220     0.7570     1.9680 O.2   1 <1>  -0.6500 
  4 N        1.5720     0.8150    -0.3810 N.am  1 <1>  -0.7300 
  5 C        0.8770    -1.4590     0.4710 C.ar  1 <1>  -0.0090 
  6 C        2.3400    -0.1960    -0.8580 C.2   1 <1>   0.7200 
  7 C        1.5790     2.2140    -0.8530 C.3   1 <1>   0.1960 
  8 C        1.9680    -1.5090    -0.3780 C.ar  1 <1>   0.0860 
  9 C        0.3660    -2.6140     1.0390 C.ar  1 <1>  -0.1500 
 10 O        3.2630     0.0150    -1.6150 O.2   1 <1>  -0.5700 
 11 C        2.3680     3.0840     0.1290 C.3   1 <1>  -0.0990 
 12 C        2.5590    -2.7360    -0.6630 C.ar  1 <1>  -0.1500 
 13 C        0.9580    -3.8340     0.7510 C.ar  1 <1>  -0.1500 
 14 C        2.4210     4.5350    -0.3040 C.2   1 <1>   0.5690 
 15 C        2.0520    -3.8940    -0.0980 C.ar  1 <1>  -0.1500 
 16 O        1.7700     4.8940    -1.2550 O.2   1 <1>  -0.5700 
 17 N        3.2200     5.3760     0.4210 N.am  1 <1>  -0.4940 
 18 C        3.3800     6.7790     0.2840 C.2   1 <1>  -0.0880 
 19 N        4.5750     7.4350     0.2720 N.pl3 1 <1>   0.3140 
 20 C        2.4230     7.7300     0.1550 C.2   1 <1>  -0.1810 
 21 N        4.3980     8.7760     0.1540 N.2   1 <1>  -0.7070 
 22 C        5.9280     6.8090     0.3210 C.3   1 <1>   0.1760 
 23 C        3.1150     8.9330     0.0780 C.2   1 <1>   0.1390 
 24 C        0.9140     7.5790     0.1030 C.3   1 <1>  -0.0590 
 25 C        6.7820     7.3090     1.4860 C.3   1 <1>  -0.1600 
 26 C        6.7790     7.1040    -0.9180 C.3   1 <1>  -0.1600 
 27 C        8.2140     6.9620     1.0780 C.3   1 <1>  -0.1600 
 28 C        8.2380     7.0040    -0.4550 C.3   1 <1>  -0.1600 
 29 H        0.5660     2.5730    -0.9380 H     1 <1>   0.0800 
 30 H        2.0340     2.2670    -1.8300 H     1 <1>   0.0800 
 31 H       -0.4850    -2.5650     1.6980 H     1 <1>   0.1500 
 32 H        3.3720     2.7080     0.1980 H     1 <1>   0.0800 
 33 H        1.9050     3.0380     1.0970 H     1 <1>   0.0800 
 34 H        3.4090    -2.7750    -1.3250 H     1 <1>   0.1500 
 35 H        0.5680    -4.7390     1.1880 H     1 <1>   0.1500 
 36 H        2.5080    -4.8450    -0.3180 H     1 <1>   0.1500 
 37 H        3.7400     4.9450     1.1840 H     1 <1>   0.3700 
 38 H        5.8190     5.7450     0.4080 H     1 <1>   0.0800 
 39 H        2.6460     9.8960    -0.0310 H     1 <1>   0.1500 
 40 H        0.6120     6.6690     0.5870 H     1 <1>   0.0800 
 41 H        0.5910     7.5470    -0.9220 H     1 <1>   0.0800 
 42 H        0.4390     8.4060     0.5970 H     1 <1>   0.0800 
 43 H        6.5050     6.8480     2.4170 H     1 <1>   0.0800 
 44 H        6.6910     8.3790     1.5700 H     1 <1>   0.0800 
 45 H        6.5910     8.1080    -1.2600 H     1 <1>   0.0800 
 46 H        6.5640     6.4130    -1.7140 H     1 <1>   0.0800 
 47 H        8.4520     5.9660     1.4120 H     1 <1>   0.0800 
 48 H        8.9220     7.6510     1.5070 H     1 <1>   0.0800 
 49 H        8.7920     7.8600    -0.8020 H     1 <1>   0.0800 
 50 H        8.7020     6.1120    -0.8430 H     1 <1>   0.0800 
@<TRIPOS>BOND
  1   1   2  2   
  2   1   3  2   
  3   1   4  am  
  4   1   5  1   
  5   4   6  am  
  6   4   7  1   
  7   5   8  ar  
  8   5   9  ar  
  9   6   8  1   
 10   6  10  2   
 11   7  11  1   
 12   7  29  1   
 13   7  30  1   
 14   8  12  ar  
 15   9  13  ar  
 16   9  31  1   
 17  11  14  1   
 18  11  32  1   
 19  11  33  1   
 20  12  15  ar  
 21  12  34  1   
 22  13  15  ar  
 23  13  35  1   
 24  14  16  2   
 25  14  17  am  
 26  15  36  1   
 27  17  18  1   
 28  17  37  1   
 29  18  19  1   
 30  18  20  2   
 31  19  21  1   
 32  19  22  1   
 33  20  23  1   
 34  20  24  1   
 35  21  23  2   
 36  22  25  1   
 37  22  26  1   
 38  22  38  1   
 39  23  39  1   
 40  24  40  1   
 41  24  41  1   
 42  24  42  1   
 43  25  27  1   
 44  25  43  1   
 45  25  44  1   
 46  26  28  1   
 47  26  45  1   
 48  26  46  1   
 49  27  28  1   
 50  27  47  1   
 51  27  48  1   
 52  28  49  1   
 53  28  50  1   
@<TRIPOS>SUBSTRUCTURE
  1 ****  11 GROUP 4 **** **** 0

# MOE 2024.06 (io_trps.svl 2023.06)
