@<TRIPOS>MOLECULE
NONAME
51 53 1 0 0 
SMALL
USER_CHARGES


@<TRIPOS>ATOM
  1 CL      -3.9460    -0.8790    -2.2210 Cl    1 <1>  -0.1770 
  2 C       -3.0880    -2.3500    -1.8300 C.ar  1 <1>   0.1770 
  3 C       -3.7820    -3.5270    -1.6160 C.ar  1 <1>   0.1600 
  4 C       -1.7130    -2.3330    -1.7370 C.ar  1 <1>  -0.1500 
  5 N       -3.2130    -4.6870    -1.3150 N.ar  1 <1>  -0.6200 
  6 C       -1.1130    -3.5340    -1.4250 C.ar  1 <1>  -0.1500 
  7 C       -1.8890    -4.6770    -1.2210 C.ar  1 <1>   0.4270 
  8 N       -1.3640    -5.9090    -0.9070 N.am  1 <1>  -0.5470 
  9 C       -0.1310    -6.3400    -0.5240 C.2   1 <1>   0.5690 
 10 O        0.8330    -5.6230    -0.4140 O.2   1 <1>  -0.5700 
 11 C        0.0030    -7.8310    -0.2090 C.3   1 <1>   0.1710 
 12 N       -1.2700    -8.4640     0.2480 N.3   1 <1>  -0.8100 
 13 C       -1.2040    -9.9330     0.1690 C.3   1 <1>   0.1100 
 14 C       -1.6460    -8.0170     1.6080 C.3   1 <1>   0.1100 
 15 C       -2.6200   -10.5680     0.2690 C.3   1 <1>   0.0000 
 16 C       -2.7810    -8.8710     2.1970 C.3   1 <1>  -0.1600 
 17 C       -3.5370    -9.6050     1.0890 C.3   1 <1>   0.2000 
 18 C       -3.2600   -10.6750    -1.1390 C.3   1 <1>   0.1200 
 19 C       -2.5180   -11.9680     0.9520 C.3   1 <1>  -0.0170 
 20 O       -4.6260   -10.2540     1.6510 O.3   1 <1>  -0.6800 
 21 O       -2.4530   -11.3560    -2.0420 O.3   1 <1>  -0.6800 
 22 C       -1.6430   -13.0000     0.2430 C.ar  1 <1>  -0.1440 
 23 C       -0.2710   -13.0360     0.4420 C.ar  1 <1>  -0.1500 
 24 C       -2.2260   -13.9320    -0.6050 C.ar  1 <1>  -0.1500 
 25 C        0.5100   -13.9690    -0.2180 C.ar  1 <1>  -0.1500 
 26 C       -1.4470   -14.8650    -1.2650 C.ar  1 <1>  -0.1500 
 27 C       -0.0770   -14.8830    -1.0740 C.ar  1 <1>  -0.1500 
 28 H       -4.8550    -3.5080    -1.6980 H     1 <1>   0.1500 
 29 H       -1.1510    -1.4310    -1.9000 H     1 <1>   0.1500 
 30 H       -0.0440    -3.5860    -1.3420 H     1 <1>   0.1500 
 31 H       -2.0730    -6.6440    -0.8620 H     1 <1>   0.3700 
 32 H        0.7700    -7.9660     0.5320 H     1 <1>   0.0800 
 33 H        0.3310    -8.3110    -1.1140 H     1 <1>   0.0800 
 34 H       -0.7260   -10.2340    -0.7480 H     1 <1>   0.0800 
 35 H       -0.5880   -10.2810     0.9790 H     1 <1>   0.0800 
 36 H       -0.7920    -8.0610     2.2650 H     1 <1>   0.0800 
 37 H       -1.9710    -6.9910     1.5570 H     1 <1>   0.0800 
 38 H       -3.4510    -8.2270     2.7390 H     1 <1>   0.0800 
 39 H       -2.3590    -9.5770     2.8880 H     1 <1>   0.0800 
 40 H       -3.9400    -8.8560     0.4270 H     1 <1>   0.0800 
 41 H       -3.4270    -9.6940    -1.5500 H     1 <1>   0.0800 
 42 H       -4.2060   -11.1870    -1.0830 H     1 <1>   0.0800 
 43 H       -2.1450   -11.8460     1.9530 H     1 <1>   0.0800 
 44 H       -3.5010   -12.3940     1.0410 H     1 <1>   0.0800 
 45 H       -4.3510   -10.7580     2.4390 H     1 <1>   0.4000 
 46 H       -2.1150   -12.1860    -1.6340 H     1 <1>   0.4000 
 47 H        0.2050   -12.3440     1.1120 H     1 <1>   0.1500 
 48 H       -3.2920   -13.9370    -0.7610 H     1 <1>   0.1500 
 49 H        1.5750   -13.9870    -0.0630 H     1 <1>   0.1500 
 50 H       -1.9060   -15.5800    -1.9260 H     1 <1>   0.1500 
 51 H        0.5300   -15.6070    -1.5890 H     1 <1>   0.1500 
@<TRIPOS>BOND
  1   1   2  1   
  2   2   3  ar  
  3   2   4  ar  
  4   3   5  ar  
  5   3  28  1   
  6   4   6  ar  
  7   4  29  1   
  8   5   7  ar  
  9   6   7  ar  
 10   6  30  1   
 11   7   8  1   
 12   8   9  am  
 13   8  31  1   
 14   9  10  2   
 15   9  11  1   
 16  11  12  1   
 17  11  32  1   
 18  11  33  1   
 19  12  13  1   
 20  12  14  1   
 21  13  15  1   
 22  13  34  1   
 23  13  35  1   
 24  14  16  1   
 25  14  36  1   
 26  14  37  1   
 27  15  17  1   
 28  15  18  1   
 29  15  19  1   
 30  16  17  1   
 31  16  38  1   
 32  16  39  1   
 33  17  20  1   
 34  17  40  1   
 35  18  21  1   
 36  18  41  1   
 37  18  42  1   
 38  19  22  1   
 39  19  43  1   
 40  19  44  1   
 41  20  45  1   
 42  21  46  1   
 43  22  23  ar  
 44  22  24  ar  
 45  23  25  ar  
 46  23  47  1   
 47  24  26  ar  
 48  24  48  1   
 49  25  27  ar  
 50  25  49  1   
 51  26  27  ar  
 52  26  50  1   
 53  27  51  1   
@<TRIPOS>SUBSTRUCTURE
  1 ****  12 GROUP 4 **** **** 0

# MOE 2024.06 (io_trps.svl 2023.06)
