@<TRIPOS>MOLECULE
NONAME
60 63 1 0 0 
SMALL
USER_CHARGES


@<TRIPOS>ATOM
  1 F        0.7810     1.5420     1.5030 F     1 <1>  -0.1900 
  2 C        1.9030     1.7430     0.8440 C.ar  1 <1>   0.1900 
  3 C        2.4570     0.7610     0.0260 C.ar  1 <1>   0.4100 
  4 C        2.5370     2.9480     0.9620 C.ar  1 <1>   0.1600 
  5 N        3.5810     1.0100    -0.6200 N.ar  1 <1>  -0.6200 
  6 N        1.8930    -0.4960    -0.1490 N.pl3 1 <1>  -0.8380 
  7 N        3.6650     3.2060     0.3220 N.ar  1 <1>  -0.6200 
  8 C        4.1120     2.2000    -0.4290 C.ar  1 <1>   0.7200 
  9 C        1.6930    -1.3810     1.0380 C.3   1 <1>   0.2090 
 10 C        2.1340    -1.2810    -1.4000 C.3   1 <1>   0.2090 
 11 N        5.2730     2.3890    -1.0980 N.pl3 1 <1>  -0.8690 
 12 C        2.8040    -2.4450     1.1230 C.3   1 <1>   0.1200 
 13 C        3.2270    -2.3430    -1.1800 C.3   1 <1>   0.1200 
 14 C        5.8100     3.7220    -1.4800 C.3   1 <1>   0.2090 
 15 O        2.9200    -3.1550    -0.0790 O.3   1 <1>  -0.5600 
 16 C        6.4190     4.4490    -0.2490 C.3   1 <1>   0.5660 
 17 N        6.1500     5.9280    -0.1990 N.4   1 <1>  -0.9590 
 18 C        7.9220     4.2010    -0.1960 C.ar  1 <1>  -0.1430 
 19 C        6.8040     6.5540     0.9870 C.3   1 <1>   0.3430 
 20 C        4.6960     6.2390    -0.1700 C.3   1 <1>   0.3430 
 21 C        8.7950     4.7910    -1.1030 C.ar  1 <1>  -0.1500 
 22 C        8.4320     3.3690     0.7910 C.ar  1 <1>  -0.1500 
 23 C        7.1100     8.0320     0.7280 C.3   1 <1>  -0.1600 
 24 C        4.3860     7.4040    -1.1100 C.3   1 <1>  -0.1600 
 25 C       10.1560     4.5580    -1.0150 C.ar  1 <1>  -0.1500 
 26 C        9.7930     3.1380     0.8780 C.ar  1 <1>  -0.1500 
 27 C        5.9160     8.9150     0.3200 C.3   1 <1>  -0.1600 
 28 C        5.3730     8.5850    -1.0790 C.3   1 <1>  -0.1600 
 29 C       10.6550     3.7340    -0.0240 C.ar  1 <1>  -0.1500 
 30 H        2.1090     3.7090     1.5920 H     1 <1>   0.1500 
 31 H        0.7380    -1.8710     0.9580 H     1 <1>   0.0800 
 32 H        1.6930    -0.8020     1.9440 H     1 <1>   0.0800 
 33 H        2.4220    -0.6260    -2.2040 H     1 <1>   0.0800 
 34 H        1.2220    -1.7710    -1.6910 H     1 <1>   0.0800 
 35 H        5.4540     1.6150    -1.7440 H     1 <1>   0.4000 
 36 H        2.5810    -3.1530     1.9010 H     1 <1>   0.0800 
 37 H        3.7510    -1.9800     1.3380 H     1 <1>   0.0800 
 38 H        4.1770    -1.8690    -1.0060 H     1 <1>   0.0800 
 39 H        3.3080    -2.9770    -2.0440 H     1 <1>   0.0800 
 40 H        5.0120     4.2960    -1.9130 H     1 <1>   0.0800 
 41 H        6.5660     3.5870    -2.2340 H     1 <1>   0.0800 
 42 H        5.9750     4.0060     0.6270 H     1 <1>   0.0800 
 43 H        6.5600     6.3560    -1.0320 H     1 <1>   0.4500 
 44 H        7.7360     6.0590     1.2100 H     1 <1>   0.0800 
 45 H        6.1680     6.4570     1.8520 H     1 <1>   0.0800 
 46 H        4.4000     6.4980     0.8330 H     1 <1>   0.0800 
 47 H        4.1100     5.3870    -0.4710 H     1 <1>   0.0800 
 48 H        8.4380     5.4330    -1.8900 H     1 <1>   0.1500 
 49 H        7.7780     2.8870     1.4990 H     1 <1>   0.1500 
 50 H        7.8860     8.1050    -0.0140 H     1 <1>   0.0800 
 51 H        7.5230     8.4350     1.6370 H     1 <1>   0.0800 
 52 H        3.4080     7.7700    -0.8460 H     1 <1>   0.0800 
 53 H        4.3090     7.0360    -2.1180 H     1 <1>   0.0800 
 54 H       10.8330     5.0140    -1.7180 H     1 <1>   0.1500 
 55 H       10.1850     2.4910     1.6450 H     1 <1>   0.1500 
 56 H        6.2610     9.9360     0.3040 H     1 <1>   0.0800 
 57 H        5.1310     8.8650     1.0550 H     1 <1>   0.0800 
 58 H        4.8590     9.4530    -1.4600 H     1 <1>   0.0800 
 59 H        6.1950     8.4020    -1.7500 H     1 <1>   0.0800 
 60 H       11.7150     3.5510     0.0440 H     1 <1>   0.1500 
@<TRIPOS>BOND
  1   1   2  1   
  2   2   3  ar  
  3   2   4  ar  
  4   3   5  ar  
  5   3   6  1   
  6   4   7  ar  
  7   4  30  1   
  8   5   8  ar  
  9   6   9  1   
 10   6  10  1   
 11   7   8  ar  
 12   8  11  1   
 13   9  12  1   
 14   9  31  1   
 15   9  32  1   
 16  10  13  1   
 17  10  33  1   
 18  10  34  1   
 19  11  14  1   
 20  11  35  1   
 21  12  15  1   
 22  12  36  1   
 23  12  37  1   
 24  13  15  1   
 25  13  38  1   
 26  13  39  1   
 27  14  16  1   
 28  14  40  1   
 29  14  41  1   
 30  16  17  1   
 31  16  18  1   
 32  16  42  1   
 33  17  19  1   
 34  17  20  1   
 35  17  43  1   
 36  18  21  ar  
 37  18  22  ar  
 38  19  23  1   
 39  19  44  1   
 40  19  45  1   
 41  20  24  1   
 42  20  46  1   
 43  20  47  1   
 44  21  25  ar  
 45  21  48  1   
 46  22  26  ar  
 47  22  49  1   
 48  23  27  1   
 49  23  50  1   
 50  23  51  1   
 51  24  28  1   
 52  24  52  1   
 53  24  53  1   
 54  25  29  ar  
 55  25  54  1   
 56  26  29  ar  
 57  26  55  1   
 58  27  28  1   
 59  27  56  1   
 60  27  57  1   
 61  28  58  1   
 62  28  59  1   
 63  29  60  1   
@<TRIPOS>SUBSTRUCTURE
  1 ****  11 GROUP 4 **** **** 0

# MOE 2024.06 (io_trps.svl 2023.06)
