@<TRIPOS>MOLECULE
NONAME
52 54 1 0 0 
SMALL
USER_CHARGES


@<TRIPOS>ATOM
  1 O       -2.8580     0.8000     1.9470 O.2   1 <1>  -0.5700 
  2 C       -2.4430     1.4270     0.9850 C.2   1 <1>   0.5440 
  3 N       -2.7110     0.9060    -0.2740 N.am  1 <1>  -0.6600 
  4 C       -1.7280     2.6890     1.2170 C.ar  1 <1>   0.3960 
  5 C       -3.1520    -0.5160    -0.4210 C.3   1 <1>   0.1400 
  6 C       -2.5630     1.7080    -1.5250 C.3   1 <1>   0.1400 
  7 N       -0.6710     3.0200     0.4530 N.ar  1 <1>  -0.6200 
  8 C       -2.1700     3.5190     2.2480 C.ar  1 <1>  -0.1500 
  9 C       -4.6820    -0.6390    -0.3860 C.3   1 <1>   0.1400 
 10 C       -3.6810     1.4780    -2.5520 C.3   1 <1>  -0.1600 
 11 C       -0.0850     4.1660     0.7150 C.ar  1 <1>   0.4100 
 12 C       -1.5460     4.7200     2.5150 C.ar  1 <1>  -0.1500 
 13 N       -5.3190    -0.1330    -1.6440 N.am  1 <1>  -0.6600 
 14 C       -5.0740     1.3070    -1.9380 C.3   1 <1>   0.1400 
 15 N        0.9740     4.4430    -0.0830 N.pl3 1 <1>  -0.9000 
 16 C       -0.4770     5.0430     1.7180 C.ar  1 <1>  -0.1500 
 17 C       -6.0940    -0.8950    -2.4920 C.2   1 <1>   0.5690 
 18 O       -6.5290    -0.4380    -3.5260 O.2   1 <1>  -0.5700 
 19 C       -6.4010    -2.3660    -2.2180 C.3   1 <1>   0.1810 
 20 O       -7.1240    -2.5430    -1.0090 O.3   1 <1>  -0.3630 
 21 C       -7.5150    -3.7760    -0.5990 C.ar  1 <1>   0.0820 
 22 C       -8.1920    -3.8470     0.6070 C.ar  1 <1>  -0.1500 
 23 C       -7.2730    -4.9450    -1.3170 C.ar  1 <1>  -0.1500 
 24 C       -8.6290    -5.0620     1.1060 C.ar  1 <1>   0.0820 
 25 C       -7.7080    -6.1630    -0.8240 C.ar  1 <1>  -0.1500 
 26 O       -9.2850    -5.0370     2.2940 O.3   1 <1>  -0.3630 
 27 C       -8.3840    -6.2260     0.3830 C.ar  1 <1>  -0.1500 
 28 C       -9.7920    -6.2160     2.8780 C.3   1 <1>   0.0400 
 29 H       -2.7450    -1.0910     0.3930 H     1 <1>   0.0800 
 30 H       -2.7670    -0.9340    -1.3330 H     1 <1>   0.0800 
 31 H       -1.6080     1.4890    -1.9720 H     1 <1>   0.0800 
 32 H       -2.5700     2.7530    -1.2720 H     1 <1>   0.0800 
 33 H       -3.0110     3.2110     2.8430 H     1 <1>   0.1500 
 34 H       -5.0650    -0.0900     0.4580 H     1 <1>   0.0800 
 35 H       -4.9270    -1.6720    -0.2290 H     1 <1>   0.0800 
 36 H       -3.4490     0.6310    -3.1730 H     1 <1>   0.0800 
 37 H       -3.7000     2.3350    -3.2000 H     1 <1>   0.0800 
 38 H       -1.8830     5.3680     3.3060 H     1 <1>   0.1500 
 39 H       -5.8130     1.6640    -2.6360 H     1 <1>   0.0800 
 40 H       -5.1720     1.8900    -1.0380 H     1 <1>   0.0800 
 41 H        1.7660     4.9220     0.3450 H     1 <1>   0.4000 
 42 H        1.2560     3.6420    -0.6500 H     1 <1>   0.4000 
 43 H        0.0590     5.9630     1.8560 H     1 <1>   0.1500 
 44 H       -5.4830    -2.9190    -2.1520 H     1 <1>   0.0800 
 45 H       -7.0010    -2.7520    -3.0220 H     1 <1>   0.0800 
 46 H       -8.3830    -2.9480     1.1630 H     1 <1>   0.1500 
 47 H       -6.7550    -4.9310    -2.2570 H     1 <1>   0.1500 
 48 H       -7.5220    -7.0650    -1.3800 H     1 <1>   0.1500 
 49 H       -8.7100    -7.1840     0.7410 H     1 <1>   0.1500 
 50 H      -10.2740    -5.9500     3.8020 H     1 <1>   0.0800 
 51 H       -8.9750    -6.8880     3.0730 H     1 <1>   0.0800 
 52 H      -10.5070    -6.6590     2.2080 H     1 <1>   0.0800 
@<TRIPOS>BOND
  1   1   2  2   
  2   2   3  am  
  3   2   4  1   
  4   3   5  1   
  5   3   6  1   
  6   4   7  ar  
  7   4   8  ar  
  8   5   9  1   
  9   5  29  1   
 10   5  30  1   
 11   6  10  1   
 12   6  31  1   
 13   6  32  1   
 14   7  11  ar  
 15   8  12  ar  
 16   8  33  1   
 17   9  13  1   
 18   9  34  1   
 19   9  35  1   
 20  10  14  1   
 21  10  36  1   
 22  10  37  1   
 23  11  15  1   
 24  11  16  ar  
 25  12  16  ar  
 26  12  38  1   
 27  13  14  1   
 28  13  17  am  
 29  14  39  1   
 30  14  40  1   
 31  15  41  1   
 32  15  42  1   
 33  16  43  1   
 34  17  18  2   
 35  17  19  1   
 36  19  20  1   
 37  19  44  1   
 38  19  45  1   
 39  20  21  1   
 40  21  22  ar  
 41  21  23  ar  
 42  22  24  ar  
 43  22  46  1   
 44  23  25  ar  
 45  23  47  1   
 46  24  26  1   
 47  24  27  ar  
 48  25  27  ar  
 49  25  48  1   
 50  26  28  1   
 51  27  49  1   
 52  28  50  1   
 53  28  51  1   
 54  28  52  1   
@<TRIPOS>SUBSTRUCTURE
  1 ****   9 GROUP 4 **** **** 0

# MOE 2024.06 (io_trps.svl 2023.06)
