@<TRIPOS>MOLECULE
NONAME
44 45 1 0 0 
SMALL
USER_CHARGES


@<TRIPOS>ATOM
  1 S        0.4200    -0.1040     0.5720 S.o2  1 <1>   1.3330 
  2 O        1.8470    -0.0090     0.7840 O.2   1 <1>  -0.6500 
  3 O       -0.4740    -0.1020     1.7080 O.2   1 <1>  -0.6500 
  4 N        0.1170    -1.4960    -0.3510 N.am  1 <1>  -0.8490 
  5 C       -0.0920     1.2220    -0.5170 C.3   1 <1>  -0.0550 
  6 C        1.2050    -1.8310    -1.2760 C.3   1 <1>   0.1160 
  7 C       -0.2020    -2.6580     0.4850 C.3   1 <1>   0.1160 
  8 C       -0.0290     2.6090     0.1470 C.3   1 <1>  -0.0800 
  9 C       -0.5740     3.7120    -0.7540 C.3   1 <1>   0.2000 
 10 C        1.3850     3.0840     0.4930 C.3   1 <1>   0.1400 
 11 O       -1.9560     3.7470    -0.6800 O.3   1 <1>  -0.6800 
 12 C        0.0590     5.0000    -0.2340 C.3   1 <1>   0.1400 
 13 N        1.3330     4.5650     0.3900 N.am  1 <1>  -0.6600 
 14 C        2.4590     5.3490     0.4850 C.2   1 <1>   0.7150 
 15 O        3.5370     4.7970     0.6000 O.2   1 <1>  -0.5700 
 16 C        2.3790     6.7830     0.4330 C.2   1 <1>  -0.2370 
 17 N        3.3420     7.5860    -0.0910 N.pl3 1 <1>   0.3140 
 18 C        1.4080     7.6370     0.8660 C.2   1 <1>  -0.1500 
 19 N        3.0120     8.8850    -0.0290 N.2   1 <1>  -0.7070 
 20 C        4.6260     7.1810    -0.6880 C.3   1 <1>   0.0160 
 21 C        1.8540     8.9060     0.5500 C.2   1 <1>   0.1080 
 22 C        1.1210    10.1960     0.8290 C.3   1 <1>  -0.0590 
 23 H        0.5180     1.2190    -1.3990 H     1 <1>   0.0800 
 24 H       -1.1050     1.0390    -0.8210 H     1 <1>   0.0800 
 25 H        0.9210    -2.6650    -1.8940 H     1 <1>   0.0800 
 26 H        2.0980    -2.0860    -0.7300 H     1 <1>   0.0800 
 27 H        1.4200    -0.9920    -1.9160 H     1 <1>   0.0800 
 28 H       -0.4060    -3.5170    -0.1320 H     1 <1>   0.0800 
 29 H       -1.0790    -2.4560     1.0780 H     1 <1>   0.0800 
 30 H        0.6190    -2.8810     1.1460 H     1 <1>   0.0800 
 31 H       -0.5920     2.5900     1.0650 H     1 <1>   0.0800 
 32 H       -0.2920     3.5580    -1.7820 H     1 <1>   0.0800 
 33 H        2.1070     2.7070    -0.2120 H     1 <1>   0.0800 
 34 H        1.6750     2.7830     1.4870 H     1 <1>   0.0800 
 35 H       -2.2520     3.8060     0.2490 H     1 <1>   0.4000 
 36 H       -0.5650     5.4530     0.5160 H     1 <1>   0.0800 
 37 H        0.2410     5.6930    -1.0390 H     1 <1>   0.0800 
 38 H        0.4850     7.4000     1.3600 H     1 <1>   0.1500 
 39 H        4.4520     6.4210    -1.4260 H     1 <1>   0.0800 
 40 H        5.2650     6.7980     0.0850 H     1 <1>   0.0800 
 41 H        5.0880     8.0340    -1.1480 H     1 <1>   0.0800 
 42 H        0.1830    10.0000     1.3140 H     1 <1>   0.0800 
 43 H        0.9410    10.7120    -0.0960 H     1 <1>   0.0800 
 44 H        1.7240    10.8190     1.4630 H     1 <1>   0.0800 
@<TRIPOS>BOND
  1   1   2  2   
  2   1   3  2   
  3   1   4  am  
  4   1   5  1   
  5   4   6  1   
  6   4   7  1   
  7   5   8  1   
  8   5  23  1   
  9   5  24  1   
 10   6  25  1   
 11   6  26  1   
 12   6  27  1   
 13   7  28  1   
 14   7  29  1   
 15   7  30  1   
 16   8   9  1   
 17   8  10  1   
 18   8  31  1   
 19   9  11  1   
 20   9  12  1   
 21   9  32  1   
 22  10  13  1   
 23  10  33  1   
 24  10  34  1   
 25  11  35  1   
 26  12  13  1   
 27  12  36  1   
 28  12  37  1   
 29  13  14  am  
 30  14  15  2   
 31  14  16  1   
 32  16  17  1   
 33  16  18  2   
 34  17  19  1   
 35  17  20  1   
 36  18  21  1   
 37  18  38  1   
 38  19  21  2   
 39  20  39  1   
 40  20  40  1   
 41  20  41  1   
 42  21  22  1   
 43  22  42  1   
 44  22  43  1   
 45  22  44  1   
@<TRIPOS>SUBSTRUCTURE
  1 ****  13 GROUP 4 **** **** 0

# MOE 2024.06 (io_trps.svl 2023.06)
