@<TRIPOS>MOLECULE
NONAME
45 48 1 0 0 
SMALL
USER_CHARGES


@<TRIPOS>ATOM
  1 O       -0.8880    -0.3400     0.0430 O.2   1 <1>  -0.5700 
  2 C       -1.8900     0.3360     0.0200 C.2   1 <1>   0.6300 
  3 N       -3.1260    -0.1810     0.3210 N.am  1 <1>  -0.6600 
  4 C       -1.7410     1.8050    -0.3700 C.3   1 <1>  -0.1000 
  5 C       -4.4010     0.5810     0.2690 C.3   1 <1>   0.1400 
  6 C       -3.2880    -1.6020     0.7330 C.3   1 <1>   0.1400 
  7 C       -0.5570     2.6130     0.0840 C.3   1 <1>  -0.2000 
  8 C       -1.9130     2.9020     0.6440 C.3   1 <1>  -0.2000 
  9 C       -5.3610    -0.1010    -0.7110 C.3   1 <1>  -0.1600 
 10 C       -4.2400    -2.3110    -0.2340 C.3   1 <1>  -0.1600 
 11 C       -5.5940    -1.5800    -0.3510 C.3   1 <1>  -0.0800 
 12 C       -6.5190    -2.2390    -1.3870 C.3   1 <1>   0.2090 
 13 N       -6.8240    -3.6340    -0.9860 N.pl3 1 <1>  -0.8690 
 14 C       -7.9620    -4.1860    -0.5130 C.2   1 <1>   0.2710 
 15 N       -7.8330    -5.4760    -0.1990 N.2   1 <1>  -0.6210 
 16 C       -9.1510    -3.5150    -0.3560 C.2   1 <1>  -0.1410 
 17 C       -8.8650    -6.1060     0.2620 C.2   1 <1>   0.9190 
 18 C      -10.2120    -4.2360     0.1360 C.cat 1 <1>   0.7910 
 19 N      -10.0700    -5.5230     0.4440 N.pl3 1 <1>  -0.6690 
 20 N       -8.7220    -7.3930     0.5690 N.pl3 1 <1>  -0.8500 
 21 N      -11.4890    -3.9210     0.4100 N.pl3 1 <1>  -0.3930 
 22 C      -11.2960    -5.9360     0.9030 C.2   1 <1>   0.5030 
 23 N      -12.1660    -4.9980     0.8930 N.2   1 <1>  -0.2600 
 24 H       -2.0810     1.9790    -1.3740 H     1 <1>   0.1000 
 25 H       -4.2390     1.5970    -0.0420 H     1 <1>   0.0800 
 26 H       -4.8350     0.6010     1.2540 H     1 <1>   0.0800 
 27 H       -3.6850    -1.6340     1.7320 H     1 <1>   0.0800 
 28 H       -2.3380    -2.1090     0.7380 H     1 <1>   0.0800 
 29 H       -0.1160     3.3080    -0.6090 H     1 <1>   0.1000 
 30 H        0.1760     2.1320     0.7090 H     1 <1>   0.1000 
 31 H       -2.1080     2.6360     1.6690 H     1 <1>   0.1000 
 32 H       -2.4120     3.8080     0.3490 H     1 <1>   0.1000 
 33 H       -4.9460    -0.0240    -1.7020 H     1 <1>   0.0800 
 34 H       -6.2960     0.4300    -0.7050 H     1 <1>   0.0800 
 35 H       -4.3900    -3.3150     0.1180 H     1 <1>   0.0800 
 36 H       -3.7650    -2.3680    -1.1990 H     1 <1>   0.0800 
 37 H       -6.0870    -1.6150     0.6060 H     1 <1>   0.0800 
 38 H       -6.0370    -2.2490    -2.3500 H     1 <1>   0.0800 
 39 H       -7.4260    -1.6700    -1.4790 H     1 <1>   0.0800 
 40 H       -6.0180    -4.2680    -1.0470 H     1 <1>   0.4000 
 41 H       -9.2560    -2.4800    -0.6050 H     1 <1>   0.1500 
 42 H       -7.8020    -7.8110     0.4170 H     1 <1>   0.4000 
 43 H       -9.4420    -8.0190     0.9140 H     1 <1>   0.4000 
 44 H      -11.9250    -3.0000     0.2800 H     1 <1>   0.4500 
 45 H      -11.4840    -6.9460     1.2310 H     1 <1>   0.1500 
@<TRIPOS>BOND
  1   1   2  2   
  2   2   3  am  
  3   2   4  1   
  4   3   5  1   
  5   3   6  1   
  6   4   7  1   
  7   4   8  1   
  8   4  24  1   
  9   5   9  1   
 10   5  25  1   
 11   5  26  1   
 12   6  10  1   
 13   6  27  1   
 14   6  28  1   
 15   7   8  1   
 16   7  29  1   
 17   7  30  1   
 18   8  31  1   
 19   8  32  1   
 20   9  11  1   
 21   9  33  1   
 22   9  34  1   
 23  10  11  1   
 24  10  35  1   
 25  10  36  1   
 26  11  12  1   
 27  11  37  1   
 28  12  13  1   
 29  12  38  1   
 30  12  39  1   
 31  13  14  1   
 32  13  40  1   
 33  14  15  1   
 34  14  16  2   
 35  15  17  2   
 36  16  18  1   
 37  16  41  1   
 38  17  19  1   
 39  17  20  1   
 40  18  19  ar  
 41  18  21  ar  
 42  19  22  1   
 43  20  42  1   
 44  20  43  1   
 45  21  23  1   
 46  21  44  1   
 47  22  23  2   
 48  22  45  1   
@<TRIPOS>SUBSTRUCTURE
  1 ****  11 GROUP 4 **** **** 0

# MOE 2024.06 (io_trps.svl 2023.06)
