@<TRIPOS>MOLECULE
NONAME
49 51 1 0 0 
SMALL
USER_CHARGES


@<TRIPOS>ATOM
  1 S       -0.7730     1.0360    -0.8660 S.o2  1 <1>   1.4470 
  2 O       -1.4150     2.2690    -0.4560 O.2   1 <1>  -0.6500 
  3 O       -0.6940     0.7590    -2.2850 O.2   1 <1>  -0.6500 
  4 N       -1.6600    -0.2260    -0.1650 N.am  1 <1>  -0.8490 
  5 C        0.8780     0.9170    -0.1000 C.ar  1 <1>  -0.0090 
  6 C       -1.2010    -1.5620    -0.5910 C.3   1 <1>   0.1960 
  7 C       -3.0970    -0.0880    -0.4510 C.3   1 <1>   0.1960 
  8 C        1.1170     1.1540     1.2570 C.ar  1 <1>  -0.1440 
  9 C        1.9650     0.5650    -0.8960 C.ar  1 <1>  -0.1500 
 10 C       -1.7870    -2.6880     0.3070 C.3   1 <1>  -0.1060 
 11 C       -3.9080    -1.3090     0.0130 C.3   1 <1>  -0.1600 
 12 C        2.4030     1.0530     1.7680 C.ar  1 <1>  -0.1500 
 13 C       -0.0080     1.5210     2.2160 C.3   1 <1>  -0.0970 
 14 C        3.2480     0.4600    -0.3890 C.ar  1 <1>  -0.1430 
 15 C       -2.0560    -3.9030    -0.5990 C.2   1 <1>   0.9060 
 16 C       -3.0840    -2.1530     0.9800 C.3   1 <1>   0.2000 
 17 C       -0.8060    -3.0860     1.4440 C.3   1 <1>  -0.0650 
 18 C        3.4630     0.7090     0.9520 C.ar  1 <1>  -0.1500 
 19 C        4.3960     0.0660    -1.3000 C.3   1 <1>  -0.0960 
 20 O       -2.9370    -4.7200    -0.2910 O.co2 1 <1>  -0.9000 
 21 O       -1.3910    -4.0580    -1.6300 O.co2 1 <1>  -0.9000 
 22 O       -3.8750    -3.1660     1.4800 O.3   1 <1>  -0.6800 
 23 C        0.5650    -3.6090     0.9860 C.3   1 <1>  -0.1950 
 24 C        1.6750    -3.7570     1.9770 C.3   1 <1>  -0.2000 
 25 C        1.7580    -2.7100     0.9060 C.3   1 <1>  -0.2000 
 26 H       -1.5070    -1.7030    -1.6170 H     1 <1>   0.0800 
 27 H       -0.1280    -1.6130    -0.5880 H     1 <1>   0.0800 
 28 H       -3.4630     0.7890     0.0570 H     1 <1>   0.0800 
 29 H       -3.2490     0.0560    -1.5090 H     1 <1>   0.0800 
 30 H        1.8000     0.3660    -1.9420 H     1 <1>   0.1500 
 31 H       -4.1730    -1.9050    -0.8420 H     1 <1>   0.0800 
 32 H       -4.8120    -0.9780     0.4890 H     1 <1>   0.0800 
 33 H        2.5890     1.2400     2.8110 H     1 <1>   0.1500 
 34 H        0.3480     1.5800     3.2280 H     1 <1>   0.0800 
 35 H       -0.7870     0.7800     2.1840 H     1 <1>   0.0800 
 36 H       -0.4250     2.4770     1.9520 H     1 <1>   0.0800 
 37 H       -2.8240    -1.5300     1.8190 H     1 <1>   0.0800 
 38 H       -0.6580    -2.2450     2.0970 H     1 <1>   0.0800 
 39 H       -1.2720    -3.8650     2.0240 H     1 <1>   0.0800 
 40 H        4.4530     0.6330     1.3680 H     1 <1>   0.1500 
 41 H        5.3400     0.3440    -0.8680 H     1 <1>   0.0800 
 42 H        4.3000     0.5570    -2.2520 H     1 <1>   0.0800 
 43 H        4.3860    -0.9980    -1.4560 H     1 <1>   0.0800 
 44 H       -3.7260    -3.9550     0.8670 H     1 <1>   0.4000 
 45 H        0.4840    -4.3940     0.2490 H     1 <1>   0.1000 
 46 H        1.5100    -3.4450     2.9930 H     1 <1>   0.1000 
 47 H        2.3070    -4.6260     1.9070 H     1 <1>   0.1000 
 48 H        2.4370    -2.8440     0.0820 H     1 <1>   0.1000 
 49 H        1.6550    -1.6790     1.1910 H     1 <1>   0.1000 
@<TRIPOS>BOND
  1   1   2  2   
  2   1   3  2   
  3   1   4  am  
  4   1   5  1   
  5   4   6  1   
  6   4   7  1   
  7   5   8  ar  
  8   5   9  ar  
  9   6  10  1   
 10   6  26  1   
 11   6  27  1   
 12   7  11  1   
 13   7  28  1   
 14   7  29  1   
 15   8  12  ar  
 16   8  13  1   
 17   9  14  ar  
 18   9  30  1   
 19  10  15  1   
 20  10  16  1   
 21  10  17  1   
 22  11  16  1   
 23  11  31  1   
 24  11  32  1   
 25  12  18  ar  
 26  12  33  1   
 27  13  34  1   
 28  13  35  1   
 29  13  36  1   
 30  14  18  ar  
 31  14  19  1   
 32  15  20  ar  
 33  15  21  ar  
 34  16  22  1   
 35  16  37  1   
 36  17  23  1   
 37  17  38  1   
 38  17  39  1   
 39  18  40  1   
 40  19  41  1   
 41  19  42  1   
 42  19  43  1   
 43  22  44  1   
 44  23  24  1   
 45  23  25  1   
 46  23  45  1   
 47  24  25  1   
 48  24  46  1   
 49  24  47  1   
 50  25  48  1   
 51  25  49  1   
@<TRIPOS>SUBSTRUCTURE
  1 ****   6 GROUP 4 **** **** 0

# MOE 2024.06 (io_trps.svl 2023.06)
