@<TRIPOS>MOLECULE
NONAME
55 58 1 0 0 
SMALL
USER_CHARGES


@<TRIPOS>ATOM
  1 O       -2.6840     0.3470     2.2590 O.2   1 <1>  -0.5700 
  2 C       -2.6210     0.6940     1.0950 C.2   1 <1>   0.5440 
  3 N       -2.5490    -0.2930     0.1320 N.am  1 <1>  -0.6600 
  4 C       -2.6770     2.1040     0.7490 C.ar  1 <1>   0.0860 
  5 C       -2.0820    -1.6550     0.4810 C.3   1 <1>   0.1400 
  6 C       -3.3160    -0.2100    -1.1310 C.3   1 <1>   0.1400 
  7 C       -1.9000     2.6370    -0.2810 C.ar  1 <1>  -0.1500 
  8 C       -3.5170     2.9780     1.4390 C.ar  1 <1>  -0.1500 
  9 C       -3.3110    -2.5360     0.6900 C.3   1 <1>  -0.1600 
 10 C       -4.5770    -1.0620    -0.9670 C.3   1 <1>  -0.1600 
 11 C       -1.9760     3.9750    -0.6220 C.ar  1 <1>  -0.1500 
 12 C       -3.5980     4.3170     1.1030 C.ar  1 <1>  -0.1500 
 13 C       -4.2340    -2.4950    -0.5290 C.3   1 <1>   0.4230 
 14 C       -2.8290     4.8180     0.0680 C.ar  1 <1>  -0.1500 
 15 N       -5.4720    -3.2120    -0.1650 N.4   1 <1>  -0.9060 
 16 C       -6.4070    -3.5300    -1.2810 C.3   1 <1>   0.4230 
 17 C       -7.6830    -4.1690    -0.7310 C.3   1 <1>  -0.0800 
 18 C       -5.8400    -4.7190    -2.0470 C.3   1 <1>   0.1200 
 19 C       -7.2970    -5.6500    -0.5820 C.3   1 <1>   0.1200 
 20 C       -8.2940    -3.5460     0.5410 C.3   1 <1>  -0.0170 
 21 O       -6.0260    -5.7660    -1.1520 O.3   1 <1>  -0.5600 
 22 C       -9.6000    -4.2360     0.8940 C.ar  1 <1>  -0.1430 
 23 C      -10.7780    -3.9400     0.2380 C.ar  1 <1>  -0.1500 
 24 C       -9.6800    -5.1950     1.8860 C.ar  1 <1>  -0.1500 
 25 C      -11.9430    -4.6020     0.5890 C.ar  1 <1>   0.1600 
 26 C      -10.8970    -5.7980     2.1590 C.ar  1 <1>   0.1600 
 27 N      -12.0270    -5.5260     1.5300 N.ar  1 <1>  -0.6200 
 28 H       -1.4620    -2.0370    -0.3130 H     1 <1>   0.0800 
 29 H       -1.4880    -1.6250     1.3810 H     1 <1>   0.0800 
 30 H       -3.5920     0.8100    -1.3450 H     1 <1>   0.0800 
 31 H       -2.7070    -0.5710    -1.9430 H     1 <1>   0.0800 
 32 H       -1.2250     1.9930    -0.8150 H     1 <1>   0.1500 
 33 H       -4.1110     2.5970     2.2520 H     1 <1>   0.1500 
 34 H       -3.8220    -2.1780     1.5680 H     1 <1>   0.0800 
 35 H       -2.9820    -3.5430     0.8740 H     1 <1>   0.0800 
 36 H       -5.0990    -1.0690    -1.9050 H     1 <1>   0.0800 
 37 H       -5.2010    -0.5870    -0.2300 H     1 <1>   0.0800 
 38 H       -1.3700     4.3650    -1.4220 H     1 <1>   0.1500 
 39 H       -4.2570     4.9710     1.6490 H     1 <1>   0.1500 
 40 H       -3.7390    -2.9990    -1.3440 H     1 <1>   0.0800 
 41 H       -2.8900     5.8600    -0.1950 H     1 <1>   0.1500 
 42 H       -5.9480    -2.6880     0.5750 H     1 <1>   0.4500 
 43 H       -5.2130    -4.1300     0.2270 H     1 <1>   0.4500 
 44 H       -6.6030    -2.6730    -1.9040 H     1 <1>   0.0800 
 45 H       -8.4290    -4.1190    -1.5070 H     1 <1>   0.0800 
 46 H       -4.7970    -4.6300    -2.2930 H     1 <1>   0.0800 
 47 H       -6.4090    -4.9270    -2.9380 H     1 <1>   0.0800 
 48 H       -7.9780    -6.2940    -1.1150 H     1 <1>   0.0800 
 49 H       -7.2340    -5.9670     0.4450 H     1 <1>   0.0800 
 50 H       -8.4910    -2.5000     0.3810 H     1 <1>   0.0800 
 51 H       -7.6230    -3.6330     1.3770 H     1 <1>   0.0800 
 52 H      -10.8120    -3.2010    -0.5410 H     1 <1>   0.1500 
 53 H       -8.8160    -5.4840     2.4560 H     1 <1>   0.1500 
 54 H      -12.8540    -4.3600     0.0680 H     1 <1>   0.1500 
 55 H      -10.9440    -6.5440     2.9350 H     1 <1>   0.1500 
@<TRIPOS>BOND
  1   1   2  2   
  2   2   3  am  
  3   2   4  1   
  4   3   5  1   
  5   3   6  1   
  6   4   7  ar  
  7   4   8  ar  
  8   5   9  1   
  9   5  28  1   
 10   5  29  1   
 11   6  10  1   
 12   6  30  1   
 13   6  31  1   
 14   7  11  ar  
 15   7  32  1   
 16   8  12  ar  
 17   8  33  1   
 18   9  13  1   
 19   9  34  1   
 20   9  35  1   
 21  10  13  1   
 22  10  36  1   
 23  10  37  1   
 24  11  14  ar  
 25  11  38  1   
 26  12  14  ar  
 27  12  39  1   
 28  13  15  1   
 29  13  40  1   
 30  14  41  1   
 31  15  16  1   
 32  15  42  1   
 33  15  43  1   
 34  16  17  1   
 35  16  18  1   
 36  16  44  1   
 37  17  19  1   
 38  17  20  1   
 39  17  45  1   
 40  18  21  1   
 41  18  46  1   
 42  18  47  1   
 43  19  21  1   
 44  19  48  1   
 45  19  49  1   
 46  20  22  1   
 47  20  50  1   
 48  20  51  1   
 49  22  23  ar  
 50  22  24  ar  
 51  23  25  ar  
 52  23  52  1   
 53  24  26  ar  
 54  24  53  1   
 55  25  27  ar  
 56  25  54  1   
 57  26  27  ar  
 58  26  55  1   
@<TRIPOS>SUBSTRUCTURE
  1 ****  15 GROUP 4 **** **** 0

# MOE 2024.06 (io_trps.svl 2023.06)
