@<TRIPOS>MOLECULE
NONAME
55 58 1 0 0 
SMALL
USER_CHARGES


@<TRIPOS>ATOM
  1 N       -0.0690    -0.2690    -0.3020 N.ar  1 <1>  -0.6200 
  2 C        1.0740     0.3220     0.0150 C.ar  1 <1>   0.7710 
  3 C       -0.1040    -1.5840    -0.3930 C.ar  1 <1>   0.4100 
  4 N        2.1910    -0.3900     0.2440 N.ar  1 <1>  -0.1790 
  5 N        1.1240     1.6780     0.1070 N.pl3 1 <1>  -0.8380 
  6 N       -1.2860    -2.1570    -0.7460 N.pl3 1 <1>  -0.8380 
  7 C        1.0430    -2.3590    -0.1300 C.ar  1 <1>  -0.1500 
  8 C        2.2050    -1.7420     0.1870 C.ar  1 <1>   0.2180 
  9 C       -0.0640     2.4870    -0.3480 C.3   1 <1>   0.2090 
 10 C        2.2490     2.4720     0.7120 C.3   1 <1>   0.2090 
 11 C       -1.4570    -3.4740    -1.4420 C.3   1 <1>   0.2090 
 12 C       -2.6060    -1.4600    -0.5890 C.3   1 <1>   0.2090 
 13 C        3.5010    -2.4790     0.4810 C.3   1 <1>  -0.0970 
 14 C        0.3370     3.9240    -0.6940 C.3   1 <1>  -0.1600 
 15 C        1.7060     3.7000     1.4470 C.3   1 <1>  -0.1600 
 16 C       -2.4960    -4.3500    -0.7160 C.3   1 <1>   0.1100 
 17 C       -3.6340    -2.3750     0.1050 C.3   1 <1>   0.1100 
 18 C        0.9610     4.6580     0.5030 C.3   1 <1>  -0.1600 
 19 N       -3.8080    -3.6700    -0.5950 N.3   1 <1>  -0.8100 
 20 C       -4.7960    -4.5030     0.1110 C.3   1 <1>   0.1100 
 21 C       -5.3460    -5.5910    -0.8130 C.3   1 <1>   0.0960 
 22 N       -6.4110    -6.3340    -0.1240 N.pl3 1 <1>   0.3140 
 23 N       -6.1750    -7.1460     0.8980 N.2   1 <1>  -0.7070 
 24 C       -7.7240    -6.3290    -0.3700 C.2   1 <1>   0.0360 
 25 C       -7.3600    -7.5720     1.1920 C.2   1 <1>   0.3660 
 26 N       -8.3600    -7.0970     0.4390 N.2   1 <1>  -0.5650 
 27 H        3.0200     0.1540     0.4410 H     1 <1>   0.4570 
 28 H        0.9730    -3.4270    -0.1720 H     1 <1>   0.1500 
 29 H       -0.8040     2.4990     0.4360 H     1 <1>   0.0800 
 30 H       -0.5100     2.0360    -1.2190 H     1 <1>   0.0800 
 31 H        2.9190     2.7960    -0.0680 H     1 <1>   0.0800 
 32 H        2.8000     1.8770     1.4190 H     1 <1>   0.0800 
 33 H       -0.5270    -4.0040    -1.5160 H     1 <1>   0.0800 
 34 H       -1.8040    -3.2930    -2.4450 H     1 <1>   0.0800 
 35 H       -2.9790    -1.1800    -1.5590 H     1 <1>   0.0800 
 36 H       -2.5000    -0.5640    -0.0040 H     1 <1>   0.0800 
 37 H        3.8390    -2.2620     1.4790 H     1 <1>   0.0800 
 38 H        4.2650    -2.1920    -0.2200 H     1 <1>   0.0800 
 39 H        3.3550    -3.5420     0.4010 H     1 <1>   0.0800 
 40 H       -0.5280     4.4660    -1.0360 H     1 <1>   0.0800 
 41 H        1.0370     3.8940    -1.5110 H     1 <1>   0.0800 
 42 H        2.5140     4.2280     1.9240 H     1 <1>   0.0800 
 43 H        1.0380     3.3670     2.2230 H     1 <1>   0.0800 
 44 H       -2.1200    -4.5980     0.2620 H     1 <1>   0.0800 
 45 H       -2.6120    -5.2640    -1.2710 H     1 <1>   0.0800 
 46 H       -4.5780    -1.8600     0.1390 H     1 <1>   0.0800 
 47 H       -3.3120    -2.5480     1.1180 H     1 <1>   0.0800 
 48 H        0.1910     5.1640     1.0610 H     1 <1>   0.0800 
 49 H        1.6380     5.4100     0.1330 H     1 <1>   0.0800 
 50 H       -5.6200    -3.8840     0.4240 H     1 <1>   0.0800 
 51 H       -4.3520    -4.9470     0.9870 H     1 <1>   0.0800 
 52 H       -4.5740    -6.2880    -1.0770 H     1 <1>   0.0800 
 53 H       -5.7490    -5.1460    -1.7030 H     1 <1>   0.0800 
 54 H       -8.1730    -5.7470    -1.1540 H     1 <1>   0.1500 
 55 H       -7.5570    -8.2680     1.9930 H     1 <1>   0.1500 
@<TRIPOS>BOND
  1   1   2  ar  
  2   1   3  ar  
  3   2   4  ar  
  4   2   5  1   
  5   3   6  1   
  6   3   7  ar  
  7   4   8  ar  
  8   4  27  1   
  9   5   9  1   
 10   5  10  1   
 11   6  11  1   
 12   6  12  1   
 13   7   8  ar  
 14   7  28  1   
 15   8  13  1   
 16   9  14  1   
 17   9  29  1   
 18   9  30  1   
 19  10  15  1   
 20  10  31  1   
 21  10  32  1   
 22  11  16  1   
 23  11  33  1   
 24  11  34  1   
 25  12  17  1   
 26  12  35  1   
 27  12  36  1   
 28  13  37  1   
 29  13  38  1   
 30  13  39  1   
 31  14  18  1   
 32  14  40  1   
 33  14  41  1   
 34  15  18  1   
 35  15  42  1   
 36  15  43  1   
 37  16  19  1   
 38  16  44  1   
 39  16  45  1   
 40  17  19  1   
 41  17  46  1   
 42  17  47  1   
 43  18  48  1   
 44  18  49  1   
 45  19  20  1   
 46  20  21  1   
 47  20  50  1   
 48  20  51  1   
 49  21  22  1   
 50  21  52  1   
 51  21  53  1   
 52  22  23  1   
 53  22  24  1   
 54  23  25  2   
 55  24  26  2   
 56  24  54  1   
 57  25  26  1   
 58  25  55  1   
@<TRIPOS>SUBSTRUCTURE
  1 ****   6 GROUP 4 **** **** 0

# MOE 2024.06 (io_trps.svl 2023.06)
