@<TRIPOS>MOLECULE
NONAME
38 40 1 0 0 
SMALL
USER_CHARGES


@<TRIPOS>ATOM
  1 O        1.3750    -0.0230     1.4820 O.3   1 <1>  -0.6800 
  2 C        1.6410    -0.0760     0.1160 C.3   1 <1>   0.2000 
  3 C        2.3690    -1.3790    -0.2320 C.3   1 <1>  -0.0800 
  4 C        2.6560     1.0170    -0.2420 C.3   1 <1>   0.2090 
  5 C        3.8370    -1.0800     0.0750 C.3   1 <1>   0.2090 
  6 C        1.8460    -2.6560     0.4520 C.3   1 <1>  -0.0170 
  7 N        4.0050     0.3730    -0.1870 N.pl3 1 <1>  -0.8380 
  8 C        2.6780    -3.8660     0.0550 C.ar  1 <1>  -0.1440 
  9 C        5.1680     1.0630    -0.2780 C.ar  1 <1>   0.4100 
 10 C        2.5920    -4.4310    -1.2020 C.ar  1 <1>  -0.1500 
 11 C        3.5640    -4.4610     0.9300 C.ar  1 <1>  -0.1500 
 12 N        5.0930     2.3490    -0.5720 N.ar  1 <1>  -0.6200 
 13 C        6.4100     0.4310    -0.0680 C.ar  1 <1>  -0.1500 
 14 C        3.3800    -5.5260    -1.5160 C.ar  1 <1>   0.1600 
 15 C        4.3050    -5.5560     0.5160 C.ar  1 <1>   0.1600 
 16 C        6.2160     3.0260    -0.6540 C.ar  1 <1>   0.7710 
 17 C        7.5470     1.1590    -0.1640 C.ar  1 <1>   0.2110 
 18 N        4.2380    -6.0990    -0.6880 N.ar  1 <1>  -0.6200 
 19 N        7.4280     2.4760    -0.4630 N.ar  1 <1>  -0.1790 
 20 N        6.1050     4.3190    -0.9460 N.pl3 1 <1>  -0.9000 
 21 H        0.6360    -0.6170     1.7160 H     1 <1>   0.4000 
 22 H        0.7140     0.0500    -0.4160 H     1 <1>   0.0800 
 23 H        2.2960    -1.5120    -1.2970 H     1 <1>   0.0800 
 24 H        2.5910     1.8480     0.4390 H     1 <1>   0.0800 
 25 H        2.4810     1.3630    -1.2460 H     1 <1>   0.0800 
 26 H        4.4870    -1.6710    -0.5470 H     1 <1>   0.0800 
 27 H        4.0440    -1.2750     1.1140 H     1 <1>   0.0800 
 28 H        0.8210    -2.8240     0.1700 H     1 <1>   0.0800 
 29 H        1.8780    -2.5460     1.5220 H     1 <1>   0.0800 
 30 H        1.9210    -4.0330    -1.9410 H     1 <1>   0.1500 
 31 H        3.6860    -4.0890     1.9310 H     1 <1>   0.1500 
 32 H        6.4350    -0.6150     0.1690 H     1 <1>   0.1500 
 33 H        3.3010    -5.9530    -2.5020 H     1 <1>   0.1500 
 34 H        4.9900    -6.0080     1.2130 H     1 <1>   0.1500 
 35 H        8.5280     0.7360    -0.0130 H     1 <1>   0.1500 
 36 H        8.2320     3.0890    -0.5500 H     1 <1>   0.4570 
 37 H        6.8350     5.0240    -1.0550 H     1 <1>   0.4000 
 38 H        5.1560     4.6850    -1.0770 H     1 <1>   0.4000 
@<TRIPOS>BOND
  1   1   2  1   
  2   1  21  1   
  3   2   3  1   
  4   2   4  1   
  5   2  22  1   
  6   3   5  1   
  7   3   6  1   
  8   3  23  1   
  9   4   7  1   
 10   4  24  1   
 11   4  25  1   
 12   5   7  1   
 13   5  26  1   
 14   5  27  1   
 15   6   8  1   
 16   6  28  1   
 17   6  29  1   
 18   7   9  1   
 19   8  10  ar  
 20   8  11  ar  
 21   9  12  ar  
 22   9  13  ar  
 23  10  14  ar  
 24  10  30  1   
 25  11  15  ar  
 26  11  31  1   
 27  12  16  ar  
 28  13  17  ar  
 29  13  32  1   
 30  14  18  ar  
 31  14  33  1   
 32  15  18  ar  
 33  15  34  1   
 34  16  19  ar  
 35  16  20  1   
 36  17  19  ar  
 37  17  35  1   
 38  19  36  1   
 39  20  37  1   
 40  20  38  1   
@<TRIPOS>SUBSTRUCTURE
  1 ****   5 GROUP 4 **** **** 0

# MOE 2024.06 (io_trps.svl 2023.06)
