@<TRIPOS>MOLECULE
NONAME
45 49 1 0 0 
SMALL
USER_CHARGES


@<TRIPOS>ATOM
  1 O        1.0570     0.9230    -0.4440 O.2   1 <1>  -0.5700 
  2 C        1.7270     0.0400     0.0800 C.2   1 <1>   0.4690 
  3 C        2.8920     0.3350     0.8670 C.2   1 <1>   0.0290 
  4 C        1.3410    -1.3380    -0.0940 C.ar  1 <1>   0.0860 
  5 C        3.3100     1.6960     1.0390 C.2   1 <1>   0.6160 
  6 C        3.5880    -0.6880     1.4650 C.2   1 <1>  -0.0500 
  7 C        2.1230    -2.2980     0.5360 C.ar  1 <1>   0.1000 
  8 C        0.2550    -1.8210    -0.8350 C.ar  1 <1>  -0.1500 
  9 O        3.4300     2.1410     2.1670 O.2   1 <1>  -0.5700 
 10 N        3.6610     2.5030    -0.0170 N.am  1 <1>  -0.6600 
 11 N        3.2170    -1.9870     1.2960 N.pl3 1 <1>  -0.5690 
 12 C        1.8760    -3.6470     0.4640 C.ar  1 <1>  -0.1430 
 13 C       -0.0070    -3.1790    -0.9210 C.ar  1 <1>  -0.1500 
 14 C        4.0790     3.9170     0.1640 C.3   1 <1>   0.4010 
 15 C        3.9010     2.0450    -1.4050 C.3   1 <1>   0.1400 
 16 C        3.8100    -3.2330     1.8450 C.3   1 <1>   0.2090 
 17 C        0.8050    -4.1070    -0.2680 C.ar  1 <1>  -0.1500 
 18 C        2.9270    -4.3740     1.2790 C.3   1 <1>  -0.0170 
 19 C        2.8880     4.8770     0.0670 C.2   1 <1>   0.1080 
 20 C        5.0670     4.1270    -0.9840 C.3   1 <1>  -0.1600 
 21 C        4.5550     3.2300    -2.1100 C.3   1 <1>  -0.1600 
 22 N        2.9960     6.1630     0.1080 N.2   1 <1>  -0.4100 
 23 C        1.5480     4.5110    -0.0750 C.2   1 <1>  -0.1500 
 24 O        1.7880     6.6360    -0.0030 O.3   1 <1>  -0.0190 
 25 C        0.9020     5.6840    -0.1130 C.2   1 <1>  -0.0400 
 26 C       -0.5670     6.0210    -0.2490 C.3   1 <1>  -0.0600 
 27 H        4.4470    -0.4830     2.0850 H     1 <1>   0.1500 
 28 H       -0.3790    -1.1130    -1.3400 H     1 <1>   0.1500 
 29 H       -0.8480    -3.5280    -1.4960 H     1 <1>   0.1500 
 30 H        4.5680     4.0580     1.1130 H     1 <1>   0.0800 
 31 H        2.9740     1.7810    -1.8860 H     1 <1>   0.0800 
 32 H        4.5630     1.1960    -1.3950 H     1 <1>   0.0800 
 33 H        3.7700    -3.2110     2.9200 H     1 <1>   0.0800 
 34 H        4.8290    -3.3310     1.5130 H     1 <1>   0.0800 
 35 H        0.5930    -5.1600    -0.3390 H     1 <1>   0.1500 
 36 H        3.5080    -5.0300     0.6560 H     1 <1>   0.0800 
 37 H        2.4750    -4.9350     2.0760 H     1 <1>   0.0800 
 38 H        6.0380     3.7950    -0.6630 H     1 <1>   0.0800 
 39 H        5.1350     5.1590    -1.2790 H     1 <1>   0.0800 
 40 H        3.8050     3.7540    -2.6780 H     1 <1>   0.0800 
 41 H        5.3400     2.9180    -2.7750 H     1 <1>   0.0800 
 42 H        1.1600     3.5110    -0.1340 H     1 <1>   0.1500 
 43 H       -1.1460     5.1190    -0.3250 H     1 <1>   0.0800 
 44 H       -0.7230     6.6150    -1.1310 H     1 <1>   0.0800 
 45 H       -0.8930     6.5760     0.6120 H     1 <1>   0.0800 
@<TRIPOS>BOND
  1   1   2  2   
  2   2   3  1   
  3   2   4  1   
  4   3   5  1   
  5   3   6  2   
  6   4   7  ar  
  7   4   8  ar  
  8   5   9  2   
  9   5  10  am  
 10   6  11  1   
 11   6  27  1   
 12   7  11  1   
 13   7  12  ar  
 14   8  13  ar  
 15   8  28  1   
 16  10  14  1   
 17  10  15  1   
 18  11  16  1   
 19  12  17  ar  
 20  12  18  1   
 21  13  17  ar  
 22  13  29  1   
 23  14  19  1   
 24  14  20  1   
 25  14  30  1   
 26  15  21  1   
 27  15  31  1   
 28  15  32  1   
 29  16  18  1   
 30  16  33  1   
 31  16  34  1   
 32  17  35  1   
 33  18  36  1   
 34  18  37  1   
 35  19  22  2   
 36  19  23  1   
 37  20  21  1   
 38  20  38  1   
 39  20  39  1   
 40  21  40  1   
 41  21  41  1   
 42  22  24  1   
 43  23  25  2   
 44  23  42  1   
 45  24  25  1   
 46  25  26  1   
 47  26  43  1   
 48  26  44  1   
 49  26  45  1   
@<TRIPOS>SUBSTRUCTURE
  1 ****   3 GROUP 4 **** **** 0

# MOE 2024.06 (io_trps.svl 2023.06)
