@<TRIPOS>MOLECULE
NONAME
43 44 1 0 0 
SMALL
USER_CHARGES


@<TRIPOS>ATOM
  1 O        0.3050    -0.3100     0.5640 O.2   1 <1>  -0.5750 
  2 C        1.3500    -0.7060     0.1230 C.2   1 <1>   0.8490 
  3 N        2.4060     0.1350    -0.0420 N.pl3 1 <1>  -0.7340 
  4 C        1.4970    -2.1780    -0.2640 C.3   1 <1>  -0.0290 
  5 C        2.4540     1.4410     0.2500 C.cat 1 <1>   1.0680 
  6 C        0.1260    -2.8940    -0.1940 C.3   1 <1>   0.3360 
  7 C        2.5490    -2.9180     0.5890 C.3   1 <1>  -0.1690 
  8 N        1.4690     2.1620     0.7510 N.pl3 1 <1>  -0.7040 
  9 N        3.5280     2.2120     0.0720 N.pl3 1 <1>  -0.7680 
 10 N        0.2320    -4.3670     0.0890 N.4   1 <1>  -0.9610 
 11 C        2.6990    -4.3830     0.1310 C.3   1 <1>  -0.1690 
 12 C        1.9040     3.4550     0.9100 C.2   1 <1>   0.1920 
 13 C        3.1820     3.4880     0.4890 C.2   1 <1>   0.1920 
 14 C        4.8840     1.8980    -0.4590 C.3   1 <1>   0.2660 
 15 C        1.4430    -4.9830    -0.5180 C.3   1 <1>   0.3360 
 16 C       -1.0300    -5.0590    -0.3370 C.3   1 <1>   0.3360 
 17 C       -1.1360    -6.4960     0.1880 C.3   1 <1>   0.1110 
 18 O       -2.3550    -6.9980    -0.2380 O.3   1 <1>  -0.5650 
 19 C       -2.6140    -8.3030     0.1750 C.3   1 <1>   0.0300 
 20 H        3.2630    -0.2520    -0.4080 H     1 <1>   0.4440 
 21 H        1.8160    -2.2010    -1.2900 H     1 <1>   0.0710 
 22 H       -0.3890    -2.7420    -1.1290 H     1 <1>   0.0710 
 23 H       -0.4770    -2.4490     0.5810 H     1 <1>   0.0710 
 24 H        2.2360    -2.9040     1.6210 H     1 <1>   0.0710 
 25 H        3.5090    -2.4340     0.5370 H     1 <1>   0.0710 
 26 H        0.5460     1.7680     0.9690 H     1 <1>   0.4440 
 27 H        0.3150    -4.4860     1.1090 H     1 <1>   0.4440 
 28 H        2.9830    -4.9900     0.9740 H     1 <1>   0.0710 
 29 H        3.5010    -4.4580    -0.5830 H     1 <1>   0.0710 
 30 H        1.2850     4.2470     1.3050 H     1 <1>   0.1410 
 31 H        3.8620     4.3270     0.4600 H     1 <1>   0.1410 
 32 H        4.9700     0.8590    -0.7230 H     1 <1>   0.0710 
 33 H        5.6280     2.1270     0.2860 H     1 <1>   0.0710 
 34 H        5.0790     2.4940    -1.3350 H     1 <1>   0.0710 
 35 H        1.4500    -4.7820    -1.5780 H     1 <1>   0.0710 
 36 H        1.4420    -6.0510    -0.3780 H     1 <1>   0.0710 
 37 H       -1.0860    -5.0780    -1.4130 H     1 <1>   0.0710 
 38 H       -1.8790    -4.5100     0.0360 H     1 <1>   0.0710 
 39 H       -1.1200    -6.5140     1.2640 H     1 <1>   0.0710 
 40 H       -0.3580    -7.1200    -0.2160 H     1 <1>   0.0710 
 41 H       -3.5780    -8.5900    -0.2080 H     1 <1>   0.0710 
 42 H       -2.6280    -8.3420     1.2510 H     1 <1>   0.0710 
 43 H       -1.8590    -8.9600    -0.2190 H     1 <1>   0.0710 
@<TRIPOS>BOND
  1   1   2  2   
  2   2   3  1   
  3   2   4  1   
  4   3   5  ar  
  5   3  20  1   
  6   4   6  1   
  7   4   7  1   
  8   4  21  1   
  9   5   8  ar  
 10   5   9  ar  
 11   6  10  1   
 12   6  22  1   
 13   6  23  1   
 14   7  11  1   
 15   7  24  1   
 16   7  25  1   
 17   8  12  1   
 18   8  26  1   
 19   9  13  1   
 20   9  14  1   
 21  10  15  1   
 22  10  16  1   
 23  10  27  1   
 24  11  15  1   
 25  11  28  1   
 26  11  29  1   
 27  12  13  2   
 28  12  30  1   
 29  13  31  1   
 30  14  32  1   
 31  14  33  1   
 32  14  34  1   
 33  15  35  1   
 34  15  36  1   
 35  16  17  1   
 36  16  37  1   
 37  16  38  1   
 38  17  18  1   
 39  17  39  1   
 40  17  40  1   
 41  18  19  1   
 42  19  41  1   
 43  19  42  1   
 44  19  43  1   
@<TRIPOS>SUBSTRUCTURE
  1 ****   4 GROUP 4 **** **** 0

# MOE 2024.06 (io_trps.svl 2023.06)
