@<TRIPOS>MOLECULE
NONAME
58 61 1 0 0 
SMALL
USER_CHARGES


@<TRIPOS>ATOM
  1 O       -2.2040    -1.9440     0.0970 O.3   1 <1>  -0.2800 
  2 C       -2.6750    -0.9190     0.8000 C.2   1 <1>   0.0870 
  3 C       -1.6300    -2.7960     0.9190 C.2   1 <1>  -0.0400 
  4 C       -3.3330     0.2000     0.1560 C.ar  1 <1>   0.0530 
  5 C       -2.4220    -1.1480     2.1160 C.2   1 <1>  -0.1500 
  6 C       -1.7450    -2.3660     2.1920 C.2   1 <1>  -0.1500 
  7 C       -0.9430    -4.0240     0.3610 C.3   1 <1>  -0.0600 
  8 C       -4.1170     0.0910    -1.0040 C.ar  1 <1>  -0.1430 
  9 C       -3.2020     1.4640     0.7270 C.ar  1 <1>  -0.1500 
 10 C       -4.7300     1.2110    -1.5470 C.ar  1 <1>  -0.1500 
 11 C       -4.3370    -1.2390    -1.7050 C.3   1 <1>   0.4860 
 12 C       -3.8160     2.5760     0.1860 C.ar  1 <1>  -0.1500 
 13 C       -4.5840     2.4510    -0.9540 C.ar  1 <1>  -0.1500 
 14 N       -4.9190    -2.2220    -0.7450 N.4   1 <1>  -0.9590 
 15 C       -5.0230    -3.5960    -1.3430 C.3   1 <1>   0.3430 
 16 C       -6.2120    -1.7350    -0.1830 C.3   1 <1>   0.3430 
 17 C       -5.6050    -4.6540    -0.3510 C.3   1 <1>   0.4230 
 18 C       -6.7110    -2.7280     0.8710 C.3   1 <1>  -0.1600 
 19 N       -5.6910    -6.0840    -0.8870 N.4   1 <1>  -0.9590 
 20 C       -6.9190    -4.1710     0.3320 C.3   1 <1>   0.0000 
 21 C       -6.5610    -6.9900    -0.0600 C.3   1 <1>   0.3430 
 22 C       -6.1070    -6.1960    -2.3270 C.3   1 <1>   0.2630 
 23 C       -7.2110    -5.1020     1.5440 C.3   1 <1>  -0.1600 
 24 C       -8.1610    -4.1920    -0.6060 C.3   1 <1>   0.1200 
 25 C       -6.6250    -6.5220     1.3940 C.3   1 <1>  -0.1600 
 26 O       -7.8920    -3.5930    -1.8290 O.3   1 <1>  -0.6800 
 27 H       -2.6680    -0.5260     2.9590 H     1 <1>   0.1500 
 28 H       -1.3810    -2.8230     3.0970 H     1 <1>   0.1500 
 29 H       -0.5100    -4.6010     1.1590 H     1 <1>   0.0800 
 30 H       -0.1560    -3.7240    -0.3070 H     1 <1>   0.0800 
 31 H       -1.6420    -4.6370    -0.1750 H     1 <1>   0.0800 
 32 H       -2.6000     1.5870     1.6110 H     1 <1>   0.1500 
 33 H       -5.3290     1.1420    -2.4400 H     1 <1>   0.1500 
 34 H       -3.3890    -1.5970    -2.0720 H     1 <1>   0.0800 
 35 H       -4.9990    -1.1050    -2.5450 H     1 <1>   0.0800 
 36 H       -3.6950     3.5420     0.6490 H     1 <1>   0.1500 
 37 H       -5.0600     3.3190    -1.3800 H     1 <1>   0.1500 
 38 H       -4.2200    -2.2290     0.0210 H     1 <1>   0.4500 
 39 H       -5.6550    -3.5460    -2.2120 H     1 <1>   0.0800 
 40 H       -4.0430    -3.9150    -1.6550 H     1 <1>   0.0800 
 41 H       -6.0760    -0.7670     0.2760 H     1 <1>   0.0800 
 42 H       -6.9430    -1.6310    -0.9690 H     1 <1>   0.0800 
 43 H       -4.8860    -4.6910     0.4500 H     1 <1>   0.0800 
 44 H       -6.0000    -2.7260     1.6800 H     1 <1>   0.0800 
 45 H       -7.6370    -2.3560     1.2750 H     1 <1>   0.0800 
 46 H       -4.7430    -6.4850    -0.8170 H     1 <1>   0.4500 
 47 H       -7.5620    -6.9990    -0.4590 H     1 <1>   0.0800 
 48 H       -6.1840    -8.0000    -0.1020 H     1 <1>   0.0800 
 49 H       -7.0950    -5.7900    -2.4690 H     1 <1>   0.0800 
 50 H       -6.1200    -7.2310    -2.6320 H     1 <1>   0.0800 
 51 H       -5.4220    -5.6670    -2.9680 H     1 <1>   0.0800 
 52 H       -6.8090    -4.6890     2.4550 H     1 <1>   0.0800 
 53 H       -8.2760    -5.1730     1.7000 H     1 <1>   0.0800 
 54 H       -8.9830    -3.6620    -0.1510 H     1 <1>   0.0800 
 55 H       -8.4900    -5.1970    -0.8040 H     1 <1>   0.0800 
 56 H       -7.2290    -7.2120     1.9600 H     1 <1>   0.0800 
 57 H       -5.6350    -6.5610     1.8170 H     1 <1>   0.0800 
 58 H       -8.7290    -3.4580    -2.3320 H     1 <1>   0.4000 
@<TRIPOS>BOND
  1   1   2  1   
  2   1   3  1   
  3   2   4  1   
  4   2   5  2   
  5   3   6  2   
  6   3   7  1   
  7   4   8  ar  
  8   4   9  ar  
  9   5   6  1   
 10   5  27  1   
 11   6  28  1   
 12   7  29  1   
 13   7  30  1   
 14   7  31  1   
 15   8  10  ar  
 16   8  11  1   
 17   9  12  ar  
 18   9  32  1   
 19  10  13  ar  
 20  10  33  1   
 21  11  14  1   
 22  11  34  1   
 23  11  35  1   
 24  12  13  ar  
 25  12  36  1   
 26  13  37  1   
 27  14  15  1   
 28  14  16  1   
 29  14  38  1   
 30  15  17  1   
 31  15  39  1   
 32  15  40  1   
 33  16  18  1   
 34  16  41  1   
 35  16  42  1   
 36  17  19  1   
 37  17  20  1   
 38  17  43  1   
 39  18  20  1   
 40  18  44  1   
 41  18  45  1   
 42  19  21  1   
 43  19  22  1   
 44  19  46  1   
 45  20  23  1   
 46  20  24  1   
 47  21  25  1   
 48  21  47  1   
 49  21  48  1   
 50  22  49  1   
 51  22  50  1   
 52  22  51  1   
 53  23  25  1   
 54  23  52  1   
 55  23  53  1   
 56  24  26  1   
 57  24  54  1   
 58  24  55  1   
 59  25  56  1   
 60  25  57  1   
 61  26  58  1   
@<TRIPOS>SUBSTRUCTURE
  1 ****  14 GROUP 4 **** **** 0

# MOE 2024.06 (io_trps.svl 2023.06)
