@<TRIPOS>MOLECULE
NONAME
56 59 1 0 0 
SMALL
USER_CHARGES


@<TRIPOS>ATOM
  1 O        0.6710     1.6740    -1.1320 O.3   1 <1>  -0.0190 
  2 N        1.4230     0.6260    -1.2810 N.2   1 <1>  -0.4100 
  3 C        0.6690     2.1000     0.1030 C.2   1 <1>  -0.0400 
  4 C        1.8940     0.3540    -0.1160 C.2   1 <1>   0.1080 
  5 C        1.4450     1.2780     0.8240 C.2   1 <1>  -0.1500 
  6 C       -0.1100     3.3490     0.4690 C.3   1 <1>   0.0200 
  7 C        2.8100    -0.8130     0.1800 C.3   1 <1>  -0.0590 
  8 C        0.1370     4.4570    -0.5740 C.3   1 <1>  -0.0800 
  9 C       -0.3780     5.8450    -0.2040 C.3   1 <1>   0.2000 
 10 C        1.6220     4.6640    -0.9020 C.3   1 <1>   0.3430 
 11 O       -0.0110     6.1300     1.1170 O.3   1 <1>  -0.5600 
 12 C        0.4440     6.7360    -1.1360 C.3   1 <1>   0.3430 
 13 N        1.8190     6.1270    -1.1590 N.4   1 <1>  -0.9590 
 14 C       -0.9000     6.9560     1.8080 C.3   1 <1>   0.0400 
 15 C        2.7080     6.6980    -0.0990 C.3   1 <1>   0.4860 
 16 C        2.7730     8.2010    -0.2200 C.ar  1 <1>  -0.1440 
 17 C        3.4600     8.8320    -1.2300 C.ar  1 <1>   0.1600 
 18 C        2.1270     9.0030     0.6890 C.ar  1 <1>   0.1600 
 19 N        3.4880    10.1350    -1.3410 N.ar  1 <1>  -0.6200 
 20 N        2.1360    10.3070     0.5970 N.ar  1 <1>  -0.6200 
 21 C        2.8450    10.8380    -0.4040 C.ar  1 <1>   0.6200 
 22 C        2.8970    12.2760    -0.4980 C.ar  1 <1>   0.0000 
 23 C        3.7880    13.0220     0.2820 C.ar  1 <1>   0.0820 
 24 C        2.0570    12.9590    -1.3780 C.ar  1 <1>  -0.1500 
 25 O        4.6070    12.3400     1.1220 O.3   1 <1>  -0.3630 
 26 C        3.8140    14.4110     0.1780 C.ar  1 <1>  -0.1500 
 27 C        2.0870    14.3360    -1.4790 C.ar  1 <1>  -0.1500 
 28 C        5.5240    12.9870     1.9750 C.3   1 <1>   0.0400 
 29 C        2.9670    15.0640    -0.6980 C.ar  1 <1>  -0.1500 
 30 H        1.6900     1.2900     1.8710 H     1 <1>   0.1500 
 31 H       -1.1600     3.1130     0.5030 H     1 <1>   0.0800 
 32 H        0.1920     3.6620     1.4530 H     1 <1>   0.0800 
 33 H        3.7210    -0.4620     0.6280 H     1 <1>   0.0800 
 34 H        3.0480    -1.3340    -0.7300 H     1 <1>   0.0800 
 35 H        2.3240    -1.4960     0.8520 H     1 <1>   0.0800 
 36 H       -0.3450     4.1580    -1.4890 H     1 <1>   0.0800 
 37 H       -1.4430     5.9460    -0.3350 H     1 <1>   0.0800 
 38 H        1.8950     4.0720    -1.7620 H     1 <1>   0.0800 
 39 H        2.2220     4.3460    -0.0640 H     1 <1>   0.0800 
 40 H        0.4410     7.7610    -0.8050 H     1 <1>   0.0800 
 41 H        0.0160     6.6900    -2.1240 H     1 <1>   0.0800 
 42 H        2.2510     6.2790    -2.0800 H     1 <1>   0.4500 
 43 H       -0.5080     7.1240     2.7970 H     1 <1>   0.0800 
 44 H       -1.8570     6.4670     1.8850 H     1 <1>   0.0800 
 45 H       -0.9980     7.8980     1.2950 H     1 <1>   0.0800 
 46 H        2.3230     6.4390     0.8750 H     1 <1>   0.0800 
 47 H        3.7000     6.2860    -0.1870 H     1 <1>   0.0800 
 48 H        4.0000     8.2670    -1.9710 H     1 <1>   0.1500 
 49 H        1.5810     8.5710     1.5130 H     1 <1>   0.1500 
 50 H        1.3720    12.3970    -1.9870 H     1 <1>   0.1500 
 51 H        4.4870    15.0020     0.7690 H     1 <1>   0.1500 
 52 H        1.4290    14.8440    -2.1630 H     1 <1>   0.1500 
 53 H        6.0400    12.2340     2.5430 H     1 <1>   0.0800 
 54 H        4.9840    13.6390     2.6380 H     1 <1>   0.0800 
 55 H        6.2270    13.5390     1.3770 H     1 <1>   0.0800 
 56 H        2.9920    16.1370    -0.7750 H     1 <1>   0.1500 
@<TRIPOS>BOND
  1   1   2  1   
  2   1   3  1   
  3   2   4  2   
  4   3   5  2   
  5   3   6  1   
  6   4   5  1   
  7   4   7  1   
  8   5  30  1   
  9   6   8  1   
 10   6  31  1   
 11   6  32  1   
 12   7  33  1   
 13   7  34  1   
 14   7  35  1   
 15   8   9  1   
 16   8  10  1   
 17   8  36  1   
 18   9  11  1   
 19   9  12  1   
 20   9  37  1   
 21  10  13  1   
 22  10  38  1   
 23  10  39  1   
 24  11  14  1   
 25  12  13  1   
 26  12  40  1   
 27  12  41  1   
 28  13  15  1   
 29  13  42  1   
 30  14  43  1   
 31  14  44  1   
 32  14  45  1   
 33  15  16  1   
 34  15  46  1   
 35  15  47  1   
 36  16  17  ar  
 37  16  18  ar  
 38  17  19  ar  
 39  17  48  1   
 40  18  20  ar  
 41  18  49  1   
 42  19  21  ar  
 43  20  21  ar  
 44  21  22  1   
 45  22  23  ar  
 46  22  24  ar  
 47  23  25  1   
 48  23  26  ar  
 49  24  27  ar  
 50  24  50  1   
 51  25  28  1   
 52  26  29  ar  
 53  26  51  1   
 54  27  29  ar  
 55  27  52  1   
 56  28  53  1   
 57  28  54  1   
 58  28  55  1   
 59  29  56  1   
@<TRIPOS>SUBSTRUCTURE
  1 ****  16 GROUP 4 **** **** 0

# MOE 2024.06 (io_trps.svl 2023.06)
