@<TRIPOS>MOLECULE
NONAME
44 45 1 0 0 
SMALL
USER_CHARGES


@<TRIPOS>ATOM
  1 CL       1.7430    -1.0560     1.6070 Cl    1 <1>  -0.1770 
  2 C        1.1220    -2.3990     0.6850 C.ar  1 <1>   0.1770 
  3 C        0.8220    -3.5840     1.3270 C.ar  1 <1>  -0.1500 
  4 C        0.9410    -2.2610    -0.6760 C.ar  1 <1>  -0.1500 
  5 C        0.3260    -4.6580     0.6050 C.ar  1 <1>  -0.1440 
  6 C        0.4420    -3.3310    -1.3970 C.ar  1 <1>  -0.1500 
  7 C        0.1150    -4.5400    -0.7790 C.ar  1 <1>   0.0860 
  8 C        0.0370    -5.9470     1.3700 C.3   1 <1>  -0.0960 
  9 C       -0.4310    -5.6130    -1.5880 C.2   1 <1>   0.5440 
 10 O        0.3010    -6.2220    -2.3460 O.2   1 <1>  -0.5700 
 11 N       -1.7660    -5.9400    -1.5410 N.am  1 <1>  -0.6600 
 12 C       -2.2010    -7.3330    -1.8750 C.3   1 <1>   0.1400 
 13 C       -2.8210    -5.0310    -1.0210 C.3   1 <1>   0.1400 
 14 C       -3.6260    -7.6350    -1.3750 C.3   1 <1>   0.2000 
 15 C       -3.5230    -5.6410     0.1990 C.3   1 <1>  -0.1600 
 16 O       -3.8600    -8.9930    -1.4940 O.3   1 <1>  -0.6800 
 17 C       -3.8490    -7.1730     0.0940 C.3   1 <1>  -0.1060 
 18 C       -2.9310    -7.9820     1.0490 C.2   1 <1>   0.9060 
 19 C       -5.3150    -7.4290     0.5560 C.3   1 <1>  -0.1600 
 20 O       -2.6790    -7.5400     2.1770 O.co2 1 <1>  -0.9000 
 21 O       -2.4990    -9.0930     0.7020 O.co2 1 <1>  -0.9000 
 22 C       -6.4280    -6.8930    -0.3660 C.3   1 <1>  -0.1600 
 23 C       -7.8040    -7.0840     0.2770 C.3   1 <1>  -0.2400 
 24 H        0.9780    -3.6640     2.3870 H     1 <1>   0.1500 
 25 H        1.1880    -1.3330    -1.1590 H     1 <1>   0.1500 
 26 H        0.2990    -3.2440    -2.4600 H     1 <1>   0.1500 
 27 H        0.9260    -6.2870     1.8690 H     1 <1>   0.0800 
 28 H       -0.3040    -6.7440     0.7350 H     1 <1>   0.0800 
 29 H       -0.7210    -5.7750     2.1140 H     1 <1>   0.0800 
 30 H       -2.1600    -7.4670    -2.9410 H     1 <1>   0.0800 
 31 H       -1.5100    -8.0220    -1.4190 H     1 <1>   0.0800 
 32 H       -2.4070    -4.0730    -0.7580 H     1 <1>   0.0800 
 33 H       -3.5420    -4.8690    -1.8040 H     1 <1>   0.0800 
 34 H       -4.3180    -7.1430    -2.0330 H     1 <1>   0.0800 
 35 H       -2.9010    -5.4470     1.0520 H     1 <1>   0.0800 
 36 H       -4.4170    -5.0740     0.3750 H     1 <1>   0.0800 
 37 H       -3.3560    -9.3990    -0.7250 H     1 <1>   0.4000 
 38 H       -5.4520    -8.4930     0.6610 H     1 <1>   0.0800 
 39 H       -5.4310    -7.0090     1.5420 H     1 <1>   0.0800 
 40 H       -6.2820    -5.8500    -0.5750 H     1 <1>   0.0800 
 41 H       -6.4100    -7.4300    -1.2990 H     1 <1>   0.0800 
 42 H       -7.8620    -6.5420     1.2050 H     1 <1>   0.0800 
 43 H       -7.9810    -8.1270     0.4740 H     1 <1>   0.0800 
 44 H       -8.5740    -6.7240    -0.3820 H     1 <1>   0.0800 
@<TRIPOS>BOND
  1   1   2  1   
  2   2   3  ar  
  3   2   4  ar  
  4   3   5  ar  
  5   3  24  1   
  6   4   6  ar  
  7   4  25  1   
  8   5   7  ar  
  9   5   8  1   
 10   6   7  ar  
 11   6  26  1   
 12   7   9  1   
 13   8  27  1   
 14   8  28  1   
 15   8  29  1   
 16   9  10  2   
 17   9  11  am  
 18  11  12  1   
 19  11  13  1   
 20  12  14  1   
 21  12  30  1   
 22  12  31  1   
 23  13  15  1   
 24  13  32  1   
 25  13  33  1   
 26  14  16  1   
 27  14  17  1   
 28  14  34  1   
 29  15  17  1   
 30  15  35  1   
 31  15  36  1   
 32  16  37  1   
 33  17  18  1   
 34  17  19  1   
 35  18  20  ar  
 36  18  21  ar  
 37  19  22  1   
 38  19  38  1   
 39  19  39  1   
 40  22  23  1   
 41  22  40  1   
 42  22  41  1   
 43  23  42  1   
 44  23  43  1   
 45  23  44  1   
@<TRIPOS>SUBSTRUCTURE
  1 ****  11 GROUP 4 **** **** 0

# MOE 2024.06 (io_trps.svl 2023.06)
