@<TRIPOS>MOLECULE
NONAME
57 60 1 0 0 
SMALL
USER_CHARGES


@<TRIPOS>ATOM
  1 O        1.8190    -0.1750     0.6840 O.3   1 <1>  -0.5600 
  2 C        2.7330    -1.0740     0.0920 C.3   1 <1>   0.4240 
  3 C        0.5090    -0.1700     0.1920 C.3   1 <1>   0.1200 
  4 C        2.0740    -2.4120    -0.2920 C.ar  1 <1>  -0.1440 
  5 C        3.8160    -1.3050     1.1530 C.3   1 <1>  -0.1600 
  6 C        3.3620    -0.3640    -1.1240 C.3   1 <1>  -0.1600 
  7 C       -0.1390    -1.5220     0.4760 C.3   1 <1>  -0.0160 
  8 C        0.7170    -2.6280    -0.1070 C.ar  1 <1>  -0.1440 
  9 C        2.8330    -3.4410    -0.8330 C.ar  1 <1>  -0.1500 
 10 C        4.4640    -0.0040     1.6400 C.3   1 <1>   0.3430 
 11 C        4.4260     0.6750    -0.7530 C.3   1 <1>   0.3430 
 12 C        0.1430    -3.8410    -0.4490 C.ar  1 <1>  -0.1500 
 13 C        2.2810    -4.6610    -1.1860 C.ar  1 <1>   0.0830 
 14 N        4.2550     1.1010     0.6630 N.4   1 <1>  -0.9590 
 15 C        0.9050    -4.8740    -0.9900 C.ar  1 <1>   0.0830 
 16 O        3.1900    -5.5400    -1.7020 O.3   1 <1>  -0.3630 
 17 C        4.9850     2.3440     1.0090 C.3   1 <1>   0.5240 
 18 O        0.3330    -6.0680    -1.3250 O.3   1 <1>  -0.3620 
 19 C        2.8610    -6.8410    -2.1320 C.3   1 <1>   0.0400 
 20 C        4.4610     3.4430     0.1150 C.2   1 <1>  -0.1810 
 21 C       -1.0330    -6.3470    -1.1030 C.3   1 <1>   0.0400 
 22 C        5.1470     4.0720    -0.9190 C.2   1 <1>   0.1080 
 23 C        3.2390     4.0230     0.1170 C.2   1 <1>  -0.3020 
 24 N        4.4130     4.9520    -1.5150 N.2   1 <1>  -0.7070 
 25 C        6.5760     3.8230    -1.3550 C.3   1 <1>  -0.0590 
 26 N        3.2360     4.9350    -0.8730 N.pl3 1 <1>   0.3140 
 27 C        2.1440     5.8370    -1.2580 C.3   1 <1>   0.0160 
 28 H        0.5250     0.0310    -0.8650 H     1 <1>   0.0800 
 29 H       -0.0320     0.6150     0.6920 H     1 <1>   0.0800 
 30 H        4.5860    -1.9370     0.7510 H     1 <1>   0.0800 
 31 H        3.3910    -1.8310     1.9900 H     1 <1>   0.0800 
 32 H        2.5960     0.0970    -1.7180 H     1 <1>   0.0800 
 33 H        3.8360    -1.0870    -1.7620 H     1 <1>   0.0800 
 34 H       -1.1210    -1.5410     0.0370 H     1 <1>   0.0800 
 35 H       -0.2410    -1.6590     1.5370 H     1 <1>   0.0800 
 36 H        3.8880    -3.3210    -0.9960 H     1 <1>   0.1500 
 37 H        5.5160    -0.1700     1.8030 H     1 <1>   0.0800 
 38 H        4.0160     0.2730     2.5810 H     1 <1>   0.0800 
 39 H        4.3360     1.5210    -1.4170 H     1 <1>   0.0800 
 40 H        5.4080     0.2490    -0.8820 H     1 <1>   0.0800 
 41 H       -0.9090    -3.9630    -0.2830 H     1 <1>   0.1500 
 42 H        3.2470     1.3270     0.7330 H     1 <1>   0.4500 
 43 H        6.0440     2.2150     0.8640 H     1 <1>   0.0800 
 44 H        4.8030     2.6080     2.0380 H     1 <1>   0.0800 
 45 H        3.7570    -7.3120    -2.4920 H     1 <1>   0.0800 
 46 H        2.1380    -6.7740    -2.9250 H     1 <1>   0.0800 
 47 H        2.4670    -7.3940    -1.2970 H     1 <1>   0.0800 
 48 H       -1.2240    -7.3530    -1.4300 H     1 <1>   0.0800 
 49 H       -1.6280    -5.6590    -1.6750 H     1 <1>   0.0800 
 50 H       -1.2400    -6.2610    -0.0510 H     1 <1>   0.0800 
 51 H        2.3850     3.8550     0.7490 H     1 <1>   0.1500 
 52 H        6.8590     2.8000    -1.2010 H     1 <1>   0.0800 
 53 H        7.2370     4.4660    -0.8030 H     1 <1>   0.0800 
 54 H        6.6760     4.0550    -2.4010 H     1 <1>   0.0800 
 55 H        1.2560     5.5910    -0.7070 H     1 <1>   0.0800 
 56 H        1.9600     5.7320    -2.3110 H     1 <1>   0.0800 
 57 H        2.4380     6.8480    -1.0460 H     1 <1>   0.0800 
@<TRIPOS>BOND
  1   1   2  1   
  2   1   3  1   
  3   2   4  1   
  4   2   5  1   
  5   2   6  1   
  6   3   7  1   
  7   3  28  1   
  8   3  29  1   
  9   4   8  ar  
 10   4   9  ar  
 11   5  10  1   
 12   5  30  1   
 13   5  31  1   
 14   6  11  1   
 15   6  32  1   
 16   6  33  1   
 17   7   8  1   
 18   7  34  1   
 19   7  35  1   
 20   8  12  ar  
 21   9  13  ar  
 22   9  36  1   
 23  10  14  1   
 24  10  37  1   
 25  10  38  1   
 26  11  14  1   
 27  11  39  1   
 28  11  40  1   
 29  12  15  ar  
 30  12  41  1   
 31  13  15  ar  
 32  13  16  1   
 33  14  17  1   
 34  14  42  1   
 35  15  18  1   
 36  16  19  1   
 37  17  20  1   
 38  17  43  1   
 39  17  44  1   
 40  18  21  1   
 41  19  45  1   
 42  19  46  1   
 43  19  47  1   
 44  20  22  1   
 45  20  23  2   
 46  21  48  1   
 47  21  49  1   
 48  21  50  1   
 49  22  24  2   
 50  22  25  1   
 51  23  26  1   
 52  23  51  1   
 53  24  26  1   
 54  25  52  1   
 55  25  53  1   
 56  25  54  1   
 57  26  27  1   
 58  27  55  1   
 59  27  56  1   
 60  27  57  1   
@<TRIPOS>SUBSTRUCTURE
  1 ****   2 GROUP 4 **** **** 0

# MOE 2024.06 (io_trps.svl 2023.06)
