@<TRIPOS>MOLECULE
NONAME
47 49 1 0 0 
SMALL
USER_CHARGES


@<TRIPOS>ATOM
  1 O       -1.1170    -2.0310     0.1500 O.2   1 <1>  -0.5700 
  2 C       -0.0680    -2.5800    -0.0690 C.2   1 <1>   0.5690 
  3 N        0.2040    -3.1340    -1.2680 N.am  1 <1>  -0.7300 
  4 C        0.9940    -2.6780     1.0040 C.3   1 <1>  -0.0990 
  5 C        1.4680    -3.8380    -1.5650 C.3   1 <1>   0.1400 
  6 C        2.3850    -2.3810     0.4110 C.3   1 <1>  -0.0800 
  7 C        2.6540    -3.0620    -0.9550 C.3   1 <1>  -0.0800 
  8 C        3.5340    -2.7930     1.3420 C.3   1 <1>  -0.1600 
  9 C        3.8970    -3.9380    -0.7470 C.3   1 <1>  -0.1600 
 10 C        4.6400    -3.2590     0.4030 C.3   1 <1>   0.2200 
 11 N        5.6500    -4.1180     1.0950 N.am  1 <1>  -0.6600 
 12 C        6.9000    -3.6740     1.4640 C.2   1 <1>   0.5690 
 13 C        5.2640    -5.5320     1.4030 C.3   1 <1>   0.0600 
 14 O        7.7280    -4.4180     1.9320 O.2   1 <1>  -0.5700 
 15 C        7.3170    -2.2240     1.2990 C.3   1 <1>  -0.0990 
 16 C        7.9360    -1.9780    -0.0820 C.3   1 <1>  -0.0170 
 17 C        8.2310    -0.5000    -0.2710 C.ar  1 <1>  -0.1440 
 18 C        9.4170     0.0400     0.2010 C.ar  1 <1>  -0.1500 
 19 C        7.3140     0.3220    -0.9110 C.ar  1 <1>  -0.1500 
 20 C        9.6770     1.3910     0.0310 C.ar  1 <1>   0.0820 
 21 C        7.5770     1.6720    -1.0790 C.ar  1 <1>  -0.1500 
 22 O       10.8230     1.9190     0.4860 O.3   1 <1>  -0.5330 
 23 C        8.7620     2.2090    -0.6060 C.ar  1 <1>  -0.1500 
 24 H       -0.5290    -3.1030    -1.9810 H     1 <1>   0.3700 
 25 H        0.7710    -1.9860     1.7950 H     1 <1>   0.0800 
 26 H        0.9580    -3.6740     1.4040 H     1 <1>   0.0800 
 27 H        1.4090    -4.8270    -1.1420 H     1 <1>   0.0800 
 28 H        1.5960    -3.9300    -2.6300 H     1 <1>   0.0800 
 29 H        2.4450    -1.3160     0.2500 H     1 <1>   0.0800 
 30 H        2.9180    -2.2840    -1.6520 H     1 <1>   0.0800 
 31 H        3.2250    -3.6030     1.9770 H     1 <1>   0.0800 
 32 H        3.8600    -1.9700     1.9530 H     1 <1>   0.0800 
 33 H        4.5040    -3.9860    -1.6330 H     1 <1>   0.0800 
 34 H        3.5850    -4.9270    -0.4700 H     1 <1>   0.0800 
 35 H        5.1120    -2.3870    -0.0090 H     1 <1>   0.0800 
 36 H        4.2370    -5.5870     1.7150 H     1 <1>   0.0800 
 37 H        5.8740    -5.9290     2.1960 H     1 <1>   0.0800 
 38 H        5.4040    -6.1430     0.5280 H     1 <1>   0.0800 
 39 H        6.4830    -1.5700     1.4670 H     1 <1>   0.0800 
 40 H        8.0480    -1.9950     2.0530 H     1 <1>   0.0800 
 41 H        7.2690    -2.3160    -0.8540 H     1 <1>   0.0800 
 42 H        8.8460    -2.5470    -0.1720 H     1 <1>   0.0800 
 43 H       10.1320    -0.5890     0.6980 H     1 <1>   0.1500 
 44 H        6.3890    -0.0820    -1.2830 H     1 <1>   0.1500 
 45 H        6.8630     2.3050    -1.5760 H     1 <1>   0.1500 
 46 H       11.3980     1.2620     0.9150 H     1 <1>   0.4500 
 47 H        8.9810     3.2540    -0.7280 H     1 <1>   0.1500 
@<TRIPOS>BOND
  1   1   2  2   
  2   2   3  am  
  3   2   4  1   
  4   3   5  1   
  5   3  24  1   
  6   4   6  1   
  7   4  25  1   
  8   4  26  1   
  9   5   7  1   
 10   5  27  1   
 11   5  28  1   
 12   6   7  1   
 13   6   8  1   
 14   6  29  1   
 15   7   9  1   
 16   7  30  1   
 17   8  10  1   
 18   8  31  1   
 19   8  32  1   
 20   9  10  1   
 21   9  33  1   
 22   9  34  1   
 23  10  11  1   
 24  10  35  1   
 25  11  12  am  
 26  11  13  1   
 27  12  14  2   
 28  12  15  1   
 29  13  36  1   
 30  13  37  1   
 31  13  38  1   
 32  15  16  1   
 33  15  39  1   
 34  15  40  1   
 35  16  17  1   
 36  16  41  1   
 37  16  42  1   
 38  17  18  ar  
 39  17  19  ar  
 40  18  20  ar  
 41  18  43  1   
 42  19  21  ar  
 43  19  44  1   
 44  20  22  1   
 45  20  23  ar  
 46  21  23  ar  
 47  21  45  1   
 48  22  46  1   
 49  23  47  1   
@<TRIPOS>SUBSTRUCTURE
  1 ****  10 GROUP 4 **** **** 0

# MOE 2024.06 (io_trps.svl 2023.06)
