@<TRIPOS>MOLECULE
NONAME
47 50 1 0 0 
SMALL
USER_CHARGES


@<TRIPOS>ATOM
  1 CL       0.3930    -0.8460    -1.3480 Cl    1 <1>  -0.1770 
  2 C       -0.0960    -2.4360    -0.8250 C.ar  1 <1>   0.1770 
  3 C       -1.2280    -2.5950    -0.0770 C.ar  1 <1>  -0.1500 
  4 C        0.6930    -3.5290    -1.1890 C.ar  1 <1>  -0.1500 
  5 C       -1.6240    -3.8790     0.3460 C.ar  1 <1>   0.0000 
  6 C        0.3210    -4.7850    -0.7870 C.ar  1 <1>  -0.1500 
  7 C       -0.8380    -4.9970    -0.0180 C.ar  1 <1>   0.3100 
  8 C       -2.7730    -4.1060     1.1200 C.ar  1 <1>  -0.1500 
  9 N       -1.1620    -6.2660     0.3460 N.ar  1 <1>  -0.6200 
 10 C       -3.0700    -5.3860     1.4790 C.ar  1 <1>  -0.1500 
 11 C       -2.2320    -6.4370     1.0710 C.ar  1 <1>   0.1670 
 12 C       -2.5940    -7.8640     1.4820 C.3   1 <1>   0.4870 
 13 N       -2.3210    -8.8040     0.3510 N.4   1 <1>  -0.9590 
 14 C       -3.3170    -8.6190    -0.7410 C.3   1 <1>   0.3430 
 15 C       -2.4020   -10.2310     0.7820 C.3   1 <1>   0.3430 
 16 C       -4.4020    -9.6640    -0.4720 C.3   1 <1>   0.2000 
 17 C       -3.6160   -10.8560     0.0710 C.3   1 <1>  -0.0800 
 18 O       -5.2340    -9.1920     0.5400 O.3   1 <1>  -0.6800 
 19 C       -3.1770   -11.8080    -1.0590 C.3   1 <1>   0.0210 
 20 C       -2.4750   -13.0320    -0.5060 C.2   1 <1>   0.1080 
 21 N       -1.3430   -12.9710     0.1240 N.2   1 <1>  -0.7070 
 22 C       -2.9500   -14.3350    -0.6080 C.2   1 <1>  -0.1500 
 23 N       -1.0570   -14.2530     0.4350 N.pl3 1 <1>   0.3000 
 24 C       -2.0190   -15.0940     0.0060 C.2   1 <1>  -0.3320 
 25 C       -1.9880   -16.5980     0.2070 C.3   1 <1>  -0.0600 
 26 H       -1.8210    -1.7390     0.1940 H     1 <1>   0.1500 
 27 H        1.5790    -3.3590    -1.7770 H     1 <1>   0.1500 
 28 H        0.9120    -5.6420    -1.0510 H     1 <1>   0.1500 
 29 H       -3.3900    -3.2740     1.4140 H     1 <1>   0.1500 
 30 H       -3.9420    -5.5950     2.0740 H     1 <1>   0.1500 
 31 H       -3.6310    -7.9150     1.7680 H     1 <1>   0.0800 
 32 H       -1.9900    -8.1340     2.3310 H     1 <1>   0.0800 
 33 H       -1.3810    -8.5380     0.0130 H     1 <1>   0.4500 
 34 H       -3.7240    -7.6210    -0.7630 H     1 <1>   0.0800 
 35 H       -2.8500    -8.8300    -1.6880 H     1 <1>   0.0800 
 36 H       -1.4940   -10.7460     0.5170 H     1 <1>   0.0800 
 37 H       -2.5310   -10.2970     1.8500 H     1 <1>   0.0800 
 38 H       -5.0000    -9.8790    -1.3420 H     1 <1>   0.0800 
 39 H       -4.2030   -11.4250     0.7710 H     1 <1>   0.0800 
 40 H       -6.0200    -9.7700     0.6470 H     1 <1>   0.4000 
 41 H       -2.5080   -11.3120    -1.7410 H     1 <1>   0.0800 
 42 H       -4.0380   -12.1320    -1.6170 H     1 <1>   0.0800 
 43 H       -3.8640   -14.6500    -1.0810 H     1 <1>   0.1500 
 44 H       -0.2000   -14.5240     0.9340 H     1 <1>   0.2700 
 45 H       -2.8640   -17.0480    -0.2250 H     1 <1>   0.0800 
 46 H       -1.9650   -16.8350     1.2570 H     1 <1>   0.0800 
 47 H       -1.1190   -17.0200    -0.2660 H     1 <1>   0.0800 
@<TRIPOS>BOND
  1   1   2  1   
  2   2   3  ar  
  3   2   4  ar  
  4   3   5  ar  
  5   3  26  1   
  6   4   6  ar  
  7   4  27  1   
  8   5   7  ar  
  9   5   8  ar  
 10   6   7  ar  
 11   6  28  1   
 12   7   9  ar  
 13   8  10  ar  
 14   8  29  1   
 15   9  11  ar  
 16  10  11  ar  
 17  10  30  1   
 18  11  12  1   
 19  12  13  1   
 20  12  31  1   
 21  12  32  1   
 22  13  14  1   
 23  13  15  1   
 24  13  33  1   
 25  14  16  1   
 26  14  34  1   
 27  14  35  1   
 28  15  17  1   
 29  15  36  1   
 30  15  37  1   
 31  16  17  1   
 32  16  18  1   
 33  16  38  1   
 34  17  19  1   
 35  17  39  1   
 36  18  40  1   
 37  19  20  1   
 38  19  41  1   
 39  19  42  1   
 40  20  21  2   
 41  20  22  1   
 42  21  23  1   
 43  22  24  2   
 44  22  43  1   
 45  23  24  1   
 46  23  44  1   
 47  24  25  1   
 48  25  45  1   
 49  25  46  1   
 50  25  47  1   
@<TRIPOS>SUBSTRUCTURE
  1 ****  13 GROUP 4 **** **** 0

# MOE 2024.06 (io_trps.svl 2023.06)
