@<TRIPOS>MOLECULE
NONAME
46 49 1 0 0 
SMALL
USER_CHARGES


@<TRIPOS>ATOM
  1 F       -1.1210    -2.1530     1.4730 F     1 <1>  -0.3400 
  2 C       -2.0380    -2.2730     0.5160 C.3   1 <1>   1.1640 
  3 F       -2.4210    -3.5440     0.5660 F     1 <1>  -0.3400 
  4 F       -1.3710    -2.1090    -0.6210 F     1 <1>  -0.3400 
  5 C       -3.1900    -1.2780     0.7030 C.ar  1 <1>  -0.1440 
  6 C       -4.2580    -1.2970    -0.2210 C.ar  1 <1>   0.3100 
  7 C       -3.1910    -0.3770     1.7470 C.ar  1 <1>  -0.1500 
  8 N       -4.2120    -2.1610    -1.2670 N.ar  1 <1>  -0.6200 
  9 C       -5.3420    -0.4030    -0.0370 C.ar  1 <1>   0.0000 
 10 C       -4.2380     0.5300     1.9050 C.ar  1 <1>  -0.1500 
 11 C       -5.2030    -2.1510    -2.1080 C.ar  1 <1>   0.1600 
 12 C       -6.4300    -0.4540    -0.9490 C.ar  1 <1>   0.1000 
 13 C       -5.2840     0.5180     1.0280 C.ar  1 <1>  -0.1500 
 14 C       -6.3160    -1.3290    -1.9950 C.ar  1 <1>  -0.1500 
 15 N       -7.5720     0.3220    -0.8000 N.pl3 1 <1>  -0.8380 
 16 C       -8.4730     0.1580     0.3810 C.3   1 <1>   0.2090 
 17 C       -8.1150     1.1440    -1.9110 C.3   1 <1>   0.2090 
 18 C       -9.8630    -0.3950    -0.0270 C.3   1 <1>   0.0000 
 19 C       -9.4850     0.6090    -2.3430 C.3   1 <1>  -0.1600 
 20 C      -10.8280    -0.4870     1.1720 C.3   1 <1>   0.2000 
 21 C      -10.4540     0.4780    -1.1560 C.3   1 <1>  -0.1600 
 22 C       -9.7530    -1.8750    -0.4350 C.3   1 <1>  -0.1600 
 23 O      -10.7250     0.5820     2.0470 O.3   1 <1>  -0.6800 
 24 C      -10.5090    -1.7960     1.8950 C.3   1 <1>  -0.1600 
 25 C       -9.7700    -2.6700     0.8740 C.3   1 <1>  -0.1600 
 26 H       -2.3880    -0.3380     2.4650 H     1 <1>   0.1500 
 27 H       -4.2080     1.2350     2.7180 H     1 <1>   0.1500 
 28 H       -5.1570    -2.8300    -2.9430 H     1 <1>   0.1500 
 29 H       -6.0820     1.2280     1.1380 H     1 <1>   0.1500 
 30 H       -7.0950    -1.4010    -2.7280 H     1 <1>   0.1500 
 31 H       -8.0110    -0.4980     1.0980 H     1 <1>   0.0800 
 32 H       -8.5900     1.1240     0.8400 H     1 <1>   0.0800 
 33 H       -8.2130     2.1610    -1.5710 H     1 <1>   0.0800 
 34 H       -7.4320     1.1340    -2.7430 H     1 <1>   0.0800 
 35 H       -9.9040     1.2760    -3.0750 H     1 <1>   0.0800 
 36 H       -9.3520    -0.3470    -2.8160 H     1 <1>   0.0800 
 37 H      -11.8430    -0.5170     0.8130 H     1 <1>   0.0800 
 38 H      -11.3870     0.0650    -1.4970 H     1 <1>   0.0800 
 39 H      -10.6580     1.4600    -0.7630 H     1 <1>   0.0800 
 40 H      -10.6140    -2.1540    -1.0190 H     1 <1>   0.0800 
 41 H       -8.8710    -2.0840    -1.0120 H     1 <1>   0.0800 
 42 H       -9.9430     0.4740     2.6190 H     1 <1>   0.4000 
 43 H       -9.8780    -1.6320     2.7520 H     1 <1>   0.0800 
 44 H      -11.4210    -2.2710     2.2100 H     1 <1>   0.0800 
 45 H       -8.7590    -2.8410     1.2060 H     1 <1>   0.0800 
 46 H      -10.2540    -3.6230     0.7420 H     1 <1>   0.0800 
@<TRIPOS>BOND
  1   1   2  1   
  2   2   3  1   
  3   2   4  1   
  4   2   5  1   
  5   5   6  ar  
  6   5   7  ar  
  7   6   8  ar  
  8   6   9  ar  
  9   7  10  ar  
 10   7  26  1   
 11   8  11  ar  
 12   9  12  ar  
 13   9  13  ar  
 14  10  13  ar  
 15  10  27  1   
 16  11  14  ar  
 17  11  28  1   
 18  12  14  ar  
 19  12  15  1   
 20  13  29  1   
 21  14  30  1   
 22  15  16  1   
 23  15  17  1   
 24  16  18  1   
 25  16  31  1   
 26  16  32  1   
 27  17  19  1   
 28  17  33  1   
 29  17  34  1   
 30  18  20  1   
 31  18  21  1   
 32  18  22  1   
 33  19  21  1   
 34  19  35  1   
 35  19  36  1   
 36  20  23  1   
 37  20  24  1   
 38  20  37  1   
 39  21  38  1   
 40  21  39  1   
 41  22  25  1   
 42  22  40  1   
 43  22  41  1   
 44  23  42  1   
 45  24  25  1   
 46  24  43  1   
 47  24  44  1   
 48  25  45  1   
 49  25  46  1   
@<TRIPOS>SUBSTRUCTURE
  1 ****  12 GROUP 4 **** **** 0

# MOE 2024.06 (io_trps.svl 2023.06)
