@<TRIPOS>MOLECULE
NONAME
40 42 1 0 0 
SMALL
USER_CHARGES


@<TRIPOS>ATOM
  1 CL      -0.1330     0.0430     0.5220 Cl    1 <1>  -0.1770 
  2 C       -0.1620    -1.6970     0.4280 C.ar  1 <1>   0.1770 
  3 C        0.4640    -2.3330    -0.6270 C.ar  1 <1>  -0.1500 
  4 C       -0.8080    -2.4210     1.4120 C.ar  1 <1>  -0.1500 
  5 C        0.4350    -3.7140    -0.6970 C.ar  1 <1>  -0.1500 
  6 C       -0.8290    -3.8030     1.3310 C.ar  1 <1>  -0.1500 
  7 C       -0.2180    -4.4790     0.2720 C.ar  1 <1>   0.0860 
  8 C       -0.2460    -5.9280     0.1730 C.2   1 <1>   0.5440 
  9 O        0.7790    -6.5320    -0.0810 O.2   1 <1>  -0.5700 
 10 N       -1.4090    -6.6440     0.3400 N.am  1 <1>  -0.6600 
 11 C       -2.7760    -6.0880     0.1690 C.3   1 <1>   0.1400 
 12 C       -1.4380    -8.1260     0.2520 C.3   1 <1>   0.1400 
 13 C       -3.6140    -7.2650    -0.3240 C.3   1 <1>   0.2000 
 14 C       -2.9200    -8.5060     0.2290 C.3   1 <1>  -0.0800 
 15 O       -4.9180    -7.1940     0.1400 O.3   1 <1>  -0.6800 
 16 C       -3.2150    -9.7780    -0.5800 C.3   1 <1>   0.0210 
 17 C       -2.4340   -10.9570    -0.0350 C.2   1 <1>   0.1080 
 18 N       -2.6250   -11.4370     1.1540 N.2   1 <1>  -0.7070 
 19 C       -1.4350   -11.6370    -0.7230 C.2   1 <1>  -0.1500 
 20 N       -1.7450   -12.4510     1.2570 N.pl3 1 <1>   0.3000 
 21 C       -1.0110   -12.5910     0.1330 C.2   1 <1>  -0.3320 
 22 C        0.0670   -13.6420    -0.0560 C.3   1 <1>  -0.0600 
 23 H        0.9680    -1.7510    -1.3790 H     1 <1>   0.1500 
 24 H       -1.2810    -1.9050     2.2280 H     1 <1>   0.1500 
 25 H        0.9260    -4.2220    -1.5110 H     1 <1>   0.1500 
 26 H       -1.3190    -4.3740     2.1010 H     1 <1>   0.1500 
 27 H       -3.1360    -5.7400     1.1210 H     1 <1>   0.0800 
 28 H       -2.7800    -5.2880    -0.5500 H     1 <1>   0.0800 
 29 H       -0.9460    -8.4350    -0.6540 H     1 <1>   0.0800 
 30 H       -0.9340    -8.5690     1.0950 H     1 <1>   0.0800 
 31 H       -3.6340    -7.2690    -1.4000 H     1 <1>   0.0800 
 32 H       -3.2190    -8.6640     1.2510 H     1 <1>   0.0800 
 33 H       -4.9510    -7.4050     1.0930 H     1 <1>   0.4000 
 34 H       -2.9620    -9.6280    -1.6130 H     1 <1>   0.0800 
 35 H       -4.2650   -10.0050    -0.5220 H     1 <1>   0.0800 
 36 H       -1.0930   -11.4270    -1.7200 H     1 <1>   0.1500 
 37 H       -1.6710   -13.0260     2.1050 H     1 <1>   0.2700 
 38 H        0.5060   -13.5480    -1.0340 H     1 <1>   0.0800 
 39 H       -0.3530   -14.6270     0.0370 H     1 <1>   0.0800 
 40 H        0.8410   -13.5170     0.6800 H     1 <1>   0.0800 
@<TRIPOS>BOND
  1   1   2  1   
  2   2   3  ar  
  3   2   4  ar  
  4   3   5  ar  
  5   3  23  1   
  6   4   6  ar  
  7   4  24  1   
  8   5   7  ar  
  9   5  25  1   
 10   6   7  ar  
 11   6  26  1   
 12   7   8  1   
 13   8   9  2   
 14   8  10  am  
 15  10  11  1   
 16  10  12  1   
 17  11  13  1   
 18  11  27  1   
 19  11  28  1   
 20  12  14  1   
 21  12  29  1   
 22  12  30  1   
 23  13  14  1   
 24  13  15  1   
 25  13  31  1   
 26  14  16  1   
 27  14  32  1   
 28  15  33  1   
 29  16  17  1   
 30  16  34  1   
 31  16  35  1   
 32  17  18  2   
 33  17  19  1   
 34  18  20  1   
 35  19  21  2   
 36  19  36  1   
 37  20  21  1   
 38  20  37  1   
 39  21  22  1   
 40  22  38  1   
 41  22  39  1   
 42  22  40  1   
@<TRIPOS>SUBSTRUCTURE
  1 ****  10 GROUP 4 **** **** 0

# MOE 2024.06 (io_trps.svl 2023.06)
