@<TRIPOS>MOLECULE
NONAME
58 60 1 0 0 
SMALL
USER_CHARGES


@<TRIPOS>ATOM
  1 O        4.7140    -1.3200    -1.0500 O.2   1 <1>  -0.5700 
  2 C        3.5510    -1.1740    -0.7170 C.2   1 <1>   0.5440 
  3 N        2.8150    -0.2720    -1.4540 N.am  1 <1>  -0.6600 
  4 C        3.0460    -1.8180     0.4730 C.ar  1 <1>   0.0860 
  5 C        3.1120    -0.0360    -2.9060 C.3   1 <1>   0.1400 
  6 C        1.9870     0.7680    -0.7940 C.3   1 <1>   0.1400 
  7 C        1.7980    -2.4560     0.5150 C.ar  1 <1>   0.3920 
  8 C        3.8020    -1.8210     1.6400 C.ar  1 <1>  -0.1500 
  9 C        4.3680     0.8380    -3.1200 C.3   1 <1>   0.3430 
 10 C        2.8810     1.9180    -0.3040 C.3   1 <1>  -0.1600 
 11 O        1.0710    -2.4970    -0.6220 O.3   1 <1>  -0.3630 
 12 N        1.2700    -3.0320     1.5910 N.ar  1 <1>  -0.6200 
 13 C        3.2710    -2.4240     2.7550 C.ar  1 <1>  -0.1500 
 14 N        4.7670     1.5240    -1.8590 N.4   1 <1>  -0.9590 
 15 C        3.7920     2.5380    -1.3700 C.3   1 <1>   0.3430 
 16 C       -0.1710    -3.1730    -0.6970 C.3   1 <1>   0.0400 
 17 C        2.0160    -3.0060     2.6870 C.ar  1 <1>   0.3930 
 18 C        6.1770     1.9900    -1.8250 C.3   1 <1>   0.5240 
 19 O        1.5450    -3.5730     3.8130 O.3   1 <1>  -0.3620 
 20 C        6.6010     2.1370    -0.3710 C.2   1 <1>   0.0460 
 21 C        0.2820    -4.2080     3.8450 C.3   1 <1>   0.0400 
 22 N        6.3280     3.2650     0.3150 N.2   1 <1>  -0.5650 
 23 C        7.2420     1.2380     0.4120 C.2   1 <1>  -0.3320 
 24 C        6.8200     3.0450     1.4910 C.2   1 <1>   0.0060 
 25 N        7.3900     1.8270     1.6130 N.pl3 1 <1>   0.0330 
 26 C        7.7370    -0.1700     0.1220 C.3   1 <1>  -0.0600 
 27 C        6.7730     4.0450     2.6320 C.3   1 <1>   0.0200 
 28 C        8.1740     4.5410     3.0020 C.3   1 <1>  -0.2400 
 29 H        2.2650     0.4300    -3.3770 H     1 <1>   0.0800 
 30 H        3.2620    -0.9850    -3.3930 H     1 <1>   0.0800 
 31 H        1.4570     0.3400     0.0410 H     1 <1>   0.0800 
 32 H        1.2490     1.1370    -1.4870 H     1 <1>   0.0800 
 33 H        4.7760    -1.3640     1.6630 H     1 <1>   0.1500 
 34 H        4.1960     1.5520    -3.9080 H     1 <1>   0.0800 
 35 H        5.1680     0.1860    -3.4320 H     1 <1>   0.0800 
 36 H        3.4830     1.5840     0.5240 H     1 <1>   0.0800 
 37 H        2.2420     2.6940     0.0790 H     1 <1>   0.0800 
 38 H        3.8110    -2.4560     3.6840 H     1 <1>   0.1500 
 39 H        4.7410     0.7560    -1.1620 H     1 <1>   0.4500 
 40 H        4.3180     3.3700    -0.9290 H     1 <1>   0.0800 
 41 H        3.2030     2.9140    -2.1900 H     1 <1>   0.0800 
 42 H       -0.5490    -3.0800    -1.6990 H     1 <1>   0.0800 
 43 H       -0.8560    -2.7230     0.0010 H     1 <1>   0.0800 
 44 H       -0.0170    -4.2100    -0.4550 H     1 <1>   0.0800 
 45 H        6.2840     2.9320    -2.3340 H     1 <1>   0.0800 
 46 H        6.8140     1.2610    -2.2950 H     1 <1>   0.0800 
 47 H        0.1190    -4.5870     4.8370 H     1 <1>   0.0800 
 48 H        0.2820    -5.0170     3.1350 H     1 <1>   0.0800 
 49 H       -0.4770    -3.4880     3.5940 H     1 <1>   0.0800 
 50 H        7.8460     1.4480     2.4490 H     1 <1>   0.2700 
 51 H        7.4920    -0.4670    -0.8820 H     1 <1>   0.0800 
 52 H        7.2800    -0.8720     0.7970 H     1 <1>   0.0800 
 53 H        8.8050    -0.2210     0.2420 H     1 <1>   0.0800 
 54 H        6.3060     3.5910     3.4890 H     1 <1>   0.0800 
 55 H        6.1690     4.8850     2.3350 H     1 <1>   0.0800 
 56 H        8.7890     3.7290     3.3450 H     1 <1>   0.0800 
 57 H        8.1100     5.2790     3.7810 H     1 <1>   0.0800 
 58 H        8.6410     4.9900     2.1420 H     1 <1>   0.0800 
@<TRIPOS>BOND
  1   1   2  2   
  2   2   3  am  
  3   2   4  1   
  4   3   5  1   
  5   3   6  1   
  6   4   7  ar  
  7   4   8  ar  
  8   5   9  1   
  9   5  29  1   
 10   5  30  1   
 11   6  10  1   
 12   6  31  1   
 13   6  32  1   
 14   7  11  1   
 15   7  12  ar  
 16   8  13  ar  
 17   8  33  1   
 18   9  14  1   
 19   9  34  1   
 20   9  35  1   
 21  10  15  1   
 22  10  36  1   
 23  10  37  1   
 24  11  16  1   
 25  12  17  ar  
 26  13  17  ar  
 27  13  38  1   
 28  14  15  1   
 29  14  18  1   
 30  14  39  1   
 31  15  40  1   
 32  15  41  1   
 33  16  42  1   
 34  16  43  1   
 35  16  44  1   
 36  17  19  1   
 37  18  20  1   
 38  18  45  1   
 39  18  46  1   
 40  19  21  1   
 41  20  22  1   
 42  20  23  2   
 43  21  47  1   
 44  21  48  1   
 45  21  49  1   
 46  22  24  2   
 47  23  25  1   
 48  23  26  1   
 49  24  25  1   
 50  24  27  1   
 51  25  50  1   
 52  26  51  1   
 53  26  52  1   
 54  26  53  1   
 55  27  28  1   
 56  27  54  1   
 57  27  55  1   
 58  28  56  1   
 59  28  57  1   
 60  28  58  1   
@<TRIPOS>SUBSTRUCTURE
  1 ****   2 GROUP 4 **** **** 0

# MOE 2024.06 (io_trps.svl 2023.06)
