@<TRIPOS>MOLECULE
NONAME
54 57 1 0 0 
SMALL
USER_CHARGES


@<TRIPOS>ATOM
  1 O       -0.1620     0.7430     0.0050 O.2   1 <1>  -0.5700 
  2 C        0.8880     1.2060     0.3850 C.2   1 <1>   0.5690 
  3 N        0.9730     2.3310     1.1730 N.am  1 <1>  -0.6600 
  4 C        2.1600     0.4970    -0.0620 C.3   1 <1>  -0.0990 
  5 C       -0.1150     3.3540     1.3860 C.3   1 <1>   0.2200 
  6 C        2.2060     2.7130     1.9300 C.3   1 <1>   0.1400 
  7 C        1.9660    -0.4000    -1.2940 C.3   1 <1>  -0.0160 
  8 C        0.3000     4.7580     0.8400 C.3   1 <1>   0.1380 
  9 C       -1.5600     2.9960     1.0080 C.3   1 <1>  -0.1600 
 10 C        2.6680     4.1240     1.5370 C.3   1 <1>  -0.1600 
 11 C        3.2940    -1.0050    -1.7210 C.ar  1 <1>  -0.1440 
 12 C        0.6510     4.8300    -0.6760 C.2   1 <1>  -0.2760 
 13 C       -0.8750     5.7430     1.0810 C.3   1 <1>   0.1200 
 14 C        1.5370     5.1620     1.6820 C.3   1 <1>  -0.1600 
 15 C       -2.5260     4.1120     1.4440 C.3   1 <1>   0.1200 
 16 C        3.6780    -2.2640    -1.2790 C.ar  1 <1>   0.1600 
 17 C        4.1450    -0.3060    -2.5540 C.ar  1 <1>  -0.1500 
 18 C        0.4720     3.8660    -1.5900 C.2   1 <1>  -0.2880 
 19 C        1.2560     6.1510    -1.1620 C.3   1 <1>  -0.0220 
 20 O       -1.8330     5.2160     1.9560 O.3   1 <1>  -0.5600 
 21 N        4.8160    -2.8650    -1.5910 N.ar  1 <1>  -0.6200 
 22 C        5.3330    -0.9170    -2.8910 C.ar  1 <1>  -0.1500 
 23 C        0.8570     3.9820    -3.0590 C.3   1 <1>   0.2580 
 24 C        1.1910     6.2720    -2.6910 C.3   1 <1>   0.1200 
 25 C        5.6150    -2.1770    -2.3900 C.ar  1 <1>   0.1600 
 26 O        1.6700     5.0980    -3.2700 O.3   1 <1>  -0.5600 
 27 H        2.8960     1.2390    -0.3080 H     1 <1>   0.0800 
 28 H        2.5270    -0.0960     0.7550 H     1 <1>   0.0800 
 29 H       -0.1710     3.4630     2.4570 H     1 <1>   0.0800 
 30 H        1.9760     2.6980     2.9820 H     1 <1>   0.0800 
 31 H        3.0060     2.0150     1.7720 H     1 <1>   0.0800 
 32 H        1.5560     0.1800    -2.1020 H     1 <1>   0.0800 
 33 H        1.2620    -1.1830    -1.0680 H     1 <1>   0.0800 
 34 H       -1.8460     2.0810     1.4930 H     1 <1>   0.0800 
 35 H       -1.6640     2.8550    -0.0490 H     1 <1>   0.0800 
 36 H        3.4960     4.4080     2.1610 H     1 <1>   0.0800 
 37 H        3.0210     4.1030     0.5210 H     1 <1>   0.0800 
 38 H       -1.3750     5.9680     0.1550 H     1 <1>   0.0800 
 39 H       -0.5200     6.6660     1.5040 H     1 <1>   0.0800 
 40 H        1.8970     6.1350     1.4070 H     1 <1>   0.0800 
 41 H        1.2520     5.2220     2.7190 H     1 <1>   0.0800 
 42 H       -3.1780     3.7560     2.2230 H     1 <1>   0.0800 
 43 H       -3.1290     4.4420     0.6150 H     1 <1>   0.0800 
 44 H        3.0120    -2.8070    -0.6300 H     1 <1>   0.1500 
 45 H        3.8960     0.6730    -2.9250 H     1 <1>   0.1500 
 46 H        0.0380     2.9090    -1.3870 H     1 <1>   0.1500 
 47 H        2.2870     6.2120    -0.8640 H     1 <1>   0.0800 
 48 H        0.7380     6.9920    -0.7410 H     1 <1>   0.0800 
 49 H        6.0370    -0.4240    -3.5360 H     1 <1>   0.1500 
 50 H       -0.0200     4.0740    -3.6770 H     1 <1>   0.0800 
 51 H        1.4160     3.1170    -3.3670 H     1 <1>   0.0800 
 52 H        1.8060     7.0860    -3.0330 H     1 <1>   0.0800 
 53 H        0.1790     6.4300    -3.0220 H     1 <1>   0.0800 
 54 H        6.5460    -2.6430    -2.6610 H     1 <1>   0.1500 
@<TRIPOS>BOND
  1   1   2  2   
  2   2   3  am  
  3   2   4  1   
  4   3   5  1   
  5   3   6  1   
  6   4   7  1   
  7   4  27  1   
  8   4  28  1   
  9   5   8  1   
 10   5   9  1   
 11   5  29  1   
 12   6  10  1   
 13   6  30  1   
 14   6  31  1   
 15   7  11  1   
 16   7  32  1   
 17   7  33  1   
 18   8  12  1   
 19   8  13  1   
 20   8  14  1   
 21   9  15  1   
 22   9  34  1   
 23   9  35  1   
 24  10  14  1   
 25  10  36  1   
 26  10  37  1   
 27  11  16  ar  
 28  11  17  ar  
 29  12  18  2   
 30  12  19  1   
 31  13  20  1   
 32  13  38  1   
 33  13  39  1   
 34  14  40  1   
 35  14  41  1   
 36  15  20  1   
 37  15  42  1   
 38  15  43  1   
 39  16  21  ar  
 40  16  44  1   
 41  17  22  ar  
 42  17  45  1   
 43  18  23  1   
 44  18  46  1   
 45  19  24  1   
 46  19  47  1   
 47  19  48  1   
 48  21  25  ar  
 49  22  25  ar  
 50  22  49  1   
 51  23  26  1   
 52  23  50  1   
 53  23  51  1   
 54  24  26  1   
 55  24  52  1   
 56  24  53  1   
 57  25  54  1   
@<TRIPOS>SUBSTRUCTURE
  1 ****   2 GROUP 4 **** **** 0

# MOE 2024.06 (io_trps.svl 2023.06)
