@<TRIPOS>MOLECULE
NONAME
63 65 1 0 0 
SMALL
USER_CHARGES


@<TRIPOS>ATOM
  1 O        1.3420    -0.1480     1.5400 O.2   1 <1>  -0.5700 
  2 C        1.6420    -0.7710     0.5410 C.2   1 <1>   0.7160 
  3 N        2.1770    -0.0690    -0.5200 N.am  1 <1>  -0.6600 
  4 C        1.4260    -2.1960     0.4980 C.2   1 <1>  -0.0860 
  5 C        2.0710     1.4190    -0.5430 C.3   1 <1>   0.1400 
  6 C        2.9350    -0.6910    -1.6330 C.3   1 <1>   0.1400 
  7 C        2.2890    -3.2360     0.6550 C.2   1 <1>  -0.0400 
  8 C        0.1740    -2.8110     0.3010 C.2   1 <1>  -0.1500 
  9 C        3.1680     2.0480     0.3320 C.3   1 <1>   0.3430 
 10 C        4.3200    -0.0460    -1.7860 C.3   1 <1>  -0.1600 
 11 O        1.6650    -4.3820     0.5450 O.3   1 <1>  -0.2800 
 12 C        3.7740    -3.2640     0.9500 C.3   1 <1>  -0.0600 
 13 C        0.3870    -4.1450     0.3440 C.2   1 <1>  -0.0400 
 14 N        4.5720     1.8850    -0.2090 N.4   1 <1>  -0.9590 
 15 C        4.9360     0.4520    -0.4730 C.3   1 <1>   0.3430 
 16 C       -0.5290    -5.3520     0.2330 C.3   1 <1>   0.5230 
 17 C        5.5450     2.5360     0.7160 C.3   1 <1>   0.4230 
 18 N       -1.9330    -4.9370    -0.0690 N.4   1 <1>  -0.9590 
 19 C        5.2750     4.0410     0.8640 C.3   1 <1>  -0.1600 
 20 C        6.9830     2.4430     0.2020 C.3   1 <1>  -0.1600 
 21 C       -2.9040    -6.0220     0.2330 C.3   1 <1>   0.3430 
 22 C       -2.0430    -4.4690    -1.4770 C.3   1 <1>   0.3430 
 23 C        6.6210     4.7630     0.7250 C.3   1 <1>  -0.1600 
 24 C        7.6830     3.6710     0.7710 C.3   1 <1>  -0.1600 
 25 C       -3.0930    -6.1350     1.7420 C.3   1 <1>  -0.2400 
 26 C       -3.2710    -3.5770    -1.6210 C.3   1 <1>  -0.2400 
 27 H        1.1110     1.7060    -0.1460 H     1 <1>   0.0800 
 28 H        2.1250     1.7920    -1.5510 H     1 <1>   0.0800 
 29 H        2.3770    -0.5890    -2.5500 H     1 <1>   0.0800 
 30 H        3.0590    -1.7450    -1.4490 H     1 <1>   0.0800 
 31 H       -0.7380    -2.2560     0.1650 H     1 <1>   0.1500 
 32 H        3.1020     1.6100     1.3150 H     1 <1>   0.0800 
 33 H        2.9450     3.0970     0.4340 H     1 <1>   0.0800 
 34 H        4.2800     0.7500    -2.5080 H     1 <1>   0.0800 
 35 H        4.9710    -0.7960    -2.2000 H     1 <1>   0.0800 
 36 H        4.1540    -2.2690     1.0820 H     1 <1>   0.0800 
 37 H        4.3000    -3.7430     0.1430 H     1 <1>   0.0800 
 38 H        3.9510    -3.8210     1.8530 H     1 <1>   0.0800 
 39 H        4.6390     2.3920    -1.0980 H     1 <1>   0.4500 
 40 H        6.0060     0.3660    -0.5640 H     1 <1>   0.0800 
 41 H        4.6240    -0.1710     0.3500 H     1 <1>   0.0800 
 42 H       -0.4900    -5.8830     1.1690 H     1 <1>   0.0800 
 43 H       -0.1620    -6.0100    -0.5370 H     1 <1>   0.0800 
 44 H        5.4960     2.0780     1.6920 H     1 <1>   0.0800 
 45 H       -2.1390    -4.1440     0.5500 H     1 <1>   0.4500 
 46 H        4.8640     4.2340     1.8400 H     1 <1>   0.0800 
 47 H        4.6020     4.4190     0.1150 H     1 <1>   0.0800 
 48 H        7.0070     2.5050    -0.8730 H     1 <1>   0.0800 
 49 H        7.4730     1.5430     0.5300 H     1 <1>   0.0800 
 50 H       -2.5590    -6.9600    -0.1730 H     1 <1>   0.0800 
 51 H       -3.8580    -5.7950    -0.2140 H     1 <1>   0.0800 
 52 H       -2.1110    -5.3100    -2.1490 H     1 <1>   0.0800 
 53 H       -1.1680    -3.8960    -1.7440 H     1 <1>   0.0800 
 54 H        6.7720     5.4930     1.5030 H     1 <1>   0.0800 
 55 H        6.6670     5.2640    -0.2280 H     1 <1>   0.0800 
 56 H        8.5620     3.9390     0.2080 H     1 <1>   0.0800 
 57 H        7.9680     3.4890     1.7950 H     1 <1>   0.0800 
 58 H       -2.1910    -6.4460     2.2370 H     1 <1>   0.0800 
 59 H       -3.8460    -6.8760     1.9450 H     1 <1>   0.0800 
 60 H       -3.4310    -5.2020     2.1560 H     1 <1>   0.0800 
 61 H       -4.1800    -4.1220    -1.4420 H     1 <1>   0.0800 
 62 H       -3.3130    -3.1980    -2.6280 H     1 <1>   0.0800 
 63 H       -3.2160    -2.7350    -0.9540 H     1 <1>   0.0800 
@<TRIPOS>BOND
  1   1   2  2   
  2   2   3  am  
  3   2   4  1   
  4   3   5  1   
  5   3   6  1   
  6   4   7  2   
  7   4   8  1   
  8   5   9  1   
  9   5  27  1   
 10   5  28  1   
 11   6  10  1   
 12   6  29  1   
 13   6  30  1   
 14   7  11  1   
 15   7  12  1   
 16   8  13  2   
 17   8  31  1   
 18   9  14  1   
 19   9  32  1   
 20   9  33  1   
 21  10  15  1   
 22  10  34  1   
 23  10  35  1   
 24  11  13  1   
 25  12  36  1   
 26  12  37  1   
 27  12  38  1   
 28  13  16  1   
 29  14  15  1   
 30  14  17  1   
 31  14  39  1   
 32  15  40  1   
 33  15  41  1   
 34  16  18  1   
 35  16  42  1   
 36  16  43  1   
 37  17  19  1   
 38  17  20  1   
 39  17  44  1   
 40  18  21  1   
 41  18  22  1   
 42  18  45  1   
 43  19  23  1   
 44  19  46  1   
 45  19  47  1   
 46  20  24  1   
 47  20  48  1   
 48  20  49  1   
 49  21  25  1   
 50  21  50  1   
 51  21  51  1   
 52  22  26  1   
 53  22  52  1   
 54  22  53  1   
 55  23  24  1   
 56  23  54  1   
 57  23  55  1   
 58  24  56  1   
 59  24  57  1   
 60  25  58  1   
 61  25  59  1   
 62  25  60  1   
 63  26  61  1   
 64  26  62  1   
 65  26  63  1   
@<TRIPOS>SUBSTRUCTURE
  1 ****   2 GROUP 4 **** **** 0

# MOE 2024.06 (io_trps.svl 2023.06)
