@<TRIPOS>MOLECULE
NONAME
54 56 1 0 0 
SMALL
USER_CHARGES


@<TRIPOS>ATOM
  1 O        0.4990     1.5990    -0.0120 O.2   1 <1>  -0.5700 
  2 C        0.2280     2.7490    -0.2460 C.2   1 <1>   0.5690 
  3 N       -0.0820     3.6060     0.7490 N.am  1 <1>  -0.7300 
  4 C        0.1960     3.2570    -1.6860 C.3   1 <1>   0.1810 
  5 C       -0.5230     5.0060     0.5300 C.3   1 <1>   0.3640 
  6 O        0.3850     4.6520    -1.7580 O.3   1 <1>  -0.5600 
  7 C       -1.9160     5.1590     1.1410 C.ar  1 <1>  -0.1440 
  8 C       -0.5190     5.4260    -0.9700 C.3   1 <1>   0.2610 
  9 C       -2.2060     6.2590     1.9360 C.ar  1 <1>  -0.1500 
 10 C       -2.9120     4.2150     0.9150 C.ar  1 <1>  -0.1500 
 11 C       -0.1710     6.9160    -1.1010 C.2   1 <1>   0.5690 
 12 C       -3.4620     6.4150     2.4940 C.ar  1 <1>  -0.1500 
 13 C       -4.1690     4.3690     1.4730 C.ar  1 <1>  -0.1500 
 14 O       -0.6560     7.7230    -0.3450 O.2   1 <1>  -0.5700 
 15 N        0.7070     7.3030    -2.0640 N.am  1 <1>  -0.7300 
 16 C       -4.4450     5.4690     2.2640 C.ar  1 <1>  -0.1500 
 17 C        1.1650     8.6920    -2.3090 C.3   1 <1>   0.1400 
 18 C        2.2960     9.0460    -1.3460 C.3   1 <1>   0.1200 
 19 O        2.8110    10.3100    -1.7010 O.3   1 <1>  -0.3630 
 20 C        3.8320    10.8700    -1.0060 C.ar  1 <1>   0.0820 
 21 C        4.4400    10.2730     0.0960 C.ar  1 <1>  -0.1500 
 22 C        4.2790    12.1070    -1.4390 C.ar  1 <1>  -0.1500 
 23 C        5.4790    10.9160     0.7460 C.ar  1 <1>  -0.1500 
 24 C        5.3180    12.7470    -0.7860 C.ar  1 <1>  -0.1500 
 25 C        5.9250    12.1540     0.3100 C.ar  1 <1>  -0.1430 
 26 C        7.0660    12.8570     1.0290 C.3   1 <1>  -0.0170 
 27 C        6.5250    13.7370     2.1610 C.3   1 <1>  -0.1600 
 28 C        7.6550    14.4550     2.9060 C.3   1 <1>  -0.2400 
 29 H       -0.1310     3.2480     1.7040 H     1 <1>   0.3700 
 30 H       -0.7490     3.0140    -2.1360 H     1 <1>   0.0800 
 31 H        0.9830     2.7880    -2.2470 H     1 <1>   0.0800 
 32 H        0.1600     5.6460     1.0630 H     1 <1>   0.0800 
 33 H       -1.5030     5.2830    -1.3790 H     1 <1>   0.0800 
 34 H       -1.4570     7.0120     2.1200 H     1 <1>   0.1500 
 35 H       -2.7180     3.3500     0.3050 H     1 <1>   0.1500 
 36 H       -3.6750     7.2740     3.1060 H     1 <1>   0.1500 
 37 H       -4.9320     3.6320     1.2930 H     1 <1>   0.1500 
 38 H        1.1340     6.5600    -2.6290 H     1 <1>   0.3700 
 39 H       -5.4220     5.5900     2.6990 H     1 <1>   0.1500 
 40 H        1.5090     8.7780    -3.3250 H     1 <1>   0.0800 
 41 H        0.3430     9.3710    -2.1560 H     1 <1>   0.0800 
 42 H        3.0930     8.3280    -1.4200 H     1 <1>   0.0800 
 43 H        1.9220     9.1020    -0.3380 H     1 <1>   0.0800 
 44 H        4.1200     9.3170     0.4630 H     1 <1>   0.1500 
 45 H        3.8070    12.5660    -2.2880 H     1 <1>   0.1500 
 46 H        5.9420    10.4490     1.5980 H     1 <1>   0.1500 
 47 H        5.6500    13.7090    -1.1340 H     1 <1>   0.1500 
 48 H        7.7440    12.1240     1.4290 H     1 <1>   0.0800 
 49 H        7.6150    13.4610     0.3280 H     1 <1>   0.0800 
 50 H        5.8470    14.4660     1.7510 H     1 <1>   0.0800 
 51 H        5.9720    13.1260     2.8540 H     1 <1>   0.0800 
 52 H        8.2050    15.0900     2.2340 H     1 <1>   0.0800 
 53 H        8.3320    13.7420     3.3430 H     1 <1>   0.0800 
 54 H        7.2460    15.0640     3.6930 H     1 <1>   0.0800 
@<TRIPOS>BOND
  1   1   2  2   
  2   2   3  am  
  3   2   4  1   
  4   3   5  1   
  5   3  29  1   
  6   4   6  1   
  7   4  30  1   
  8   4  31  1   
  9   5   7  1   
 10   5   8  1   
 11   5  32  1   
 12   6   8  1   
 13   7   9  ar  
 14   7  10  ar  
 15   8  11  1   
 16   8  33  1   
 17   9  12  ar  
 18   9  34  1   
 19  10  13  ar  
 20  10  35  1   
 21  11  14  2   
 22  11  15  am  
 23  12  16  ar  
 24  12  36  1   
 25  13  16  ar  
 26  13  37  1   
 27  15  17  1   
 28  15  38  1   
 29  16  39  1   
 30  17  18  1   
 31  17  40  1   
 32  17  41  1   
 33  18  19  1   
 34  18  42  1   
 35  18  43  1   
 36  19  20  1   
 37  20  21  ar  
 38  20  22  ar  
 39  21  23  ar  
 40  21  44  1   
 41  22  24  ar  
 42  22  45  1   
 43  23  25  ar  
 44  23  46  1   
 45  24  25  ar  
 46  24  47  1   
 47  25  26  1   
 48  26  27  1   
 49  26  48  1   
 50  26  49  1   
 51  27  28  1   
 52  27  50  1   
 53  27  51  1   
 54  28  52  1   
 55  28  53  1   
 56  28  54  1   
@<TRIPOS>SUBSTRUCTURE
  1 ****  14 GROUP 4 **** **** 0

# MOE 2024.06 (io_trps.svl 2023.06)
