@<TRIPOS>MOLECULE
NONAME
51 53 1 0 0 
SMALL
USER_CHARGES


@<TRIPOS>ATOM
  1 F       -1.7900    -0.6240     2.8770 F     1 <1>  -0.1900 
  2 C       -2.5650    -0.8440     1.8500 C.ar  1 <1>   0.1900 
  3 C       -2.7150    -2.1390     1.3990 C.ar  1 <1>  -0.1500 
  4 C       -3.2020     0.2290     1.2590 C.ar  1 <1>  -0.1500 
  5 C       -3.5450    -2.3690     0.3060 C.ar  1 <1>   0.0830 
  6 C       -4.0250    -0.0050     0.1700 C.ar  1 <1>  -0.1500 
  7 O       -3.7680    -3.6070    -0.2060 O.3   1 <1>  -0.3630 
  8 C       -4.1980    -1.3000    -0.3060 C.ar  1 <1>  -0.1440 
  9 C       -3.0330    -4.7280     0.2440 C.3   1 <1>   0.0400 
 10 C       -5.0920    -1.5580    -1.5040 C.3   1 <1>   0.4870 
 11 N       -6.5110    -1.5890    -1.0650 N.4   1 <1>  -0.9590 
 12 C       -6.8110    -2.7090    -0.1380 C.3   1 <1>   0.3430 
 13 C       -7.4730    -1.5380    -2.1980 C.3   1 <1>   0.3430 
 14 C       -8.1560    -2.4590     0.5510 C.3   1 <1>  -0.1600 
 15 C       -8.9190    -1.6950    -1.7110 C.3   1 <1>  -0.1600 
 16 C       -9.0860    -1.4770    -0.1940 C.3   1 <1>   0.2800 
 17 O       -8.5780    -0.1800     0.0670 O.3   1 <1>  -0.5600 
 18 C      -10.5560    -1.6550     0.3010 C.3   1 <1>   0.2000 
 19 C       -9.4060     0.7640     0.6900 C.3   1 <1>   0.1200 
 20 O      -11.0900    -2.8720    -0.1350 O.3   1 <1>  -0.6800 
 21 C      -11.4980    -0.4560    -0.0270 C.3   1 <1>   0.2800 
 22 C      -10.7160     0.8660    -0.0910 C.3   1 <1>  -0.1600 
 23 O      -12.3800    -0.3580     1.0300 O.3   1 <1>  -0.6800 
 24 C      -12.3840    -0.6200    -1.2710 C.3   1 <1>  -0.2400 
 25 H       -2.1900    -2.9240     1.9080 H     1 <1>   0.1500 
 26 H       -3.0510     1.2220     1.6460 H     1 <1>   0.1500 
 27 H       -4.5210     0.8290    -0.2970 H     1 <1>   0.1500 
 28 H       -3.3260    -5.5820    -0.3400 H     1 <1>   0.0800 
 29 H       -3.2560    -4.9040     1.2820 H     1 <1>   0.0800 
 30 H       -1.9820    -4.5380     0.1050 H     1 <1>   0.0800 
 31 H       -4.8270    -2.4950    -1.9670 H     1 <1>   0.0800 
 32 H       -4.9480    -0.7710    -2.2250 H     1 <1>   0.0800 
 33 H       -6.7040    -0.7380    -0.5070 H     1 <1>   0.4500 
 34 H       -6.8490    -3.6320    -0.6930 H     1 <1>   0.0800 
 35 H       -6.0410    -2.7990     0.6110 H     1 <1>   0.0800 
 36 H       -7.3760    -0.5870    -2.6970 H     1 <1>   0.0800 
 37 H       -7.2520    -2.3160    -2.9110 H     1 <1>   0.0800 
 38 H       -7.9880    -2.1010     1.5510 H     1 <1>   0.0800 
 39 H       -8.6390    -3.4150     0.6450 H     1 <1>   0.0800 
 40 H       -9.2520    -2.6860    -1.9630 H     1 <1>   0.0800 
 41 H       -9.5420    -1.0130    -2.2570 H     1 <1>   0.0800 
 42 H      -10.5020    -1.7310     1.3740 H     1 <1>   0.0800 
 43 H       -9.5770     0.4660     1.7120 H     1 <1>   0.0800 
 44 H       -8.8900     1.7090     0.6850 H     1 <1>   0.0800 
 45 H      -11.9940    -2.9630     0.2340 H     1 <1>   0.4000 
 46 H      -10.4680     1.1030    -1.1110 H     1 <1>   0.0800 
 47 H      -11.3100     1.6780     0.2890 H     1 <1>   0.0800 
 48 H      -13.0680     0.3050     0.8290 H     1 <1>   0.4000 
 49 H      -11.7830    -0.7850    -2.1450 H     1 <1>   0.0800 
 50 H      -12.9730     0.2640    -1.4380 H     1 <1>   0.0800 
 51 H      -13.0460    -1.4610    -1.1640 H     1 <1>   0.0800 
@<TRIPOS>BOND
  1   1   2  1   
  2   2   3  ar  
  3   2   4  ar  
  4   3   5  ar  
  5   3  25  1   
  6   4   6  ar  
  7   4  26  1   
  8   5   7  1   
  9   5   8  ar  
 10   6   8  ar  
 11   6  27  1   
 12   7   9  1   
 13   8  10  1   
 14   9  28  1   
 15   9  29  1   
 16   9  30  1   
 17  10  11  1   
 18  10  31  1   
 19  10  32  1   
 20  11  12  1   
 21  11  13  1   
 22  11  33  1   
 23  12  14  1   
 24  12  34  1   
 25  12  35  1   
 26  13  15  1   
 27  13  36  1   
 28  13  37  1   
 29  14  16  1   
 30  14  38  1   
 31  14  39  1   
 32  15  16  1   
 33  15  40  1   
 34  15  41  1   
 35  16  17  1   
 36  16  18  1   
 37  17  19  1   
 38  18  20  1   
 39  18  21  1   
 40  18  42  1   
 41  19  22  1   
 42  19  43  1   
 43  19  44  1   
 44  20  45  1   
 45  21  22  1   
 46  21  23  1   
 47  21  24  1   
 48  22  46  1   
 49  22  47  1   
 50  23  48  1   
 51  24  49  1   
 52  24  50  1   
 53  24  51  1   
@<TRIPOS>SUBSTRUCTURE
  1 ****  11 GROUP 4 **** **** 0

# MOE 2024.06 (io_trps.svl 2023.06)
