@<TRIPOS>MOLECULE
NONAME
35 36 1 0 0 
SMALL
USER_CHARGES


@<TRIPOS>ATOM
  1 O        0.1680    -0.9600     0.8410 O.2   1 <1>  -0.5700 
  2 C       -0.5950    -1.9070     0.7380 C.2   1 <1>   0.6900 
  3 N       -0.3720    -3.1870     1.0840 N.am  1 <1>  -0.3680 
  4 N       -1.8360    -1.8580     0.2470 N.am  1 <1>  -0.4900 
  5 N       -1.4790    -3.9650     0.8130 N.2   1 <1>  -0.5120 
  6 C       -2.3280    -3.1420     0.3180 C.2   1 <1>   0.4490 
  7 C       -3.7400    -3.5220    -0.1510 C.3   1 <1>   0.2700 
  8 N       -4.0040    -4.9880     0.0420 N.pl3 1 <1>  -0.8690 
  9 C       -5.0710    -5.7840    -0.2200 C.ar  1 <1>   0.4610 
 10 N       -6.1950    -5.2870    -0.7590 N.ar  1 <1>  -0.1790 
 11 C       -5.0700    -7.1330     0.0460 C.ar  1 <1>  -0.1500 
 12 C       -7.2610    -6.0690    -1.0240 C.ar  1 <1>   0.7710 
 13 C       -6.1920    -7.8790    -0.2480 C.ar  1 <1>   0.3930 
 14 N       -7.2920    -7.3550    -0.7840 N.ar  1 <1>  -0.6200 
 15 N       -8.3610    -5.5380    -1.5600 N.pl3 1 <1>  -0.9000 
 16 O       -6.1510    -9.1810     0.0250 O.3   1 <1>  -0.3620 
 17 C       -7.2180   -10.0850    -0.1780 C.3   1 <1>   0.2000 
 18 C       -8.1500   -10.0220     1.0340 C.3   1 <1>  -0.2400 
 19 C       -6.6080   -11.4750    -0.3360 C.3   1 <1>  -0.2400 
 20 H        0.5100    -3.5130     1.4920 H     1 <1>   0.3700 
 21 H       -2.2450    -0.9900    -0.0870 H     1 <1>   0.3700 
 22 H       -3.8310    -3.2730    -1.1940 H     1 <1>   0.0800 
 23 H       -4.4530    -2.9490     0.4150 H     1 <1>   0.0800 
 24 H       -3.1610    -5.4260     0.4600 H     1 <1>   0.4000 
 25 H       -6.2600    -4.3060    -0.9760 H     1 <1>   0.4570 
 26 H       -4.2120    -7.6130     0.4780 H     1 <1>   0.1500 
 27 H       -9.1450    -6.1730    -1.7440 H     1 <1>   0.4000 
 28 H       -8.5490    -4.5700    -1.8240 H     1 <1>   0.4000 
 29 H       -7.7410    -9.8180    -1.0810 H     1 <1>   0.0800 
 30 H       -7.6130   -10.2630     1.9340 H     1 <1>   0.0800 
 31 H       -8.9510   -10.7290     0.9150 H     1 <1>   0.0800 
 32 H       -8.5810    -9.0420     1.1250 H     1 <1>   0.0800 
 33 H       -6.0600   -11.7500     0.5480 H     1 <1>   0.0800 
 34 H       -5.9490   -11.4940    -1.1850 H     1 <1>   0.0800 
 35 H       -7.3850   -12.2010    -0.4950 H     1 <1>   0.0800 
@<TRIPOS>BOND
  1   1   2  2   
  2   2   3  am  
  3   2   4  am  
  4   3   5  1   
  5   3  20  1   
  6   4   6  1   
  7   4  21  1   
  8   5   6  2   
  9   6   7  1   
 10   7   8  1   
 11   7  22  1   
 12   7  23  1   
 13   8   9  1   
 14   8  24  1   
 15   9  10  ar  
 16   9  11  ar  
 17  10  12  ar  
 18  10  25  1   
 19  11  13  ar  
 20  11  26  1   
 21  12  14  ar  
 22  12  15  1   
 23  13  14  ar  
 24  13  16  1   
 25  15  27  1   
 26  15  28  1   
 27  16  17  1   
 28  17  18  1   
 29  17  19  1   
 30  17  29  1   
 31  18  30  1   
 32  18  31  1   
 33  18  32  1   
 34  19  33  1   
 35  19  34  1   
 36  19  35  1   
@<TRIPOS>SUBSTRUCTURE
  1 ****   9 GROUP 4 **** **** 0

# MOE 2024.06 (io_trps.svl 2023.06)
