@<TRIPOS>MOLECULE
NONAME
47 49 1 0 0 
SMALL
USER_CHARGES


@<TRIPOS>ATOM
  1 O        0.9830     0.4040     1.0370 O.3   1 <1>  -0.6800 
  2 C        1.4430    -0.1960    -0.1320 C.3   1 <1>   0.2000 
  3 C        2.0680    -1.5380     0.2390 C.3   1 <1>  -0.0800 
  4 C        2.6380     0.6060    -0.6540 C.3   1 <1>   0.3430 
  5 C        3.4700    -1.1670     0.7470 C.3   1 <1>   0.3430 
  6 C        2.1330    -2.4950    -0.9690 C.3   1 <1>  -0.0170 
  7 N        3.8030     0.1770     0.1830 N.4   1 <1>  -0.9590 
  8 C        2.9440    -3.7370    -0.6360 C.ar  1 <1>  -0.1440 
  9 C        4.0500     1.1660     1.2640 C.3   1 <1>   0.5240 
 10 C        2.5130    -4.6610     0.2960 C.ar  1 <1>  -0.1500 
 11 C        4.1530    -4.0070    -1.2470 C.ar  1 <1>  -0.1500 
 12 C        4.5510     2.4280     0.6050 C.2   1 <1>  -0.1810 
 13 C        3.2980    -5.7660     0.5810 C.ar  1 <1>   0.1600 
 14 C        4.8610    -5.1430    -0.8910 C.ar  1 <1>   0.1600 
 15 C        3.8360     3.6080     0.4450 C.2   1 <1>   0.1080 
 16 C        5.7570     2.6730     0.0340 C.2   1 <1>  -0.3320 
 17 N        4.4660    -6.0200     0.0160 N.ar  1 <1>  -0.6200 
 18 N        4.5220     4.5030    -0.1880 N.2   1 <1>  -0.7070 
 19 C        2.4290     3.9160     0.9160 C.3   1 <1>  -0.0590 
 20 N        5.7060     3.9370    -0.4340 N.pl3 1 <1>   0.3140 
 21 C        6.9840     1.7800    -0.0880 C.3   1 <1>  -0.0600 
 22 C        6.7670     4.6840    -1.1260 C.3   1 <1>   0.0160 
 23 H        0.1080     0.0440     1.2990 H     1 <1>   0.4000 
 24 H        0.6330    -0.2550    -0.8400 H     1 <1>   0.0800 
 25 H        1.5100    -2.0220     1.0220 H     1 <1>   0.0800 
 26 H        2.4540     1.6670    -0.5980 H     1 <1>   0.0800 
 27 H        2.8190     0.3400    -1.6820 H     1 <1>   0.0800 
 28 H        4.1990    -1.9050     0.4530 H     1 <1>   0.0800 
 29 H        3.4490    -1.1160     1.8240 H     1 <1>   0.0800 
 30 H        2.5700    -2.0050    -1.8210 H     1 <1>   0.0800 
 31 H        1.1370    -2.7960    -1.2470 H     1 <1>   0.0800 
 32 H        4.6530     0.1730    -0.3920 H     1 <1>   0.4500 
 33 H        3.1450     1.3580     1.8180 H     1 <1>   0.0800 
 34 H        4.8020     0.7990     1.9430 H     1 <1>   0.0800 
 35 H        1.5730    -4.5430     0.8050 H     1 <1>   0.1500 
 36 H        4.5570    -3.3570    -2.0000 H     1 <1>   0.1500 
 37 H        2.9490    -6.4780     1.3100 H     1 <1>   0.1500 
 38 H        5.8020    -5.3440    -1.3770 H     1 <1>   0.1500 
 39 H        1.9730     3.0770     1.4040 H     1 <1>   0.0800 
 40 H        1.8260     4.2030     0.0740 H     1 <1>   0.0800 
 41 H        2.4610     4.7420     1.6040 H     1 <1>   0.0800 
 42 H        6.8270     0.8340     0.3980 H     1 <1>   0.0800 
 43 H        7.8300     2.2560     0.3760 H     1 <1>   0.0800 
 44 H        7.2160     1.6040    -1.1230 H     1 <1>   0.0800 
 45 H        7.0620     4.1490    -2.0080 H     1 <1>   0.0800 
 46 H        7.6060     4.7990    -0.4650 H     1 <1>   0.0800 
 47 H        6.3940     5.6530    -1.4010 H     1 <1>   0.0800 
@<TRIPOS>BOND
  1   1   2  1   
  2   1  23  1   
  3   2   3  1   
  4   2   4  1   
  5   2  24  1   
  6   3   5  1   
  7   3   6  1   
  8   3  25  1   
  9   4   7  1   
 10   4  26  1   
 11   4  27  1   
 12   5   7  1   
 13   5  28  1   
 14   5  29  1   
 15   6   8  1   
 16   6  30  1   
 17   6  31  1   
 18   7   9  1   
 19   7  32  1   
 20   8  10  ar  
 21   8  11  ar  
 22   9  12  1   
 23   9  33  1   
 24   9  34  1   
 25  10  13  ar  
 26  10  35  1   
 27  11  14  ar  
 28  11  36  1   
 29  12  15  1   
 30  12  16  2   
 31  13  17  ar  
 32  13  37  1   
 33  14  17  ar  
 34  14  38  1   
 35  15  18  2   
 36  15  19  1   
 37  16  20  1   
 38  16  21  1   
 39  18  20  1   
 40  19  39  1   
 41  19  40  1   
 42  19  41  1   
 43  20  22  1   
 44  21  42  1   
 45  21  43  1   
 46  21  44  1   
 47  22  45  1   
 48  22  46  1   
 49  22  47  1   
@<TRIPOS>SUBSTRUCTURE
  1 ****   7 GROUP 4 **** **** 0

# MOE 2024.06 (io_trps.svl 2023.06)
