@<TRIPOS>MOLECULE
NONAME
47 49 1 0 0 
SMALL
USER_CHARGES


@<TRIPOS>ATOM
  1 O       -0.3890     0.1970     0.4230 O.2   1 <1>  -0.5700 
  2 C       -1.4260     0.8250     0.3210 C.2   1 <1>   0.5440 
  3 N       -2.6110     0.1270     0.2390 N.am  1 <1>  -0.6600 
  4 C       -1.3950     2.2730     0.2660 C.ar  1 <1>   0.0860 
  5 C       -3.8600     0.6660    -0.3560 C.3   1 <1>   0.1400 
  6 C       -2.6580    -1.3560     0.2940 C.3   1 <1>   0.1400 
  7 C       -0.5160     2.9350    -0.5900 C.ar  1 <1>  -0.1500 
  8 C       -2.2370     3.0540     1.0590 C.ar  1 <1>  -0.1500 
  9 C       -4.5750    -0.5560    -0.9300 C.3   1 <1>   0.2000 
 10 C       -4.0910    -1.7320    -0.0870 C.3   1 <1>  -0.0800 
 11 C       -0.4850     4.3150    -0.6770 C.ar  1 <1>  -0.1440 
 12 C       -2.2290     4.4360     0.9940 C.ar  1 <1>  -0.1440 
 13 O       -5.9520    -0.4320    -0.8390 O.3   1 <1>  -0.6800 
 14 C       -4.1990    -3.0820    -0.8090 C.3   1 <1>   0.0210 
 15 C       -1.3490     5.0620     0.1160 C.ar  1 <1>   0.0830 
 16 C        0.4880     4.9940    -1.6300 C.3   1 <1>  -0.0970 
 17 C       -3.1750     5.2350     1.8820 C.3   1 <1>  -0.0970 
 18 C       -3.6240    -4.1970     0.0410 C.2   1 <1>   0.1080 
 19 O       -1.3290     6.4010     0.0350 O.3   1 <1>  -0.5320 
 20 N       -4.1300    -4.5420     1.1840 N.2   1 <1>  -0.7070 
 21 C       -2.5050    -4.9550    -0.2880 C.2   1 <1>  -0.1500 
 22 N       -3.3410    -5.5420     1.6180 N.pl3 1 <1>   0.3000 
 23 C       -2.3470    -5.8090     0.7440 C.2   1 <1>  -0.3320 
 24 C       -1.2920    -6.8800     0.9530 C.3   1 <1>  -0.0600 
 25 H       -4.4510     1.1210     0.4190 H     1 <1>   0.0800 
 26 H       -3.6410     1.3800    -1.1300 H     1 <1>   0.0800 
 27 H       -1.9510    -1.7560    -0.4130 H     1 <1>   0.0800 
 28 H       -2.4080    -1.7090     1.2800 H     1 <1>   0.0800 
 29 H        0.1500     2.3390    -1.1900 H     1 <1>   0.1500 
 30 H       -2.9000     2.5510     1.7390 H     1 <1>   0.1500 
 31 H       -4.3100    -0.6760    -1.9660 H     1 <1>   0.0800 
 32 H       -4.6560    -1.7780     0.8280 H     1 <1>   0.0800 
 33 H       -6.2380    -0.5150     0.0910 H     1 <1>   0.4000 
 34 H       -3.6770    -3.0440    -1.7480 H     1 <1>   0.0800 
 35 H       -5.2330    -3.3010    -1.0090 H     1 <1>   0.0800 
 36 H        1.0850     4.2730    -2.1580 H     1 <1>   0.0800 
 37 H        1.1430     5.6440    -1.0770 H     1 <1>   0.0800 
 38 H       -0.0560     5.5830    -2.3460 H     1 <1>   0.0800 
 39 H       -3.7720     4.5820     2.4930 H     1 <1>   0.0800 
 40 H       -3.8370     5.8280     1.2780 H     1 <1>   0.0800 
 41 H       -2.6120     5.8800     2.5340 H     1 <1>   0.0800 
 42 H       -1.9590     6.8230     0.6410 H     1 <1>   0.4500 
 43 H       -1.9110    -4.8580    -1.1790 H     1 <1>   0.1500 
 44 H       -3.5050    -6.0200     2.5120 H     1 <1>   0.2700 
 45 H       -0.6140    -6.8970     0.1180 H     1 <1>   0.0800 
 46 H       -1.7550    -7.8470     1.0390 H     1 <1>   0.0800 
 47 H       -0.7290    -6.6780     1.8470 H     1 <1>   0.0800 
@<TRIPOS>BOND
  1   1   2  2   
  2   2   3  am  
  3   2   4  1   
  4   3   5  1   
  5   3   6  1   
  6   4   7  ar  
  7   4   8  ar  
  8   5   9  1   
  9   5  25  1   
 10   5  26  1   
 11   6  10  1   
 12   6  27  1   
 13   6  28  1   
 14   7  11  ar  
 15   7  29  1   
 16   8  12  ar  
 17   8  30  1   
 18   9  10  1   
 19   9  13  1   
 20   9  31  1   
 21  10  14  1   
 22  10  32  1   
 23  11  15  ar  
 24  11  16  1   
 25  12  15  ar  
 26  12  17  1   
 27  13  33  1   
 28  14  18  1   
 29  14  34  1   
 30  14  35  1   
 31  15  19  1   
 32  16  36  1   
 33  16  37  1   
 34  16  38  1   
 35  17  39  1   
 36  17  40  1   
 37  17  41  1   
 38  18  20  2   
 39  18  21  1   
 40  19  42  1   
 41  20  22  1   
 42  21  23  2   
 43  21  43  1   
 44  22  23  1   
 45  22  44  1   
 46  23  24  1   
 47  24  45  1   
 48  24  46  1   
 49  24  47  1   
@<TRIPOS>SUBSTRUCTURE
  1 ****   3 GROUP 4 **** **** 0

# MOE 2024.06 (io_trps.svl 2023.06)
