@<TRIPOS>MOLECULE
NONAME
52 53 1 0 0 
SMALL
USER_CHARGES


@<TRIPOS>ATOM
  1 S        0.3190     0.4840    -1.1020 S.o2  1 <1>   1.3330 
  2 O       -0.8550     1.2950    -1.3330 O.2   1 <1>  -0.6500 
  3 O        0.6460    -0.5850    -2.0190 O.2   1 <1>  -0.6500 
  4 N        0.1680    -0.1900     0.4510 N.am  1 <1>  -0.8490 
  5 C        1.7520     1.5550    -0.9660 C.3   1 <1>  -0.0550 
  6 C       -0.5320     0.6850     1.3980 C.3   1 <1>   0.1160 
  7 C       -0.4810    -1.5040     0.4220 C.3   1 <1>   0.1160 
  8 C        3.0870     0.8070    -0.7580 C.3   1 <1>  -0.0800 
  9 C        4.3280     1.6820    -0.8470 C.3   1 <1>   0.2200 
 10 C        3.2510     0.1220     0.6050 C.3   1 <1>   0.1200 
 11 N        4.1260     2.9620    -0.1280 N.am  1 <1>  -0.7300 
 12 C        5.3190     0.8370    -0.0610 C.3   1 <1>   0.1200 
 13 O        4.5770     0.3240     1.0020 O.3   1 <1>  -0.5600 
 14 C        3.9760     4.1770    -0.7170 C.2   1 <1>   0.5690 
 15 O        3.8800     4.2800    -1.9170 O.2   1 <1>  -0.5700 
 16 C        3.9150     5.4380     0.1580 C.3   1 <1>   0.1710 
 17 N        5.2240     6.0480     0.5190 N.3   1 <1>  -0.8100 
 18 C        5.9490     6.4950    -0.6890 C.3   1 <1>   0.2530 
 19 C        6.0490     5.1670     1.3600 C.3   1 <1>   0.0300 
 20 C        7.1920     7.3020    -0.3330 C.ar  1 <1>  -0.1440 
 21 C        7.0980     8.3970     0.5120 C.ar  1 <1>  -0.1500 
 22 C        8.4300     6.9530    -0.8540 C.ar  1 <1>  -0.1500 
 23 C        8.2240     9.1360     0.8330 C.ar  1 <1>  -0.1500 
 24 C        9.5570     7.6900    -0.5350 C.ar  1 <1>  -0.1500 
 25 C        9.4550     8.7820     0.3090 C.ar  1 <1>  -0.1500 
 26 H        1.8310     2.1240    -1.8730 H     1 <1>   0.0800 
 27 H        1.5980     2.2520    -0.1670 H     1 <1>   0.0800 
 28 H       -0.5190     0.2510     2.3830 H     1 <1>   0.0800 
 29 H       -1.5560     0.8290     1.0930 H     1 <1>   0.0800 
 30 H       -0.0500     1.6460     1.4440 H     1 <1>   0.0800 
 31 H       -0.5530    -1.9090     1.4170 H     1 <1>   0.0800 
 32 H        0.0960    -2.1890    -0.1770 H     1 <1>   0.0800 
 33 H       -1.4690    -1.4250    -0.0010 H     1 <1>   0.0800 
 34 H        3.1700     0.0460    -1.5150 H     1 <1>   0.0800 
 35 H        4.6480     1.8570    -1.8610 H     1 <1>   0.0800 
 36 H        3.0590    -0.9360     0.5450 H     1 <1>   0.0800 
 37 H        2.6180     0.5620     1.3560 H     1 <1>   0.0800 
 38 H        4.2240     2.8830     0.8880 H     1 <1>   0.3700 
 39 H        6.1520     1.4050     0.3140 H     1 <1>   0.0800 
 40 H        5.6720     0.0090    -0.6510 H     1 <1>   0.0800 
 41 H        3.3840     5.2020     1.0610 H     1 <1>   0.0800 
 42 H        3.3290     6.1730    -0.3660 H     1 <1>   0.0800 
 43 H        6.2230     5.6430    -1.2870 H     1 <1>   0.0800 
 44 H        5.3010     7.1180    -1.2810 H     1 <1>   0.0800 
 45 H        6.9090     5.7050     1.7230 H     1 <1>   0.0800 
 46 H        6.3880     4.3120     0.8010 H     1 <1>   0.0800 
 47 H        5.4830     4.8350     2.2130 H     1 <1>   0.0800 
 48 H        6.1410     8.6670     0.9230 H     1 <1>   0.1500 
 49 H        8.5210     6.1070    -1.5120 H     1 <1>   0.1500 
 50 H        8.1400     9.9820     1.4910 H     1 <1>   0.1500 
 51 H       10.5140     7.4150    -0.9430 H     1 <1>   0.1500 
 52 H       10.3310     9.3550     0.5580 H     1 <1>   0.1500 
@<TRIPOS>BOND
  1   1   2  2   
  2   1   3  2   
  3   1   4  am  
  4   1   5  1   
  5   4   6  1   
  6   4   7  1   
  7   5   8  1   
  8   5  26  1   
  9   5  27  1   
 10   6  28  1   
 11   6  29  1   
 12   6  30  1   
 13   7  31  1   
 14   7  32  1   
 15   7  33  1   
 16   8   9  1   
 17   8  10  1   
 18   8  34  1   
 19   9  11  1   
 20   9  12  1   
 21   9  35  1   
 22  10  13  1   
 23  10  36  1   
 24  10  37  1   
 25  11  14  am  
 26  11  38  1   
 27  12  13  1   
 28  12  39  1   
 29  12  40  1   
 30  14  15  2   
 31  14  16  1   
 32  16  17  1   
 33  16  41  1   
 34  16  42  1   
 35  17  18  1   
 36  17  19  1   
 37  18  20  1   
 38  18  43  1   
 39  18  44  1   
 40  19  45  1   
 41  19  46  1   
 42  19  47  1   
 43  20  21  ar  
 44  20  22  ar  
 45  21  23  ar  
 46  21  48  1   
 47  22  24  ar  
 48  22  49  1   
 49  23  25  ar  
 50  23  50  1   
 51  24  25  ar  
 52  24  51  1   
 53  25  52  1   
@<TRIPOS>SUBSTRUCTURE
  1 ****  11 GROUP 4 **** **** 0

# MOE 2024.06 (io_trps.svl 2023.06)
