@<TRIPOS>MOLECULE
NONAME
50 54 1 0 0 
SMALL
USER_CHARGES


@<TRIPOS>ATOM
  1 O        0.9350    -0.0270     1.6170 O.2   1 <1>  -0.5700 
  2 C        1.6770    -0.5900     0.8380 C.2   1 <1>   0.7150 
  3 N        2.6120     0.1620     0.1550 N.am  1 <1>  -0.6600 
  4 C        1.6030    -2.0140     0.6720 C.2   1 <1>  -0.2370 
  5 C        3.1560     1.4040     0.7940 C.3   1 <1>   0.1400 
  6 C        3.0700    -0.2290    -1.2140 C.3   1 <1>   0.1400 
  7 N        2.7170    -2.8090     0.7060 N.pl3 1 <1>   0.0330 
  8 C        0.5220    -2.8320     0.4840 C.2   1 <1>  -0.1500 
  9 C        4.6860     1.3760     1.0570 C.3   1 <1>   0.4230 
 10 C        4.5930    -0.1290    -1.4390 C.3   1 <1>  -0.0800 
 11 C        2.3480    -4.1060     0.5150 C.ar  1 <1>  -0.1520 
 12 C        0.9740    -4.1550     0.3730 C.ar  1 <1>   0.0000 
 13 N        5.5150     1.8310    -0.1200 N.4   1 <1>  -0.9590 
 14 C        5.2150     0.0200     1.6010 C.3   1 <1>   0.1200 
 15 C        5.4650    -1.0540    -0.5620 C.3   1 <1>   0.1200 
 16 C        5.0460     1.3330    -1.4460 C.3   1 <1>   0.3430 
 17 C        3.1290    -5.2740     0.4560 C.ar  1 <1>  -0.1500 
 18 C        0.3110    -5.3980     0.1600 C.ar  1 <1>   0.0000 
 19 C        5.6480     3.3220    -0.1490 C.3   1 <1>   0.2630 
 20 O        5.0320    -1.0970     0.7640 O.3   1 <1>  -0.5600 
 21 C        2.5090    -6.4690     0.2500 C.ar  1 <1>  -0.1500 
 22 C        1.0980    -6.5670     0.0950 C.ar  1 <1>   0.0000 
 23 C       -1.0810    -5.5080     0.0110 C.ar  1 <1>  -0.1500 
 24 C        0.4580    -7.7990    -0.1200 C.ar  1 <1>  -0.1500 
 25 C       -1.6800    -6.7240    -0.1980 C.ar  1 <1>  -0.1500 
 26 C       -0.9040    -7.8800    -0.2650 C.ar  1 <1>  -0.1500 
 27 H        2.8890     2.2590     0.2010 H     1 <1>   0.0800 
 28 H        2.6830     1.5370     1.7520 H     1 <1>   0.0800 
 29 H        2.7570    -1.2350    -1.4340 H     1 <1>   0.0800 
 30 H        2.5640     0.4040    -1.9240 H     1 <1>   0.0800 
 31 H        3.6760    -2.4630     0.8620 H     1 <1>   0.2700 
 32 H       -0.5080    -2.5280     0.4310 H     1 <1>   0.1500 
 33 H        4.8570     2.0880     1.8470 H     1 <1>   0.0800 
 34 H        4.7440    -0.4630    -2.4500 H     1 <1>   0.0800 
 35 H        6.4530     1.4340     0.0310 H     1 <1>   0.4500 
 36 H        4.6990    -0.2040     2.5190 H     1 <1>   0.0800 
 37 H        6.2630     0.0940     1.8310 H     1 <1>   0.0800 
 38 H        6.5060    -0.7780    -0.5850 H     1 <1>   0.0800 
 39 H        5.3850    -2.0620    -0.9350 H     1 <1>   0.0800 
 40 H        4.2260     1.9420    -1.7930 H     1 <1>   0.0800 
 41 H        5.8490     1.4410    -2.1580 H     1 <1>   0.0800 
 42 H        4.1960    -5.2030     0.5770 H     1 <1>   0.1500 
 43 H        4.6860     3.7840    -0.3030 H     1 <1>   0.0800 
 44 H        6.3060     3.6250    -0.9480 H     1 <1>   0.0800 
 45 H        6.0580     3.6820     0.7820 H     1 <1>   0.0800 
 46 H        3.0810    -7.3780     0.2000 H     1 <1>   0.1500 
 47 H       -1.6780    -4.6160     0.0630 H     1 <1>   0.1500 
 48 H        1.0580    -8.6890    -0.1700 H     1 <1>   0.1500 
 49 H       -2.7480    -6.7970    -0.3120 H     1 <1>   0.1500 
 50 H       -1.3830    -8.8290    -0.4290 H     1 <1>   0.1500 
@<TRIPOS>BOND
  1   1   2  2   
  2   2   3  am  
  3   2   4  1   
  4   3   5  1   
  5   3   6  1   
  6   4   7  1   
  7   4   8  2   
  8   5   9  1   
  9   5  27  1   
 10   5  28  1   
 11   6  10  1   
 12   6  29  1   
 13   6  30  1   
 14   7  11  1   
 15   7  31  1   
 16   8  12  1   
 17   8  32  1   
 18   9  13  1   
 19   9  14  1   
 20   9  33  1   
 21  10  15  1   
 22  10  16  1   
 23  10  34  1   
 24  11  12  ar  
 25  11  17  ar  
 26  12  18  ar  
 27  13  16  1   
 28  13  19  1   
 29  13  35  1   
 30  14  20  1   
 31  14  36  1   
 32  14  37  1   
 33  15  20  1   
 34  15  38  1   
 35  15  39  1   
 36  16  40  1   
 37  16  41  1   
 38  17  21  ar  
 39  17  42  1   
 40  18  22  ar  
 41  18  23  ar  
 42  19  43  1   
 43  19  44  1   
 44  19  45  1   
 45  21  22  ar  
 46  21  46  1   
 47  22  24  ar  
 48  23  25  ar  
 49  23  47  1   
 50  24  26  ar  
 51  24  48  1   
 52  25  26  ar  
 53  25  49  1   
 54  26  50  1   
@<TRIPOS>SUBSTRUCTURE
  1 ****   7 GROUP 4 **** **** 0

# MOE 2024.06 (io_trps.svl 2023.06)
