@<TRIPOS>MOLECULE
NONAME
55 58 1 0 0 
SMALL
USER_CHARGES


@<TRIPOS>ATOM
  1 S        0.2670     0.1120     1.2320 S.o2  1 <1>   1.4470 
  2 O       -0.1770    -0.7960     2.2700 O.2   1 <1>  -0.6500 
  3 O        0.6050     1.4620     1.6330 O.2   1 <1>  -0.6500 
  4 N       -1.0010     0.2230     0.1110 N.am  1 <1>  -0.8490 
  5 C        1.5960    -0.7140     0.3100 C.ar  1 <1>  -0.0090 
  6 C       -2.2810     0.4980     0.7830 C.3   1 <1>   0.1960 
  7 C       -0.7440     1.2350    -0.9170 C.3   1 <1>   0.1960 
  8 C        2.5650    -0.0160    -0.4060 C.ar  1 <1>   0.0830 
  9 C        1.6560    -2.1030     0.2790 C.ar  1 <1>  -0.1500 
 10 C       -3.4670     0.3970    -0.1940 C.3   1 <1>   0.0000 
 11 C       -1.8380     1.2030    -1.9890 C.3   1 <1>  -0.1600 
 12 O        2.5490     1.3300    -0.4650 O.3   1 <1>  -0.3630 
 13 C        3.5540    -0.6820    -1.1130 C.ar  1 <1>  -0.1500 
 14 C        2.6430    -2.7960    -0.4180 C.ar  1 <1>  -0.0230 
 15 C       -4.7920     0.6510     0.5470 C.3   1 <1>   0.2000 
 16 C       -3.2380     1.3740    -1.3780 C.3   1 <1>  -0.1600 
 17 C       -3.6830    -1.0400    -0.7040 C.3   1 <1>  -0.1600 
 18 C        3.4530     2.0100     0.3780 C.3   1 <1>   0.0400 
 19 C        3.5960    -2.0620    -1.1180 C.ar  1 <1>  -0.1500 
 20 N        2.6670    -4.2220    -0.4170 N.pl3 1 <1>   0.5930 
 21 O       -5.0340     2.0140     0.7280 O.3   1 <1>  -0.5600 
 22 C       -5.8740    -0.0060    -0.3130 C.3   1 <1>  -0.1600 
 23 C       -5.1660    -1.1320    -1.0810 C.3   1 <1>  -0.1600 
 24 N        1.5460    -4.9860    -0.4100 N.2   1 <1>  -0.7070 
 25 C        3.7630    -5.0220    -0.4210 C.2   1 <1>  -0.3020 
 26 C       -6.0380     2.3170     1.6440 C.3   1 <1>   0.0400 
 27 C        1.9570    -6.2150    -0.4140 C.2   1 <1>   0.1390 
 28 C        3.3430    -6.3040    -0.4220 C.2   1 <1>  -0.1500 
 29 H       -2.4330    -0.2120     1.5790 H     1 <1>   0.0800 
 30 H       -2.2560     1.4830     1.2220 H     1 <1>   0.0800 
 31 H       -0.7010     2.2150    -0.4680 H     1 <1>   0.0800 
 32 H        0.2010     1.0430    -1.3930 H     1 <1>   0.0800 
 33 H        0.9070    -2.6680     0.8120 H     1 <1>   0.1500 
 34 H       -1.6600     1.9930    -2.6970 H     1 <1>   0.0800 
 35 H       -1.7720     0.2730    -2.5240 H     1 <1>   0.0800 
 36 H        4.2830    -0.1150    -1.6650 H     1 <1>   0.1500 
 37 H       -4.7540     0.1710     1.5110 H     1 <1>   0.0800 
 38 H       -3.9880     1.2420    -2.1360 H     1 <1>   0.0800 
 39 H       -3.3170     2.3870    -1.0210 H     1 <1>   0.0800 
 40 H       -3.0420    -1.2990    -1.5270 H     1 <1>   0.0800 
 41 H       -3.4860    -1.7340     0.0950 H     1 <1>   0.0800 
 42 H        3.2900     3.0670     0.2610 H     1 <1>   0.0800 
 43 H        4.4590     1.7560     0.0960 H     1 <1>   0.0800 
 44 H        3.2620     1.7250     1.3980 H     1 <1>   0.0800 
 45 H        4.3650    -2.5660    -1.6770 H     1 <1>   0.1500 
 46 H       -6.6660    -0.3970     0.3010 H     1 <1>   0.0800 
 47 H       -6.2720     0.7100    -1.0110 H     1 <1>   0.0800 
 48 H       -5.5660    -2.0980    -0.8230 H     1 <1>   0.0800 
 49 H       -5.2870    -0.9780    -2.1400 H     1 <1>   0.0800 
 50 H        4.7620    -4.6310    -0.4190 H     1 <1>   0.1500 
 51 H       -6.1140     3.3880     1.7120 H     1 <1>   0.0800 
 52 H       -5.7770     1.9110     2.6060 H     1 <1>   0.0800 
 53 H       -6.9730     1.9110     1.3000 H     1 <1>   0.0800 
 54 H        1.2920    -7.0630    -0.4110 H     1 <1>   0.1500 
 55 H        3.9210    -7.2120    -0.4250 H     1 <1>   0.1500 
@<TRIPOS>BOND
  1   1   2  2   
  2   1   3  2   
  3   1   4  am  
  4   1   5  1   
  5   4   6  1   
  6   4   7  1   
  7   5   8  ar  
  8   5   9  ar  
  9   6  10  1   
 10   6  29  1   
 11   6  30  1   
 12   7  11  1   
 13   7  31  1   
 14   7  32  1   
 15   8  12  1   
 16   8  13  ar  
 17   9  14  ar  
 18   9  33  1   
 19  10  15  1   
 20  10  16  1   
 21  10  17  1   
 22  11  16  1   
 23  11  34  1   
 24  11  35  1   
 25  12  18  1   
 26  13  19  ar  
 27  13  36  1   
 28  14  19  ar  
 29  14  20  1   
 30  15  21  1   
 31  15  22  1   
 32  15  37  1   
 33  16  38  1   
 34  16  39  1   
 35  17  23  1   
 36  17  40  1   
 37  17  41  1   
 38  18  42  1   
 39  18  43  1   
 40  18  44  1   
 41  19  45  1   
 42  20  24  1   
 43  20  25  1   
 44  21  26  1   
 45  22  23  1   
 46  22  46  1   
 47  22  47  1   
 48  23  48  1   
 49  23  49  1   
 50  24  27  2   
 51  25  28  2   
 52  25  50  1   
 53  26  51  1   
 54  26  52  1   
 55  26  53  1   
 56  27  28  1   
 57  27  54  1   
 58  28  55  1   
@<TRIPOS>SUBSTRUCTURE
  1 ****   4 GROUP 4 **** **** 0

# MOE 2024.06 (io_trps.svl 2023.06)
