@<TRIPOS>MOLECULE
NONAME
36 38 1 0 0 
SMALL
USER_CHARGES


@<TRIPOS>ATOM
  1 S        0.2440    -0.1790     0.0730 S.3   1 <1>  -0.0800 
  2 C       -1.2850     0.6850     0.1360 C.2   1 <1>   0.4620 
  3 C        1.0750     1.3390    -0.0410 C.2   1 <1>  -0.1100 
  4 N       -1.1590     1.9600     0.0780 N.2   1 <1>  -0.5650 
  5 N       -2.4540    -0.0260     0.2380 N.pl3 1 <1>  -0.8220 
  6 C        0.1840     2.3530    -0.0240 C.2   1 <1>   0.1410 
  7 C       -3.7800     0.6220     0.1110 C.3   1 <1>   0.2090 
  8 C       -2.5540    -1.4890     0.0380 C.3   1 <1>   0.2090 
  9 C        0.5290     3.7660    -0.1020 C.2   1 <1>   0.7160 
 10 C       -4.7350    -0.5100    -0.2770 C.3   1 <1>   0.2000 
 11 C       -4.0460    -1.8020     0.1600 C.3   1 <1>  -0.0800 
 12 O        1.6770     4.1470    -0.2000 O.2   1 <1>  -0.5700 
 13 N       -0.4310     4.7160    -0.0680 N.am  1 <1>  -0.8000 
 14 O       -5.9650    -0.3950     0.3560 O.3   1 <1>  -0.6800 
 15 C       -4.5010    -3.0230    -0.6580 C.3   1 <1>  -0.0170 
 16 C       -3.8280    -4.3030    -0.1890 C.ar  1 <1>   0.1670 
 17 N       -2.5850    -4.5030    -0.5990 N.ar  1 <1>  -0.6200 
 18 C       -4.5200    -5.1940     0.6300 C.ar  1 <1>   0.1600 
 19 C       -2.0880    -5.6410    -0.1410 C.ar  1 <1>   0.1600 
 20 N       -4.0240    -6.3300     1.0910 N.ar  1 <1>  -0.6200 
 21 C       -2.7840    -6.5240     0.6760 C.ar  1 <1>   0.1600 
 22 H        2.1480     1.3340    -0.1100 H     1 <1>   0.1500 
 23 H       -4.0510     1.0550     1.0580 H     1 <1>   0.0800 
 24 H       -3.7570     1.3830    -0.6500 H     1 <1>   0.0800 
 25 H       -2.1890    -1.7390    -0.9450 H     1 <1>   0.0800 
 26 H       -1.9810    -2.0230     0.7780 H     1 <1>   0.0800 
 27 H       -4.8970    -0.4940    -1.3410 H     1 <1>   0.0800 
 28 H       -4.2440    -1.9760     1.2030 H     1 <1>   0.0800 
 29 H       -0.1890     5.7030    -0.1160 H     1 <1>   0.3700 
 30 H       -1.4120     4.4490     0.0230 H     1 <1>   0.3700 
 31 H       -5.8460    -0.3720     1.3260 H     1 <1>   0.4000 
 32 H       -4.2750    -2.8720    -1.6990 H     1 <1>   0.0800 
 33 H       -5.5690    -3.1240    -0.5730 H     1 <1>   0.0800 
 34 H       -5.5290    -4.9570     0.9180 H     1 <1>   0.1500 
 35 H       -1.0800    -5.8870    -0.4260 H     1 <1>   0.1500 
 36 H       -2.2930    -7.4250     0.9970 H     1 <1>   0.1500 
@<TRIPOS>BOND
  1   1   2  1   
  2   1   3  1   
  3   2   4  2   
  4   2   5  1   
  5   3   6  2   
  6   3  22  1   
  7   4   6  1   
  8   5   7  1   
  9   5   8  1   
 10   6   9  1   
 11   7  10  1   
 12   7  23  1   
 13   7  24  1   
 14   8  11  1   
 15   8  25  1   
 16   8  26  1   
 17   9  12  2   
 18   9  13  am  
 19  10  11  1   
 20  10  14  1   
 21  10  27  1   
 22  11  15  1   
 23  11  28  1   
 24  13  29  1   
 25  13  30  1   
 26  14  31  1   
 27  15  16  1   
 28  15  32  1   
 29  15  33  1   
 30  16  17  ar  
 31  16  18  ar  
 32  17  19  ar  
 33  18  20  ar  
 34  18  34  1   
 35  19  21  ar  
 36  19  35  1   
 37  20  21  ar  
 38  21  36  1   
@<TRIPOS>SUBSTRUCTURE
  1 ****   8 GROUP 4 **** **** 0

# MOE 2024.06 (io_trps.svl 2023.06)
