@<TRIPOS>MOLECULE
NONAME
45 47 1 0 0 
SMALL
USER_CHARGES


@<TRIPOS>ATOM
  1 O       -2.9070     1.0670    -2.2990 O.2   1 <1>  -0.5700 
  2 C       -2.3370     0.8380    -1.2590 C.2   1 <1>   0.5690 
  3 N       -2.2030    -0.4240    -0.7830 N.am  1 <1>  -0.7300 
  4 C       -1.7630     2.0000    -0.4490 C.3   1 <1>   0.1810 
  5 C       -2.7170    -1.6570    -1.4180 C.3   1 <1>   0.2200 
  6 O       -1.3850     1.5960     0.8460 O.3   1 <1>  -0.5600 
  7 C       -3.9340    -2.1920    -0.6770 C.3   1 <1>  -0.0800 
  8 C       -1.7250    -2.7910    -1.1940 C.3   1 <1>   0.1200 
  9 C       -0.8460     2.6130     1.6200 C.3   1 <1>   0.1200 
 10 C       -3.3150    -3.0290     0.4460 C.3   1 <1>   0.1200 
 11 C       -4.9430    -1.1340    -0.1870 C.3   1 <1>  -0.0170 
 12 O       -1.9840    -3.2670     0.0920 O.3   1 <1>  -0.5600 
 13 C       -0.5050     2.0190     2.9800 C.3   1 <1>  -0.2400 
 14 C       -6.1680    -1.7940     0.4370 C.ar  1 <1>  -0.1440 
 15 C       -7.2040    -2.3630    -0.3420 C.ar  1 <1>   0.0000 
 16 C       -6.2920    -1.8590     1.7940 C.ar  1 <1>  -0.1500 
 17 C       -8.2810    -2.9760     0.3440 C.ar  1 <1>   0.3100 
 18 C       -7.2360    -2.3570    -1.7560 C.ar  1 <1>  -0.1500 
 19 C       -7.4040    -2.4820     2.3720 C.ar  1 <1>   0.1600 
 20 N       -8.3660    -3.0270     1.6970 N.ar  1 <1>  -0.6200 
 21 C       -9.3160    -3.5610    -0.4030 C.ar  1 <1>  -0.1500 
 22 C       -8.2620    -2.9350    -2.4540 C.ar  1 <1>  -0.1500 
 23 C       -9.3150    -3.5470    -1.7710 C.ar  1 <1>  -0.1500 
 24 H       -1.7490    -0.5430     0.1300 H     1 <1>   0.3700 
 25 H       -2.5090     2.7700    -0.3650 H     1 <1>   0.0800 
 26 H       -0.8990     2.3870    -0.9570 H     1 <1>   0.0800 
 27 H       -2.9100    -1.4870    -2.4640 H     1 <1>   0.0800 
 28 H       -4.4420    -2.8730    -1.3360 H     1 <1>   0.0800 
 29 H       -0.7010    -2.4680    -1.2630 H     1 <1>   0.0800 
 30 H       -1.9060    -3.5950    -1.8840 H     1 <1>   0.0800 
 31 H        0.0410     2.9880     1.1360 H     1 <1>   0.0800 
 32 H       -1.5740     3.4010     1.7210 H     1 <1>   0.0800 
 33 H       -3.8210    -3.9720     0.5680 H     1 <1>   0.0800 
 34 H       -3.3090    -2.4960     1.3810 H     1 <1>   0.0800 
 35 H       -5.2400    -0.5000    -1.0030 H     1 <1>   0.0800 
 36 H       -4.4750    -0.4970     0.5430 H     1 <1>   0.0800 
 37 H        0.2150     1.2280     2.8680 H     1 <1>   0.0800 
 38 H       -1.3930     1.6340     3.4480 H     1 <1>   0.0800 
 39 H       -0.0840     2.7780     3.6140 H     1 <1>   0.0800 
 40 H       -5.5480    -1.4430     2.4490 H     1 <1>   0.1500 
 41 H       -6.4400    -1.8860    -2.3010 H     1 <1>   0.1500 
 42 H       -7.4620    -2.5110     3.4470 H     1 <1>   0.1500 
 43 H      -10.1170    -4.0240     0.1440 H     1 <1>   0.1500 
 44 H       -8.2730    -2.9240    -3.5300 H     1 <1>   0.1500 
 45 H      -10.1160    -4.0000    -2.3300 H     1 <1>   0.1500 
@<TRIPOS>BOND
  1   1   2  2   
  2   2   3  am  
  3   2   4  1   
  4   3   5  1   
  5   3  24  1   
  6   4   6  1   
  7   4  25  1   
  8   4  26  1   
  9   5   7  1   
 10   5   8  1   
 11   5  27  1   
 12   6   9  1   
 13   7  10  1   
 14   7  11  1   
 15   7  28  1   
 16   8  12  1   
 17   8  29  1   
 18   8  30  1   
 19   9  13  1   
 20   9  31  1   
 21   9  32  1   
 22  10  12  1   
 23  10  33  1   
 24  10  34  1   
 25  11  14  1   
 26  11  35  1   
 27  11  36  1   
 28  13  37  1   
 29  13  38  1   
 30  13  39  1   
 31  14  15  ar  
 32  14  16  ar  
 33  15  17  ar  
 34  15  18  ar  
 35  16  19  ar  
 36  16  40  1   
 37  17  20  ar  
 38  17  21  ar  
 39  18  22  ar  
 40  18  41  1   
 41  19  20  ar  
 42  19  42  1   
 43  21  23  ar  
 44  21  43  1   
 45  22  23  ar  
 46  22  44  1   
 47  23  45  1   
@<TRIPOS>SUBSTRUCTURE
  1 ****  11 GROUP 4 **** **** 0

# MOE 2024.06 (io_trps.svl 2023.06)
