@<TRIPOS>MOLECULE
AMTGC442
29 28 1 0 0 
SMALL
USER_CHARGES


@<TRIPOS>ATOM
  1 O       -0.3270     0.2750     0.0200 O.3   1 <1>  -0.5600 
  2 C       -1.5030     1.0200     0.0400 C.3   1 <1>   0.1200 
  3 C        0.8320     1.0480     0.0500 C.3   1 <1>   0.1200 
  4 C       -2.6780     0.0470     0.0080 C.3   1 <1>   0.1200 
  5 C        2.0390     0.1120     0.0670 C.3   1 <1>   0.1200 
  6 O       -3.8710     0.7770     0.0160 O.3   1 <1>  -0.5600 
  7 O        3.2060     0.8620     0.0000 O.3   1 <1>  -0.6800 
  8 C       -5.0150    -0.0050    -0.0070 C.3   1 <1>   0.1200 
  9 C       -6.2150     0.9480     0.0050 C.3   1 <1>   0.3430 
 10 N       -7.5150     0.2100    -0.0180 N.4   1 <1>  -0.9060 
 11 C       -8.6800     1.1440    -0.0070 C.3   1 <1>   0.2630 
 12 H       -1.5220     1.6590    -0.8260 H     1 <1>   0.0800 
 13 H       -1.5260     1.6050     0.9430 H     1 <1>   0.0800 
 14 H        0.8220     1.6530     0.9410 H     1 <1>   0.0800 
 15 H        0.8480     1.6700    -0.8280 H     1 <1>   0.0800 
 16 H       -2.6500    -0.5860     0.8780 H     1 <1>   0.0800 
 17 H       -2.6370    -0.5450    -0.8900 H     1 <1>   0.0800 
 18 H        2.0190    -0.5590    -0.7740 H     1 <1>   0.0800 
 19 H        2.0600    -0.4520     0.9840 H     1 <1>   0.0800 
 20 H        3.3060     1.2680    -0.8830 H     1 <1>   0.4000 
 21 H       -5.0130    -0.6340     0.8670 H     1 <1>   0.0800 
 22 H       -5.0020    -0.5990    -0.9050 H     1 <1>   0.0800 
 23 H       -6.1480     1.5930    -0.8570 H     1 <1>   0.0800 
 24 H       -6.1590     1.5580     0.8920 H     1 <1>   0.0800 
 25 H       -7.5690    -0.4170     0.7970 H     1 <1>   0.4500 
 26 H       -7.5580    -0.3840    -0.8580 H     1 <1>   0.4500 
 27 H       -8.6630     1.7550     0.8820 H     1 <1>   0.0800 
 28 H       -9.6050     0.5900    -0.0240 H     1 <1>   0.0800 
 29 H       -8.6520     1.7900    -0.8700 H     1 <1>   0.0800 
@<TRIPOS>BOND
  1   1   2  1   
  2   1   3  1   
  3   2   4  1   
  4   2  12  1   
  5   2  13  1   
  6   3   5  1   
  7   3  14  1   
  8   3  15  1   
  9   4   6  1   
 10   4  16  1   
 11   4  17  1   
 12   5   7  1   
 13   5  18  1   
 14   5  19  1   
 15   6   8  1   
 16   7  20  1   
 17   8   9  1   
 18   8  21  1   
 19   8  22  1   
 20   9  10  1   
 21   9  23  1   
 22   9  24  1   
 23  10  11  1   
 24  10  25  1   
 25  10  26  1   
 26  11  27  1   
 27  11  28  1   
 28  11  29  1   
@<TRIPOS>SUBSTRUCTURE
  1 ****   4 GROUP 4 **** **** 0

# MOE 2024.06 (io_trps.svl 2023.06)
