@<TRIPOS>MOLECULE
NONAME
54 55 1 0 0 
SMALL
USER_CHARGES


@<TRIPOS>ATOM
  1 S        1.5330     1.5390    -1.8130 S.o2  1 <1>   1.3330 
  2 O        1.4470     0.1440    -2.1830 O.2   1 <1>  -0.6500 
  3 O        1.1970     2.5610    -2.7780 O.2   1 <1>  -0.6500 
  4 N        0.5370     1.7820    -0.4570 N.am  1 <1>  -0.8490 
  5 C        3.1850     1.8460    -1.1850 C.3   1 <1>  -0.0550 
  6 C       -0.6980     0.9950    -0.5310 C.3   1 <1>   0.1160 
  7 C        0.2100     3.1930    -0.2210 C.3   1 <1>   0.1160 
  8 C        3.7000     0.7790    -0.1940 C.3   1 <1>  -0.0800 
  9 C        5.1590     0.9330     0.2120 C.3   1 <1>   0.2200 
 10 C        2.9750     0.7360     1.1580 C.3   1 <1>   0.1200 
 11 N        5.4800     2.3530     0.4920 N.am  1 <1>  -0.7300 
 12 C        5.1610     0.1660     1.5260 C.3   1 <1>   0.1200 
 13 O        3.9510     0.5010     2.1320 O.3   1 <1>  -0.5600 
 14 C        6.0910     3.1970    -0.3710 C.2   1 <1>   0.5690 
 15 O        6.4090     2.8510    -1.4810 O.2   1 <1>  -0.5700 
 16 C        6.3320     4.6250     0.0600 C.3   1 <1>  -0.0990 
 17 C        5.0950     5.4880    -0.2140 C.3   1 <1>  -0.0170 
 18 C        5.3360     6.9200     0.2310 C.ar  1 <1>  -0.1440 
 19 C        5.8790     7.8410    -0.6490 C.ar  1 <1>  -0.1500 
 20 C        5.0160     7.3170     1.5190 C.ar  1 <1>  -0.1500 
 21 C        6.1040     9.1570    -0.2510 C.ar  1 <1>   0.0820 
 22 C        5.2370     8.6220     1.9220 C.ar  1 <1>  -0.1500 
 23 O        6.6350    10.0980    -1.0780 O.3   1 <1>  -0.3620 
 24 C        5.7790     9.5470     1.0460 C.ar  1 <1>  -0.1440 
 25 C        6.9910     9.7980    -2.4090 C.3   1 <1>   0.0400 
 26 C        6.0140    10.9790     1.5060 C.3   1 <1>  -0.0970 
 27 H        3.8590     1.8710    -2.0200 H     1 <1>   0.0800 
 28 H        3.2120     2.8130    -0.7260 H     1 <1>   0.0800 
 29 H       -1.3020     1.1630     0.3450 H     1 <1>   0.0800 
 30 H       -0.4650    -0.0550    -0.5810 H     1 <1>   0.0800 
 31 H       -1.2630     1.2650    -1.4080 H     1 <1>   0.0800 
 32 H       -0.3420     3.2970     0.6970 H     1 <1>   0.0800 
 33 H       -0.3840     3.5830    -1.0320 H     1 <1>   0.0800 
 34 H        1.1110     3.7770    -0.1440 H     1 <1>   0.0800 
 35 H        3.5880    -0.1890    -0.6520 H     1 <1>   0.0800 
 36 H        5.8430     0.5210    -0.5120 H     1 <1>   0.0800 
 37 H        2.2450    -0.0550     1.1940 H     1 <1>   0.0800 
 38 H        2.5040     1.6740     1.3930 H     1 <1>   0.0800 
 39 H        5.1900     2.6630     1.4230 H     1 <1>   0.3700 
 40 H        5.9810     0.4350     2.1680 H     1 <1>   0.0800 
 41 H        5.1630    -0.8960     1.3510 H     1 <1>   0.0800 
 42 H        6.5760     4.6500     1.1060 H     1 <1>   0.0800 
 43 H        7.1710     5.0150    -0.4870 H     1 <1>   0.0800 
 44 H        4.2450     5.0870     0.3100 H     1 <1>   0.0800 
 45 H        4.8690     5.4670    -1.2660 H     1 <1>   0.0800 
 46 H        6.1240     7.5190    -1.6420 H     1 <1>   0.1500 
 47 H        4.5940     6.6150     2.2160 H     1 <1>   0.1500 
 48 H        4.9820     8.9120     2.9260 H     1 <1>   0.1500 
 49 H        7.3820    10.6930    -2.8590 H     1 <1>   0.0800 
 50 H        6.1130     9.4750    -2.9400 H     1 <1>   0.0800 
 51 H        7.7450     9.0310    -2.4040 H     1 <1>   0.0800 
 52 H        5.7110    11.1160     2.5270 H     1 <1>   0.0800 
 53 H        5.4530    11.6560     0.8860 H     1 <1>   0.0800 
 54 H        7.0580    11.2200     1.4210 H     1 <1>   0.0800 
@<TRIPOS>BOND
  1   1   2  2   
  2   1   3  2   
  3   1   4  am  
  4   1   5  1   
  5   4   6  1   
  6   4   7  1   
  7   5   8  1   
  8   5  27  1   
  9   5  28  1   
 10   6  29  1   
 11   6  30  1   
 12   6  31  1   
 13   7  32  1   
 14   7  33  1   
 15   7  34  1   
 16   8   9  1   
 17   8  10  1   
 18   8  35  1   
 19   9  11  1   
 20   9  12  1   
 21   9  36  1   
 22  10  13  1   
 23  10  37  1   
 24  10  38  1   
 25  11  14  am  
 26  11  39  1   
 27  12  13  1   
 28  12  40  1   
 29  12  41  1   
 30  14  15  2   
 31  14  16  1   
 32  16  17  1   
 33  16  42  1   
 34  16  43  1   
 35  17  18  1   
 36  17  44  1   
 37  17  45  1   
 38  18  19  ar  
 39  18  20  ar  
 40  19  21  ar  
 41  19  46  1   
 42  20  22  ar  
 43  20  47  1   
 44  21  23  1   
 45  21  24  ar  
 46  22  24  ar  
 47  22  48  1   
 48  23  25  1   
 49  24  26  1   
 50  25  49  1   
 51  25  50  1   
 52  25  51  1   
 53  26  52  1   
 54  26  53  1   
 55  26  54  1   
@<TRIPOS>SUBSTRUCTURE
  1 ****  17 GROUP 4 **** **** 0

# MOE 2024.06 (io_trps.svl 2023.06)
