@<TRIPOS>MOLECULE
NONAME
38 39 1 0 0 
SMALL
USER_CHARGES


@<TRIPOS>ATOM
  1 F       -0.5440    -1.6750     1.0450 F     1 <1>  -0.1900 
  2 C       -1.7940    -1.7680     0.6480 C.ar  1 <1>   0.1900 
  3 C       -2.5840    -0.6700     0.3320 C.ar  1 <1>   0.3920 
  4 C       -2.3430    -3.0180     0.5420 C.ar  1 <1>   0.1600 
  5 O       -2.2010     0.6260     0.3840 O.3   1 <1>  -0.3630 
  6 N       -3.8270    -0.8410    -0.0590 N.ar  1 <1>  -0.6200 
  7 N       -3.5900    -3.2010     0.1510 N.ar  1 <1>  -0.6200 
  8 C       -0.9220     1.0700     0.7790 C.3   1 <1>   0.0400 
  9 C       -4.2750    -2.0880    -0.1340 C.ar  1 <1>   0.7200 
 10 N       -5.5870    -2.2580    -0.5420 N.pl3 1 <1>  -0.8380 
 11 C       -6.0510    -3.5540    -1.1020 C.3   1 <1>   0.2090 
 12 C       -6.4570    -1.0720    -0.8260 C.3   1 <1>   0.1290 
 13 C       -6.4380    -4.5000     0.0500 C.3   1 <1>   0.3430 
 14 N       -6.1070    -5.9390    -0.2180 N.4   1 <1>  -0.9590 
 15 C       -6.6270    -6.8440     0.8330 C.3   1 <1>   0.3430 
 16 C       -4.6410    -6.1800    -0.2560 C.3   1 <1>   0.3430 
 17 C       -5.7910    -8.1080     0.6900 C.3   1 <1>  -0.1600 
 18 C       -4.4950    -7.6740    -0.0010 C.3   1 <1>  -0.1600 
 19 H       -1.7420    -3.8770     0.7850 H     1 <1>   0.1500 
 20 H       -0.9110     2.1440     0.7250 H     1 <1>   0.0800 
 21 H       -0.1850     0.6660     0.1080 H     1 <1>   0.0800 
 22 H       -0.7370     0.7560     1.7920 H     1 <1>   0.0800 
 23 H       -5.2580    -3.9740    -1.6950 H     1 <1>   0.0800 
 24 H       -6.8990    -3.3970    -1.7460 H     1 <1>   0.0800 
 25 H       -6.3090    -0.3110    -0.0780 H     1 <1>   0.0800 
 26 H       -7.4950    -1.3520    -0.8170 H     1 <1>   0.0800 
 27 H       -6.2070    -0.6600    -1.7890 H     1 <1>   0.0800 
 28 H       -7.4920    -4.3930     0.2420 H     1 <1>   0.0800 
 29 H       -5.9050    -4.1800     0.9320 H     1 <1>   0.0800 
 30 H       -6.5040    -6.2380    -1.1180 H     1 <1>   0.4500 
 31 H       -7.6800    -7.0430     0.7090 H     1 <1>   0.0800 
 32 H       -6.4550    -6.4090     1.8050 H     1 <1>   0.0800 
 33 H       -4.1630    -5.6300     0.5390 H     1 <1>   0.0800 
 34 H       -4.2070    -5.8860    -1.1990 H     1 <1>   0.0800 
 35 H       -6.3170    -8.8270     0.0850 H     1 <1>   0.0800 
 36 H       -5.6030    -8.5470     1.6550 H     1 <1>   0.0800 
 37 H       -3.6310    -7.8640     0.6120 H     1 <1>   0.0800 
 38 H       -4.3720    -8.1950    -0.9350 H     1 <1>   0.0800 
@<TRIPOS>BOND
  1   1   2  1   
  2   2   3  ar  
  3   2   4  ar  
  4   3   5  1   
  5   3   6  ar  
  6   4   7  ar  
  7   4  19  1   
  8   5   8  1   
  9   6   9  ar  
 10   7   9  ar  
 11   8  20  1   
 12   8  21  1   
 13   8  22  1   
 14   9  10  1   
 15  10  11  1   
 16  10  12  1   
 17  11  13  1   
 18  11  23  1   
 19  11  24  1   
 20  12  25  1   
 21  12  26  1   
 22  12  27  1   
 23  13  14  1   
 24  13  28  1   
 25  13  29  1   
 26  14  15  1   
 27  14  16  1   
 28  14  30  1   
 29  15  17  1   
 30  15  31  1   
 31  15  32  1   
 32  16  18  1   
 33  16  33  1   
 34  16  34  1   
 35  17  18  1   
 36  17  35  1   
 37  17  36  1   
 38  18  37  1   
 39  18  38  1   
@<TRIPOS>SUBSTRUCTURE
  1 ****   7 GROUP 4 **** **** 0

# MOE 2024.06 (io_trps.svl 2023.06)
