@<TRIPOS>MOLECULE
NONAME
44 45 1 0 0 
SMALL
USER_CHARGES


@<TRIPOS>ATOM
  1 S       -0.1490    -0.0960     0.4470 S.o2  1 <1>   1.3330 
  2 O       -0.8630     1.1540     0.5820 O.2   1 <1>  -0.6500 
  3 O        0.0970    -0.9040     1.6200 O.2   1 <1>  -0.6500 
  4 N       -0.9700    -1.0600    -0.6830 N.am  1 <1>  -0.8490 
  5 C        1.4000     0.2500    -0.3890 C.3   1 <1>  -0.0550 
  6 C       -2.4250    -0.9070    -0.5930 C.3   1 <1>   0.1160 
  7 C       -0.6120    -2.4810    -0.6060 C.3   1 <1>   0.1160 
  8 C        2.3230     1.2060     0.3930 C.3   1 <1>  -0.0800 
  9 C        3.5010     1.6450    -0.4570 C.3   1 <1>   0.2200 
 10 C        3.0180     0.5060     1.5670 C.3   1 <1>   0.1200 
 11 N        4.0240     2.9270     0.0660 N.am  1 <1>  -0.7300 
 12 C        4.5110     0.5340    -0.1950 C.3   1 <1>   0.1200 
 13 O        4.2680     0.0840     1.1050 O.3   1 <1>  -0.5600 
 14 C        4.0640     4.1040    -0.6220 C.2   1 <1>   0.5440 
 15 O        3.6550     4.1230    -1.7660 O.2   1 <1>  -0.5700 
 16 C        4.5820     5.2970     0.0210 C.ar  1 <1>   0.0860 
 17 C        5.6310     6.0610    -0.5210 C.ar  1 <1>  -0.1440 
 18 C        4.0250     5.7070     1.2380 C.ar  1 <1>  -0.1500 
 19 C        6.0930     7.1870     0.1430 C.ar  1 <1>  -0.1500 
 20 C        6.2830     5.6730    -1.8420 C.3   1 <1>  -0.0970 
 21 C        4.4820     6.8280     1.9050 C.ar  1 <1>  -0.1500 
 22 C        5.5140     7.5500     1.3420 C.ar  1 <1>   0.1900 
 23 F        5.9540     8.6090     1.9620 F     1 <1>  -0.1900 
 24 H        1.9150    -0.6700    -0.5850 H     1 <1>   0.0800 
 25 H        1.1660     0.7020    -1.3340 H     1 <1>   0.0800 
 26 H       -2.9120    -1.5190    -1.3330 H     1 <1>   0.0800 
 27 H       -2.7000     0.1190    -0.7740 H     1 <1>   0.0800 
 28 H       -2.7720    -1.1900     0.3870 H     1 <1>   0.0800 
 29 H       -1.0890    -3.0260    -1.4030 H     1 <1>   0.0800 
 30 H       -0.9240    -2.8970     0.3390 H     1 <1>   0.0800 
 31 H        0.4530    -2.6020    -0.7010 H     1 <1>   0.0800 
 32 H        1.7460     2.0530     0.7240 H     1 <1>   0.0800 
 33 H        3.2620     1.7330    -1.5040 H     1 <1>   0.0800 
 34 H        2.4830    -0.3490     1.9410 H     1 <1>   0.0800 
 35 H        3.1880     1.1970     2.3740 H     1 <1>   0.0800 
 36 H        4.4580     2.8650     0.9900 H     1 <1>   0.3700 
 37 H        5.5290     0.8710    -0.2790 H     1 <1>   0.0800 
 38 H        4.3450    -0.2940    -0.8610 H     1 <1>   0.0800 
 39 H        3.2140     5.1370     1.6580 H     1 <1>   0.1500 
 40 H        6.8920     7.7860    -0.2550 H     1 <1>   0.1500 
 41 H        7.1540     6.2720    -2.0380 H     1 <1>   0.0800 
 42 H        5.5850     5.8140    -2.6490 H     1 <1>   0.0800 
 43 H        6.5820     4.6400    -1.8230 H     1 <1>   0.0800 
 44 H        4.0520     7.1420     2.8390 H     1 <1>   0.1500 
@<TRIPOS>BOND
  1   1   2  2   
  2   1   3  2   
  3   1   4  am  
  4   1   5  1   
  5   4   6  1   
  6   4   7  1   
  7   5   8  1   
  8   5  24  1   
  9   5  25  1   
 10   6  26  1   
 11   6  27  1   
 12   6  28  1   
 13   7  29  1   
 14   7  30  1   
 15   7  31  1   
 16   8   9  1   
 17   8  10  1   
 18   8  32  1   
 19   9  11  1   
 20   9  12  1   
 21   9  33  1   
 22  10  13  1   
 23  10  34  1   
 24  10  35  1   
 25  11  14  am  
 26  11  36  1   
 27  12  13  1   
 28  12  37  1   
 29  12  38  1   
 30  14  15  2   
 31  14  16  1   
 32  16  17  ar  
 33  16  18  ar  
 34  17  19  ar  
 35  17  20  1   
 36  18  21  ar  
 37  18  39  1   
 38  19  22  ar  
 39  19  40  1   
 40  20  41  1   
 41  20  42  1   
 42  20  43  1   
 43  21  22  ar  
 44  21  44  1   
 45  22  23  1   
@<TRIPOS>SUBSTRUCTURE
  1 ****  11 GROUP 4 **** **** 0

# MOE 2024.06 (io_trps.svl 2023.06)
