@<TRIPOS>MOLECULE
NONAME
47 49 1 0 0 
SMALL
USER_CHARGES


@<TRIPOS>ATOM
  1 S        0.3240    -1.6690    -2.0160 S.3   1 <1>  -0.0800 
  2 C       -0.7640    -2.9400    -1.5100 C.2   1 <1>  -0.1100 
  3 C        0.5970    -1.1900    -0.3540 C.2   1 <1>  -0.1100 
  4 C       -0.9140    -2.9760    -0.1620 C.2   1 <1>  -0.0860 
  5 C       -0.1140    -1.9660     0.4830 C.2   1 <1>  -0.1500 
  6 C       -1.7380    -3.8940     0.6000 C.2   1 <1>   0.7160 
  7 O       -1.3390    -4.3040     1.6740 O.2   1 <1>  -0.5700 
  8 N       -2.9780    -4.3020     0.1550 N.am  1 <1>  -0.6600 
  9 C       -3.6240    -5.5180     0.7300 C.3   1 <1>   0.1400 
 10 C       -3.8810    -3.4100    -0.6200 C.3   1 <1>   0.1400 
 11 C       -4.7130    -5.1610     1.7540 C.3   1 <1>   0.1400 
 12 C       -4.6840    -2.5370     0.3510 C.3   1 <1>  -0.1600 
 13 N       -5.9480    -4.6370     1.0840 N.am  1 <1>  -0.6600 
 14 C       -6.0000    -3.1610     0.8360 C.3   1 <1>   0.1400 
 15 C       -7.0450    -5.4210     0.7770 C.2   1 <1>   0.5690 
 16 O       -8.0420    -4.9190     0.3050 O.2   1 <1>  -0.5700 
 17 C       -7.0900    -6.9340     1.0730 C.3   1 <1>   0.2610 
 18 O       -5.9410    -7.6160     0.5910 O.3   1 <1>  -0.2170 
 19 C       -8.2470    -7.7240     0.4480 C.3   1 <1>  -0.0990 
 20 N       -6.2440    -8.7640     0.0190 N.2   1 <1>  -0.5130 
 21 C       -7.4870    -8.8960    -0.0950 C.2   1 <1>   0.3280 
 22 C       -8.2560   -10.0770    -0.6970 C.3   1 <1>  -0.0190 
 23 C       -7.3530   -11.2960    -0.9430 C.3   1 <1>  -0.2400 
 24 C       -8.9460    -9.6800    -2.0110 C.3   1 <1>  -0.2400 
 25 H       -1.1950    -3.5560    -2.2780 H     1 <1>   0.1500 
 26 H        1.2710    -0.3710    -0.1780 H     1 <1>   0.1500 
 27 H       -0.1160    -1.8830     1.5570 H     1 <1>   0.1500 
 28 H       -2.8790    -6.1240     1.2170 H     1 <1>   0.0800 
 29 H       -4.0430    -6.1090    -0.0650 H     1 <1>   0.0800 
 30 H       -4.5400    -3.9960    -1.2390 H     1 <1>   0.0800 
 31 H       -3.3070    -2.7720    -1.2660 H     1 <1>   0.0800 
 32 H       -4.3280    -4.4340     2.4480 H     1 <1>   0.0800 
 33 H       -4.9510    -6.0400     2.3240 H     1 <1>   0.0800 
 34 H       -4.9350    -1.6200    -0.1500 H     1 <1>   0.0800 
 35 H       -4.0740    -2.2660     1.1940 H     1 <1>   0.0800 
 36 H       -6.7480    -2.9570     0.0880 H     1 <1>   0.0800 
 37 H       -6.3160    -2.6690     1.7400 H     1 <1>   0.0800 
 38 H       -7.1020    -7.0740     2.1380 H     1 <1>   0.0800 
 39 H       -8.7240    -7.1900    -0.3530 H     1 <1>   0.0800 
 40 H       -8.9690    -8.0100     1.1880 H     1 <1>   0.0800 
 41 H       -9.0120   -10.3680     0.0100 H     1 <1>   0.0800 
 42 H       -6.5840   -11.0560    -1.6570 H     1 <1>   0.0800 
 43 H       -7.9270   -12.1250    -1.3160 H     1 <1>   0.0800 
 44 H       -6.8780   -11.5950    -0.0240 H     1 <1>   0.0800 
 45 H       -8.2160    -9.3520    -2.7310 H     1 <1>   0.0800 
 46 H       -9.6480    -8.8820    -1.8470 H     1 <1>   0.0800 
 47 H       -9.4810   -10.5180    -2.4220 H     1 <1>   0.0800 
@<TRIPOS>BOND
  1   1   2  1   
  2   1   3  1   
  3   2   4  2   
  4   2  25  1   
  5   3   5  2   
  6   3  26  1   
  7   4   5  1   
  8   4   6  1   
  9   5  27  1   
 10   6   7  2   
 11   6   8  am  
 12   8   9  1   
 13   8  10  1   
 14   9  11  1   
 15   9  28  1   
 16   9  29  1   
 17  10  12  1   
 18  10  30  1   
 19  10  31  1   
 20  11  13  1   
 21  11  32  1   
 22  11  33  1   
 23  12  14  1   
 24  12  34  1   
 25  12  35  1   
 26  13  14  1   
 27  13  15  am  
 28  14  36  1   
 29  14  37  1   
 30  15  16  2   
 31  15  17  1   
 32  17  18  1   
 33  17  19  1   
 34  17  38  1   
 35  18  20  1   
 36  19  21  1   
 37  19  39  1   
 38  19  40  1   
 39  20  21  2   
 40  21  22  1   
 41  22  23  1   
 42  22  24  1   
 43  22  41  1   
 44  23  42  1   
 45  23  43  1   
 46  23  44  1   
 47  24  45  1   
 48  24  46  1   
 49  24  47  1   
@<TRIPOS>SUBSTRUCTURE
  1 ****   9 GROUP 4 **** **** 0

# MOE 2024.06 (io_trps.svl 2023.06)
