@<TRIPOS>MOLECULE
NONAME
59 62 1 0 0 
SMALL
USER_CHARGES


@<TRIPOS>ATOM
  1 O       -2.1490     0.1350    -0.9060 O.3   1 <1>  -0.3630 
  2 C       -2.8860     0.6270     0.1180 C.ar  1 <1>   0.0830 
  3 C       -1.0410     0.8480    -1.4200 C.3   1 <1>   0.1200 
  4 C       -3.8850    -0.1950     0.6110 C.ar  1 <1>  -0.1500 
  5 C       -2.6920     1.8850     0.6810 C.ar  1 <1>  -0.1500 
  6 C       -0.3670    -0.0040    -2.4940 C.3   1 <1>   0.1200 
  7 C       -4.7040     0.2240     1.6500 C.ar  1 <1>  -0.1440 
  8 C       -3.4940     2.3010     1.7270 C.ar  1 <1>  -0.1500 
  9 O        0.6840     0.7110    -3.0540 O.3   1 <1>  -0.6800 
 10 C       -4.4940     1.4760     2.2110 C.ar  1 <1>  -0.1500 
 11 C       -5.8190    -0.6620     2.1780 C.3   1 <1>   0.4860 
 12 N       -6.6980    -1.1010     1.0540 N.4   1 <1>  -0.9590 
 13 C       -7.2740     0.0530     0.2670 C.3   1 <1>   0.3430 
 14 C       -7.7430    -2.0770     1.5110 C.3   1 <1>   0.3430 
 15 C       -8.3480     0.8740     1.0230 C.3   1 <1>   0.1440 
 16 C       -9.1190    -1.4350     1.7540 C.3   1 <1>  -0.1600 
 17 C       -9.3660     1.3300    -0.0010 C.ar  1 <1>   0.1670 
 18 C       -9.0500     0.0520     2.1310 C.3   1 <1>  -0.1600 
 19 C       -7.8160     2.2260     1.5710 C.3   1 <1>  -0.1600 
 20 N       -9.9050     0.5570    -0.9090 N.ar  1 <1>  -0.6200 
 21 C       -9.6520     2.6550     0.1210 C.ar  1 <1>  -0.1430 
 22 C       -8.8820     3.2910     1.2490 C.3   1 <1>  -0.0170 
 23 C      -10.7700     1.1650    -1.7260 C.ar  1 <1>   0.7200 
 24 C      -10.5550     3.1930    -0.7610 C.ar  1 <1>   0.1600 
 25 N      -11.1150     2.4550    -1.6890 N.ar  1 <1>  -0.6200 
 26 N      -11.3540     0.3860    -2.7010 N.pl3 1 <1>  -0.8380 
 27 C      -12.0390     0.9930    -3.8770 C.3   1 <1>   0.1290 
 28 C      -11.5380    -1.0830    -2.5490 C.3   1 <1>   0.1290 
 29 H       -0.3540     1.0360    -0.6130 H     1 <1>   0.0800 
 30 H       -1.4030     1.7700    -1.8390 H     1 <1>   0.0800 
 31 H       -3.9930    -1.1650     0.1610 H     1 <1>   0.1500 
 32 H       -1.9250     2.5470     0.3240 H     1 <1>   0.1500 
 33 H       -1.0580    -0.2600    -3.2780 H     1 <1>   0.0800 
 34 H        0.0420    -0.8990    -2.0570 H     1 <1>   0.0800 
 35 H       -3.3350     3.2720     2.1670 H     1 <1>   0.1500 
 36 H        0.3550     1.4270    -3.6310 H     1 <1>   0.4000 
 37 H       -5.0990     1.8250     3.0310 H     1 <1>   0.1500 
 38 H       -6.3950    -0.1200     2.9070 H     1 <1>   0.0800 
 39 H       -5.3840    -1.5210     2.6620 H     1 <1>   0.0800 
 40 H       -6.0760    -1.5970     0.4050 H     1 <1>   0.4500 
 41 H       -7.7370    -0.3530    -0.6180 H     1 <1>   0.0800 
 42 H       -6.4880     0.7100    -0.0670 H     1 <1>   0.0800 
 43 H       -7.4120    -2.5540     2.4200 H     1 <1>   0.0800 
 44 H       -7.8610    -2.8500     0.7680 H     1 <1>   0.0800 
 45 H       -9.6290    -1.9850     2.5260 H     1 <1>   0.0800 
 46 H       -9.7100    -1.5450     0.8600 H     1 <1>   0.0800 
 47 H      -10.0450     0.4330     2.2920 H     1 <1>   0.0800 
 48 H       -8.5210     0.1450     3.0630 H     1 <1>   0.0800 
 49 H       -6.9180     2.4990     1.0450 H     1 <1>   0.0800 
 50 H       -7.5990     2.2020     2.6240 H     1 <1>   0.0800 
 51 H       -8.4360     4.2250     0.9520 H     1 <1>   0.0800 
 52 H       -9.5360     3.4480     2.0890 H     1 <1>   0.0800 
 53 H      -10.8190     4.2360    -0.7080 H     1 <1>   0.1500 
 54 H      -11.5720     1.9260    -4.1430 H     1 <1>   0.0800 
 55 H      -13.0720     1.1760    -3.6380 H     1 <1>   0.0800 
 56 H      -11.9800     0.3320    -4.7230 H     1 <1>   0.0800 
 57 H      -11.4010    -1.3810    -1.5240 H     1 <1>   0.0800 
 58 H      -10.8240    -1.6000    -3.1650 H     1 <1>   0.0800 
 59 H      -12.5330    -1.3610    -2.8500 H     1 <1>   0.0800 
@<TRIPOS>BOND
  1   1   2  1   
  2   1   3  1   
  3   2   4  ar  
  4   2   5  ar  
  5   3   6  1   
  6   3  29  1   
  7   3  30  1   
  8   4   7  ar  
  9   4  31  1   
 10   5   8  ar  
 11   5  32  1   
 12   6   9  1   
 13   6  33  1   
 14   6  34  1   
 15   7  10  ar  
 16   7  11  1   
 17   8  10  ar  
 18   8  35  1   
 19   9  36  1   
 20  10  37  1   
 21  11  12  1   
 22  11  38  1   
 23  11  39  1   
 24  12  13  1   
 25  12  14  1   
 26  12  40  1   
 27  13  15  1   
 28  13  41  1   
 29  13  42  1   
 30  14  16  1   
 31  14  43  1   
 32  14  44  1   
 33  15  17  1   
 34  15  18  1   
 35  15  19  1   
 36  16  18  1   
 37  16  45  1   
 38  16  46  1   
 39  17  20  ar  
 40  17  21  ar  
 41  18  47  1   
 42  18  48  1   
 43  19  22  1   
 44  19  49  1   
 45  19  50  1   
 46  20  23  ar  
 47  21  22  1   
 48  21  24  ar  
 49  22  51  1   
 50  22  52  1   
 51  23  25  ar  
 52  23  26  1   
 53  24  25  ar  
 54  24  53  1   
 55  26  27  1   
 56  26  28  1   
 57  27  54  1   
 58  27  55  1   
 59  27  56  1   
 60  28  57  1   
 61  28  58  1   
 62  28  59  1   
@<TRIPOS>SUBSTRUCTURE
  1 ****  13 GROUP 4 **** **** 0

# MOE 2024.06 (io_trps.svl 2023.06)
