@<TRIPOS>MOLECULE
NONAME
53 56 1 0 0 
SMALL
USER_CHARGES


@<TRIPOS>ATOM
  1 O        0.1960     0.2120     0.6130 O.co2 1 <1>  -0.9000 
  2 C        1.3860    -0.0260     0.8140 C.2   1 <1>   0.9060 
  3 O        1.7580    -0.7080     1.7830 O.co2 1 <1>  -0.9000 
  4 C        2.4230     0.4790    -0.2050 C.3   1 <1>  -0.1060 
  5 C        3.8440     0.1280     0.2690 C.3   1 <1>   0.4230 
  6 C        2.2670     2.0310    -0.3370 C.3   1 <1>  -0.1600 
  7 C        2.2240    -0.2390    -1.5590 C.3   1 <1>  -0.1600 
  8 N        3.9830    -1.3400     0.5350 N.4   1 <1>  -0.9590 
  9 C        4.2460     1.1230     1.3690 C.3   1 <1>   0.2090 
 10 C        3.5720     2.8530    -0.3620 C.3   1 <1>   0.2090 
 11 C        2.4400    -1.7570    -1.3940 C.3   1 <1>  -0.1600 
 12 C        3.7700    -2.1190    -0.7150 C.3   1 <1>   0.3430 
 13 C        5.2410    -1.7080     1.2360 C.3   1 <1>   0.2630 
 14 N        4.5850     2.3870     0.6430 N.pl3 1 <1>  -0.8380 
 15 C        5.9000     2.6940     0.3740 C.ar  1 <1>   0.7200 
 16 N        6.7880     1.7060     0.4570 N.ar  1 <1>  -0.6200 
 17 N        6.1470     3.9450     0.0150 N.ar  1 <1>  -0.6200 
 18 C        8.0310     2.0210     0.1820 C.ar  1 <1>   0.1670 
 19 C        7.3920     4.2440    -0.2550 C.ar  1 <1>   0.1670 
 20 C        8.4000     3.3000    -0.1930 C.ar  1 <1>  -0.1430 
 21 C        9.0410     0.8870     0.2870 C.3   1 <1>  -0.0170 
 22 C        7.6500     5.6890    -0.6380 C.3   1 <1>  -0.0970 
 23 C        9.8530     3.6540    -0.5140 C.3   1 <1>  -0.0170 
 24 C       10.4970     1.3690     0.3150 C.3   1 <1>  -0.1600 
 25 C       10.7270     2.4210    -0.7710 C.3   1 <1>  -0.1600 
 26 H        4.5130     0.3470    -0.5450 H     1 <1>   0.0800 
 27 H        1.7050     2.3940     0.5080 H     1 <1>   0.0800 
 28 H        1.6730     2.2730    -1.2000 H     1 <1>   0.0800 
 29 H        1.2220    -0.0610    -1.9160 H     1 <1>   0.0800 
 30 H        2.9120     0.1530    -2.2880 H     1 <1>   0.0800 
 31 H        3.1600    -1.5050     1.1750 H     1 <1>   0.4500 
 32 H        5.0890     0.7840     1.9390 H     1 <1>   0.0800 
 33 H        3.4330     1.3000     2.0520 H     1 <1>   0.0800 
 34 H        3.3470     3.8900    -0.1750 H     1 <1>   0.0800 
 35 H        4.0070     2.7880    -1.3460 H     1 <1>   0.0800 
 36 H        2.3990    -2.2290    -2.3590 H     1 <1>   0.0800 
 37 H        1.6340    -2.1720    -0.8110 H     1 <1>   0.0800 
 38 H        4.5770    -1.9120    -1.3990 H     1 <1>   0.0800 
 39 H        3.7770    -3.1730    -0.4920 H     1 <1>   0.0800 
 40 H        6.0940    -1.3790     0.6660 H     1 <1>   0.0800 
 41 H        5.2920    -2.7760     1.3680 H     1 <1>   0.0800 
 42 H        5.2710    -1.2440     2.2070 H     1 <1>   0.0800 
 43 H        8.8430     0.3170     1.1770 H     1 <1>   0.0800 
 44 H        8.8990     0.2390    -0.5590 H     1 <1>   0.0800 
 45 H        8.5320     6.0600    -0.1510 H     1 <1>   0.0800 
 46 H        6.8210     6.3060    -0.3400 H     1 <1>   0.0800 
 47 H        7.7680     5.7660    -1.7030 H     1 <1>   0.0800 
 48 H        9.8980     4.2890    -1.3810 H     1 <1>   0.0800 
 49 H       10.2590     4.2010     0.3200 H     1 <1>   0.0800 
 50 H       10.7130     1.7970     1.2790 H     1 <1>   0.0800 
 51 H       11.1580     0.5330     0.1660 H     1 <1>   0.0800 
 52 H       10.4820     2.0030    -1.7340 H     1 <1>   0.0800 
 53 H       11.7630     2.7110    -0.7890 H     1 <1>   0.0800 
@<TRIPOS>BOND
  1   1   2  ar  
  2   2   3  ar  
  3   2   4  1   
  4   4   5  1   
  5   4   6  1   
  6   4   7  1   
  7   5   8  1   
  8   5   9  1   
  9   5  26  1   
 10   6  10  1   
 11   6  27  1   
 12   6  28  1   
 13   7  11  1   
 14   7  29  1   
 15   7  30  1   
 16   8  12  1   
 17   8  13  1   
 18   8  31  1   
 19   9  14  1   
 20   9  32  1   
 21   9  33  1   
 22  10  14  1   
 23  10  34  1   
 24  10  35  1   
 25  11  12  1   
 26  11  36  1   
 27  11  37  1   
 28  12  38  1   
 29  12  39  1   
 30  13  40  1   
 31  13  41  1   
 32  13  42  1   
 33  14  15  1   
 34  15  16  ar  
 35  15  17  ar  
 36  16  18  ar  
 37  17  19  ar  
 38  18  20  ar  
 39  18  21  1   
 40  19  20  ar  
 41  19  22  1   
 42  20  23  1   
 43  21  24  1   
 44  21  43  1   
 45  21  44  1   
 46  22  45  1   
 47  22  46  1   
 48  22  47  1   
 49  23  25  1   
 50  23  48  1   
 51  23  49  1   
 52  24  25  1   
 53  24  50  1   
 54  24  51  1   
 55  25  52  1   
 56  25  53  1   
@<TRIPOS>SUBSTRUCTURE
  1 ****  14 GROUP 4 **** **** 0

# MOE 2024.06 (io_trps.svl 2023.06)
