@<TRIPOS>MOLECULE
NONAME
53 55 1 0 0 
SMALL
USER_CHARGES


@<TRIPOS>ATOM
  1 O        2.4410     0.9320     1.9970 O.co2 1 <1>  -0.9000 
  2 C        1.9150     0.4450     0.9900 C.2   1 <1>   0.9060 
  3 O        1.4350    -0.6880     1.0000 O.co2 1 <1>  -0.9000 
  4 C        2.1210     1.1240    -0.3690 C.3   1 <1>  -0.1060 
  5 C        3.1950     0.2420    -1.0300 C.3   1 <1>   0.2000 
  6 C        2.6860     2.5680    -0.2280 C.3   1 <1>  -0.1600 
  7 C        0.7960     1.1220    -1.1790 C.3   1 <1>  -0.0160 
  8 O        3.5210     0.7230    -2.3060 O.3   1 <1>  -0.6800 
  9 C        4.4740     0.2940    -0.1750 C.3   1 <1>   0.3430 
 10 C        4.0660     2.6170     0.4440 C.3   1 <1>   0.3430 
 11 C       -0.2450     2.0970    -0.6430 C.ar  1 <1>  -0.1440 
 12 N        5.0450     1.6910    -0.2300 N.4   1 <1>  -0.9590 
 13 C       -0.9630     1.7910     0.5040 C.ar  1 <1>  -0.1500 
 14 C       -0.4890     3.2980    -1.2930 C.ar  1 <1>  -0.1500 
 15 C        6.4270     1.7800     0.3200 C.3   1 <1>   0.4230 
 16 C       -1.9040     2.6770     0.9990 C.ar  1 <1>  -0.1500 
 17 C       -1.4320     4.1840    -0.8000 C.ar  1 <1>  -0.1500 
 18 C        6.9420     3.2270     0.2610 C.3   1 <1>  -0.1600 
 19 C        7.3770     0.8620    -0.4660 C.3   1 <1>  -0.1600 
 20 C       -2.1390     3.8750     0.3480 C.ar  1 <1>  -0.1500 
 21 C        8.3970     3.3340     0.7120 C.3   1 <1>   0.3430 
 22 C        8.8260     1.0090    -0.0050 C.3   1 <1>   0.3430 
 23 N        9.2520     2.4320    -0.1090 N.4   1 <1>  -0.9590 
 24 C       10.6920     2.5760     0.2830 C.3   1 <1>   0.2630 
 25 H        2.8510    -0.7760    -1.1210 H     1 <1>   0.0800 
 26 H        2.0110     3.1510     0.3760 H     1 <1>   0.0800 
 27 H        2.7430     3.0420    -1.1900 H     1 <1>   0.0800 
 28 H        0.9920     1.3740    -2.2040 H     1 <1>   0.0800 
 29 H        0.3710     0.1320    -1.1780 H     1 <1>   0.0800 
 30 H        2.7550     0.5940    -2.9040 H     1 <1>   0.4000 
 31 H        5.1620    -0.4240    -0.5820 H     1 <1>   0.0800 
 32 H        4.2580     0.0120     0.8440 H     1 <1>   0.0800 
 33 H        3.9710     2.3480     1.4840 H     1 <1>   0.0800 
 34 H        4.4160     3.6330     0.4000 H     1 <1>   0.0800 
 35 H        5.0020     1.9100    -1.2390 H     1 <1>   0.4500 
 36 H       -0.7880     0.8610     1.0200 H     1 <1>   0.1500 
 37 H        0.0530     3.5510    -2.1860 H     1 <1>   0.1500 
 38 H        6.4070     1.4620     1.3520 H     1 <1>   0.0800 
 39 H       -2.4480     2.4280     1.8930 H     1 <1>   0.1500 
 40 H       -1.6150     5.1140    -1.3090 H     1 <1>   0.1500 
 41 H        6.8510     3.6180    -0.7370 H     1 <1>   0.0800 
 42 H        6.3690     3.8510     0.9220 H     1 <1>   0.0800 
 43 H        7.1100    -0.1680    -0.3140 H     1 <1>   0.0800 
 44 H        7.3170     1.0730    -1.5190 H     1 <1>   0.0800 
 45 H       -2.8700     4.5620     0.7350 H     1 <1>   0.1500 
 46 H        8.4760     3.0630     1.7530 H     1 <1>   0.0800 
 47 H        8.7330     4.3540     0.6060 H     1 <1>   0.0800 
 48 H        9.4620     0.3890    -0.6180 H     1 <1>   0.0800 
 49 H        8.9180     0.6750     1.0160 H     1 <1>   0.0800 
 50 H        9.1760     2.7220    -1.0970 H     1 <1>   0.4500 
 51 H       10.8350     2.2860     1.3120 H     1 <1>   0.0800 
 52 H       11.0120     3.6000     0.1680 H     1 <1>   0.0800 
 53 H       11.3150     1.9540    -0.3390 H     1 <1>   0.0800 
@<TRIPOS>BOND
  1   1   2  ar  
  2   2   3  ar  
  3   2   4  1   
  4   4   5  1   
  5   4   6  1   
  6   4   7  1   
  7   5   8  1   
  8   5   9  1   
  9   5  25  1   
 10   6  10  1   
 11   6  26  1   
 12   6  27  1   
 13   7  11  1   
 14   7  28  1   
 15   7  29  1   
 16   8  30  1   
 17   9  12  1   
 18   9  31  1   
 19   9  32  1   
 20  10  12  1   
 21  10  33  1   
 22  10  34  1   
 23  11  13  ar  
 24  11  14  ar  
 25  12  15  1   
 26  12  35  1   
 27  13  16  ar  
 28  13  36  1   
 29  14  17  ar  
 30  14  37  1   
 31  15  18  1   
 32  15  19  1   
 33  15  38  1   
 34  16  20  ar  
 35  16  39  1   
 36  17  20  ar  
 37  17  40  1   
 38  18  21  1   
 39  18  41  1   
 40  18  42  1   
 41  19  22  1   
 42  19  43  1   
 43  19  44  1   
 44  20  45  1   
 45  21  23  1   
 46  21  46  1   
 47  21  47  1   
 48  22  23  1   
 49  22  48  1   
 50  22  49  1   
 51  23  24  1   
 52  23  50  1   
 53  24  51  1   
 54  24  52  1   
 55  24  53  1   
@<TRIPOS>SUBSTRUCTURE
  1 ****   6 GROUP 4 **** **** 0

# MOE 2024.06 (io_trps.svl 2023.06)
