@<TRIPOS>MOLECULE
NONAME
41 44 1 0 0 
SMALL
USER_CHARGES


@<TRIPOS>ATOM
  1 S        0.2250     0.4640     1.4300 S.3   1 <1>  -0.0800 
  2 C       -0.8810     1.1840     0.2700 C.2   1 <1>  -0.1400 
  3 C       -0.9330    -0.8100     1.7910 C.2   1 <1>  -0.1100 
  4 C       -2.0220     0.4860     0.2080 C.2   1 <1>  -0.1810 
  5 C       -0.5380     2.4360    -0.5320 C.3   1 <1>   0.4600 
  6 C       -2.0590    -0.6570     1.0680 C.2   1 <1>  -0.1500 
  7 C       -3.1250     0.9410    -0.7210 C.3   1 <1>   0.0210 
  8 O       -1.5650     2.6530    -1.4840 O.3   1 <1>  -0.5600 
  9 C        0.7550     2.2410    -1.3300 C.3   1 <1>  -0.1600 
 10 C       -0.4220     3.6730     0.3680 C.3   1 <1>  -0.1600 
 11 C       -2.8960     2.4210    -1.0860 C.3   1 <1>   0.1200 
 12 C        1.1240     3.4960    -2.1230 C.3   1 <1>   0.1400 
 13 C       -0.0490     4.9180    -0.4390 C.3   1 <1>   0.1400 
 14 N        1.2080     4.6620    -1.1980 N.am  1 <1>  -0.6600 
 15 C        2.3490     5.4390    -1.1030 C.2   1 <1>   0.6160 
 16 O        3.2450     5.2660    -1.9110 O.2   1 <1>  -0.5700 
 17 C        2.5000     6.4970    -0.1460 C.2   1 <1>   0.0290 
 18 C        2.5270     6.1780     1.2490 C.2   1 <1>   0.6160 
 19 C        2.6440     7.8100    -0.5240 C.2   1 <1>  -0.1500 
 20 O        2.4140     5.0540     1.7120 O.2   1 <1>  -0.5700 
 21 N        2.6750     7.2000     2.1490 N.am  1 <1>  -0.5390 
 22 C        2.7960     8.8270     0.4420 C.2   1 <1>  -0.1500 
 23 C        2.8090     8.5090     1.7650 C.2   1 <1>  -0.0410 
 24 H       -0.6430    -1.5490     2.5160 H     1 <1>   0.1500 
 25 H       -2.9190    -1.3030     1.1020 H     1 <1>   0.1500 
 26 H       -4.0810     0.8370    -0.2400 H     1 <1>   0.0800 
 27 H       -3.1220     0.3390    -1.6120 H     1 <1>   0.0800 
 28 H        0.6390     1.4060    -1.9960 H     1 <1>   0.0800 
 29 H        1.5640     2.0150    -0.6600 H     1 <1>   0.0800 
 30 H        0.3420     3.4990     1.1040 H     1 <1>   0.0800 
 31 H       -1.3400     3.8340     0.8980 H     1 <1>   0.0800 
 32 H       -3.1160     3.0520    -0.2440 H     1 <1>   0.0800 
 33 H       -3.5350     2.7040    -1.9040 H     1 <1>   0.0800 
 34 H        0.3760     3.6930    -2.8720 H     1 <1>   0.0800 
 35 H        2.0630     3.3350    -2.6260 H     1 <1>   0.0800 
 36 H        0.0580     5.7590     0.2220 H     1 <1>   0.0800 
 37 H       -0.8360     5.1450    -1.1390 H     1 <1>   0.0800 
 38 H        2.6490     8.0790    -1.5670 H     1 <1>   0.1500 
 39 H        2.6940     6.9020     3.1270 H     1 <1>   0.3700 
 40 H        2.9040     9.8460     0.1100 H     1 <1>   0.1500 
 41 H        2.9260     9.2560     2.5360 H     1 <1>   0.1500 
@<TRIPOS>BOND
  1   1   2  1   
  2   1   3  1   
  3   2   4  2   
  4   2   5  1   
  5   3   6  2   
  6   3  24  1   
  7   4   6  1   
  8   4   7  1   
  9   5   8  1   
 10   5   9  1   
 11   5  10  1   
 12   6  25  1   
 13   7  11  1   
 14   7  26  1   
 15   7  27  1   
 16   8  11  1   
 17   9  12  1   
 18   9  28  1   
 19   9  29  1   
 20  10  13  1   
 21  10  30  1   
 22  10  31  1   
 23  11  32  1   
 24  11  33  1   
 25  12  14  1   
 26  12  34  1   
 27  12  35  1   
 28  13  14  1   
 29  13  36  1   
 30  13  37  1   
 31  14  15  am  
 32  15  16  2   
 33  15  17  1   
 34  17  18  1   
 35  17  19  2   
 36  18  20  2   
 37  18  21  am  
 38  19  22  1   
 39  19  38  1   
 40  21  23  1   
 41  21  39  1   
 42  22  23  2   
 43  22  40  1   
 44  23  41  1   
@<TRIPOS>SUBSTRUCTURE
  1 ****  10 GROUP 4 **** **** 0

# MOE 2024.06 (io_trps.svl 2023.06)
