@<TRIPOS>MOLECULE
NONAME
58 61 1 0 0 
SMALL
USER_CHARGES


@<TRIPOS>ATOM
  1 N        0.0440    -0.0590     0.1070 N.3   1 <1>  -0.8100 
  2 C        1.1590     0.8080     0.5830 C.3   1 <1>   0.1900 
  3 C       -0.1080    -1.3060     0.8960 C.3   1 <1>   0.1100 
  4 C       -1.2560     0.6640     0.1180 C.3   1 <1>   0.1100 
  5 C        1.3330     2.1010    -0.2330 C.3   1 <1>   0.2090 
  6 C        2.5150     0.1240     0.4330 C.3   1 <1>  -0.1600 
  7 C       -1.0320    -2.3390     0.1590 C.3   1 <1>   0.5030 
  8 C       -2.4570    -0.2870    -0.0980 C.3   1 <1>   0.3430 
  9 N        2.7900     2.3810    -0.2740 N.pl3 1 <1>  -0.8380 
 10 C        3.5180     1.2690     0.3740 C.3   1 <1>   0.2090 
 11 N       -1.9960    -1.5730    -0.7340 N.4   1 <1>  -0.9590 
 12 C       -1.7530    -3.1990     1.2170 C.3   1 <1>  -0.1600 
 13 C       -0.1220    -3.2220    -0.7220 C.3   1 <1>  -0.1600 
 14 C        3.2360     3.7100    -0.2280 C.ar  1 <1>   0.1000 
 15 C       -3.1460    -2.2480    -1.4120 C.3   1 <1>   0.2630 
 16 C       -2.3330    -4.5180     0.7040 C.3   1 <1>   0.3430 
 17 C       -0.7490    -4.5280    -1.2050 C.3   1 <1>   0.3430 
 18 C        2.5990     4.6760    -1.0030 C.ar  1 <1>  -0.1500 
 19 C        4.3130     4.1210     0.5580 C.ar  1 <1>  -0.1500 
 20 N       -1.2980    -5.2830    -0.0440 N.4   1 <1>  -0.9590 
 21 C        2.9980     6.0000    -0.9790 C.ar  1 <1>  -0.1500 
 22 C        4.7170     5.4440     0.5860 C.ar  1 <1>  -0.1500 
 23 C       -1.8380    -6.6110    -0.4880 C.3   1 <1>   0.2630 
 24 C        4.0580     6.3880    -0.1810 C.ar  1 <1>  -0.1500 
 25 H        1.0080     1.0800     1.6150 H     1 <1>   0.0800 
 26 H       -0.5230    -1.0580     1.8600 H     1 <1>   0.0800 
 27 H        0.8510    -1.7510     1.0890 H     1 <1>   0.0800 
 28 H       -1.2570     1.4030    -0.6660 H     1 <1>   0.0800 
 29 H       -1.3870     1.1870     1.0520 H     1 <1>   0.0800 
 30 H        0.8040     2.9190     0.2250 H     1 <1>   0.0800 
 31 H        0.9910     1.9550    -1.2420 H     1 <1>   0.0800 
 32 H        2.5620    -0.4120    -0.4980 H     1 <1>   0.0800 
 33 H        2.7470    -0.5300     1.2520 H     1 <1>   0.0800 
 34 H       -3.1830     0.2090    -0.7220 H     1 <1>   0.0800 
 35 H       -2.9260    -0.4910     0.8510 H     1 <1>   0.0800 
 36 H        4.3930     1.0060    -0.1950 H     1 <1>   0.0800 
 37 H        3.8020     1.5500     1.3740 H     1 <1>   0.0800 
 38 H       -1.3540    -1.2010    -1.4550 H     1 <1>   0.4500 
 39 H       -2.5320    -2.6260     1.6880 H     1 <1>   0.0800 
 40 H       -1.0520    -3.4520     1.9930 H     1 <1>   0.0800 
 41 H        0.7550    -3.5000    -0.1640 H     1 <1>   0.0800 
 42 H        0.2300    -2.6550    -1.5650 H     1 <1>   0.0800 
 43 H       -3.8600    -2.5980    -0.6850 H     1 <1>   0.0800 
 44 H       -2.8100    -3.0780    -2.0080 H     1 <1>   0.0800 
 45 H       -3.6470    -1.5520    -2.0670 H     1 <1>   0.0800 
 46 H       -3.1780    -4.3290     0.0630 H     1 <1>   0.0800 
 47 H       -2.6830    -5.1030     1.5420 H     1 <1>   0.0800 
 48 H        0.0040    -5.1200    -1.7020 H     1 <1>   0.0800 
 49 H       -1.5310    -4.3270    -1.9170 H     1 <1>   0.0800 
 50 H        1.7870     4.3850    -1.6400 H     1 <1>   0.1500 
 51 H        4.8480     3.4140     1.1580 H     1 <1>   0.1500 
 52 H       -0.5180    -5.4900     0.6020 H     1 <1>   0.4500 
 53 H        2.4870     6.7280    -1.5850 H     1 <1>   0.1500 
 54 H        5.5470     5.7390     1.2030 H     1 <1>   0.1500 
 55 H       -2.6610    -6.4780    -1.1720 H     1 <1>   0.0800 
 56 H       -2.1860    -7.1780     0.3610 H     1 <1>   0.0800 
 57 H       -1.0700    -7.1830    -0.9840 H     1 <1>   0.0800 
 58 H        4.3710     7.4170    -0.1590 H     1 <1>   0.1500 
@<TRIPOS>BOND
  1   1   2  1   
  2   1   3  1   
  3   1   4  1   
  4   2   5  1   
  5   2   6  1   
  6   2  25  1   
  7   3   7  1   
  8   3  26  1   
  9   3  27  1   
 10   4   8  1   
 11   4  28  1   
 12   4  29  1   
 13   5   9  1   
 14   5  30  1   
 15   5  31  1   
 16   6  10  1   
 17   6  32  1   
 18   6  33  1   
 19   7  11  1   
 20   7  12  1   
 21   7  13  1   
 22   8  11  1   
 23   8  34  1   
 24   8  35  1   
 25   9  10  1   
 26   9  14  1   
 27  10  36  1   
 28  10  37  1   
 29  11  15  1   
 30  11  38  1   
 31  12  16  1   
 32  12  39  1   
 33  12  40  1   
 34  13  17  1   
 35  13  41  1   
 36  13  42  1   
 37  14  18  ar  
 38  14  19  ar  
 39  15  43  1   
 40  15  44  1   
 41  15  45  1   
 42  16  20  1   
 43  16  46  1   
 44  16  47  1   
 45  17  20  1   
 46  17  48  1   
 47  17  49  1   
 48  18  21  ar  
 49  18  50  1   
 50  19  22  ar  
 51  19  51  1   
 52  20  23  1   
 53  20  52  1   
 54  21  24  ar  
 55  21  53  1   
 56  22  24  ar  
 57  22  54  1   
 58  23  55  1   
 59  23  56  1   
 60  23  57  1   
 61  24  58  1   
@<TRIPOS>SUBSTRUCTURE
  1 ****   1 GROUP 4 **** **** 0

# MOE 2024.06 (io_trps.svl 2023.06)
