@<TRIPOS>MOLECULE
NONAME
46 47 1 0 0 
SMALL
USER_CHARGES


@<TRIPOS>ATOM
  1 CL      -4.6910    -4.6110    -4.2540 Cl    1 <1>  -0.1770 
  2 C       -4.8030    -4.2200    -2.5580 C.ar  1 <1>   0.1770 
  3 C       -4.1210    -4.9930    -1.6380 C.ar  1 <1>  -0.1500 
  4 C       -5.5780    -3.1480    -2.1590 C.ar  1 <1>  -0.1500 
  5 C       -4.2260    -4.6920    -0.2910 C.ar  1 <1>  -0.1500 
  6 C       -5.6750    -2.8490    -0.8110 C.ar  1 <1>  -0.1500 
  7 C       -5.0050    -3.6220     0.1290 C.ar  1 <1>  -0.1430 
  8 C       -5.1180    -3.2960     1.6120 C.3   1 <1>   0.2140 
  9 S       -6.8700    -3.3240     2.0990 S.3   1 <1>  -0.4600 
 10 C       -7.2140    -5.0920     2.4190 C.3   1 <1>   0.2110 
 11 C       -6.9240    -6.0050     1.2090 C.2   1 <1>   0.5690 
 12 C       -8.6330    -5.1960     2.9930 C.3   1 <1>  -0.2400 
 13 O       -6.1210    -6.8910     1.4110 O.2   1 <1>  -0.5700 
 14 N       -7.5330    -5.8900    -0.0240 N.am  1 <1>  -0.6600 
 15 C       -7.0980    -6.7640    -1.1460 C.3   1 <1>   0.3200 
 16 C       -8.5660    -4.8800    -0.4060 C.3   1 <1>   0.1400 
 17 C       -7.8310    -8.0840    -1.0560 C.2   1 <1>  -0.3320 
 18 C       -9.9420    -5.5350    -0.5730 C.3   1 <1>   0.1200 
 19 N       -7.6800    -8.9070    -0.0060 N.pl3 1 <1>   0.0330 
 20 C       -8.6990    -8.6920    -1.8930 C.2   1 <1>   0.0770 
 21 O      -10.8920    -4.5490    -0.7980 O.3   1 <1>  -0.6800 
 22 C       -8.4740    -9.9680    -0.2660 C.2   1 <1>   0.0060 
 23 N       -9.1030    -9.8750    -1.3910 N.2   1 <1>  -0.5650 
 24 C       -8.6030   -11.1420     0.6780 C.3   1 <1>  -0.0600 
 25 H       -3.5190    -5.8190    -1.9730 H     1 <1>   0.1500 
 26 H       -6.0960    -2.5580    -2.8940 H     1 <1>   0.1500 
 27 H       -3.7040    -5.3010     0.4280 H     1 <1>   0.1500 
 28 H       -6.2780    -2.0150    -0.4920 H     1 <1>   0.1500 
 29 H       -4.7520    -2.3050     1.8120 H     1 <1>   0.0800 
 30 H       -4.5980    -4.0080     2.2260 H     1 <1>   0.0800 
 31 H       -6.5230    -5.3670     3.1950 H     1 <1>   0.0800 
 32 H       -9.3650    -4.8220     2.3040 H     1 <1>   0.0800 
 33 H       -8.6990    -4.6290     3.9040 H     1 <1>   0.0800 
 34 H       -8.8610    -6.2240     3.2130 H     1 <1>   0.0800 
 35 H       -6.0370    -6.9390    -1.0850 H     1 <1>   0.0800 
 36 H       -7.2970    -6.2900    -2.0920 H     1 <1>   0.0800 
 37 H       -8.2790    -4.4150    -1.3330 H     1 <1>   0.0800 
 38 H       -8.6350    -4.1090     0.3330 H     1 <1>   0.0800 
 39 H      -10.2230    -6.0830     0.3100 H     1 <1>   0.0800 
 40 H       -9.9480    -6.1950    -1.4220 H     1 <1>   0.0800 
 41 H       -7.0840    -8.7260     0.8120 H     1 <1>   0.2700 
 42 H       -9.0640    -8.3410    -2.8440 H     1 <1>   0.1500 
 43 H      -11.0450    -4.0160     0.0060 H     1 <1>   0.4000 
 44 H       -7.6450   -11.6090     0.8180 H     1 <1>   0.0800 
 45 H       -9.2830   -11.8660     0.2660 H     1 <1>   0.0800 
 46 H       -8.9830   -10.8120     1.6270 H     1 <1>   0.0800 
@<TRIPOS>BOND
  1   1   2  1   
  2   2   3  ar  
  3   2   4  ar  
  4   3   5  ar  
  5   3  25  1   
  6   4   6  ar  
  7   4  26  1   
  8   5   7  ar  
  9   5  27  1   
 10   6   7  ar  
 11   6  28  1   
 12   7   8  1   
 13   8   9  1   
 14   8  29  1   
 15   8  30  1   
 16   9  10  1   
 17  10  11  1   
 18  10  12  1   
 19  10  31  1   
 20  11  13  2   
 21  11  14  am  
 22  12  32  1   
 23  12  33  1   
 24  12  34  1   
 25  14  15  1   
 26  14  16  1   
 27  15  17  1   
 28  15  35  1   
 29  15  36  1   
 30  16  18  1   
 31  16  37  1   
 32  16  38  1   
 33  17  19  1   
 34  17  20  2   
 35  18  21  1   
 36  18  39  1   
 37  18  40  1   
 38  19  22  1   
 39  19  41  1   
 40  20  23  1   
 41  20  42  1   
 42  21  43  1   
 43  22  23  2   
 44  22  24  1   
 45  24  44  1   
 46  24  45  1   
 47  24  46  1   
@<TRIPOS>SUBSTRUCTURE
  1 ****  14 GROUP 4 **** **** 0

# MOE 2024.06 (io_trps.svl 2023.06)
