@<TRIPOS>MOLECULE
NONAME
33 32 1 0 0 
SMALL
USER_CHARGES


@<TRIPOS>ATOM
  1 O       -0.2980    -0.5840     0.6310 O.3   1 <1>  -0.6800 
  2 C       -1.0290    -1.6180     0.0760 C.3   1 <1>   0.1200 
  3 C       -2.5080    -1.3590     0.3580 C.3   1 <1>  -0.1600 
  4 C       -3.3890    -2.4700    -0.2390 C.3   1 <1>  -0.1600 
  5 C       -4.8810    -2.3790     0.1560 C.3   1 <1>  -0.0800 
  6 C       -5.6220    -3.6360    -0.3660 C.3   1 <1>  -0.1600 
  7 C       -5.5090    -1.0640    -0.3660 C.3   1 <1>  -0.1600 
  8 C       -6.6440    -4.1930     0.6380 C.3   1 <1>  -0.1600 
  9 C       -6.9940    -0.8800    -0.0230 C.3   1 <1>  -0.1600 
 10 C       -7.3690    -5.4130     0.0650 C.3   1 <1>  -0.2400 
 11 C       -7.4890     0.5050    -0.4500 C.3   1 <1>  -0.2400 
 12 H        0.6570    -0.7110     0.4720 H     1 <1>   0.4000 
 13 H       -0.7070    -2.5420     0.5270 H     1 <1>   0.0800 
 14 H       -0.8380    -1.6410    -0.9830 H     1 <1>   0.0800 
 15 H       -2.7700    -0.4080    -0.0700 H     1 <1>   0.0800 
 16 H       -2.6590    -1.3140     1.4230 H     1 <1>   0.0800 
 17 H       -3.0040    -3.4140     0.1070 H     1 <1>   0.0800 
 18 H       -3.3020    -2.4560    -1.3130 H     1 <1>   0.0800 
 19 H       -4.9270    -2.3740     1.2320 H     1 <1>   0.0800 
 20 H       -4.9150    -4.4220    -0.5650 H     1 <1>   0.0800 
 21 H       -6.1050    -3.4130    -1.3010 H     1 <1>   0.0800 
 22 H       -5.3870    -1.0110    -1.4340 H     1 <1>   0.0800 
 23 H       -4.9790    -0.2320     0.0610 H     1 <1>   0.0800 
 24 H       -7.3720    -3.4450     0.8950 H     1 <1>   0.0800 
 25 H       -6.1360    -4.4790     1.5430 H     1 <1>   0.0800 
 26 H       -7.1370    -0.9930     1.0380 H     1 <1>   0.0800 
 27 H       -7.5850    -1.6240    -0.5280 H     1 <1>   0.0800 
 28 H       -7.9030    -5.1460    -0.8300 H     1 <1>   0.0800 
 29 H       -8.0740    -5.7930     0.7830 H     1 <1>   0.0800 
 30 H       -6.6660    -6.1930    -0.1700 H     1 <1>   0.0800 
 31 H       -6.9390     1.2760     0.0590 H     1 <1>   0.0800 
 32 H       -8.5320     0.6130    -0.2080 H     1 <1>   0.0800 
 33 H       -7.3690     0.6360    -1.5110 H     1 <1>   0.0800 
@<TRIPOS>BOND
  1   1   2  1   
  2   1  12  1   
  3   2   3  1   
  4   2  13  1   
  5   2  14  1   
  6   3   4  1   
  7   3  15  1   
  8   3  16  1   
  9   4   5  1   
 10   4  17  1   
 11   4  18  1   
 12   5   6  1   
 13   5   7  1   
 14   5  19  1   
 15   6   8  1   
 16   6  20  1   
 17   6  21  1   
 18   7   9  1   
 19   7  22  1   
 20   7  23  1   
 21   8  10  1   
 22   8  24  1   
 23   8  25  1   
 24   9  11  1   
 25   9  26  1   
 26   9  27  1   
 27  10  28  1   
 28  10  29  1   
 29  10  30  1   
 30  11  31  1   
 31  11  32  1   
 32  11  33  1   
@<TRIPOS>SUBSTRUCTURE
  1 ****   5 GROUP 4 **** **** 0

# MOE 2024.06 (io_trps.svl 2023.06)
