@<TRIPOS>MOLECULE
NONAME
42 44 1 0 0 
SMALL
USER_CHARGES


@<TRIPOS>ATOM
  1 F       -1.4080     0.0990    -1.2790 F     1 <1>  -0.1900 
  2 C       -2.2270    -0.7420    -0.6870 C.ar  1 <1>   0.1900 
  3 C       -3.2260    -0.3480     0.1980 C.ar  1 <1>   0.3920 
  4 C       -2.0850    -2.0780    -0.9580 C.ar  1 <1>   0.1600 
  5 O       -3.4980     0.9250     0.5690 O.3   1 <1>  -0.3630 
  6 N       -4.0120    -1.2430     0.7570 N.ar  1 <1>  -0.6200 
  7 N       -2.8670    -2.9810    -0.4050 N.ar  1 <1>  -0.6200 
  8 C       -2.7950     2.0620     0.1180 C.3   1 <1>   0.0400 
  9 C       -3.7880    -2.5050     0.4290 C.ar  1 <1>   0.7200 
 10 N       -4.6210    -3.3790     1.0330 N.pl3 1 <1>  -0.8690 
 11 C       -5.0260    -4.6560     0.4120 C.3   1 <1>   0.2890 
 12 C       -6.5100    -4.9470     0.7140 C.3   1 <1>   0.0640 
 13 C       -4.1320    -5.7800     0.9490 C.3   1 <1>  -0.1600 
 14 C       -7.4340    -3.8360     0.2140 C.ar  1 <1>  -0.1430 
 15 C       -6.9310    -6.3080     0.1300 C.3   1 <1>  -0.1600 
 16 C       -4.5480    -7.1450     0.3770 C.3   1 <1>  -0.1600 
 17 C       -8.2770    -3.1860     1.1050 C.ar  1 <1>  -0.1500 
 18 C       -7.4450    -3.4550    -1.1210 C.ar  1 <1>  -0.1500 
 19 C       -6.0300    -7.4400     0.6470 C.3   1 <1>  -0.1600 
 20 C       -9.1140    -2.1730     0.6700 C.ar  1 <1>  -0.1500 
 21 C       -8.2810    -2.4420    -1.5570 C.ar  1 <1>  -0.1500 
 22 C       -9.1160    -1.8000    -0.6620 C.ar  1 <1>  -0.1500 
 23 H       -1.3200    -2.4090    -1.6380 H     1 <1>   0.1500 
 24 H       -3.2300     2.9280     0.5840 H     1 <1>   0.0800 
 25 H       -2.8940     2.1360    -0.9510 H     1 <1>   0.0800 
 26 H       -1.7630     1.9740     0.4070 H     1 <1>   0.0800 
 27 H       -5.4110    -2.8690     1.4300 H     1 <1>   0.4000 
 28 H       -4.8950    -4.5900    -0.6550 H     1 <1>   0.0800 
 29 H       -6.6070    -5.0190     1.7830 H     1 <1>   0.0800 
 30 H       -3.1100    -5.5790     0.6800 H     1 <1>   0.0800 
 31 H       -4.1990    -5.8060     2.0220 H     1 <1>   0.0800 
 32 H       -7.9540    -6.5100     0.3990 H     1 <1>   0.0800 
 33 H       -6.8760    -6.2730    -0.9440 H     1 <1>   0.0800 
 34 H       -4.3710    -7.1520    -0.6860 H     1 <1>   0.0800 
 35 H       -3.9400    -7.9180     0.8150 H     1 <1>   0.0800 
 36 H       -8.2880    -3.4620     2.1440 H     1 <1>   0.1500 
 37 H       -6.8010    -3.9420    -1.8310 H     1 <1>   0.1500 
 38 H       -6.1800    -7.5580     1.7070 H     1 <1>   0.0800 
 39 H       -6.3060    -8.3660     0.1720 H     1 <1>   0.0800 
 40 H       -9.7620    -1.6740     1.3690 H     1 <1>   0.1500 
 41 H       -8.2800    -2.1530    -2.5930 H     1 <1>   0.1500 
 42 H       -9.7650    -1.0110    -1.0000 H     1 <1>   0.1500 
@<TRIPOS>BOND
  1   1   2  1   
  2   2   3  ar  
  3   2   4  ar  
  4   3   5  1   
  5   3   6  ar  
  6   4   7  ar  
  7   4  23  1   
  8   5   8  1   
  9   6   9  ar  
 10   7   9  ar  
 11   8  24  1   
 12   8  25  1   
 13   8  26  1   
 14   9  10  1   
 15  10  11  1   
 16  10  27  1   
 17  11  12  1   
 18  11  13  1   
 19  11  28  1   
 20  12  14  1   
 21  12  15  1   
 22  12  29  1   
 23  13  16  1   
 24  13  30  1   
 25  13  31  1   
 26  14  17  ar  
 27  14  18  ar  
 28  15  19  1   
 29  15  32  1   
 30  15  33  1   
 31  16  19  1   
 32  16  34  1   
 33  16  35  1   
 34  17  20  ar  
 35  17  36  1   
 36  18  21  ar  
 37  18  37  1   
 38  19  38  1   
 39  19  39  1   
 40  20  22  ar  
 41  20  40  1   
 42  21  22  ar  
 43  21  41  1   
 44  22  42  1   
@<TRIPOS>SUBSTRUCTURE
  1 ****  10 GROUP 4 **** **** 0

# MOE 2024.06 (io_trps.svl 2023.06)
