@<TRIPOS>MOLECULE
NONAME
50 52 1 0 0 
SMALL
USER_CHARGES


@<TRIPOS>ATOM
  1 O        0.2820    -0.1720    -1.9270 O.2   1 <1>  -0.5700 
  2 C        1.1450    -0.6000    -1.1920 C.2   1 <1>   0.5690 
  3 N        2.0480     0.2040    -0.5480 N.am  1 <1>  -0.4940 
  4 C        1.2400    -2.1240    -0.9610 C.3   1 <1>   0.3950 
  5 C        2.1700     1.6130    -0.5390 C.2   1 <1>  -0.0880 
  6 N        0.6670    -2.5840     0.3440 N.3   1 <1>  -0.8100 
  7 C        2.7100    -2.5470    -1.0690 C.ar  1 <1>  -0.1440 
  8 N        3.2540     2.2920    -0.0810 N.pl3 1 <1>   0.3140 
  9 C        1.2870     2.5510    -0.9530 C.2   1 <1>  -0.1500 
 10 C        0.5730    -4.0630     0.3910 C.3   1 <1>   0.1100 
 11 C       -0.6820    -2.0150     0.5820 C.3   1 <1>   0.1100 
 12 C        3.2410    -2.8270    -2.3190 C.ar  1 <1>   0.1600 
 13 C        3.5410    -2.6370     0.0360 C.ar  1 <1>  -0.1500 
 14 N        3.0830     3.6290    -0.1800 N.2   1 <1>  -0.7070 
 15 C        4.5240     1.7130     0.4030 C.3   1 <1>   0.0960 
 16 C        1.9060     3.7690    -0.7030 C.2   1 <1>   0.1080 
 17 C       -0.0760    -4.5410     1.7020 C.3   1 <1>   0.1200 
 18 C       -1.3030    -2.5610     1.8800 C.3   1 <1>   0.1200 
 19 N        4.4950    -3.1810    -2.5490 N.ar  1 <1>  -0.6200 
 20 C        4.8500    -3.0060    -0.1870 C.ar  1 <1>  -0.1500 
 21 C        4.3860     1.1870     1.8390 C.3   1 <1>  -0.1600 
 22 C        1.3090     5.1250    -0.9950 C.3   1 <1>  -0.0590 
 23 O       -1.3370    -3.9590     1.8570 O.3   1 <1>  -0.5600 
 24 C        5.2690    -3.2640    -1.4800 C.ar  1 <1>   0.1600 
 25 C        5.6750     0.5020     2.3060 C.3   1 <1>  -0.2400 
 26 H        2.7330    -0.3140     0.0030 H     1 <1>   0.3700 
 27 H        0.6850    -2.5920    -1.7550 H     1 <1>   0.0800 
 28 H        0.3140     2.4010    -1.3830 H     1 <1>   0.1500 
 29 H        1.5540    -4.4990     0.3180 H     1 <1>   0.0800 
 30 H       -0.0160    -4.4250    -0.4350 H     1 <1>   0.0800 
 31 H       -1.3350    -2.2470    -0.2420 H     1 <1>   0.0800 
 32 H       -0.6200    -0.9430     0.6670 H     1 <1>   0.0800 
 33 H        2.6050    -2.7520    -3.1860 H     1 <1>   0.1500 
 34 H        3.1840    -2.4360     1.0330 H     1 <1>   0.1500 
 35 H        5.2780     2.4790     0.3620 H     1 <1>   0.0800 
 36 H        4.8090     0.9220    -0.2650 H     1 <1>   0.0800 
 37 H        0.5350    -4.2760     2.5470 H     1 <1>   0.0800 
 38 H       -0.2080    -5.6080     1.6870 H     1 <1>   0.0800 
 39 H       -2.3140    -2.2100     1.9850 H     1 <1>   0.0800 
 40 H       -0.7340    -2.2430     2.7350 H     1 <1>   0.0800 
 41 H        5.5410    -3.0980     0.6320 H     1 <1>   0.1500 
 42 H        3.5740     0.4840     1.8990 H     1 <1>   0.0800 
 43 H        4.1660     2.0130     2.4940 H     1 <1>   0.0800 
 44 H        0.3360     5.0200    -1.4370 H     1 <1>   0.0800 
 45 H        1.9490     5.6590    -1.6730 H     1 <1>   0.0800 
 46 H        1.2250     5.6840    -0.0810 H     1 <1>   0.0800 
 47 H        6.2930    -3.5550    -1.6440 H     1 <1>   0.1500 
 48 H        5.9100    -0.3370     1.6740 H     1 <1>   0.0800 
 49 H        5.5590     0.1480     3.3150 H     1 <1>   0.0800 
 50 H        6.4990     1.1950     2.2820 H     1 <1>   0.0800 
@<TRIPOS>BOND
  1   1   2  2   
  2   2   3  am  
  3   2   4  1   
  4   3   5  1   
  5   3  26  1   
  6   4   6  1   
  7   4   7  1   
  8   4  27  1   
  9   5   8  1   
 10   5   9  2   
 11   6  10  1   
 12   6  11  1   
 13   7  12  ar  
 14   7  13  ar  
 15   8  14  1   
 16   8  15  1   
 17   9  16  1   
 18   9  28  1   
 19  10  17  1   
 20  10  29  1   
 21  10  30  1   
 22  11  18  1   
 23  11  31  1   
 24  11  32  1   
 25  12  19  ar  
 26  12  33  1   
 27  13  20  ar  
 28  13  34  1   
 29  14  16  2   
 30  15  21  1   
 31  15  35  1   
 32  15  36  1   
 33  16  22  1   
 34  17  23  1   
 35  17  37  1   
 36  17  38  1   
 37  18  23  1   
 38  18  39  1   
 39  18  40  1   
 40  19  24  ar  
 41  20  24  ar  
 42  20  41  1   
 43  21  25  1   
 44  21  42  1   
 45  21  43  1   
 46  22  44  1   
 47  22  45  1   
 48  22  46  1   
 49  24  47  1   
 50  25  48  1   
 51  25  49  1   
 52  25  50  1   
@<TRIPOS>SUBSTRUCTURE
  1 ****   3 GROUP 4 **** **** 0

# MOE 2024.06 (io_trps.svl 2023.06)
