@<TRIPOS>MOLECULE
NONAME
52 55 1 0 0 
SMALL
USER_CHARGES


@<TRIPOS>ATOM
  1 O        2.3410     0.2870     3.7300 O.3   1 <1>  -0.6800 
  2 C        1.6190    -0.2770     2.6830 C.3   1 <1>   0.2000 
  3 C        2.1940    -1.6640     2.4030 C.3   1 <1>  -0.0800 
  4 C        1.9470     0.4960     1.4030 C.3   1 <1>   0.3430 
  5 C        3.4760    -1.3590     1.6160 C.3   1 <1>   0.3430 
  6 C        1.2010    -2.5460     1.6160 C.3   1 <1>  -0.0170 
  7 N        3.2590    -0.0480     0.9380 N.4   1 <1>  -0.9590 
  8 C        1.8760    -3.8260     1.1320 C.ar  1 <1>  -0.1440 
  9 C        4.3580     0.9230     1.2180 C.3   1 <1>   0.4860 
 10 C        2.4430    -3.9680    -0.1600 C.ar  1 <1>   0.0000 
 11 C        1.9640    -4.8910     1.9800 C.ar  1 <1>  -0.1500 
 12 C        4.2710     2.0750     0.2210 C.ar  1 <1>   0.1670 
 13 C        3.0990    -5.1880    -0.4550 C.ar  1 <1>   0.3100 
 14 C        2.4080    -2.9780    -1.1730 C.ar  1 <1>  -0.1500 
 15 C        2.6180    -6.0620     1.5790 C.ar  1 <1>   0.1600 
 16 N        3.9290     1.7530    -1.0240 N.ar  1 <1>  -0.6200 
 17 C        4.5320     3.3690     0.6450 C.ar  1 <1>  -0.1500 
 18 N        3.1770    -6.2180     0.4230 N.ar  1 <1>  -0.6200 
 19 C        3.7070    -5.3500    -1.7100 C.ar  1 <1>  -0.1500 
 20 C        3.0100    -3.1690    -2.3870 C.ar  1 <1>  -0.1500 
 21 C        3.8590     2.7670    -1.8750 C.ar  1 <1>   0.1600 
 22 C        4.4460     4.4090    -0.2550 C.ar  1 <1>  -0.1500 
 23 C        3.6720    -4.3680    -2.6600 C.ar  1 <1>  -0.1500 
 24 C        4.1000     4.0940    -1.5520 C.ar  1 <1>  -0.1440 
 25 C        3.9910     5.1850    -2.6070 C.3   1 <1>  -0.0170 
 26 C        5.3350     5.3900    -3.3080 C.3   1 <1>  -0.2400 
 27 H        2.0330    -0.0530     4.5970 H     1 <1>   0.4000 
 28 H        0.5700    -0.2630     2.9280 H     1 <1>   0.0800 
 29 H        2.4410    -2.1760     3.3170 H     1 <1>   0.0800 
 30 H        1.9830     1.5580     1.5840 H     1 <1>   0.0800 
 31 H        1.1940     0.2930     0.6600 H     1 <1>   0.0800 
 32 H        3.7140    -2.1360     0.9090 H     1 <1>   0.0800 
 33 H        4.2940    -1.2710     2.3140 H     1 <1>   0.0800 
 34 H        0.7590    -2.0160     0.7930 H     1 <1>   0.0800 
 35 H        0.3870    -2.8140     2.2680 H     1 <1>   0.0800 
 36 H        3.2590    -0.1140    -0.0960 H     1 <1>   0.4500 
 37 H        4.2860     1.2900     2.2290 H     1 <1>   0.0800 
 38 H        5.3110     0.4390     1.0910 H     1 <1>   0.0800 
 39 H        1.5460    -4.8670     2.9700 H     1 <1>   0.1500 
 40 H        1.8950    -2.0540    -1.0060 H     1 <1>   0.1500 
 41 H        2.6630    -6.8820     2.2770 H     1 <1>   0.1500 
 42 H        4.8020     3.5760     1.6660 H     1 <1>   0.1500 
 43 H        4.2050    -6.2840    -1.9000 H     1 <1>   0.1500 
 44 H        2.9780    -2.4110    -3.1510 H     1 <1>   0.1500 
 45 H        3.5960     2.5300    -2.8930 H     1 <1>   0.1500 
 46 H        4.6460     5.4250     0.0430 H     1 <1>   0.1500 
 47 H        4.1430    -4.5080    -3.6180 H     1 <1>   0.1500 
 48 H        3.2430     4.9180    -3.3340 H     1 <1>   0.0800 
 49 H        3.6820     6.1070    -2.1460 H     1 <1>   0.0800 
 50 H        5.6490     4.4810    -3.7920 H     1 <1>   0.0800 
 51 H        6.0880     5.6780    -2.5960 H     1 <1>   0.0800 
 52 H        5.2510     6.1630    -4.0510 H     1 <1>   0.0800 
@<TRIPOS>BOND
  1   1   2  1   
  2   1  27  1   
  3   2   3  1   
  4   2   4  1   
  5   2  28  1   
  6   3   5  1   
  7   3   6  1   
  8   3  29  1   
  9   4   7  1   
 10   4  30  1   
 11   4  31  1   
 12   5   7  1   
 13   5  32  1   
 14   5  33  1   
 15   6   8  1   
 16   6  34  1   
 17   6  35  1   
 18   7   9  1   
 19   7  36  1   
 20   8  10  ar  
 21   8  11  ar  
 22   9  12  1   
 23   9  37  1   
 24   9  38  1   
 25  10  13  ar  
 26  10  14  ar  
 27  11  15  ar  
 28  11  39  1   
 29  12  16  ar  
 30  12  17  ar  
 31  13  18  ar  
 32  13  19  ar  
 33  14  20  ar  
 34  14  40  1   
 35  15  18  ar  
 36  15  41  1   
 37  16  21  ar  
 38  17  22  ar  
 39  17  42  1   
 40  19  23  ar  
 41  19  43  1   
 42  20  23  ar  
 43  20  44  1   
 44  21  24  ar  
 45  21  45  1   
 46  22  24  ar  
 47  22  46  1   
 48  23  47  1   
 49  24  25  1   
 50  25  26  1   
 51  25  48  1   
 52  25  49  1   
 53  26  50  1   
 54  26  51  1   
 55  26  52  1   
@<TRIPOS>SUBSTRUCTURE
  1 ****   7 GROUP 4 **** **** 0

# MOE 2024.06 (io_trps.svl 2023.06)
