@<TRIPOS>MOLECULE
NONAME
51 53 1 0 0 
SMALL
USER_CHARGES


@<TRIPOS>ATOM
  1 O       -2.2130     0.6790    -2.6160 O.2   1 <1>  -0.5700 
  2 C       -2.2340     1.0490    -1.4680 C.2   1 <1>   0.5690 
  3 N       -2.3930     0.1860    -0.4380 N.am  1 <1>  -0.7300 
  4 C       -2.0770     2.5240    -1.1580 C.3   1 <1>  -0.0990 
  5 C       -2.5180    -1.2810    -0.5730 C.3   1 <1>   0.2200 
  6 C       -0.6570     2.8590    -0.6720 C.3   1 <1>  -0.1600 
  7 C       -3.9350    -1.6960    -0.2180 C.3   1 <1>  -0.0800 
  8 C       -1.7120    -1.9620     0.5260 C.3   1 <1>   0.1200 
  9 C       -0.5160     4.3530    -0.3520 C.3   1 <1>  -0.1600 
 10 C       -3.8720    -1.8130     1.3100 C.3   1 <1>   0.1200 
 11 C       -4.3170    -3.0280    -0.8920 C.3   1 <1>  -0.0170 
 12 O       -2.5230    -1.9340     1.6620 O.3   1 <1>  -0.5600 
 13 C        0.9010     4.6960     0.1190 C.3   1 <1>  -0.0170 
 14 C       -5.7440    -3.4340    -0.5550 C.ar  1 <1>  -0.1440 
 15 C        1.0060     6.1760     0.4460 C.ar  1 <1>  -0.1440 
 16 C       -6.0290    -4.4510     0.3340 C.ar  1 <1>  -0.1500 
 17 C       -6.8310    -2.8030    -1.1270 C.ar  1 <1>  -0.1500 
 18 C        0.7650     6.6290     1.7330 C.ar  1 <1>  -0.1500 
 19 C        1.3410     7.0880    -0.5440 C.ar  1 <1>  -0.1500 
 20 C       -7.3490    -4.7750     0.6040 C.ar  1 <1>   0.1600 
 21 C       -8.1120    -3.2040    -0.7880 C.ar  1 <1>   0.1600 
 22 C        0.8580     7.9780     2.0300 C.ar  1 <1>  -0.1500 
 23 C        1.4350     8.4380    -0.2490 C.ar  1 <1>  -0.1500 
 24 N       -8.3980    -4.1740     0.0660 N.ar  1 <1>  -0.6200 
 25 C        1.1930     8.8830     1.0390 C.ar  1 <1>  -0.1500 
 26 H       -2.3990     0.5210     0.5270 H     1 <1>   0.3700 
 27 H       -2.2940     3.0830    -2.0500 H     1 <1>   0.0800 
 28 H       -2.7980     2.8000    -0.4110 H     1 <1>   0.0800 
 29 H       -2.2140    -1.5960    -1.5580 H     1 <1>   0.0800 
 30 H       -0.4320     2.2790     0.2070 H     1 <1>   0.0800 
 31 H        0.0470     2.5860    -1.4400 H     1 <1>   0.0800 
 32 H       -4.6450    -0.9450    -0.5180 H     1 <1>   0.0800 
 33 H       -0.7820    -1.4610     0.7310 H     1 <1>   0.0800 
 34 H       -1.5260    -2.9920     0.2820 H     1 <1>   0.0800 
 35 H       -1.2170     4.6270     0.4180 H     1 <1>   0.0800 
 36 H       -0.7440     4.9340    -1.2290 H     1 <1>   0.0800 
 37 H       -4.4070    -2.6650     1.6910 H     1 <1>   0.0800 
 38 H       -4.2500    -0.9200     1.7770 H     1 <1>   0.0800 
 39 H       -3.6400    -3.8080    -0.5900 H     1 <1>   0.0800 
 40 H       -4.2340    -2.9230    -1.9600 H     1 <1>   0.0800 
 41 H        1.6120     4.4460    -0.6490 H     1 <1>   0.0800 
 42 H        1.1480     4.1170     0.9920 H     1 <1>   0.0800 
 43 H       -5.2410    -4.9960     0.8200 H     1 <1>   0.1500 
 44 H       -6.6930    -2.0050    -1.8330 H     1 <1>   0.1500 
 45 H        0.5020     5.9330     2.5100 H     1 <1>   0.1500 
 46 H        1.5290     6.7510    -1.5480 H     1 <1>   0.1500 
 47 H       -7.5520    -5.5700     1.3010 H     1 <1>   0.1500 
 48 H       -8.9470    -2.7000    -1.2440 H     1 <1>   0.1500 
 49 H        0.6700     8.3230     3.0310 H     1 <1>   0.1500 
 50 H        1.6960     9.1400    -1.0210 H     1 <1>   0.1500 
 51 H        1.2660     9.9320     1.2680 H     1 <1>   0.1500 
@<TRIPOS>BOND
  1   1   2  2   
  2   2   3  am  
  3   2   4  1   
  4   3   5  1   
  5   3  26  1   
  6   4   6  1   
  7   4  27  1   
  8   4  28  1   
  9   5   7  1   
 10   5   8  1   
 11   5  29  1   
 12   6   9  1   
 13   6  30  1   
 14   6  31  1   
 15   7  10  1   
 16   7  11  1   
 17   7  32  1   
 18   8  12  1   
 19   8  33  1   
 20   8  34  1   
 21   9  13  1   
 22   9  35  1   
 23   9  36  1   
 24  10  12  1   
 25  10  37  1   
 26  10  38  1   
 27  11  14  1   
 28  11  39  1   
 29  11  40  1   
 30  13  15  1   
 31  13  41  1   
 32  13  42  1   
 33  14  16  ar  
 34  14  17  ar  
 35  15  18  ar  
 36  15  19  ar  
 37  16  20  ar  
 38  16  43  1   
 39  17  21  ar  
 40  17  44  1   
 41  18  22  ar  
 42  18  45  1   
 43  19  23  ar  
 44  19  46  1   
 45  20  24  ar  
 46  20  47  1   
 47  21  24  ar  
 48  21  48  1   
 49  22  25  ar  
 50  22  49  1   
 51  23  25  ar  
 52  23  50  1   
 53  25  51  1   
@<TRIPOS>SUBSTRUCTURE
  1 ****   3 GROUP 4 **** **** 0

# MOE 2024.06 (io_trps.svl 2023.06)
