@<TRIPOS>MOLECULE
NONAME
51 54 1 0 0 
SMALL
USER_CHARGES


@<TRIPOS>ATOM
  1 S        2.0410     0.9680     1.5580 S.3   1 <1>  -0.0800 
  2 C        2.8430     2.1720     0.5450 C.2   1 <1>  -0.0450 
  3 C        2.9510    -0.3530     0.8560 C.2   1 <1>  -0.1400 
  4 C        2.4610     3.5540     0.7090 C.2   1 <1>   0.7150 
  5 C        3.7440     1.5310    -0.2460 C.2   1 <1>  -0.1500 
  6 C        3.8010     0.1180    -0.0750 C.2   1 <1>  -0.1500 
  7 C        2.6480    -1.7430     1.3880 C.3   1 <1>   0.0200 
  8 O        2.3990     4.0150     1.8360 O.2   1 <1>  -0.5700 
  9 N        2.1800     4.3920    -0.3570 N.am  1 <1>  -0.6600 
 10 C        3.4910    -2.8220     0.7040 C.3   1 <1>  -0.2400 
 11 C        2.0930     3.9360    -1.7840 C.3   1 <1>   0.1400 
 12 C        2.0060     5.8560    -0.1410 C.3   1 <1>   0.1400 
 13 C        2.9250     4.7960    -2.7530 C.3   1 <1>   0.1400 
 14 C        3.3730     6.5530    -0.1170 C.3   1 <1>  -0.1600 
 15 N        4.1920     5.2700    -2.1230 N.am  1 <1>  -0.6600 
 16 C        4.1120     6.6020    -1.4630 C.3   1 <1>   0.1400 
 17 C        5.3110     4.4670    -2.1000 C.2   1 <1>   0.5440 
 18 O        5.3510     3.4930    -2.8290 O.2   1 <1>  -0.5700 
 19 C        6.4200     4.7410    -1.2120 C.ar  1 <1>   0.0860 
 20 C        6.2950     4.5290     0.1640 C.ar  1 <1>  -0.1500 
 21 C        7.6380     5.2270    -1.7020 C.ar  1 <1>  -0.1500 
 22 C        7.3510     4.8170     1.0030 C.ar  1 <1>  -0.1430 
 23 C        8.6960     5.5140    -0.8550 C.ar  1 <1>  -0.1500 
 24 C        8.5280     5.3030     0.5000 C.ar  1 <1>   0.0830 
 25 C        7.4800     4.6880     2.4900 C.3   1 <1>  -0.0170 
 26 O        9.4450     5.5300     1.4490 O.3   1 <1>  -0.3630 
 27 C        8.9200     5.1820     2.7230 C.3   1 <1>   0.1200 
 28 H        4.3890     2.0140    -0.9580 H     1 <1>   0.1500 
 29 H        4.4820    -0.4750    -0.6610 H     1 <1>   0.1500 
 30 H        1.6040    -1.9540     1.2340 H     1 <1>   0.0800 
 31 H        2.8380    -1.7590     2.4470 H     1 <1>   0.0800 
 32 H        3.2980    -2.8290    -0.3540 H     1 <1>   0.0800 
 33 H        3.2480    -3.7890     1.1060 H     1 <1>   0.0800 
 34 H        4.5380    -2.6340     0.8670 H     1 <1>   0.0800 
 35 H        1.0640     3.9580    -2.0950 H     1 <1>   0.0800 
 36 H        2.4210     2.9190    -1.8800 H     1 <1>   0.0800 
 37 H        1.5080     6.0210     0.8000 H     1 <1>   0.0800 
 38 H        1.3820     6.2740    -0.9120 H     1 <1>   0.0800 
 39 H        2.3430     5.6430    -3.0680 H     1 <1>   0.0800 
 40 H        3.1460     4.2210    -3.6360 H     1 <1>   0.0800 
 41 H        3.9940     6.0850     0.6240 H     1 <1>   0.0800 
 42 H        3.2240     7.5660     0.2100 H     1 <1>   0.0800 
 43 H        5.1030     6.9930    -1.3080 H     1 <1>   0.0800 
 44 H        3.6040     7.2830    -2.1230 H     1 <1>   0.0800 
 45 H        5.3740     4.1400     0.5620 H     1 <1>   0.1500 
 46 H        7.7450     5.3750    -2.7630 H     1 <1>   0.1500 
 47 H        9.6330     5.8880    -1.2260 H     1 <1>   0.1500 
 48 H        7.3640     3.6670     2.8060 H     1 <1>   0.0800 
 49 H        6.7680     5.3120     3.0000 H     1 <1>   0.0800 
 50 H        9.5400     4.4090     3.1410 H     1 <1>   0.0800 
 51 H        8.9420     6.0580     3.3470 H     1 <1>   0.0800 
@<TRIPOS>BOND
  1   1   2  1   
  2   1   3  1   
  3   2   4  1   
  4   2   5  2   
  5   3   6  2   
  6   3   7  1   
  7   4   8  2   
  8   4   9  am  
  9   5   6  1   
 10   5  28  1   
 11   6  29  1   
 12   7  10  1   
 13   7  30  1   
 14   7  31  1   
 15   9  11  1   
 16   9  12  1   
 17  10  32  1   
 18  10  33  1   
 19  10  34  1   
 20  11  13  1   
 21  11  35  1   
 22  11  36  1   
 23  12  14  1   
 24  12  37  1   
 25  12  38  1   
 26  13  15  1   
 27  13  39  1   
 28  13  40  1   
 29  14  16  1   
 30  14  41  1   
 31  14  42  1   
 32  15  16  1   
 33  15  17  am  
 34  16  43  1   
 35  16  44  1   
 36  17  18  2   
 37  17  19  1   
 38  19  20  ar  
 39  19  21  ar  
 40  20  22  ar  
 41  20  45  1   
 42  21  23  ar  
 43  21  46  1   
 44  22  24  ar  
 45  22  25  1   
 46  23  24  ar  
 47  23  47  1   
 48  24  26  1   
 49  25  27  1   
 50  25  48  1   
 51  25  49  1   
 52  26  27  1   
 53  27  50  1   
 54  27  51  1   
@<TRIPOS>SUBSTRUCTURE
  1 ****  20 GROUP 4 **** **** 0

# MOE 2024.06 (io_trps.svl 2023.06)
