@<TRIPOS>MOLECULE
NONAME
63 67 1 0 0 
SMALL
USER_CHARGES


@<TRIPOS>ATOM
  1 S        0.0700    -0.5970     0.6380 S.o2  1 <1>   1.3330 
  2 O       -0.9890    -1.4660     0.1860 O.2   1 <1>  -0.6500 
  3 O        0.4720    -0.5950     2.0260 O.2   1 <1>  -0.6500 
  4 N        1.3830    -1.1410    -0.2520 N.am  1 <1>  -0.9140 
  5 C       -0.1590     1.0820     0.0520 C.3   1 <1>  -0.0550 
  6 C        2.2610    -2.0770     0.4410 C.3   1 <1>   0.1960 
  7 C       -1.2960     1.8380     0.7590 C.3   1 <1>  -0.0800 
  8 C        1.5600    -3.4030     0.8040 C.3   1 <1>  -0.0800 
  9 C       -2.6880     1.2800     0.4660 C.3   1 <1>  -0.1600 
 10 C       -1.3960     3.2950     0.3140 C.3   1 <1>  -0.1600 
 11 C        1.0910    -4.1970    -0.4260 C.3   1 <1>   0.2000 
 12 C        2.4530    -4.4590     1.4970 C.3   1 <1>  -0.0800 
 13 C       -3.6520     2.4400     0.7290 C.3   1 <1>  -0.1600 
 14 C       -2.8110     3.7210     0.7020 C.3   1 <1>  -0.1600 
 15 O        2.1950    -4.9930    -0.6530 O.3   1 <1>  -0.5600 
 16 C        0.0440    -5.2480    -0.0350 C.3   1 <1>  -0.1600 
 17 C        2.2840    -5.6460     0.5640 C.3   1 <1>   0.2800 
 18 C        3.9790    -4.2460     1.5470 C.3   1 <1>   0.3430 
 19 C        0.9060    -6.2980     0.6750 C.3   1 <1>  -0.1600 
 20 C        3.5710    -6.4560     0.6950 C.3   1 <1>   0.3430 
 21 N        4.6430    -5.4280     0.8820 N.4   1 <1>  -0.9590 
 22 C        5.2280    -5.0810    -0.4510 C.3   1 <1>   0.5240 
 23 C        6.0850    -3.8410    -0.3480 C.2   1 <1>  -0.1810 
 24 C        7.1240    -3.5420     0.4520 C.2   1 <1>  -0.0400 
 25 C        5.9290    -2.6890    -1.1210 C.2   1 <1>   0.1080 
 26 O        7.4940    -2.3220     0.1790 O.3   1 <1>  -0.0190 
 27 C        7.8850    -4.2980     1.5230 C.3   1 <1>  -0.0600 
 28 N        6.7770    -1.7960    -0.7680 N.2   1 <1>  -0.4100 
 29 C        4.9390    -2.4590    -2.2490 C.3   1 <1>  -0.0590 
 30 H        0.9530    -1.6110    -1.0470 H     1 <1>   0.4200 
 31 H        0.7530     1.6230     0.2120 H     1 <1>   0.0800 
 32 H       -0.3470     1.0680    -1.0030 H     1 <1>   0.0800 
 33 H        3.0980    -2.2770    -0.2020 H     1 <1>   0.0800 
 34 H        2.6420    -1.6070     1.3330 H     1 <1>   0.0800 
 35 H       -1.1330     1.8180     1.8250 H     1 <1>   0.0800 
 36 H        0.7210    -3.1920     1.4440 H     1 <1>   0.0800 
 37 H       -2.7600     0.9930    -0.5700 H     1 <1>   0.0800 
 38 H       -2.9200     0.4260     1.0800 H     1 <1>   0.0800 
 39 H       -0.6490     3.9140     0.7810 H     1 <1>   0.0800 
 40 H       -1.2910     3.3600    -0.7560 H     1 <1>   0.0800 
 41 H        0.8310    -3.6150    -1.2950 H     1 <1>   0.0800 
 42 H        2.0920    -4.6840     2.4860 H     1 <1>   0.0800 
 43 H       -4.4260     2.4660    -0.0200 H     1 <1>   0.0800 
 44 H       -4.1100     2.3280     1.6960 H     1 <1>   0.0800 
 45 H       -2.7980     4.1600     1.6850 H     1 <1>   0.0800 
 46 H       -3.2060     4.4410     0.0060 H     1 <1>   0.0800 
 47 H       -0.7240    -4.8340     0.5970 H     1 <1>   0.0800 
 48 H       -0.4130    -5.6570    -0.9190 H     1 <1>   0.0800 
 49 H        4.2920    -4.1800     2.5770 H     1 <1>   0.0800 
 50 H        4.2600    -3.3290     1.0610 H     1 <1>   0.0800 
 51 H        0.8810    -7.2350     0.1450 H     1 <1>   0.0800 
 52 H        0.6060    -6.4530     1.6980 H     1 <1>   0.0800 
 53 H        3.7320    -7.0750    -0.1730 H     1 <1>   0.0800 
 54 H        3.5030    -7.0790     1.5710 H     1 <1>   0.0800 
 55 H        5.4010    -5.7810     1.4760 H     1 <1>   0.4500 
 56 H        5.8250    -5.9000    -0.8190 H     1 <1>   0.0800 
 57 H        4.4370    -4.9040    -1.1600 H     1 <1>   0.0800 
 58 H        7.5360    -5.3090     1.6120 H     1 <1>   0.0800 
 59 H        7.7790    -3.7990     2.4690 H     1 <1>   0.0800 
 60 H        8.9310    -4.3200     1.2680 H     1 <1>   0.0800 
 61 H        4.0730    -3.0870    -2.1560 H     1 <1>   0.0800 
 62 H        5.4180    -2.6590    -3.1900 H     1 <1>   0.0800 
 63 H        4.6210    -1.4310    -2.2440 H     1 <1>   0.0800 
@<TRIPOS>BOND
  1   1   2  2   
  2   1   3  2   
  3   1   4  am  
  4   1   5  1   
  5   4   6  1   
  6   4  30  1   
  7   5   7  1   
  8   5  31  1   
  9   5  32  1   
 10   6   8  1   
 11   6  33  1   
 12   6  34  1   
 13   7   9  1   
 14   7  10  1   
 15   7  35  1   
 16   8  11  1   
 17   8  12  1   
 18   8  36  1   
 19   9  13  1   
 20   9  37  1   
 21   9  38  1   
 22  10  14  1   
 23  10  39  1   
 24  10  40  1   
 25  11  15  1   
 26  11  16  1   
 27  11  41  1   
 28  12  17  1   
 29  12  18  1   
 30  12  42  1   
 31  13  14  1   
 32  13  43  1   
 33  13  44  1   
 34  14  45  1   
 35  14  46  1   
 36  15  17  1   
 37  16  19  1   
 38  16  47  1   
 39  16  48  1   
 40  17  19  1   
 41  17  20  1   
 42  18  21  1   
 43  18  49  1   
 44  18  50  1   
 45  19  51  1   
 46  19  52  1   
 47  20  21  1   
 48  20  53  1   
 49  20  54  1   
 50  21  22  1   
 51  21  55  1   
 52  22  23  1   
 53  22  56  1   
 54  22  57  1   
 55  23  24  2   
 56  23  25  1   
 57  24  26  1   
 58  24  27  1   
 59  25  28  2   
 60  25  29  1   
 61  26  28  1   
 62  27  58  1   
 63  27  59  1   
 64  27  60  1   
 65  29  61  1   
 66  29  62  1   
 67  29  63  1   
@<TRIPOS>SUBSTRUCTURE
  1 ****   6 GROUP 4 **** **** 0

# MOE 2024.06 (io_trps.svl 2023.06)
