@<TRIPOS>MOLECULE
NONAME
55 58 1 0 0 
SMALL
USER_CHARGES


@<TRIPOS>ATOM
  1 O        1.8710     0.2440    -0.5470 O.2   1 <1>  -0.5700 
  2 C        2.2640    -0.6840     0.1310 C.2   1 <1>   0.5440 
  3 N        3.1750    -0.3990     1.1220 N.am  1 <1>  -0.6600 
  4 C        1.8500    -2.0430    -0.1590 C.ar  1 <1>   0.0860 
  5 C        4.5460    -0.9730     1.0480 C.3   1 <1>   0.1400 
  6 C        2.9950     0.8160     1.9620 C.3   1 <1>   0.1400 
  7 C        1.4250    -2.3940    -1.4390 C.ar  1 <1>   0.1600 
  8 C        1.8590    -3.0510     0.7990 C.ar  1 <1>  -0.1500 
  9 C        5.3150    -0.3920    -0.1580 C.3   1 <1>   0.3430 
 10 C        4.0360     1.8990     1.6580 C.3   1 <1>  -0.1600 
 11 N        1.0650    -3.6060    -1.8320 N.ar  1 <1>  -0.6200 
 12 C        1.4740    -4.3170     0.4150 C.ar  1 <1>  -0.1500 
 13 N        5.6330     1.0750    -0.0610 N.4   1 <1>  -0.9590 
 14 C        4.4490     1.9610     0.1870 C.3   1 <1>   0.3430 
 15 C        1.0940    -4.5410    -0.8970 C.ar  1 <1>   0.1600 
 16 C        6.3410     1.5210    -1.2850 C.3   1 <1>   0.4810 
 17 C        6.9540     2.8740    -1.0010 C.2   1 <1>  -0.2540 
 18 C        6.5810     4.0390    -1.5480 C.2   1 <1>  -0.2880 
 19 C        8.1030     2.9000     0.0130 C.3   1 <1>   0.1160 
 20 C        7.3190     5.3230    -1.1570 C.3   1 <1>  -0.0220 
 21 C        9.3250     3.7600    -0.4780 C.3   1 <1>   0.0000 
 22 C        7.8230     4.0720     1.0090 C.3   1 <1>   0.0000 
 23 C        8.4170     4.9920    -0.1090 C.3   1 <1>   0.0000 
 24 C       10.6080     3.6250     0.3770 C.3   1 <1>  -0.2400 
 25 C        9.7270     3.6080    -1.9610 C.3   1 <1>  -0.2400 
 26 H        5.0820    -0.7880     1.9630 H     1 <1>   0.0800 
 27 H        4.4720    -2.0400     0.9260 H     1 <1>   0.0800 
 28 H        2.0100     1.2170     1.7820 H     1 <1>   0.0800 
 29 H        3.0410     0.5420     3.0030 H     1 <1>   0.0800 
 30 H        1.3860    -1.6200    -2.1870 H     1 <1>   0.1500 
 31 H        2.1500    -2.8480     1.8150 H     1 <1>   0.1500 
 32 H        4.7290    -0.5710    -1.0450 H     1 <1>   0.0800 
 33 H        6.2360    -0.9410    -0.2640 H     1 <1>   0.0800 
 34 H        4.8960     1.7820     2.2920 H     1 <1>   0.0800 
 35 H        3.5900     2.8430     1.9190 H     1 <1>   0.0800 
 36 H        1.4630    -5.1280     1.1210 H     1 <1>   0.1500 
 37 H        6.2870     1.2340     0.7130 H     1 <1>   0.4500 
 38 H        4.7160     2.9810    -0.0370 H     1 <1>   0.0800 
 39 H        3.6240     1.6900    -0.4520 H     1 <1>   0.0800 
 40 H        0.7970    -5.5340    -1.1910 H     1 <1>   0.1500 
 41 H        7.1210     0.8250    -1.5500 H     1 <1>   0.0800 
 42 H        5.6480     1.5940    -2.1080 H     1 <1>   0.0800 
 43 H        5.7930     4.1790    -2.2720 H     1 <1>   0.1500 
 44 H        8.3500     1.9630     0.4820 H     1 <1>   0.0000 
 45 H        6.6240     6.0280    -0.7350 H     1 <1>   0.0800 
 46 H        7.7670     5.7750    -2.0240 H     1 <1>   0.0800 
 47 H        6.7790     4.2390     1.2130 H     1 <1>   0.0000 
 48 H        8.3980     4.0370     1.9160 H     1 <1>   0.0000 
 49 H        8.9510     5.8490     0.2630 H     1 <1>   0.0000 
 50 H       11.3150     4.3830     0.0900 H     1 <1>   0.0800 
 51 H       11.0620     2.6650     0.2080 H     1 <1>   0.0800 
 52 H       10.4410     3.7250     1.4320 H     1 <1>   0.0800 
 53 H       10.4240     4.3840    -2.2280 H     1 <1>   0.0800 
 54 H        8.9010     3.6670    -2.6420 H     1 <1>   0.0800 
 55 H       10.2090     2.6590    -2.1150 H     1 <1>   0.0800 
@<TRIPOS>BOND
  1   1   2  2   
  2   2   3  am  
  3   2   4  1   
  4   3   5  1   
  5   3   6  1   
  6   4   7  ar  
  7   4   8  ar  
  8   5   9  1   
  9   5  26  1   
 10   5  27  1   
 11   6  10  1   
 12   6  28  1   
 13   6  29  1   
 14   7  11  ar  
 15   7  30  1   
 16   8  12  ar  
 17   8  31  1   
 18   9  13  1   
 19   9  32  1   
 20   9  33  1   
 21  10  14  1   
 22  10  34  1   
 23  10  35  1   
 24  11  15  ar  
 25  12  15  ar  
 26  12  36  1   
 27  13  14  1   
 28  13  16  1   
 29  13  37  1   
 30  14  38  1   
 31  14  39  1   
 32  15  40  1   
 33  16  17  1   
 34  16  41  1   
 35  16  42  1   
 36  17  18  2   
 37  17  19  1   
 38  18  20  1   
 39  18  43  1   
 40  19  21  1   
 41  19  22  1   
 42  19  44  1   
 43  20  23  1   
 44  20  45  1   
 45  20  46  1   
 46  21  23  1   
 47  21  24  1   
 48  21  25  1   
 49  22  23  1   
 50  22  47  1   
 51  22  48  1   
 52  23  49  1   
 53  24  50  1   
 54  24  51  1   
 55  24  52  1   
 56  25  53  1   
 57  25  54  1   
 58  25  55  1   
@<TRIPOS>SUBSTRUCTURE
  1 ****  13 GROUP 4 **** **** 0

# MOE 2024.06 (io_trps.svl 2023.06)
