@<TRIPOS>MOLECULE
NONAME
53 56 1 0 0 
SMALL
USER_CHARGES


@<TRIPOS>ATOM
  1 O       -1.1570    -1.1730    -0.8800 O.2   1 <1>  -0.5740 
  2 C       -2.2530    -0.6720    -0.9170 C.2   1 <1>   0.5650 
  3 N       -2.5810     0.6000    -0.5990 N.am  1 <1>  -0.6640 
  4 C       -3.4860    -1.4450    -1.2860 C.3   1 <1>  -0.1060 
  5 C       -1.5950     1.6580    -0.2540 C.3   1 <1>   0.2140 
  6 C       -4.0370     0.8220    -0.6830 C.3   1 <1>   0.1330 
  7 C       -4.6050    -0.6070    -0.6350 C.3   1 <1>  -0.0870 
  8 C       -1.8580     2.2250     1.1400 C.3   1 <1>  -0.1670 
  9 C       -1.7160     2.8590    -1.1880 C.3   1 <1>  -0.1670 
 10 C       -4.8430    -0.9800     0.8460 C.3   1 <1>   0.1610 
 11 C       -2.6870     3.5060     0.9650 C.3   1 <1>  -0.1670 
 12 C       -2.7140     3.8180    -0.5350 C.3   1 <1>  -0.1670 
 13 N       -5.0930    -2.4420     1.0370 N.pl3 1 <1>  -0.5960 
 14 C       -6.2000    -3.0580     0.5640 C.cat 1 <1>   1.0690 
 15 C       -4.0320    -3.1090     1.8550 C.3   1 <1>   0.0800 
 16 N       -7.3070    -2.3970     0.2420 N.pl3 1 <1>  -0.7030 
 17 N       -6.3790    -4.3750     0.3370 N.pl3 1 <1>  -0.7670 
 18 C       -8.2600    -3.2940    -0.1850 C.ar  1 <1>   0.3030 
 19 C       -7.6840    -4.5450    -0.1220 C.ar  1 <1>   0.3030 
 20 C       -5.3860    -5.4810     0.3110 C.3   1 <1>   0.2680 
 21 C       -9.5610    -3.1150    -0.6180 C.ar  1 <1>  -0.1160 
 22 C       -8.4180    -5.6660    -0.4920 C.ar  1 <1>  -0.1160 
 23 C      -10.3170    -4.2180    -1.0010 C.ar  1 <1>  -0.1860 
 24 C       -9.7160    -5.4900    -0.9250 C.ar  1 <1>  -0.1570 
 25 C      -11.6850    -4.0460    -1.4630 C.2   1 <1>   0.9770 
 26 O      -12.1680    -2.9050    -1.5290 O.co2 1 <1>  -0.9020 
 27 O      -12.3680    -5.0270    -1.7930 O.co2 1 <1>  -0.9020 
 28 H       -3.4240    -2.4610    -0.9500 H     1 <1>   0.0730 
 29 H       -3.5780    -1.4330    -2.3570 H     1 <1>   0.0730 
 30 H       -0.6020     1.2400    -0.3090 H     1 <1>   0.0730 
 31 H       -4.2660     1.2990    -1.6210 H     1 <1>   0.0730 
 32 H       -4.3910     1.4310     0.1310 H     1 <1>   0.0730 
 33 H       -5.5230    -0.6650    -1.1920 H     1 <1>   0.0730 
 34 H       -0.9110     2.4920     1.5760 H     1 <1>   0.0730 
 35 H       -2.3360     1.5100     1.7850 H     1 <1>   0.0730 
 36 H       -2.0000     2.5750    -2.1860 H     1 <1>   0.0730 
 37 H       -0.7570     3.3450    -1.2320 H     1 <1>   0.0730 
 38 H       -5.6740    -0.4160     1.2350 H     1 <1>   0.0730 
 39 H       -3.9750    -0.6900     1.4170 H     1 <1>   0.0730 
 40 H       -2.2290     4.3160     1.5080 H     1 <1>   0.0730 
 41 H       -3.6870     3.3680     1.3360 H     1 <1>   0.0730 
 42 H       -3.7000     3.6390    -0.9250 H     1 <1>   0.0730 
 43 H       -2.4500     4.8440    -0.7290 H     1 <1>   0.0730 
 44 H       -3.7500    -2.4780     2.6810 H     1 <1>   0.0730 
 45 H       -3.1580    -3.2930     1.2520 H     1 <1>   0.0730 
 46 H       -4.3870    -4.0370     2.2660 H     1 <1>   0.0730 
 47 H       -7.4620    -1.4010     0.3460 H     1 <1>   0.4450 
 48 H       -4.4030    -5.1030     0.0930 H     1 <1>   0.0730 
 49 H       -5.6440    -6.1920    -0.4560 H     1 <1>   0.0730 
 50 H       -5.3750    -5.9860     1.2620 H     1 <1>   0.0730 
 51 H       -9.9950    -2.1300    -0.6620 H     1 <1>   0.1430 
 52 H       -7.9900    -6.6490    -0.4430 H     1 <1>   0.1430 
 53 H      -10.3100    -6.3430    -1.2210 H     1 <1>   0.1430 
@<TRIPOS>BOND
  1   1   2  2   
  2   2   3  am  
  3   2   4  1   
  4   3   5  1   
  5   3   6  1   
  6   4   7  1   
  7   4  28  1   
  8   4  29  1   
  9   5   8  1   
 10   5   9  1   
 11   5  30  1   
 12   6   7  1   
 13   6  31  1   
 14   6  32  1   
 15   7  10  1   
 16   7  33  1   
 17   8  11  1   
 18   8  34  1   
 19   8  35  1   
 20   9  12  1   
 21   9  36  1   
 22   9  37  1   
 23  10  13  1   
 24  10  38  1   
 25  10  39  1   
 26  11  12  1   
 27  11  40  1   
 28  11  41  1   
 29  12  42  1   
 30  12  43  1   
 31  13  14  ar  
 32  13  15  1   
 33  14  16  ar  
 34  14  17  ar  
 35  15  44  1   
 36  15  45  1   
 37  15  46  1   
 38  16  18  1   
 39  16  47  1   
 40  17  19  1   
 41  17  20  1   
 42  18  19  ar  
 43  18  21  ar  
 44  19  22  ar  
 45  20  48  1   
 46  20  49  1   
 47  20  50  1   
 48  21  23  ar  
 49  21  51  1   
 50  22  24  ar  
 51  22  52  1   
 52  23  24  ar  
 53  23  25  1   
 54  24  53  1   
 55  25  26  ar  
 56  25  27  ar  
@<TRIPOS>SUBSTRUCTURE
  1 ****  14 GROUP 4 **** **** 0

# MOE 2024.06 (io_trps.svl 2023.06)
