@<TRIPOS>MOLECULE
NONAME
54 56 1 0 0 
SMALL
USER_CHARGES


@<TRIPOS>ATOM
  1 S        0.1370     0.1110     0.1390 S.o2  1 <1>   1.3330 
  2 O        0.4080    -0.8340     1.1990 O.2   1 <1>  -0.6500 
  3 O       -0.5380     1.3520     0.4440 O.2   1 <1>  -0.6500 
  4 N       -0.7480    -0.6960    -1.0640 N.am  1 <1>  -0.8490 
  5 C        1.6620     0.5140    -0.7120 C.3   1 <1>  -0.0550 
  6 C       -2.1950    -0.5100    -0.9120 C.3   1 <1>   0.1160 
  7 C       -0.4370    -2.1270    -1.1560 C.3   1 <1>   0.1160 
  8 C        2.6300     1.3580     0.1380 C.3   1 <1>  -0.0800 
  9 C        3.7840     1.8770    -0.7010 C.3   1 <1>   0.2200 
 10 C        3.3430     0.5240     1.2130 C.3   1 <1>   0.1200 
 11 N        4.2980     3.1120    -0.0800 N.am  1 <1>  -0.7300 
 12 C        4.8100     0.7620    -0.5470 C.3   1 <1>   0.1200 
 13 O        4.6340     0.2640     0.7430 O.3   1 <1>  -0.5600 
 14 C        4.2180     4.3630    -0.6040 C.2   1 <1>   0.7160 
 15 O        3.6990     4.5130    -1.6920 O.2   1 <1>  -0.5700 
 16 C        4.6890     5.4810     0.1660 C.2   1 <1>  -0.0860 
 17 C        5.9030     5.8710     0.6680 C.2   1 <1>  -0.3320 
 18 C        3.8220     6.4920     0.5850 C.2   1 <1>   0.1390 
 19 N        5.6910     7.0220     1.3340 N.pl3 1 <1>   0.3000 
 20 C        7.3160     5.2960     0.5700 C.3   1 <1>   0.1000 
 21 N        4.4060     7.4050     1.2910 N.2   1 <1>  -0.7070 
 22 C        8.1150     6.0870    -0.4780 C.3   1 <1>  -0.1600 
 23 C        7.3600     3.7960     0.2430 C.3   1 <1>  -0.1600 
 24 C        9.5610     5.5790    -0.5960 C.3   1 <1>  -0.1600 
 25 C        8.8030     3.2810     0.1500 C.3   1 <1>  -0.1600 
 26 C        9.6010     4.0750    -0.8920 C.3   1 <1>  -0.1600 
 27 H        2.1480    -0.3890    -1.0280 H     1 <1>   0.0800 
 28 H        1.4060     1.0730    -1.5920 H     1 <1>   0.0800 
 29 H       -2.7220    -1.0210    -1.6980 H     1 <1>   0.0800 
 30 H       -2.4410     0.5370    -0.9690 H     1 <1>   0.0800 
 31 H       -2.5230    -0.8900     0.0420 H     1 <1>   0.0800 
 32 H       -0.9540    -2.5640    -1.9920 H     1 <1>   0.0800 
 33 H       -0.7350    -2.6360    -0.2540 H     1 <1>   0.0800 
 34 H        0.6200    -2.2700    -1.2980 H     1 <1>   0.0800 
 35 H        2.0770     2.1710     0.5790 H     1 <1>   0.0800 
 36 H        3.5240     2.0510    -1.7320 H     1 <1>   0.0800 
 37 H        2.8580    -0.4150     1.4160 H     1 <1>   0.0800 
 38 H        3.4360     1.0800     2.1300 H     1 <1>   0.0800 
 39 H        4.7230     2.9940     0.8410 H     1 <1>   0.3700 
 40 H        5.8220     1.1080    -0.6680 H     1 <1>   0.0800 
 41 H        4.6120    -0.0380    -1.2380 H     1 <1>   0.0800 
 42 H        2.7710     6.5080     0.3470 H     1 <1>   0.1500 
 43 H        6.4030     7.5810     1.8200 H     1 <1>   0.2700 
 44 H        7.7940     5.4270     1.5260 H     1 <1>   0.0800 
 45 H        7.6270     5.9950    -1.4330 H     1 <1>   0.0800 
 46 H        8.1290     7.1310    -0.2190 H     1 <1>   0.0800 
 47 H        6.8390     3.2450     1.0050 H     1 <1>   0.0800 
 48 H        6.8790     3.6210    -0.7030 H     1 <1>   0.0800 
 49 H       10.0670     6.1140    -1.3810 H     1 <1>   0.0800 
 50 H       10.0850     5.7740     0.3250 H     1 <1>   0.0800 
 51 H        9.2810     3.3690     1.1110 H     1 <1>   0.0800 
 52 H        8.7980     2.2390    -0.1200 H     1 <1>   0.0800 
 53 H       10.6230     3.7360    -0.9010 H     1 <1>   0.0800 
 54 H        9.1870     3.8950    -1.8700 H     1 <1>   0.0800 
@<TRIPOS>BOND
  1   1   2  2   
  2   1   3  2   
  3   1   4  am  
  4   1   5  1   
  5   4   6  1   
  6   4   7  1   
  7   5   8  1   
  8   5  27  1   
  9   5  28  1   
 10   6  29  1   
 11   6  30  1   
 12   6  31  1   
 13   7  32  1   
 14   7  33  1   
 15   7  34  1   
 16   8   9  1   
 17   8  10  1   
 18   8  35  1   
 19   9  11  1   
 20   9  12  1   
 21   9  36  1   
 22  10  13  1   
 23  10  37  1   
 24  10  38  1   
 25  11  14  am  
 26  11  39  1   
 27  12  13  1   
 28  12  40  1   
 29  12  41  1   
 30  14  15  2   
 31  14  16  1   
 32  16  17  2   
 33  16  18  1   
 34  17  19  1   
 35  17  20  1   
 36  18  21  2   
 37  18  42  1   
 38  19  21  1   
 39  19  43  1   
 40  20  22  1   
 41  20  23  1   
 42  20  44  1   
 43  22  24  1   
 44  22  45  1   
 45  22  46  1   
 46  23  25  1   
 47  23  47  1   
 48  23  48  1   
 49  24  26  1   
 50  24  49  1   
 51  24  50  1   
 52  25  26  1   
 53  25  51  1   
 54  25  52  1   
 55  26  53  1   
 56  26  54  1   
@<TRIPOS>SUBSTRUCTURE
  1 ****  11 GROUP 4 **** **** 0

# MOE 2024.06 (io_trps.svl 2023.06)
