@<TRIPOS>MOLECULE
NONAME
49 51 1 0 0 
SMALL
USER_CHARGES


@<TRIPOS>ATOM
  1 O       -0.0940    -0.8000     1.1270 O.2   1 <1>  -0.5700 
  2 C       -0.0040    -1.7160     0.3350 C.2   1 <1>   0.5440 
  3 N       -0.8690    -1.6760    -0.7060 N.am  1 <1>  -0.8000 
  4 C        0.9960    -2.7500     0.4830 C.ar  1 <1>   0.0860 
  5 C        0.7850    -4.0840     0.0840 C.ar  1 <1>   0.4100 
  6 C        2.2320    -2.4370     1.0290 C.ar  1 <1>  -0.1500 
  7 N        1.7190    -5.0290     0.1560 N.ar  1 <1>  -0.6200 
  8 N       -0.4350    -4.5090    -0.4000 N.pl3 1 <1>  -0.8690 
  9 C        3.1950    -3.4180     1.1250 C.ar  1 <1>  -0.1430 
 10 C        2.8860    -4.6930     0.6640 C.ar  1 <1>   0.1670 
 11 C       -0.7610    -5.9320    -0.6360 C.3   1 <1>   0.3040 
 12 C        4.5500    -3.0700     1.7270 C.3   1 <1>  -0.0970 
 13 C        3.9070    -5.8150     0.7290 C.3   1 <1>  -0.0970 
 14 C       -2.1510    -6.1000    -1.2840 C.3   1 <1>  -0.1900 
 15 C       -2.7180    -5.0490    -2.1940 C.3   1 <1>  -0.2000 
 16 C       -3.3090    -5.2680    -0.8230 C.3   1 <1>  -0.2000 
 17 C       -2.4130    -7.5720    -1.6640 C.3   1 <1>   0.1910 
 18 N       -2.4000    -8.4740    -0.4880 N.pl3 1 <1>   0.3140 
 19 N       -3.4720    -8.5730     0.3220 N.2   1 <1>  -0.7070 
 20 C       -1.4040    -9.3000    -0.0800 C.2   1 <1>  -0.3320 
 21 C       -3.1370    -9.4390     1.2220 C.2   1 <1>   0.1080 
 22 C       -1.8540    -9.9320     1.0240 C.2   1 <1>  -0.1500 
 23 C       -0.0520    -9.4740    -0.7540 C.3   1 <1>  -0.0600 
 24 C       -4.0660    -9.8420     2.3420 C.3   1 <1>  -0.0590 
 25 H       -1.5010    -0.8810    -0.8060 H     1 <1>   0.3700 
 26 H       -0.8270    -2.3560    -1.4690 H     1 <1>   0.3700 
 27 H        2.4230    -1.4320     1.3660 H     1 <1>   0.1500 
 28 H       -1.2530    -3.9720    -0.1030 H     1 <1>   0.4000 
 29 H       -0.7280    -6.4570     0.3050 H     1 <1>   0.0800 
 30 H       -0.0110    -6.3510    -1.2840 H     1 <1>   0.0800 
 31 H        4.5460    -2.0760     2.1360 H     1 <1>   0.0800 
 32 H        5.3140    -3.1220     0.9720 H     1 <1>   0.0800 
 33 H        4.7920    -3.7550     2.5200 H     1 <1>   0.0800 
 34 H        3.5810    -6.6510     0.1360 H     1 <1>   0.0800 
 35 H        4.0210    -6.1410     1.7460 H     1 <1>   0.0800 
 36 H        4.8550    -5.4850     0.3490 H     1 <1>   0.0800 
 37 H       -3.3060    -5.3420    -3.0470 H     1 <1>   0.1000 
 38 H       -2.1600    -4.1490    -2.3810 H     1 <1>   0.1000 
 39 H       -3.1610    -4.5230    -0.0620 H     1 <1>   0.1000 
 40 H       -4.2690    -5.7490    -0.7270 H     1 <1>   0.1000 
 41 H       -1.6770    -7.9080    -2.3690 H     1 <1>   0.0800 
 42 H       -3.3790    -7.6630    -2.1260 H     1 <1>   0.0800 
 43 H       -1.3560   -10.6620     1.6360 H     1 <1>   0.1500 
 44 H       -0.1790    -9.7600    -1.7830 H     1 <1>   0.0800 
 45 H        0.5080   -10.2450    -0.2560 H     1 <1>   0.0800 
 46 H        0.5160    -8.5630    -0.7060 H     1 <1>   0.0800 
 47 H       -4.3260    -8.9750     2.9190 H     1 <1>   0.0800 
 48 H       -3.5950   -10.5650     2.9800 H     1 <1>   0.0800 
 49 H       -4.9620   -10.2660     1.9270 H     1 <1>   0.0800 
@<TRIPOS>BOND
  1   1   2  2   
  2   2   3  am  
  3   2   4  1   
  4   3  25  1   
  5   3  26  1   
  6   4   5  ar  
  7   4   6  ar  
  8   5   7  ar  
  9   5   8  1   
 10   6   9  ar  
 11   6  27  1   
 12   7  10  ar  
 13   8  11  1   
 14   8  28  1   
 15   9  10  ar  
 16   9  12  1   
 17  10  13  1   
 18  11  14  1   
 19  11  29  1   
 20  11  30  1   
 21  12  31  1   
 22  12  32  1   
 23  12  33  1   
 24  13  34  1   
 25  13  35  1   
 26  13  36  1   
 27  14  15  1   
 28  14  16  1   
 29  14  17  1   
 30  15  16  1   
 31  15  37  1   
 32  15  38  1   
 33  16  39  1   
 34  16  40  1   
 35  17  18  1   
 36  17  41  1   
 37  17  42  1   
 38  18  19  1   
 39  18  20  1   
 40  19  21  2   
 41  20  22  2   
 42  20  23  1   
 43  21  22  1   
 44  21  24  1   
 45  22  43  1   
 46  23  44  1   
 47  23  45  1   
 48  23  46  1   
 49  24  47  1   
 50  24  48  1   
 51  24  49  1   
@<TRIPOS>SUBSTRUCTURE
  1 ****  11 GROUP 4 **** **** 0

# MOE 2024.06 (io_trps.svl 2023.06)
