@<TRIPOS>MOLECULE
NONAME
58 59 1 0 0 
SMALL
USER_CHARGES


@<TRIPOS>ATOM
  1 O       -1.6060     1.3150    -2.4510 O.2   1 <1>  -0.5700 
  2 C       -1.5300     1.7460    -1.3210 C.2   1 <1>   0.5690 
  3 N       -2.1160     1.0670    -0.2760 N.am  1 <1>  -0.6600 
  4 C       -0.8010     3.0840    -1.1380 C.3   1 <1>   0.1810 
  5 C       -2.6280    -0.3130    -0.4970 C.3   1 <1>   0.1400 
  6 C       -2.2410     1.6150     1.1040 C.3   1 <1>   0.1400 
  7 O        0.0860     3.0780    -0.0450 O.3   1 <1>  -0.5600 
  8 C       -4.0870    -0.2740    -0.9740 C.3   1 <1>   0.1400 
  9 C       -3.6080     1.3310     1.7440 C.3   1 <1>  -0.1600 
 10 C        0.8630     4.2180     0.0960 C.3   1 <1>   0.2000 
 11 N       -5.0450     0.1000     0.1230 N.am  1 <1>  -0.6600 
 12 C       -4.7890     1.4260     0.7690 C.3   1 <1>   0.1400 
 13 C        2.1440     4.0360    -0.7170 C.3   1 <1>  -0.2400 
 14 C        1.1660     4.3580     1.5830 C.3   1 <1>  -0.2400 
 15 C       -6.1000    -0.6760     0.5380 C.2   1 <1>   0.5690 
 16 O       -6.7920    -0.3720     1.4840 O.2   1 <1>  -0.5700 
 17 C       -6.4840    -1.9810    -0.1830 C.3   1 <1>   0.4040 
 18 N       -7.9160    -2.4030     0.0820 N.4   1 <1>  -0.9590 
 19 C       -8.1570    -3.8530    -0.1390 C.3   1 <1>   0.4230 
 20 C       -8.8640    -1.5150    -0.6630 C.3   1 <1>   0.2630 
 21 C       -9.6010    -4.2390     0.1830 C.3   1 <1>  -0.1600 
 22 C       -7.2890    -4.7200     0.7860 C.3   1 <1>  -0.1600 
 23 C       -9.5230    -5.6820     0.6680 C.3   1 <1>  -0.1600 
 24 C       -8.2200    -5.7370     1.4560 C.3   1 <1>  -0.1600 
 25 H       -1.5260     3.8610    -0.9860 H     1 <1>   0.0800 
 26 H       -0.2430     3.2920    -2.0330 H     1 <1>   0.0800 
 27 H       -2.5350    -0.8980     0.4010 H     1 <1>   0.0800 
 28 H       -2.0270    -0.7890    -1.2540 H     1 <1>   0.0800 
 29 H       -2.1080     2.6820     1.0770 H     1 <1>   0.0800 
 30 H       -1.4550     1.2080     1.7190 H     1 <1>   0.0800 
 31 H       -4.3250    -1.2420    -1.3710 H     1 <1>   0.0800 
 32 H       -4.1690     0.4350    -1.7810 H     1 <1>   0.0800 
 33 H       -3.7520     2.0580     2.5220 H     1 <1>   0.0800 
 34 H       -3.6040     0.3680     2.2230 H     1 <1>   0.0800 
 35 H        0.3080     5.0790    -0.2430 H     1 <1>   0.0800 
 36 H       -4.5980     2.1730     0.0160 H     1 <1>   0.0800 
 37 H       -5.6630     1.7390     1.3150 H     1 <1>   0.0800 
 38 H        2.6590     3.1450    -0.4020 H     1 <1>   0.0800 
 39 H        2.7950     4.8780    -0.5670 H     1 <1>   0.0800 
 40 H        1.9240     3.9660    -1.7660 H     1 <1>   0.0800 
 41 H        1.6960     3.4930     1.9390 H     1 <1>   0.0800 
 42 H        0.2500     4.4660     2.1350 H     1 <1>   0.0800 
 43 H        1.7720     5.2280     1.7560 H     1 <1>   0.0800 
 44 H       -5.8100    -2.7440     0.1620 H     1 <1>   0.0800 
 45 H       -6.3350    -1.8540    -1.2400 H     1 <1>   0.0800 
 46 H       -8.0590    -2.2060     1.0890 H     1 <1>   0.4500 
 47 H       -7.9470    -4.1170    -1.1640 H     1 <1>   0.0800 
 48 H       -8.7540    -1.6520    -1.7260 H     1 <1>   0.0800 
 49 H       -8.6710    -0.4810    -0.4230 H     1 <1>   0.0800 
 50 H       -9.8830    -1.7370    -0.3890 H     1 <1>   0.0800 
 51 H      -10.2420    -4.1570    -0.6770 H     1 <1>   0.0800 
 52 H       -9.9860    -3.6330     0.9860 H     1 <1>   0.0800 
 53 H       -6.7870    -4.1490     1.5470 H     1 <1>   0.0800 
 54 H       -6.5570    -5.2420     0.1950 H     1 <1>   0.0800 
 55 H       -9.4640    -6.3510    -0.1750 H     1 <1>   0.0800 
 56 H      -10.3720    -5.9560     1.2730 H     1 <1>   0.0800 
 57 H       -8.4090    -5.4380     2.4750 H     1 <1>   0.0800 
 58 H       -7.8000    -6.7300     1.4630 H     1 <1>   0.0800 
@<TRIPOS>BOND
  1   1   2  2   
  2   2   3  am  
  3   2   4  1   
  4   3   5  1   
  5   3   6  1   
  6   4   7  1   
  7   4  25  1   
  8   4  26  1   
  9   5   8  1   
 10   5  27  1   
 11   5  28  1   
 12   6   9  1   
 13   6  29  1   
 14   6  30  1   
 15   7  10  1   
 16   8  11  1   
 17   8  31  1   
 18   8  32  1   
 19   9  12  1   
 20   9  33  1   
 21   9  34  1   
 22  10  13  1   
 23  10  14  1   
 24  10  35  1   
 25  11  12  1   
 26  11  15  am  
 27  12  36  1   
 28  12  37  1   
 29  13  38  1   
 30  13  39  1   
 31  13  40  1   
 32  14  41  1   
 33  14  42  1   
 34  14  43  1   
 35  15  16  2   
 36  15  17  1   
 37  17  18  1   
 38  17  44  1   
 39  17  45  1   
 40  18  19  1   
 41  18  20  1   
 42  18  46  1   
 43  19  21  1   
 44  19  22  1   
 45  19  47  1   
 46  20  48  1   
 47  20  49  1   
 48  20  50  1   
 49  21  23  1   
 50  21  51  1   
 51  21  52  1   
 52  22  24  1   
 53  22  53  1   
 54  22  54  1   
 55  23  24  1   
 56  23  55  1   
 57  23  56  1   
 58  24  57  1   
 59  24  58  1   
@<TRIPOS>SUBSTRUCTURE
  1 ****  11 GROUP 4 **** **** 0

# MOE 2024.06 (io_trps.svl 2023.06)
