@<TRIPOS>MOLECULE
NONAME
52 54 1 0 0 
SMALL
USER_CHARGES


@<TRIPOS>ATOM
  1 S       -0.8820     0.1150     1.3320 S.o2  1 <1>   1.2040 
  2 O       -1.0430    -0.6280     2.5610 O.2   1 <1>  -0.6500 
  3 O       -1.1610     1.5330     1.3030 O.2   1 <1>  -0.6500 
  4 C       -1.8110    -0.7070     0.0150 C.ar  1 <1>  -0.0090 
  5 C        0.8030    -0.1060     0.7960 C.3   1 <1>  -0.1350 
  6 C       -1.9390    -2.0890    -0.0070 C.ar  1 <1>  -0.1500 
  7 C       -2.3970     0.0160    -1.0170 C.ar  1 <1>  -0.1500 
  8 C       -2.6280    -2.7620    -1.0130 C.ar  1 <1>   0.0860 
  9 C       -3.0820    -0.6220    -2.0350 C.ar  1 <1>  -0.1500 
 10 C       -2.7420    -4.2070    -0.9880 C.2   1 <1>   0.5440 
 11 C       -3.1930    -1.9980    -2.0320 C.ar  1 <1>  -0.1500 
 12 O       -1.7320    -4.8750    -0.8850 O.2   1 <1>  -0.5700 
 13 N       -3.9640    -4.8400    -1.0590 N.am  1 <1>  -0.6600 
 14 C       -5.2640    -4.1800    -0.7250 C.3   1 <1>   0.1400 
 15 C       -4.0860    -6.3260    -1.1840 C.3   1 <1>   0.1400 
 16 C       -5.9580    -4.8890     0.4550 C.3   1 <1>   0.2950 
 17 C       -4.8450    -6.9200     0.0210 C.3   1 <1>   0.2000 
 18 O       -6.0670    -6.2600     0.1870 O.3   1 <1>  -0.5600 
 19 C       -7.3580    -4.2970     0.7030 C.3   1 <1>  -0.1950 
 20 C       -5.1680    -8.4110    -0.1440 C.3   1 <1>  -0.1600 
 21 C       -8.4480    -5.0670     1.3810 C.3   1 <1>  -0.2000 
 22 C       -8.5610    -4.7260    -0.0780 C.3   1 <1>  -0.2000 
 23 C       -3.9130    -9.2970    -0.1890 C.3   1 <1>  -0.1600 
 24 C       -4.2900   -10.7820    -0.2560 C.3   1 <1>  -0.1600 
 25 C       -3.0400   -11.6660    -0.3030 C.3   1 <1>  -0.2400 
 26 H        1.0380    -1.1500     0.7170 H     1 <1>   0.0800 
 27 H        1.4740     0.3410     1.5030 H     1 <1>   0.0800 
 28 H        0.9570     0.3580    -0.1590 H     1 <1>   0.0800 
 29 H       -1.4940    -2.6740     0.7820 H     1 <1>   0.1500 
 30 H       -2.3180     1.0920    -1.0230 H     1 <1>   0.1500 
 31 H       -3.5270    -0.0440    -2.8280 H     1 <1>   0.1500 
 32 H       -3.7200    -2.4970    -2.8280 H     1 <1>   0.1500 
 33 H       -5.1150    -3.1480    -0.4640 H     1 <1>   0.0800 
 34 H       -5.9110    -4.2170    -1.5840 H     1 <1>   0.0800 
 35 H       -4.6180    -6.5600    -2.0890 H     1 <1>   0.0800 
 36 H       -3.1120    -6.7770    -1.2520 H     1 <1>   0.0800 
 37 H       -5.3670    -4.7700     1.3470 H     1 <1>   0.0800 
 38 H       -4.2650    -6.7810     0.9180 H     1 <1>   0.0800 
 39 H       -7.2970    -3.2530     0.9560 H     1 <1>   0.1000 
 40 H       -5.7760    -8.7150     0.6910 H     1 <1>   0.0800 
 41 H       -5.7410    -8.5510    -1.0440 H     1 <1>   0.0800 
 42 H       -8.2740    -6.0950     1.6520 H     1 <1>   0.1000 
 43 H       -9.0840    -4.5590     2.0850 H     1 <1>   0.1000 
 44 H       -9.2800    -3.9840    -0.3810 H     1 <1>   0.1000 
 45 H       -8.4670    -5.5260    -0.7930 H     1 <1>   0.1000 
 46 H       -3.3170    -9.0500    -1.0500 H     1 <1>   0.0800 
 47 H       -3.3180    -9.1210     0.6920 H     1 <1>   0.0800 
 48 H       -4.8770   -11.0460     0.6080 H     1 <1>   0.0800 
 49 H       -4.8860   -10.9650    -1.1330 H     1 <1>   0.0800 
 50 H       -2.4390   -11.5150     0.5760 H     1 <1>   0.0800 
 51 H       -2.4490   -11.4350    -1.1720 H     1 <1>   0.0800 
 52 H       -3.3250   -12.7020    -0.3490 H     1 <1>   0.0800 
@<TRIPOS>BOND
  1   1   2  2   
  2   1   3  2   
  3   1   4  1   
  4   1   5  1   
  5   4   6  ar  
  6   4   7  ar  
  7   5  26  1   
  8   5  27  1   
  9   5  28  1   
 10   6   8  ar  
 11   6  29  1   
 12   7   9  ar  
 13   7  30  1   
 14   8  10  1   
 15   8  11  ar  
 16   9  11  ar  
 17   9  31  1   
 18  10  12  2   
 19  10  13  am  
 20  11  32  1   
 21  13  14  1   
 22  13  15  1   
 23  14  16  1   
 24  14  33  1   
 25  14  34  1   
 26  15  17  1   
 27  15  35  1   
 28  15  36  1   
 29  16  18  1   
 30  16  19  1   
 31  16  37  1   
 32  17  18  1   
 33  17  20  1   
 34  17  38  1   
 35  19  21  1   
 36  19  22  1   
 37  19  39  1   
 38  20  23  1   
 39  20  40  1   
 40  20  41  1   
 41  21  22  1   
 42  21  42  1   
 43  21  43  1   
 44  22  44  1   
 45  22  45  1   
 46  23  24  1   
 47  23  46  1   
 48  23  47  1   
 49  24  25  1   
 50  24  48  1   
 51  24  49  1   
 52  25  50  1   
 53  25  51  1   
 54  25  52  1   
@<TRIPOS>SUBSTRUCTURE
  1 ****  13 GROUP 4 **** **** 0

# MOE 2024.06 (io_trps.svl 2023.06)
