@<TRIPOS>MOLECULE
NONAME
39 41 1 0 0 
SMALL
USER_CHARGES


@<TRIPOS>ATOM
  1 O       -0.5830    -0.5950    -0.9610 O.co2 1 <1>  -0.9000 
  2 C       -0.5290    -1.8280    -0.8350 C.2   1 <1>   1.0330 
  3 O       -1.6030    -2.4560    -0.7500 O.co2 1 <1>  -0.9000 
  4 C        0.7250    -2.5200    -0.7730 C.2   1 <1>  -0.2330 
  5 C        0.8690    -3.8870    -1.0050 C.2   1 <1>   0.3720 
  6 C        1.9970    -2.1160    -0.5030 C.2   1 <1>   0.0870 
  7 N        2.0910    -4.2670    -0.8870 N.2   1 <1>  -0.4100 
  8 N       -0.1800    -4.7390    -1.3100 N.pl3 1 <1>  -0.8520 
  9 O        2.7580    -3.1840    -0.5910 O.3   1 <1>  -0.0190 
 10 C        2.6110    -0.8580    -0.1460 C.ar  1 <1>   0.0530 
 11 C       -0.2810    -5.9310    -0.4490 C.3   1 <1>   0.2090 
 12 C        1.9400     0.1210     0.5860 C.ar  1 <1>  -0.1500 
 13 C        3.9320    -0.5840    -0.5090 C.ar  1 <1>  -0.1500 
 14 C       -1.6850    -6.5410    -0.5520 C.3   1 <1>  -0.0800 
 15 C        2.5510     1.3110     0.9380 C.ar  1 <1>  -0.1500 
 16 C        4.5520     0.6020    -0.1600 C.ar  1 <1>  -0.1500 
 17 C       -2.7720    -5.5990    -0.0010 C.3   1 <1>  -0.1600 
 18 C       -1.7540    -7.8790     0.2020 C.3   1 <1>  -0.1600 
 19 C        3.8610     1.5540     0.5670 C.ar  1 <1>  -0.1500 
 20 C       -4.1380    -6.2910     0.0430 C.3   1 <1>   0.1200 
 21 C       -3.1830    -8.4300     0.2020 C.3   1 <1>   0.1200 
 22 O       -4.0430    -7.4860     0.7600 O.3   1 <1>  -0.5600 
 23 H       -1.0410    -4.1590    -1.2070 H     1 <1>   0.4000 
 24 H       -0.0700    -5.6580     0.5710 H     1 <1>   0.0800 
 25 H        0.4570    -6.6460    -0.7700 H     1 <1>   0.0800 
 26 H        0.9200    -0.0520     0.8800 H     1 <1>   0.1500 
 27 H        4.4770    -1.3170    -1.0780 H     1 <1>   0.1500 
 28 H       -1.8890    -6.7320    -1.5920 H     1 <1>   0.0800 
 29 H        1.9990     2.0460     1.4960 H     1 <1>   0.1500 
 30 H        5.5700     0.7840    -0.4540 H     1 <1>   0.1500 
 31 H       -2.8520    -4.7220    -0.6190 H     1 <1>   0.0800 
 32 H       -2.5150    -5.2720     0.9910 H     1 <1>   0.0800 
 33 H       -1.4380    -7.7460     1.2220 H     1 <1>   0.0800 
 34 H       -1.0970    -8.5930    -0.2610 H     1 <1>   0.0800 
 35 H        4.3360     2.4800     0.8390 H     1 <1>   0.1500 
 36 H       -4.4930    -6.5110    -0.9490 H     1 <1>   0.0800 
 37 H       -4.8570    -5.6630     0.5410 H     1 <1>   0.0800 
 38 H       -3.2440    -9.3220     0.8010 H     1 <1>   0.0800 
 39 H       -3.5180    -8.6530    -0.7970 H     1 <1>   0.0800 
@<TRIPOS>BOND
  1   1   2  ar  
  2   2   3  ar  
  3   2   4  1   
  4   4   5  1   
  5   4   6  2   
  6   5   7  2   
  7   5   8  1   
  8   6   9  1   
  9   6  10  1   
 10   7   9  1   
 11   8  11  1   
 12   8  23  1   
 13  10  12  ar  
 14  10  13  ar  
 15  11  14  1   
 16  11  24  1   
 17  11  25  1   
 18  12  15  ar  
 19  12  26  1   
 20  13  16  ar  
 21  13  27  1   
 22  14  17  1   
 23  14  18  1   
 24  14  28  1   
 25  15  19  ar  
 26  15  29  1   
 27  16  19  ar  
 28  16  30  1   
 29  17  20  1   
 30  17  31  1   
 31  17  32  1   
 32  18  21  1   
 33  18  33  1   
 34  18  34  1   
 35  19  35  1   
 36  20  22  1   
 37  20  36  1   
 38  20  37  1   
 39  21  22  1   
 40  21  38  1   
 41  21  39  1   
@<TRIPOS>SUBSTRUCTURE
  1 ****   4 GROUP 4 **** **** 0

# MOE 2024.06 (io_trps.svl 2023.06)
