@<TRIPOS>MOLECULE
NONAME
48 50 1 0 0 
SMALL
USER_CHARGES


@<TRIPOS>ATOM
  1 O        0.4560     0.2880    -0.2640 O.3   1 <1>  -0.5600 
  2 C        0.3870     1.5850     0.2570 C.3   1 <1>   0.2950 
  3 C        1.5810    -0.4310     0.1560 C.3   1 <1>   0.2000 
  4 C       -0.9280     2.2040    -0.2280 C.3   1 <1>  -0.1950 
  5 C        1.6090     2.4150    -0.1860 C.3   1 <1>   0.2090 
  6 C        2.8770     0.2830    -0.2950 C.3   1 <1>   0.2090 
  7 C        1.4380    -1.8460    -0.4220 C.3   1 <1>  -0.1600 
  8 C       -1.6180     3.2730     0.5610 C.3   1 <1>  -0.2000 
  9 C       -2.2260     1.9020     0.4520 C.3   1 <1>  -0.2000 
 10 N        2.9000     1.7200     0.1200 N.pl3 1 <1>  -0.8210 
 11 C        2.5290    -2.8120     0.0680 C.3   1 <1>  -0.1600 
 12 C        4.0690     2.4190    -0.1790 C.2   1 <1>   0.5990 
 13 C        2.2850    -4.2300    -0.4610 C.3   1 <1>  -0.1600 
 14 N        5.2120     1.8930    -0.4030 N.2   1 <1>  -0.4100 
 15 N        4.0780     3.7450    -0.2500 N.2   1 <1>  -0.5650 
 16 C        3.3710    -5.1940     0.0230 C.3   1 <1>  -0.2400 
 17 O        6.0440     2.8740    -0.6330 O.3   1 <1>  -0.0190 
 18 C        5.3000     3.9470    -0.5220 C.2   1 <1>   0.2980 
 19 C        5.9450     5.3050    -0.7270 C.3   1 <1>   0.0200 
 20 C        6.9450     5.6320     0.3920 C.3   1 <1>  -0.1600 
 21 C        7.5840     7.0110     0.1940 C.3   1 <1>  -0.2400 
 22 H        0.3750     1.5130     1.3310 H     1 <1>   0.0800 
 23 H        1.5590    -0.4840     1.2310 H     1 <1>   0.0800 
 24 H       -0.9510     2.2990    -1.3000 H     1 <1>   0.1000 
 25 H        1.5800     3.3620     0.3230 H     1 <1>   0.0800 
 26 H        1.5460     2.6030    -1.2440 H     1 <1>   0.0800 
 27 H        2.9660     0.2180    -1.3650 H     1 <1>   0.0800 
 28 H        3.7230    -0.2200     0.1410 H     1 <1>   0.0800 
 29 H        0.4770    -2.2310    -0.1260 H     1 <1>   0.0800 
 30 H        1.4610    -1.7920    -1.4960 H     1 <1>   0.0800 
 31 H       -1.2140     3.5770     1.5120 H     1 <1>   0.1000 
 32 H       -2.0860     4.0870     0.0340 H     1 <1>   0.1000 
 33 H       -3.1010     1.7630    -0.1590 H     1 <1>   0.1000 
 34 H       -2.2170     1.2530     1.3110 H     1 <1>   0.1000 
 35 H        3.4960    -2.4780    -0.2670 H     1 <1>   0.0800 
 36 H        2.5340    -2.8310     1.1450 H     1 <1>   0.0800 
 37 H        1.3240    -4.5810    -0.1240 H     1 <1>   0.0800 
 38 H        2.2760    -4.2180    -1.5380 H     1 <1>   0.0800 
 39 H        3.3830    -5.2390     1.0980 H     1 <1>   0.0800 
 40 H        4.3390    -4.8750    -0.3220 H     1 <1>   0.0800 
 41 H        3.1820    -6.1820    -0.3580 H     1 <1>   0.0800 
 42 H        6.4420     5.3110    -1.6790 H     1 <1>   0.0800 
 43 H        5.1720     6.0530    -0.7480 H     1 <1>   0.0800 
 44 H        6.4340     5.6080     1.3400 H     1 <1>   0.0800 
 45 H        7.7180     4.8820     0.4140 H     1 <1>   0.0800 
 46 H        6.8310     7.7800     0.1960 H     1 <1>   0.0800 
 47 H        8.1190     7.0500    -0.7390 H     1 <1>   0.0800 
 48 H        8.2770     7.2120     0.9920 H     1 <1>   0.0800 
@<TRIPOS>BOND
  1   1   2  1   
  2   1   3  1   
  3   2   4  1   
  4   2   5  1   
  5   2  22  1   
  6   3   6  1   
  7   3   7  1   
  8   3  23  1   
  9   4   8  1   
 10   4   9  1   
 11   4  24  1   
 12   5  10  1   
 13   5  25  1   
 14   5  26  1   
 15   6  10  1   
 16   6  27  1   
 17   6  28  1   
 18   7  11  1   
 19   7  29  1   
 20   7  30  1   
 21   8   9  1   
 22   8  31  1   
 23   8  32  1   
 24   9  33  1   
 25   9  34  1   
 26  10  12  1   
 27  11  13  1   
 28  11  35  1   
 29  11  36  1   
 30  12  14  2   
 31  12  15  1   
 32  13  16  1   
 33  13  37  1   
 34  13  38  1   
 35  14  17  1   
 36  15  18  2   
 37  16  39  1   
 38  16  40  1   
 39  16  41  1   
 40  17  18  1   
 41  18  19  1   
 42  19  20  1   
 43  19  42  1   
 44  19  43  1   
 45  20  21  1   
 46  20  44  1   
 47  20  45  1   
 48  21  46  1   
 49  21  47  1   
 50  21  48  1   
@<TRIPOS>SUBSTRUCTURE
  1 ****  10 GROUP 4 **** **** 0

# MOE 2024.06 (io_trps.svl 2023.06)
