@<TRIPOS>MOLECULE
NONAME
51 54 1 0 0 
SMALL
USER_CHARGES


@<TRIPOS>ATOM
  1 O        0.0440     0.1400     0.1400 O.2   1 <1>  -0.5700 
  2 C        1.0160    -0.5920     0.2590 C.2   1 <1>   0.5440 
  3 N        0.8680    -1.8360     0.8320 N.am  1 <1>  -0.4200 
  4 C        2.3240    -0.2050    -0.1880 C.ar  1 <1>   0.0860 
  5 C        1.9590    -2.6650     0.9430 C.2   1 <1>   0.4500 
  6 C       -0.4540    -2.2870     1.3340 C.3   1 <1>   0.1400 
  7 C        3.3620    -1.1310    -0.0200 C.ar  1 <1>   0.1790 
  8 C        2.6110     1.0310    -0.7760 C.ar  1 <1>  -0.1500 
  9 N        3.1390    -2.3680     0.5540 N.2   1 <1>  -0.6290 
 10 C       -1.2870    -2.8610     0.1880 C.3   1 <1>  -0.0990 
 11 C        4.6460    -0.8020    -0.4400 C.ar  1 <1>  -0.1500 
 12 C        3.8900     1.3430    -1.1870 C.ar  1 <1>  -0.1500 
 13 C       -2.6800    -3.1730     0.6870 C.2   1 <1>   0.5690 
 14 C        4.9130     0.4210    -1.0180 C.ar  1 <1>  -0.1500 
 15 O       -2.8840    -4.3110     1.0370 O.2   1 <1>  -0.5700 
 16 N       -3.6510    -2.2050     0.7530 N.am  1 <1>  -0.6600 
 17 C       -5.0530    -2.5490     1.1420 C.3   1 <1>   0.1400 
 18 C       -3.4830    -0.7630     0.4070 C.3   1 <1>   0.1400 
 19 C       -6.0390    -2.2400    -0.0140 C.3   1 <1>   0.0000 
 20 C       -4.4220    -0.3990    -0.7470 C.3   1 <1>  -0.1600 
 21 C       -7.4990    -2.5720     0.3600 C.3   1 <1>   0.2000 
 22 C       -5.8850    -0.7600    -0.4300 C.3   1 <1>  -0.1600 
 23 C       -5.7990    -3.1990    -1.1930 C.3   1 <1>  -0.1600 
 24 O       -7.8000    -2.2960     1.6830 O.3   1 <1>  -0.6800 
 25 C       -7.7040    -4.0620     0.0740 C.3   1 <1>  -0.1600 
 26 C       -6.5360    -4.4880    -0.8240 C.3   1 <1>  -0.1600 
 27 H        1.7810    -3.6270     1.3920 H     1 <1>   0.0600 
 28 H       -0.3230    -3.0350     2.0970 H     1 <1>   0.0800 
 29 H       -0.9670    -1.4520     1.7800 H     1 <1>   0.0800 
 30 H        1.8140     1.7440    -0.9050 H     1 <1>   0.1500 
 31 H       -0.8360    -3.7720    -0.1610 H     1 <1>   0.0800 
 32 H       -1.3390    -2.1790    -0.6390 H     1 <1>   0.0800 
 33 H        5.4310    -1.5240    -0.3030 H     1 <1>   0.1500 
 34 H        4.0990     2.2980    -1.6390 H     1 <1>   0.1500 
 35 H        5.9120     0.6630    -1.3390 H     1 <1>   0.1500 
 36 H       -5.1250    -3.5850     1.4200 H     1 <1>   0.0800 
 37 H       -5.3110    -1.9610     2.0060 H     1 <1>   0.0800 
 38 H       -3.7300    -0.1690     1.2710 H     1 <1>   0.0800 
 39 H       -2.4700    -0.5310     0.1350 H     1 <1>   0.0800 
 40 H       -4.3470     0.6560    -0.9410 H     1 <1>   0.0800 
 41 H       -4.0990    -0.9140    -1.6350 H     1 <1>   0.0800 
 42 H       -8.1690    -1.9960    -0.2560 H     1 <1>   0.0800 
 43 H       -6.5010    -0.5470    -1.2860 H     1 <1>   0.0800 
 44 H       -6.2290    -0.1370     0.3780 H     1 <1>   0.0800 
 45 H       -6.2420    -2.7940    -2.0860 H     1 <1>   0.0800 
 46 H       -4.7560    -3.3830    -1.3850 H     1 <1>   0.0800 
 47 H       -7.3550    -2.9400     2.2650 H     1 <1>   0.4000 
 48 H       -7.7010    -4.6480     0.9770 H     1 <1>   0.0800 
 49 H       -8.6390    -4.2040    -0.4380 H     1 <1>   0.0800 
 50 H       -5.8720    -5.1340    -0.2720 H     1 <1>   0.0800 
 51 H       -6.8740    -5.0120    -1.7010 H     1 <1>   0.0800 
@<TRIPOS>BOND
  1   1   2  2   
  2   2   3  am  
  3   2   4  1   
  4   3   5  1   
  5   3   6  1   
  6   4   7  ar  
  7   4   8  ar  
  8   5   9  2   
  9   5  27  1   
 10   6  10  1   
 11   6  28  1   
 12   6  29  1   
 13   7   9  1   
 14   7  11  ar  
 15   8  12  ar  
 16   8  30  1   
 17  10  13  1   
 18  10  31  1   
 19  10  32  1   
 20  11  14  ar  
 21  11  33  1   
 22  12  14  ar  
 23  12  34  1   
 24  13  15  2   
 25  13  16  am  
 26  14  35  1   
 27  16  17  1   
 28  16  18  1   
 29  17  19  1   
 30  17  36  1   
 31  17  37  1   
 32  18  20  1   
 33  18  38  1   
 34  18  39  1   
 35  19  21  1   
 36  19  22  1   
 37  19  23  1   
 38  20  22  1   
 39  20  40  1   
 40  20  41  1   
 41  21  24  1   
 42  21  25  1   
 43  21  42  1   
 44  22  43  1   
 45  22  44  1   
 46  23  26  1   
 47  23  45  1   
 48  23  46  1   
 49  24  47  1   
 50  25  26  1   
 51  25  48  1   
 52  25  49  1   
 53  26  50  1   
 54  26  51  1   
@<TRIPOS>SUBSTRUCTURE
  1 ****  10 GROUP 4 **** **** 0

# MOE 2024.06 (io_trps.svl 2023.06)
