@<TRIPOS>MOLECULE
NONAME
56 60 1 0 0 
SMALL
USER_CHARGES


@<TRIPOS>ATOM
  1 O        0.2840     0.9390     0.1130 O.2   1 <1>  -0.5700 
  2 C       -0.3810     1.9490     0.1060 C.2   1 <1>   0.5690 
  3 N       -1.7530     1.8850     0.1540 N.am  1 <1>  -0.6600 
  4 C        0.3450     3.2930     0.0440 C.3   1 <1>  -0.0190 
  5 C       -2.6890     3.0540     0.1760 C.3   1 <1>   0.1400 
  6 C       -2.4250     0.5490     0.2160 C.3   1 <1>   0.1400 
  7 C        1.8000     3.2500    -0.4690 C.3   1 <1>  -0.0160 
  8 C        0.4200     4.0070     1.4070 C.3   1 <1>  -0.0160 
  9 C       -3.6630     3.0120    -1.0220 C.3   1 <1>   0.1440 
 10 C       -3.9240     0.6260    -0.1240 C.3   1 <1>  -0.1600 
 11 C        2.4150     4.4560     0.1990 C.ar  1 <1>  -0.1440 
 12 C        1.6420     4.8780     1.2530 C.ar  1 <1>  -0.1440 
 13 C       -4.7850     3.9850    -0.7070 C.ar  1 <1>   0.1670 
 14 C       -4.1740     1.5730    -1.3080 C.3   1 <1>  -0.1600 
 15 C       -3.0340     3.6460    -2.2910 C.3   1 <1>  -0.1600 
 16 C        3.5850     5.1140    -0.1280 C.ar  1 <1>  -0.1500 
 17 C        2.0170     5.9710     2.0120 C.ar  1 <1>  -0.1500 
 18 N       -5.7520     3.7740     0.1510 N.ar  1 <1>  -0.6200 
 19 C       -4.6580     5.1430    -1.4110 C.ar  1 <1>  -0.1440 
 20 C       -3.4450     5.1280    -2.3060 C.3   1 <1>  -0.0170 
 21 C        3.9690     6.2120     0.6260 C.ar  1 <1>  -0.1500 
 22 C        3.1880     6.6390     1.6910 C.ar  1 <1>  -0.1500 
 23 C       -6.6260     4.7750     0.2840 C.ar  1 <1>   0.7200 
 24 C       -5.6020     6.1180    -1.2100 C.ar  1 <1>   0.1600 
 25 N       -6.5900     5.9440    -0.3640 N.ar  1 <1>  -0.6200 
 26 N       -7.6600     4.5850     1.1790 N.pl3 1 <1>  -0.8380 
 27 C       -8.5310     5.7050     1.6310 C.3   1 <1>   0.1290 
 28 C       -8.0190     3.2360     1.6980 C.3   1 <1>   0.1290 
 29 H       -0.1800     3.9360    -0.6360 H     1 <1>   0.0800 
 30 H       -2.1690     3.9920     0.1830 H     1 <1>   0.0800 
 31 H       -3.2560     3.0060     1.0900 H     1 <1>   0.0800 
 32 H       -2.2930     0.1310     1.1990 H     1 <1>   0.0800 
 33 H       -1.9420    -0.1080    -0.4880 H     1 <1>   0.0800 
 34 H        1.8470     3.3120    -1.5410 H     1 <1>   0.0800 
 35 H        2.3170     2.3680    -0.1310 H     1 <1>   0.0800 
 36 H        0.5850     3.2970     2.1990 H     1 <1>   0.0800 
 37 H       -0.4600     4.5880     1.6120 H     1 <1>   0.0800 
 38 H       -4.4730     0.9700     0.7360 H     1 <1>   0.0800 
 39 H       -4.2840    -0.3590    -0.3600 H     1 <1>   0.0800 
 40 H       -3.6550     1.1650    -2.1580 H     1 <1>   0.0800 
 41 H       -5.2230     1.5950    -1.5480 H     1 <1>   0.0800 
 42 H       -3.4580     3.1860    -3.1680 H     1 <1>   0.0800 
 43 H       -1.9670     3.5180    -2.3280 H     1 <1>   0.0800 
 44 H        4.1880     4.7780    -0.9530 H     1 <1>   0.1500 
 45 H        1.4100     6.2980     2.8380 H     1 <1>   0.1500 
 46 H       -3.6780     5.4650    -3.3020 H     1 <1>   0.0800 
 47 H       -2.6720     5.7450    -1.8810 H     1 <1>   0.0800 
 48 H        4.8770     6.7350     0.3840 H     1 <1>   0.1500 
 49 H        3.4950     7.4910     2.2710 H     1 <1>   0.1500 
 50 H       -5.5470     7.0500    -1.7450 H     1 <1>   0.1500 
 51 H       -7.9850     6.6330     1.6260 H     1 <1>   0.0800 
 52 H       -8.8780     5.5230     2.6320 H     1 <1>   0.0800 
 53 H       -9.3750     5.7930     0.9700 H     1 <1>   0.0800 
 54 H       -7.7360     2.4720     0.9950 H     1 <1>   0.0800 
 55 H       -9.0810     3.1710     1.8570 H     1 <1>   0.0800 
 56 H       -7.5080     3.0620     2.6290 H     1 <1>   0.0800 
@<TRIPOS>BOND
  1   1   2  2   
  2   2   3  am  
  3   2   4  1   
  4   3   5  1   
  5   3   6  1   
  6   4   7  1   
  7   4   8  1   
  8   4  29  1   
  9   5   9  1   
 10   5  30  1   
 11   5  31  1   
 12   6  10  1   
 13   6  32  1   
 14   6  33  1   
 15   7  11  1   
 16   7  34  1   
 17   7  35  1   
 18   8  12  1   
 19   8  36  1   
 20   8  37  1   
 21   9  13  1   
 22   9  14  1   
 23   9  15  1   
 24  10  14  1   
 25  10  38  1   
 26  10  39  1   
 27  11  12  ar  
 28  11  16  ar  
 29  12  17  ar  
 30  13  18  ar  
 31  13  19  ar  
 32  14  40  1   
 33  14  41  1   
 34  15  20  1   
 35  15  42  1   
 36  15  43  1   
 37  16  21  ar  
 38  16  44  1   
 39  17  22  ar  
 40  17  45  1   
 41  18  23  ar  
 42  19  20  1   
 43  19  24  ar  
 44  20  46  1   
 45  20  47  1   
 46  21  22  ar  
 47  21  48  1   
 48  22  49  1   
 49  23  25  ar  
 50  23  26  1   
 51  24  25  ar  
 52  24  50  1   
 53  26  27  1   
 54  26  28  1   
 55  27  51  1   
 56  27  52  1   
 57  27  53  1   
 58  28  54  1   
 59  28  55  1   
 60  28  56  1   
@<TRIPOS>SUBSTRUCTURE
  1 ****   5 GROUP 4 **** **** 0

# MOE 2024.06 (io_trps.svl 2023.06)
