@<TRIPOS>MOLECULE
NONAME
44 46 1 0 0 
SMALL
USER_CHARGES


@<TRIPOS>ATOM
  1 O        0.7400     0.4000     0.7950 O.3   1 <1>  -0.6800 
  2 C        1.4050    -0.2150    -0.2620 C.3   1 <1>   0.2000 
  3 C        2.0110    -1.5160     0.2530 C.3   1 <1>  -0.0800 
  4 C        2.6370     0.6240    -0.6120 C.3   1 <1>   0.3430 
  5 C        3.2850    -1.0620     0.9800 C.3   1 <1>   0.3430 
  6 C        2.3240    -2.4990    -0.8940 C.3   1 <1>  -0.0170 
  7 N        3.6720     0.2670     0.4110 N.4   1 <1>  -0.9590 
  8 C        3.1270    -3.6860    -0.3880 C.ar  1 <1>  -0.1440 
  9 C        3.7220     1.3030     1.4790 C.3   1 <1>   0.4860 
 10 C        2.5880    -4.6100     0.4860 C.ar  1 <1>  -0.1500 
 11 C        4.4360    -3.9020    -0.7720 C.ar  1 <1>  -0.1500 
 12 C        4.2730     2.5810     0.8790 C.ar  1 <1>  -0.1440 
 13 C        3.3690    -5.6620     0.9380 C.ar  1 <1>   0.1600 
 14 C        5.1290    -4.9880    -0.2620 C.ar  1 <1>   0.1600 
 15 C        5.6210     2.6860     0.5680 C.ar  1 <1>  -0.1500 
 16 C        3.4280     3.6530     0.6330 C.ar  1 <1>  -0.1500 
 17 N        4.6280    -5.8630     0.5920 N.ar  1 <1>  -0.6200 
 18 C        6.1230     3.8460     0.0010 C.ar  1 <1>  -0.1440 
 19 C        3.9260     4.8120     0.0660 C.ar  1 <1>  -0.1500 
 20 C        5.2680     4.9060    -0.2510 C.ar  1 <1>  -0.1500 
 21 C        7.5980     3.9640    -0.3420 C.3   1 <1>  -0.0970 
 22 H       -0.1540     0.0170     0.9230 H     1 <1>   0.4000 
 23 H        0.7230    -0.3290    -1.0890 H     1 <1>   0.0800 
 24 H        1.3470    -2.0060     0.9440 H     1 <1>   0.0800 
 25 H        2.4040     1.6760    -0.6170 H     1 <1>   0.0800 
 26 H        2.9890     0.3410    -1.5900 H     1 <1>   0.0800 
 27 H        4.0790    -1.7830     0.8660 H     1 <1>   0.0800 
 28 H        3.0660    -0.9590     2.0310 H     1 <1>   0.0800 
 29 H        2.8750    -2.0080    -1.6780 H     1 <1>   0.0800 
 30 H        1.4050    -2.8590    -1.3240 H     1 <1>   0.0800 
 31 H        4.5990     0.2430    -0.0310 H     1 <1>   0.4500 
 32 H        2.7340     1.4760     1.8770 H     1 <1>   0.0800 
 33 H        4.3650     0.9820     2.2820 H     1 <1>   0.0800 
 34 H        1.5700    -4.5330     0.8220 H     1 <1>   0.1500 
 35 H        4.9310    -3.2470    -1.4660 H     1 <1>   0.1500 
 36 H        2.9350    -6.3750     1.6190 H     1 <1>   0.1500 
 37 H        6.1490    -5.1460    -0.5720 H     1 <1>   0.1500 
 38 H        6.2950     1.8710     0.7670 H     1 <1>   0.1500 
 39 H        2.3800     3.6010     0.8780 H     1 <1>   0.1500 
 40 H        3.2710     5.6450    -0.1270 H     1 <1>   0.1500 
 41 H        5.6460     5.8130    -0.6930 H     1 <1>   0.1500 
 42 H        7.9300     4.9790    -0.2140 H     1 <1>   0.0800 
 43 H        7.7600     3.6750    -1.3640 H     1 <1>   0.0800 
 44 H        8.1900     3.3350     0.2980 H     1 <1>   0.0800 
@<TRIPOS>BOND
  1   1   2  1   
  2   1  22  1   
  3   2   3  1   
  4   2   4  1   
  5   2  23  1   
  6   3   5  1   
  7   3   6  1   
  8   3  24  1   
  9   4   7  1   
 10   4  25  1   
 11   4  26  1   
 12   5   7  1   
 13   5  27  1   
 14   5  28  1   
 15   6   8  1   
 16   6  29  1   
 17   6  30  1   
 18   7   9  1   
 19   7  31  1   
 20   8  10  ar  
 21   8  11  ar  
 22   9  12  1   
 23   9  32  1   
 24   9  33  1   
 25  10  13  ar  
 26  10  34  1   
 27  11  14  ar  
 28  11  35  1   
 29  12  15  ar  
 30  12  16  ar  
 31  13  17  ar  
 32  13  36  1   
 33  14  17  ar  
 34  14  37  1   
 35  15  18  ar  
 36  15  38  1   
 37  16  19  ar  
 38  16  39  1   
 39  18  20  ar  
 40  18  21  1   
 41  19  20  ar  
 42  19  40  1   
 43  20  41  1   
 44  21  42  1   
 45  21  43  1   
 46  21  44  1   
@<TRIPOS>SUBSTRUCTURE
  1 ****   7 GROUP 4 **** **** 0

# MOE 2024.06 (io_trps.svl 2023.06)
