@<TRIPOS>MOLECULE
NONAME
50 52 1 0 0 
SMALL
USER_CHARGES


@<TRIPOS>ATOM
  1 O       -1.5610    -0.3440     1.3830 O.2   1 <1>  -0.5700 
  2 C       -1.8370     0.3690     0.4450 C.2   1 <1>   0.5690 
  3 N       -2.3500    -0.1680    -0.7160 N.am  1 <1>  -0.6600 
  4 C       -1.5660     1.8660     0.6650 C.3   1 <1>  -0.0190 
  5 C       -2.5400    -1.6510    -0.8130 C.3   1 <1>   0.2840 
  6 C       -2.6100     0.5810    -1.9820 C.3   1 <1>   0.2350 
  7 C       -2.8320     2.7500     0.6290 C.3   1 <1>  -0.1600 
  8 C       -0.4030     2.4220    -0.1960 C.3   1 <1>  -0.1600 
  9 C       -3.9800    -2.0640    -0.5240 C.ar  1 <1>  -0.1440 
 10 C       -4.0680     0.4520    -2.4410 C.3   1 <1>  -0.1950 
 11 C       -2.5510     4.2030     1.0660 C.3   1 <1>   0.2000 
 12 C       -0.5000     3.9390    -0.4430 C.3   1 <1>  -0.1600 
 13 C       -4.7230    -2.7410    -1.4800 C.ar  1 <1>  -0.1500 
 14 C       -4.5620    -1.7780     0.7030 C.ar  1 <1>  -0.1500 
 15 C       -4.8300     1.6790    -2.8450 C.3   1 <1>  -0.2000 
 16 C       -5.2300     0.9180    -1.6180 C.3   1 <1>  -0.2000 
 17 O       -3.4430     5.0440     0.3740 O.3   1 <1>  -0.5600 
 18 C       -1.0940     4.6540     0.7730 C.3   1 <1>   0.2000 
 19 C       -6.0300    -3.1160    -1.2200 C.ar  1 <1>  -0.1500 
 20 C       -5.8690    -2.1520     0.9660 C.ar  1 <1>  -0.1500 
 21 C       -4.7430     5.0770     0.8790 C.3   1 <1>   0.0400 
 22 O       -1.0820     6.0100     0.5160 O.3   1 <1>  -0.6800 
 23 C       -6.6040    -2.8200     0.0040 C.ar  1 <1>  -0.1500 
 24 H       -1.2200     1.9370     1.6830 H     1 <1>   0.0800 
 25 H       -2.2560    -1.9800    -1.7960 H     1 <1>   0.0800 
 26 H       -1.8930    -2.1570    -0.1160 H     1 <1>   0.0800 
 27 H       -2.3770     1.6190    -1.8630 H     1 <1>   0.0800 
 28 H       -1.9630     0.2060    -2.7550 H     1 <1>   0.0800 
 29 H       -3.5750     2.3220     1.2790 H     1 <1>   0.0800 
 30 H       -3.2310     2.7720    -0.3640 H     1 <1>   0.0800 
 31 H        0.5180     2.2100     0.3200 H     1 <1>   0.0800 
 32 H       -0.3410     1.9200    -1.1430 H     1 <1>   0.0800 
 33 H       -4.2230    -0.4270    -3.0410 H     1 <1>   0.1000 
 34 H       -2.7220     4.3120     2.1240 H     1 <1>   0.0800 
 35 H       -1.1340     4.1210    -1.2940 H     1 <1>   0.0800 
 36 H        0.4790     4.3310    -0.6570 H     1 <1>   0.0800 
 37 H       -4.2910    -2.9790    -2.4360 H     1 <1>   0.1500 
 38 H       -3.9960    -1.2620     1.4580 H     1 <1>   0.1500 
 39 H       -4.3960     2.6550    -2.7100 H     1 <1>   0.1000 
 40 H       -5.4700     1.6310    -3.7090 H     1 <1>   0.1000 
 41 H       -6.1210     0.3130    -1.6320 H     1 <1>   0.1000 
 42 H       -5.0340     1.3180    -0.6400 H     1 <1>   0.1000 
 43 H       -0.4690     4.4760     1.6310 H     1 <1>   0.0800 
 44 H       -6.6000    -3.6380    -1.9680 H     1 <1>   0.1500 
 45 H       -6.3090    -1.9230     1.9200 H     1 <1>   0.1500 
 46 H       -5.3120     5.7740     0.2890 H     1 <1>   0.0800 
 47 H       -4.7200     5.4050     1.9030 H     1 <1>   0.0800 
 48 H       -5.1850     4.0990     0.8030 H     1 <1>   0.0800 
 49 H       -1.9760     6.2190     0.1600 H     1 <1>   0.4000 
 50 H       -7.6200    -3.1110     0.2080 H     1 <1>   0.1500 
@<TRIPOS>BOND
  1   1   2  2   
  2   2   3  am  
  3   2   4  1   
  4   3   5  1   
  5   3   6  1   
  6   4   7  1   
  7   4   8  1   
  8   4  24  1   
  9   5   9  1   
 10   5  25  1   
 11   5  26  1   
 12   6  10  1   
 13   6  27  1   
 14   6  28  1   
 15   7  11  1   
 16   7  29  1   
 17   7  30  1   
 18   8  12  1   
 19   8  31  1   
 20   8  32  1   
 21   9  13  ar  
 22   9  14  ar  
 23  10  15  1   
 24  10  16  1   
 25  10  33  1   
 26  11  17  1   
 27  11  18  1   
 28  11  34  1   
 29  12  18  1   
 30  12  35  1   
 31  12  36  1   
 32  13  19  ar  
 33  13  37  1   
 34  14  20  ar  
 35  14  38  1   
 36  15  16  1   
 37  15  39  1   
 38  15  40  1   
 39  16  41  1   
 40  16  42  1   
 41  17  21  1   
 42  18  22  1   
 43  18  43  1   
 44  19  23  ar  
 45  19  44  1   
 46  20  23  ar  
 47  20  45  1   
 48  21  46  1   
 49  21  47  1   
 50  21  48  1   
 51  22  49  1   
 52  23  50  1   
@<TRIPOS>SUBSTRUCTURE
  1 ****   3 GROUP 4 **** **** 0

# MOE 2024.06 (io_trps.svl 2023.06)
