@<TRIPOS>MOLECULE
NONAME
45 48 1 0 0 
SMALL
USER_CHARGES


@<TRIPOS>ATOM
  1 S       -0.1420     0.2360    -1.0680 S.3   1 <1>  -0.0800 
  2 C        1.0330    -0.9540    -0.4670 C.ar  1 <1>   0.0400 
  3 C        1.0170     1.5490    -0.9410 C.2   1 <1>  -0.1100 
  4 C        0.9000    -2.3370    -0.2540 C.ar  1 <1>   0.4100 
  5 C        2.2140    -0.3080    -0.2160 C.ar  1 <1>   0.3070 
  6 C        2.1990     1.0990    -0.4810 C.2   1 <1>  -0.1500 
  7 N        1.9750    -3.0160     0.1910 N.ar  1 <1>  -0.6200 
  8 N       -0.2230    -3.0680    -0.4550 N.pl3 1 <1>  -0.8380 
  9 N        3.2460    -1.0550     0.2390 N.ar  1 <1>  -0.1250 
 10 C        3.0870    -2.3820     0.4220 C.ar  1 <1>   0.5280 
 11 C       -1.5830    -2.5710    -0.8170 C.3   1 <1>   0.2090 
 12 C       -0.2990    -4.5420    -0.2460 C.3   1 <1>   0.2090 
 13 C        4.2690    -3.1870     0.9260 C.3   1 <1>  -0.0970 
 14 C       -2.5390    -3.7650    -0.6720 C.3   1 <1>   0.2000 
 15 C       -1.6270    -4.9770    -0.8620 C.3   1 <1>  -0.0800 
 16 O       -3.0750    -3.8000     0.6220 O.3   1 <1>  -0.5600 
 17 C       -2.1650    -6.2980    -0.2840 C.3   1 <1>   0.0200 
 18 C       -4.2240    -3.0350     0.8100 C.3   1 <1>   0.0400 
 19 C       -1.1820    -7.4300    -0.5060 C.2   1 <1>  -0.0400 
 20 O       -0.8320    -7.7700    -1.7190 O.3   1 <1>  -0.0190 
 21 C       -0.5290    -8.2290     0.3500 C.2   1 <1>  -0.1500 
 22 N        0.0240    -8.7500    -1.7190 N.2   1 <1>  -0.4100 
 23 C        0.2240    -9.0490    -0.4850 C.2   1 <1>   0.1080 
 24 C        1.1540   -10.1460    -0.0160 C.3   1 <1>  -0.0590 
 25 H        0.6810     2.5320    -1.2310 H     1 <1>   0.1500 
 26 H        3.0630     1.7200    -0.3200 H     1 <1>   0.1500 
 27 H        4.1430    -0.6170     0.4410 H     1 <1>   0.4570 
 28 H       -1.8840    -1.7610    -0.1780 H     1 <1>   0.0800 
 29 H       -1.5710    -2.2460    -1.8420 H     1 <1>   0.0800 
 30 H        0.5290    -5.0490    -0.7130 H     1 <1>   0.0800 
 31 H       -0.2940    -4.7440     0.8120 H     1 <1>   0.0800 
 32 H        3.9960    -4.2250     1.0130 H     1 <1>   0.0800 
 33 H        4.5750    -2.8390     1.8960 H     1 <1>   0.0800 
 34 H        5.0930    -3.1150     0.2400 H     1 <1>   0.0800 
 35 H       -3.3400    -3.7480    -1.3920 H     1 <1>   0.0800 
 36 H       -1.4620    -5.1060    -1.9170 H     1 <1>   0.0800 
 37 H       -3.0990    -6.5450    -0.7570 H     1 <1>   0.0800 
 38 H       -2.3440    -6.1980     0.7720 H     1 <1>   0.0800 
 39 H       -4.5270    -3.1370     1.8380 H     1 <1>   0.0800 
 40 H       -5.0050    -3.4020     0.1670 H     1 <1>   0.0800 
 41 H       -4.0120    -2.0020     0.5990 H     1 <1>   0.0800 
 42 H       -0.5540    -8.2570     1.4240 H     1 <1>   0.1500 
 43 H        1.9480    -9.7230     0.5710 H     1 <1>   0.0800 
 44 H        1.5780   -10.6540    -0.8630 H     1 <1>   0.0800 
 45 H        0.6100   -10.8550     0.5790 H     1 <1>   0.0800 
@<TRIPOS>BOND
  1   1   2  1   
  2   1   3  1   
  3   2   4  ar  
  4   2   5  ar  
  5   3   6  2   
  6   3  25  1   
  7   4   7  ar  
  8   4   8  1   
  9   5   6  1   
 10   5   9  ar  
 11   6  26  1   
 12   7  10  ar  
 13   8  11  1   
 14   8  12  1   
 15   9  10  ar  
 16   9  27  1   
 17  10  13  1   
 18  11  14  1   
 19  11  28  1   
 20  11  29  1   
 21  12  15  1   
 22  12  30  1   
 23  12  31  1   
 24  13  32  1   
 25  13  33  1   
 26  13  34  1   
 27  14  15  1   
 28  14  16  1   
 29  14  35  1   
 30  15  17  1   
 31  15  36  1   
 32  16  18  1   
 33  17  19  1   
 34  17  37  1   
 35  17  38  1   
 36  18  39  1   
 37  18  40  1   
 38  18  41  1   
 39  19  20  1   
 40  19  21  2   
 41  20  22  1   
 42  21  23  1   
 43  21  42  1   
 44  22  23  2   
 45  23  24  1   
 46  24  43  1   
 47  24  44  1   
 48  24  45  1   
@<TRIPOS>SUBSTRUCTURE
  1 ****  12 GROUP 4 **** **** 0

# MOE 2024.06 (io_trps.svl 2023.06)
