@<TRIPOS>MOLECULE
NONAME
40 41 1 0 0 
SMALL
USER_CHARGES


@<TRIPOS>ATOM
  1 F       -0.0020     3.4450     2.9780 F     1 <1>  -0.1900 
  2 C       -0.0960     3.3500     1.6790 C.ar  1 <1>   0.1900 
  3 C       -1.1460     3.9780     1.0380 C.ar  1 <1>  -0.1500 
  4 C        0.8600     2.6250     0.9950 C.ar  1 <1>  -0.1500 
  5 C       -1.2500     3.8870    -0.3440 C.ar  1 <1>  -0.1440 
  6 C        0.7530     2.5290    -0.3820 C.ar  1 <1>  -0.1500 
  7 C       -0.2950     3.1540    -1.0420 C.ar  1 <1>  -0.1500 
  8 C       -2.3940     4.5750    -1.0980 C.3   1 <1>   0.3940 
  9 N       -2.6270     5.9400    -0.5050 N.3   1 <1>  -0.8100 
 10 C       -3.6480     3.6590    -1.1540 C.2   1 <1>   0.5690 
 11 C       -3.9660     6.4620    -0.8510 C.3   1 <1>   0.1100 
 12 C       -1.5450     6.8740    -0.8500 C.3   1 <1>   0.1100 
 13 O       -3.5690     2.5300    -1.5790 O.2   1 <1>  -0.5700 
 14 N       -4.8610     4.1400    -0.7770 N.am  1 <1>  -0.7300 
 15 C       -5.0830     5.5360    -0.3320 C.3   1 <1>   0.1400 
 16 C       -1.4410     7.9760     0.2080 C.3   1 <1>  -0.1600 
 17 C       -0.2090     8.8600    -0.0300 C.3   1 <1>  -0.1600 
 18 C       -0.1090     9.9630     1.0330 C.3   1 <1>  -0.1600 
 19 C        1.1250    10.8400     0.8110 C.3   1 <1>   0.1800 
 20 F        1.1240    11.7720     1.7520 F     1 <1>  -0.3400 
 21 H       -1.8680     4.5330     1.6110 H     1 <1>   0.1500 
 22 H        1.6610     2.1490     1.5290 H     1 <1>   0.1500 
 23 H        1.4810     1.9650    -0.9400 H     1 <1>   0.1500 
 24 H       -0.3670     3.0600    -2.1120 H     1 <1>   0.1500 
 25 H       -2.0910     4.7080    -2.1210 H     1 <1>   0.0800 
 26 H       -4.0550     6.5650    -1.9200 H     1 <1>   0.0800 
 27 H       -4.1060     7.4340    -0.4120 H     1 <1>   0.0800 
 28 H       -1.7090     7.2960    -1.8270 H     1 <1>   0.0800 
 29 H       -0.6050     6.3460    -0.8690 H     1 <1>   0.0800 
 30 H       -5.6470     3.4880    -0.7760 H     1 <1>   0.3700 
 31 H       -6.0340     5.8820    -0.6980 H     1 <1>   0.0800 
 32 H       -5.1000     5.5670     0.7440 H     1 <1>   0.0800 
 33 H       -1.3640     7.5150     1.1780 H     1 <1>   0.0800 
 34 H       -2.3230     8.5890     0.1880 H     1 <1>   0.0800 
 35 H       -0.2730     9.3070    -1.0080 H     1 <1>   0.0800 
 36 H        0.6780     8.2490     0.0040 H     1 <1>   0.0800 
 37 H       -0.0470     9.5130     2.0090 H     1 <1>   0.0800 
 38 H       -0.9900    10.5810     0.9900 H     1 <1>   0.0800 
 39 H        1.0980    11.3540    -0.1330 H     1 <1>   0.0800 
 40 H        2.0430    10.2900     0.9200 H     1 <1>   0.0800 
@<TRIPOS>BOND
  1   1   2  1   
  2   2   3  ar  
  3   2   4  ar  
  4   3   5  ar  
  5   3  21  1   
  6   4   6  ar  
  7   4  22  1   
  8   5   7  ar  
  9   5   8  1   
 10   6   7  ar  
 11   6  23  1   
 12   7  24  1   
 13   8   9  1   
 14   8  10  1   
 15   8  25  1   
 16   9  11  1   
 17   9  12  1   
 18  10  13  2   
 19  10  14  am  
 20  11  15  1   
 21  11  26  1   
 22  11  27  1   
 23  12  16  1   
 24  12  28  1   
 25  12  29  1   
 26  14  15  1   
 27  14  30  1   
 28  15  31  1   
 29  15  32  1   
 30  16  17  1   
 31  16  33  1   
 32  16  34  1   
 33  17  18  1   
 34  17  35  1   
 35  17  36  1   
 36  18  19  1   
 37  18  37  1   
 38  18  38  1   
 39  19  20  1   
 40  19  39  1   
 41  19  40  1   
@<TRIPOS>SUBSTRUCTURE
  1 ****   9 GROUP 4 **** **** 0

# MOE 2024.06 (io_trps.svl 2023.06)
