@<TRIPOS>MOLECULE
NONAME
47 51 1 0 0 
SMALL
USER_CHARGES


@<TRIPOS>ATOM
  1 S        0.1640     1.9250     3.3040 S.3   1 <1>  -0.0800 
  2 C        0.0320     2.9410     1.8850 C.2   1 <1>  -0.1400 
  3 C        1.9110     2.1200     3.3050 C.2   1 <1>  -0.1100 
  4 C        1.2290     3.3670     1.4610 C.2   1 <1>  -0.1810 
  5 C       -1.2880     3.2800     1.2470 C.3   1 <1>   0.0200 
  6 C        2.3110     2.9010     2.2820 C.2   1 <1>  -0.1500 
  7 C        1.3570     4.2560     0.2230 C.3   1 <1>   0.4610 
  8 C       -1.0570     4.5090     0.3530 C.3   1 <1>   0.1200 
  9 O        0.1040     4.3590    -0.4310 O.3   1 <1>  -0.5600 
 10 C        1.8390     5.6650     0.6010 C.3   1 <1>  -0.1600 
 11 C        2.3090     3.6180    -0.7970 C.3   1 <1>  -0.1600 
 12 C        2.0550     6.5310    -0.6400 C.3   1 <1>   0.1400 
 13 C        2.5330     4.5240    -2.0100 C.3   1 <1>   0.1400 
 14 N        3.0320     5.8450    -1.5330 N.am  1 <1>  -0.6600 
 15 C        4.3180     6.2650    -1.8110 C.2   1 <1>   0.5690 
 16 O        5.0270     5.6320    -2.5620 O.2   1 <1>  -0.5700 
 17 C        4.9310     7.5450    -1.2320 C.3   1 <1>   0.2610 
 18 O        4.7290     7.6390     0.1770 O.3   1 <1>  -0.3630 
 19 C        4.3850     8.7830    -1.9580 C.3   1 <1>   0.1200 
 20 C        4.8780     8.8590     0.7490 C.ar  1 <1>   0.0830 
 21 O        4.8840     9.9740    -1.3770 O.3   1 <1>  -0.3630 
 22 C        4.9660    10.0190    -0.0230 C.ar  1 <1>   0.0830 
 23 C        4.9440     8.9400     2.1290 C.ar  1 <1>  -0.1500 
 24 C        5.1370    11.2460     0.5930 C.ar  1 <1>  -0.1500 
 25 C        5.1080    10.1720     2.7420 C.ar  1 <1>  -0.1500 
 26 C        5.2070    11.3230     1.9750 C.ar  1 <1>  -0.1500 
 27 H        2.4610     1.6220     4.0840 H     1 <1>   0.1500 
 28 H       -2.0220     3.5070     1.9980 H     1 <1>   0.0800 
 29 H       -1.6360     2.4500     0.6590 H     1 <1>   0.0800 
 30 H        3.3300     3.1700     2.0700 H     1 <1>   0.1500 
 31 H       -0.9510     5.3940     0.9550 H     1 <1>   0.0800 
 32 H       -1.8890     4.6430    -0.3140 H     1 <1>   0.0800 
 33 H        2.7710     5.5920     1.1310 H     1 <1>   0.0800 
 34 H        1.1360     6.1330     1.2630 H     1 <1>   0.0800 
 35 H        1.9060     2.6740    -1.1140 H     1 <1>   0.0800 
 36 H        3.2610     3.4280    -0.3390 H     1 <1>   0.0800 
 37 H        2.3920     7.5070    -0.3490 H     1 <1>   0.0800 
 38 H        1.1230     6.6520    -1.1670 H     1 <1>   0.0800 
 39 H        1.6080     4.6640    -2.5440 H     1 <1>   0.0800 
 40 H        3.2370     4.0630    -2.6810 H     1 <1>   0.0800 
 41 H        5.9940     7.5020    -1.3880 H     1 <1>   0.0800 
 42 H        3.3120     8.8140    -1.9090 H     1 <1>   0.0800 
 43 H        4.6830     8.7700    -2.9900 H     1 <1>   0.0800 
 44 H        4.8700     8.0430     2.7170 H     1 <1>   0.1500 
 45 H        5.2120    12.1340    -0.0090 H     1 <1>   0.1500 
 46 H        5.1610    10.2360     3.8150 H     1 <1>   0.1500 
 47 H        5.3380    12.2780     2.4530 H     1 <1>   0.1500 
@<TRIPOS>BOND
  1   1   2  1   
  2   1   3  1   
  3   2   4  2   
  4   2   5  1   
  5   3   6  2   
  6   3  27  1   
  7   4   6  1   
  8   4   7  1   
  9   5   8  1   
 10   5  28  1   
 11   5  29  1   
 12   6  30  1   
 13   7   9  1   
 14   7  10  1   
 15   7  11  1   
 16   8   9  1   
 17   8  31  1   
 18   8  32  1   
 19  10  12  1   
 20  10  33  1   
 21  10  34  1   
 22  11  13  1   
 23  11  35  1   
 24  11  36  1   
 25  12  14  1   
 26  12  37  1   
 27  12  38  1   
 28  13  14  1   
 29  13  39  1   
 30  13  40  1   
 31  14  15  am  
 32  15  16  2   
 33  15  17  1   
 34  17  18  1   
 35  17  19  1   
 36  17  41  1   
 37  18  20  1   
 38  19  21  1   
 39  19  42  1   
 40  19  43  1   
 41  20  22  ar  
 42  20  23  ar  
 43  21  22  1   
 44  22  24  ar  
 45  23  25  ar  
 46  23  44  1   
 47  24  26  ar  
 48  24  45  1   
 49  25  26  ar  
 50  25  46  1   
 51  26  47  1   
@<TRIPOS>SUBSTRUCTURE
  1 ****  10 GROUP 4 **** **** 0

# MOE 2024.06 (io_trps.svl 2023.06)
