@<TRIPOS>MOLECULE
NONAME
44 46 1 0 0 
SMALL
USER_CHARGES


@<TRIPOS>ATOM
  1 S        0.4640     0.3450     0.1290 S.3   1 <1>  -0.4600 
  2 C        1.2380     0.7590     1.7330 C.3   1 <1>   0.1310 
  3 C       -0.5120    -1.1340     0.5080 C.3   1 <1>   0.1650 
  4 C        1.8370     2.1620     1.7360 C.2   1 <1>   0.5690 
  5 C       -1.1770    -1.5980    -0.7880 C.3   1 <1>  -0.1950 
  6 O        1.3530     2.9770     2.4860 O.2   1 <1>  -0.5700 
  7 N        2.9110     2.4800     0.9480 N.am  1 <1>  -0.6600 
  8 C       -2.4570    -0.9850    -1.2600 C.3   1 <1>  -0.2000 
  9 C       -2.4400    -2.4010    -0.7550 C.3   1 <1>  -0.2000 
 10 C        3.5090     3.8440     0.9170 C.3   1 <1>   0.1400 
 11 C        3.5590     1.6230    -0.0680 C.3   1 <1>   0.1400 
 12 C        4.2850     3.9310    -0.4060 C.3   1 <1>   0.4240 
 13 C        4.7130     2.4700    -0.5980 C.3   1 <1>  -0.1600 
 14 O        3.3780     4.1940    -1.4190 O.3   1 <1>  -0.6800 
 15 C        5.4100     4.9950    -0.4460 C.ar  1 <1>  -0.1440 
 16 C        5.2000     6.3360    -0.0950 C.ar  1 <1>  -0.1440 
 17 C        6.6930     4.6250    -0.8510 C.ar  1 <1>  -0.1500 
 18 C        6.2590     7.2330    -0.1170 C.ar  1 <1>  -0.1500 
 19 C        3.8460     6.9090     0.3080 C.3   1 <1>  -0.0970 
 20 C        7.7390     5.5280    -0.8740 C.ar  1 <1>  -0.1500 
 21 C        7.5240     6.8360    -0.5000 C.ar  1 <1>  -0.1500 
 22 H        1.9970     0.0250     1.9250 H     1 <1>   0.0800 
 23 H        0.4690     0.6930     2.4800 H     1 <1>   0.0800 
 24 H       -1.2400    -0.8600     1.2520 H     1 <1>   0.0800 
 25 H        0.1580    -1.8810     0.8940 H     1 <1>   0.0800 
 26 H       -0.4530    -1.8580    -1.5420 H     1 <1>   0.1000 
 27 H       -2.5800    -0.8070    -2.3150 H     1 <1>   0.1000 
 28 H       -2.9180    -0.2200    -0.6590 H     1 <1>   0.1000 
 29 H       -2.9130    -2.6100     0.1880 H     1 <1>   0.1000 
 30 H       -2.5630    -3.2010    -1.4640 H     1 <1>   0.1000 
 31 H        4.1890     3.9470     1.7440 H     1 <1>   0.0800 
 32 H        2.7430     4.5940     0.9880 H     1 <1>   0.0800 
 33 H        2.8610     1.4110    -0.8600 H     1 <1>   0.0800 
 34 H        3.9100     0.7010     0.3660 H     1 <1>   0.0800 
 35 H        4.9520     2.2430    -1.6220 H     1 <1>   0.0800 
 36 H        5.5720     2.2640     0.0150 H     1 <1>   0.0800 
 37 H        2.5820     3.6540    -1.2540 H     1 <1>   0.4000 
 38 H        6.9140     3.6230    -1.1660 H     1 <1>   0.1500 
 39 H        6.1050     8.2610     0.1620 H     1 <1>   0.1500 
 40 H        3.0630     6.5200    -0.3160 H     1 <1>   0.0800 
 41 H        3.8360     7.9780     0.1950 H     1 <1>   0.0800 
 42 H        3.6370     6.6810     1.3370 H     1 <1>   0.0800 
 43 H        8.7190     5.2110    -1.1860 H     1 <1>   0.1500 
 44 H        8.3340     7.5440    -0.5120 H     1 <1>   0.1500 
@<TRIPOS>BOND
  1   1   2  1   
  2   1   3  1   
  3   2   4  1   
  4   2  22  1   
  5   2  23  1   
  6   3   5  1   
  7   3  24  1   
  8   3  25  1   
  9   4   6  2   
 10   4   7  am  
 11   5   8  1   
 12   5   9  1   
 13   5  26  1   
 14   7  10  1   
 15   7  11  1   
 16   8   9  1   
 17   8  27  1   
 18   8  28  1   
 19   9  29  1   
 20   9  30  1   
 21  10  12  1   
 22  10  31  1   
 23  10  32  1   
 24  11  13  1   
 25  11  33  1   
 26  11  34  1   
 27  12  13  1   
 28  12  14  1   
 29  12  15  1   
 30  13  35  1   
 31  13  36  1   
 32  14  37  1   
 33  15  16  ar  
 34  15  17  ar  
 35  16  18  ar  
 36  16  19  1   
 37  17  20  ar  
 38  17  38  1   
 39  18  21  ar  
 40  18  39  1   
 41  19  40  1   
 42  19  41  1   
 43  19  42  1   
 44  20  21  ar  
 45  20  43  1   
 46  21  44  1   
@<TRIPOS>SUBSTRUCTURE
  1 ****   7 GROUP 4 **** **** 0

# MOE 2024.06 (io_trps.svl 2023.06)
