@<TRIPOS>MOLECULE
NONAME
51 53 1 0 0 
SMALL
USER_CHARGES


@<TRIPOS>ATOM
  1 O        0.8070    -1.5810     2.3950 O.2   1 <1>  -0.5700 
  2 C        0.7680    -2.3330     1.4530 C.2   1 <1>   0.5690 
  3 N        1.9060    -2.9470     1.0420 N.am  1 <1>  -0.7300 
  4 C       -0.5790    -2.5880     0.7570 C.3   1 <1>   0.2010 
  5 C        2.0010    -3.9330    -0.0510 C.3   1 <1>   0.1400 
  6 N       -0.8580    -4.0090     0.3050 N.am  1 <1>  -0.6600 
  7 C        1.3210    -5.2430     0.3630 C.3   1 <1>  -0.1600 
  8 C       -1.7870    -4.2230    -0.6910 C.2   1 <1>   0.5690 
  9 C       -0.0710    -5.0760     0.9960 C.3   1 <1>   0.1400 
 10 O       -2.3450    -3.2860    -1.2140 O.2   1 <1>  -0.5700 
 11 C       -2.2160    -5.6240    -1.1490 C.3   1 <1>   0.2610 
 12 O       -1.1030    -6.4390    -1.4730 O.3   1 <1>  -0.5600 
 13 C       -3.1480    -6.2330    -0.0670 C.3   1 <1>   0.3640 
 14 C       -1.4460    -7.7590    -1.7960 C.3   1 <1>   0.1810 
 15 N       -2.9830    -7.7080     0.1690 N.am  1 <1>  -0.6600 
 16 C       -4.6030    -5.9110    -0.4100 C.ar  1 <1>  -0.1440 
 17 C       -2.1540    -8.4510    -0.6340 C.2   1 <1>   0.5690 
 18 C       -3.6760    -8.2240     1.3830 C.3   1 <1>   0.2200 
 19 C       -5.3330    -6.7010    -1.2880 C.ar  1 <1>  -0.1500 
 20 C       -5.2090    -4.7970     0.1540 C.ar  1 <1>  -0.1500 
 21 O       -1.9430    -9.6290    -0.4740 O.2   1 <1>  -0.5700 
 22 C       -2.6480    -8.6020     2.4490 C.3   1 <1>  -0.2400 
 23 C       -4.6080    -9.3890     1.0470 C.3   1 <1>  -0.2400 
 24 C       -6.6470    -6.3880    -1.5900 C.ar  1 <1>  -0.1500 
 25 C       -6.5220    -4.4820    -0.1480 C.ar  1 <1>  -0.1500 
 26 C       -7.2420    -5.2780    -1.0200 C.ar  1 <1>  -0.1500 
 27 H        2.7570    -2.7340     1.5670 H     1 <1>   0.3700 
 28 H       -0.6250    -1.9310    -0.0930 H     1 <1>   0.0800 
 29 H       -1.3600    -2.2910     1.4330 H     1 <1>   0.0800 
 30 H        1.5160    -3.5360    -0.9280 H     1 <1>   0.0800 
 31 H        3.0350    -4.1110    -0.2920 H     1 <1>   0.0800 
 32 H        1.9540    -5.7660     1.0570 H     1 <1>   0.0800 
 33 H        1.2370    -5.8660    -0.5080 H     1 <1>   0.0800 
 34 H        0.0370    -4.8140     2.0350 H     1 <1>   0.0800 
 35 H       -0.5870    -6.0190     0.9650 H     1 <1>   0.0800 
 36 H       -2.7780    -5.5030    -2.0580 H     1 <1>   0.0800 
 37 H       -2.9230    -5.7470     0.8660 H     1 <1>   0.0800 
 38 H       -2.0800    -7.7540    -2.6640 H     1 <1>   0.0800 
 39 H       -0.5390    -8.2870    -2.0270 H     1 <1>   0.0800 
 40 H       -4.2910    -7.4380     1.7890 H     1 <1>   0.0800 
 41 H       -4.8860    -7.5700    -1.7400 H     1 <1>   0.1500 
 42 H       -4.6630    -4.1580     0.8280 H     1 <1>   0.1500 
 43 H       -2.0450    -9.4300     2.1210 H     1 <1>   0.0800 
 44 H       -3.1520    -8.8940     3.3520 H     1 <1>   0.0800 
 45 H       -2.0130    -7.7650     2.6690 H     1 <1>   0.0800 
 46 H       -4.0550   -10.2520     0.7240 H     1 <1>   0.0800 
 47 H       -5.3010    -9.1020     0.2780 H     1 <1>   0.0800 
 48 H       -5.1700    -9.6640     1.9190 H     1 <1>   0.0800 
 49 H       -7.2050    -7.0080    -2.2700 H     1 <1>   0.1500 
 50 H       -6.9820    -3.6150     0.2930 H     1 <1>   0.1500 
 51 H       -8.2630    -5.0330    -1.2550 H     1 <1>   0.1500 
@<TRIPOS>BOND
  1   1   2  2   
  2   2   3  am  
  3   2   4  1   
  4   3   5  1   
  5   3  27  1   
  6   4   6  1   
  7   4  28  1   
  8   4  29  1   
  9   5   7  1   
 10   5  30  1   
 11   5  31  1   
 12   6   8  am  
 13   6   9  1   
 14   7   9  1   
 15   7  32  1   
 16   7  33  1   
 17   8  10  2   
 18   8  11  1   
 19   9  34  1   
 20   9  35  1   
 21  11  12  1   
 22  11  13  1   
 23  11  36  1   
 24  12  14  1   
 25  13  15  1   
 26  13  16  1   
 27  13  37  1   
 28  14  17  1   
 29  14  38  1   
 30  14  39  1   
 31  15  17  am  
 32  15  18  1   
 33  16  19  ar  
 34  16  20  ar  
 35  17  21  2   
 36  18  22  1   
 37  18  23  1   
 38  18  40  1   
 39  19  24  ar  
 40  19  41  1   
 41  20  25  ar  
 42  20  42  1   
 43  22  43  1   
 44  22  44  1   
 45  22  45  1   
 46  23  46  1   
 47  23  47  1   
 48  23  48  1   
 49  24  26  ar  
 50  24  49  1   
 51  25  26  ar  
 52  25  50  1   
 53  26  51  1   
@<TRIPOS>SUBSTRUCTURE
  1 ****  13 GROUP 4 **** **** 0

# MOE 2024.06 (io_trps.svl 2023.06)
