@<TRIPOS>MOLECULE
NONAME
42 43 1 0 0 
SMALL
USER_CHARGES


@<TRIPOS>ATOM
  1 S        0.8790    -0.5710    -0.6500 S.o2  1 <1>   1.3330 
  2 O        2.0220    -1.4500    -0.6310 O.2   1 <1>  -0.6500 
  3 O        0.3850    -0.0680    -1.9100 O.2   1 <1>  -0.6500 
  4 N       -0.3350    -1.4860     0.0540 N.am  1 <1>  -0.9140 
  5 C        1.1490     0.7660     0.5220 C.3   1 <1>  -0.0550 
  6 C       -1.2720    -2.0670    -0.9000 C.3   1 <1>   0.2760 
  7 C       -0.0960     1.5830     0.9330 C.3   1 <1>  -0.0800 
  8 C       -2.3930    -2.7330    -0.1200 C.3   1 <1>  -0.0800 
  9 C       -0.6510    -3.2670    -1.6170 C.3   1 <1>   0.1200 
 10 C       -0.6050     2.4820    -0.2020 C.3   1 <1>  -0.2400 
 11 C        0.2400     2.4550     2.1500 C.3   1 <1>  -0.2400 
 12 C       -1.8030    -4.1140     0.1910 C.3   1 <1>   0.1200 
 13 C       -3.6860    -2.8260    -0.9550 C.3   1 <1>  -0.0170 
 14 O       -0.7840    -4.3440    -0.7370 O.3   1 <1>  -0.5600 
 15 C       -4.8140    -3.4690    -0.1640 C.ar  1 <1>  -0.1440 
 16 C       -5.4800    -2.7880     0.8350 C.ar  1 <1>  -0.1500 
 17 C       -5.2330    -4.7630    -0.4030 C.ar  1 <1>  -0.1500 
 18 C       -6.4990    -3.4170     1.5310 C.ar  1 <1>   0.1600 
 19 C       -6.2640    -5.2990     0.3520 C.ar  1 <1>   0.1600 
 20 N       -6.9050    -4.6570     1.3150 N.ar  1 <1>  -0.6200 
 21 H        0.1690    -2.2880     0.4410 H     1 <1>   0.4200 
 22 H        1.5640     0.3320     1.4110 H     1 <1>   0.0800 
 23 H        1.8900     1.4330     0.1250 H     1 <1>   0.0800 
 24 H       -1.6440    -1.3190    -1.5810 H     1 <1>   0.0800 
 25 H       -0.8840     0.9050     1.2180 H     1 <1>   0.0800 
 26 H       -2.6090    -2.1960     0.7870 H     1 <1>   0.0800 
 27 H        0.3860    -3.1310    -1.8680 H     1 <1>   0.0800 
 28 H       -1.2050    -3.5040    -2.5080 H     1 <1>   0.0800 
 29 H        0.1740     3.1350    -0.5520 H     1 <1>   0.0800 
 30 H       -1.4270     3.0860     0.1410 H     1 <1>   0.0800 
 31 H       -0.9580     1.8950    -1.0300 H     1 <1>   0.0800 
 32 H        1.0230     3.1540     1.9140 H     1 <1>   0.0800 
 33 H        0.5610     1.8440     2.9760 H     1 <1>   0.0800 
 34 H       -0.6280     3.0090     2.4640 H     1 <1>   0.0800 
 35 H       -2.5240    -4.9090     0.1210 H     1 <1>   0.0800 
 36 H       -1.3580    -4.1250     1.1710 H     1 <1>   0.0800 
 37 H       -3.5110    -3.3910    -1.8550 H     1 <1>   0.0800 
 38 H       -3.9940    -1.8380    -1.2480 H     1 <1>   0.0800 
 39 H       -5.2170    -1.7750     1.0800 H     1 <1>   0.1500 
 40 H       -4.7700    -5.3610    -1.1660 H     1 <1>   0.1500 
 41 H       -7.0080    -2.8710     2.3080 H     1 <1>   0.1500 
 42 H       -6.5760    -6.3100     0.1530 H     1 <1>   0.1500 
@<TRIPOS>BOND
  1   1   2  2   
  2   1   3  2   
  3   1   4  am  
  4   1   5  1   
  5   4   6  1   
  6   4  21  1   
  7   5   7  1   
  8   5  22  1   
  9   5  23  1   
 10   6   8  1   
 11   6   9  1   
 12   6  24  1   
 13   7  10  1   
 14   7  11  1   
 15   7  25  1   
 16   8  12  1   
 17   8  13  1   
 18   8  26  1   
 19   9  14  1   
 20   9  27  1   
 21   9  28  1   
 22  10  29  1   
 23  10  30  1   
 24  10  31  1   
 25  11  32  1   
 26  11  33  1   
 27  11  34  1   
 28  12  14  1   
 29  12  35  1   
 30  12  36  1   
 31  13  15  1   
 32  13  37  1   
 33  13  38  1   
 34  15  16  ar  
 35  15  17  ar  
 36  16  18  ar  
 37  16  39  1   
 38  17  19  ar  
 39  17  40  1   
 40  18  20  ar  
 41  18  41  1   
 42  19  20  ar  
 43  19  42  1   
@<TRIPOS>SUBSTRUCTURE
  1 ****   8 GROUP 4 **** **** 0

# MOE 2024.06 (io_trps.svl 2023.06)
