@<TRIPOS>MOLECULE
NONAME
50 52 1 0 0 
SMALL
USER_CHARGES


@<TRIPOS>ATOM
  1 O        2.6210    -0.7000     0.6560 O.co2 1 <1>  -0.9000 
  2 C        2.7790     0.5070     0.4530 C.2   1 <1>   0.9060 
  3 O        3.4890     1.1930     1.2000 O.co2 1 <1>  -0.9000 
  4 C        2.3340     1.0780    -0.9030 C.3   1 <1>  -0.1060 
  5 C        3.2190     0.3750    -1.9540 C.3   1 <1>   0.2000 
  6 C        2.6170     2.6100    -1.0280 C.3   1 <1>  -0.1600 
  7 C        0.8280     0.7890    -1.1440 C.3   1 <1>  -0.0160 
  8 O        2.9770    -0.9870    -1.9450 O.3   1 <1>  -0.6800 
  9 C        4.7240     0.6080    -1.6750 C.3   1 <1>   0.3430 
 10 C        4.0830     2.9960    -1.2990 C.3   1 <1>   0.3430 
 11 C       -0.0960     1.6640    -0.3040 C.ar  1 <1>  -0.1440 
 12 N        4.9880     1.8800    -0.9190 N.4   1 <1>  -0.9590 
 13 C       -0.7860     2.7200    -0.8800 C.ar  1 <1>  -0.1500 
 14 C       -0.2570     1.4090     1.0490 C.ar  1 <1>  -0.1500 
 15 C        6.4250     2.2150    -0.8100 C.3   1 <1>   0.5240 
 16 C       -1.6180     3.5170    -0.1120 C.ar  1 <1>  -0.1500 
 17 C       -1.0870     2.2050     1.8190 C.ar  1 <1>  -0.1500 
 18 C        6.5910     3.5270    -0.0740 C.2   1 <1>  -0.1810 
 19 C       -1.7670     3.2600     1.2400 C.ar  1 <1>  -0.1500 
 20 C        7.0340     4.7240    -0.6290 C.2   1 <1>   0.1080 
 21 C        6.3300     3.8210     1.2210 C.2   1 <1>  -0.3320 
 22 N        7.0380     5.6870     0.2330 N.2   1 <1>  -0.7070 
 23 C        7.4720     4.9440    -2.0610 C.3   1 <1>  -0.0590 
 24 N        6.6050     5.1310     1.3790 N.pl3 1 <1>   0.3000 
 25 C        5.8170     2.9380     2.3490 C.3   1 <1>  -0.0600 
 26 H        2.9790     0.7290    -2.9420 H     1 <1>   0.0800 
 27 H        2.3010     3.0980    -0.1200 H     1 <1>   0.0800 
 28 H        2.0230     3.0310    -1.8190 H     1 <1>   0.0800 
 29 H        0.5990     0.9370    -2.1840 H     1 <1>   0.0800 
 30 H        0.6120    -0.2430    -0.9260 H     1 <1>   0.0800 
 31 H        2.8020    -1.2490    -0.9900 H     1 <1>   0.4000 
 32 H        5.2480     0.6220    -2.6150 H     1 <1>   0.0800 
 33 H        5.0860    -0.2210    -1.0890 H     1 <1>   0.0800 
 34 H        4.3180     3.8810    -0.7290 H     1 <1>   0.0800 
 35 H        4.2130     3.2210    -2.3440 H     1 <1>   0.0800 
 36 H        4.6730     1.6810     0.0700 H     1 <1>   0.4500 
 37 H       -0.6820     2.9280    -1.9290 H     1 <1>   0.1500 
 38 H        0.2680     0.5880     1.5120 H     1 <1>   0.1500 
 39 H        6.9370     1.4380    -0.2670 H     1 <1>   0.0800 
 40 H        6.8600     2.2950    -1.7910 H     1 <1>   0.0800 
 41 H       -2.1490     4.3350    -0.5650 H     1 <1>   0.1500 
 42 H       -1.1990     1.9980     2.8690 H     1 <1>   0.1500 
 43 H       -2.4120     3.8780     1.8390 H     1 <1>   0.1500 
 44 H        6.7380     4.5590    -2.7430 H     1 <1>   0.0800 
 45 H        8.4160     4.4600    -2.2320 H     1 <1>   0.0800 
 46 H        7.5910     5.9970    -2.2440 H     1 <1>   0.0800 
 47 H        6.5060     5.6710     2.2490 H     1 <1>   0.2700 
 48 H        5.8430     1.9000     2.0690 H     1 <1>   0.0800 
 49 H        4.7980     3.1920     2.5880 H     1 <1>   0.0800 
 50 H        6.4210     3.0610     3.2300 H     1 <1>   0.0800 
@<TRIPOS>BOND
  1   1   2  ar  
  2   2   3  ar  
  3   2   4  1   
  4   4   5  1   
  5   4   6  1   
  6   4   7  1   
  7   5   8  1   
  8   5   9  1   
  9   5  26  1   
 10   6  10  1   
 11   6  27  1   
 12   6  28  1   
 13   7  11  1   
 14   7  29  1   
 15   7  30  1   
 16   8  31  1   
 17   9  12  1   
 18   9  32  1   
 19   9  33  1   
 20  10  12  1   
 21  10  34  1   
 22  10  35  1   
 23  11  13  ar  
 24  11  14  ar  
 25  12  15  1   
 26  12  36  1   
 27  13  16  ar  
 28  13  37  1   
 29  14  17  ar  
 30  14  38  1   
 31  15  18  1   
 32  15  39  1   
 33  15  40  1   
 34  16  19  ar  
 35  16  41  1   
 36  17  19  ar  
 37  17  42  1   
 38  18  20  1   
 39  18  21  2   
 40  19  43  1   
 41  20  22  2   
 42  20  23  1   
 43  21  24  1   
 44  21  25  1   
 45  22  24  1   
 46  23  44  1   
 47  23  45  1   
 48  23  46  1   
 49  24  47  1   
 50  25  48  1   
 51  25  49  1   
 52  25  50  1   
@<TRIPOS>SUBSTRUCTURE
  1 ****   6 GROUP 4 **** **** 0

# MOE 2024.06 (io_trps.svl 2023.06)
