@<TRIPOS>MOLECULE
NONAME
53 55 1 0 0 
SMALL
USER_CHARGES


@<TRIPOS>ATOM
  1 O       -0.7790     0.3990    -0.7160 O.2   1 <1>  -0.5700 
  2 C       -0.4920     1.5580    -0.3910 C.2   1 <1>   0.3890 
  3 C       -1.3700     2.3540     0.3620 C.3   1 <1>  -0.7150 
  4 C        0.7630     2.0970    -0.8510 C.ar  1 <1>   0.0860 
  5 C       -1.1920     3.7500     0.3080 C.2   1 <1>   0.5350 
  6 C       -2.3810     1.7520     1.1330 C.2   1 <1>   0.5350 
  7 C        0.9800     3.4790    -0.7700 C.ar  1 <1>   0.1170 
  8 C        1.7750     1.2810    -1.3650 C.ar  1 <1>  -0.1500 
  9 O       -2.0370     4.5350     0.7490 O.2   1 <1>  -0.5700 
 10 N       -0.0540     4.2980    -0.2830 N.am  1 <1>  -0.4770 
 11 O       -2.2340     0.7010     1.7480 O.2   1 <1>  -0.5700 
 12 N       -3.5950     2.3450     1.2060 N.am  1 <1>  -0.7300 
 13 C        2.2200     3.9850    -1.1790 C.ar  1 <1>  -0.1500 
 14 C        2.9830     1.8000    -1.7780 C.ar  1 <1>  -0.1500 
 15 C       -0.0080     5.7770    -0.4790 C.3   1 <1>   0.1400 
 16 C       -4.8150     1.5750     1.0060 C.3   1 <1>   0.3640 
 17 C        3.2070     3.1620    -1.6790 C.ar  1 <1>  -0.1500 
 18 C        0.6280     6.4510     0.7420 C.3   1 <1>  -0.1600 
 19 C       -5.7670     2.3520     0.0990 C.ar  1 <1>  -0.1430 
 20 C       -5.4530     1.3090     2.3670 C.3   1 <1>  -0.2400 
 21 C        0.7490     7.9670     0.5440 C.3   1 <1>  -0.1600 
 22 C       -6.3180     1.7360    -1.0150 C.ar  1 <1>  -0.1500 
 23 C       -6.0950     3.6750     0.3670 C.ar  1 <1>  -0.1500 
 24 C        1.3780     8.6340     1.7720 C.3   1 <1>  -0.1600 
 25 C       -7.1890     2.4250    -1.8430 C.ar  1 <1>  -0.1500 
 26 C       -6.9650     4.3660    -0.4590 C.ar  1 <1>  -0.1500 
 27 C        1.5000    10.1470     1.5760 C.3   1 <1>  -0.2400 
 28 C       -7.5140     3.7400    -1.5640 C.ar  1 <1>  -0.1500 
 29 H        1.5920     0.2220    -1.4290 H     1 <1>   0.1500 
 30 H       -3.5720     3.2490     0.7280 H     1 <1>   0.3700 
 31 H        2.4290     5.0330    -1.1030 H     1 <1>   0.1500 
 32 H        3.7460     1.1500    -2.1700 H     1 <1>   0.1500 
 33 H       -1.0050     6.1550    -0.6230 H     1 <1>   0.0800 
 34 H        0.5400     6.0090    -1.3730 H     1 <1>   0.0800 
 35 H       -4.5570     0.6350     0.5450 H     1 <1>   0.0800 
 36 H        4.1510     3.5720    -1.9910 H     1 <1>   0.1500 
 37 H        1.6010     6.0290     0.9200 H     1 <1>   0.0800 
 38 H        0.0100     6.2490     1.6010 H     1 <1>   0.0800 
 39 H       -5.6730     2.2350     2.8640 H     1 <1>   0.0800 
 40 H       -4.7730     0.7340     2.9700 H     1 <1>   0.0800 
 41 H       -6.3610     0.7520     2.2390 H     1 <1>   0.0800 
 42 H       -0.2310     8.3810     0.3750 H     1 <1>   0.0800 
 43 H        1.3540     8.1680    -0.3240 H     1 <1>   0.0800 
 44 H       -6.0630     0.7160    -1.2430 H     1 <1>   0.1500 
 45 H       -5.6650     4.1680     1.2220 H     1 <1>   0.1500 
 46 H        2.3550     8.2180     1.9490 H     1 <1>   0.0800 
 47 H        0.7700     8.4360     2.6390 H     1 <1>   0.0800 
 48 H       -7.6080     1.9360    -2.7040 H     1 <1>   0.1500 
 49 H       -7.2090     5.3900    -0.2400 H     1 <1>   0.1500 
 50 H        2.1210    10.3680     0.7260 H     1 <1>   0.0800 
 51 H        1.9410    10.5960     2.4480 H     1 <1>   0.0800 
 52 H        0.5290    10.5850     1.4200 H     1 <1>   0.0800 
 53 H       -8.1890     4.2770    -2.2070 H     1 <1>   0.1500 
@<TRIPOS>BOND
  1   1   2  2   
  2   2   3  1   
  3   2   4  1   
  4   3   5  1   
  5   3   6  1   
  6   4   7  ar  
  7   4   8  ar  
  8   5   9  2   
  9   5  10  am  
 10   6  11  2   
 11   6  12  am  
 12   7  10  1   
 13   7  13  ar  
 14   8  14  ar  
 15   8  29  1   
 16  10  15  1   
 17  12  16  1   
 18  12  30  1   
 19  13  17  ar  
 20  13  31  1   
 21  14  17  ar  
 22  14  32  1   
 23  15  18  1   
 24  15  33  1   
 25  15  34  1   
 26  16  19  1   
 27  16  20  1   
 28  16  35  1   
 29  17  36  1   
 30  18  21  1   
 31  18  37  1   
 32  18  38  1   
 33  19  22  ar  
 34  19  23  ar  
 35  20  39  1   
 36  20  40  1   
 37  20  41  1   
 38  21  24  1   
 39  21  42  1   
 40  21  43  1   
 41  22  25  ar  
 42  22  44  1   
 43  23  26  ar  
 44  23  45  1   
 45  24  27  1   
 46  24  46  1   
 47  24  47  1   
 48  25  28  ar  
 49  25  48  1   
 50  26  28  ar  
 51  26  49  1   
 52  27  50  1   
 53  27  51  1   
 54  27  52  1   
 55  28  53  1   
@<TRIPOS>SUBSTRUCTURE
  1 ****   5 GROUP 4 **** **** 0

# MOE 2024.06 (io_trps.svl 2023.06)
