@<TRIPOS>MOLECULE
NONAME
39 42 1 0 0 
SMALL
USER_CHARGES


@<TRIPOS>ATOM
  1 S       -0.9980     0.9980    -1.7220 S.3   1 <1>  -0.0800 
  2 C       -1.4150     1.4600    -0.0590 C.ar  1 <1>   0.0400 
  3 C       -2.1060    -0.3710    -1.6710 C.2   1 <1>  -0.1100 
  4 C       -0.9570     2.5130     0.7190 C.ar  1 <1>   0.4100 
  5 C       -2.3480     0.5910     0.4450 C.ar  1 <1>   0.2560 
  6 C       -2.7240    -0.4380    -0.4780 C.2   1 <1>  -0.1500 
  7 N       -1.4290     2.6610     1.9430 N.ar  1 <1>  -0.6200 
  8 N       -0.0200     3.4250     0.2720 N.pl3 1 <1>  -0.8380 
  9 N       -2.8260     0.7360     1.6750 N.ar  1 <1>  -0.5660 
 10 C       -2.3350     1.7680     2.3360 C.ar  1 <1>   0.4700 
 11 C        0.1190     4.7700     0.9170 C.3   1 <1>   0.4690 
 12 C        1.2850     2.9550    -0.2420 C.3   1 <1>   0.2090 
 13 C       -0.9620     5.7790     0.4950 C.2   1 <1>   0.2980 
 14 C        1.5470     5.2010     0.5630 C.3   1 <1>  -0.1600 
 15 C        2.3120     3.8950     0.3730 C.3   1 <1>  -0.1600 
 16 O       -2.2170     5.4480     0.6770 O.3   1 <1>  -0.0190 
 17 N       -0.7800     6.9430    -0.0060 N.2   1 <1>  -0.5650 
 18 N       -2.8860     6.4780     0.2570 N.2   1 <1>  -0.4100 
 19 C       -2.0380     7.3400    -0.1440 C.2   1 <1>   0.3350 
 20 C       -2.3630     8.7170    -0.7260 C.3   1 <1>   0.1010 
 21 C       -2.3120     9.7910     0.3690 C.3   1 <1>  -0.2400 
 22 C       -3.7270     8.7490    -1.4330 C.3   1 <1>  -0.2400 
 23 H       -2.1740    -0.9830    -2.5540 H     1 <1>   0.1500 
 24 H       -3.4490    -1.1740    -0.1800 H     1 <1>   0.1500 
 25 H       -2.7160     1.9080     3.3330 H     1 <1>   0.1500 
 26 H        0.0650     4.6520     1.9850 H     1 <1>   0.0800 
 27 H        1.4730     1.9310     0.0360 H     1 <1>   0.0800 
 28 H        1.2910     3.0450    -1.3150 H     1 <1>   0.0800 
 29 H        1.5400     5.7430    -0.3660 H     1 <1>   0.0800 
 30 H        1.9710     5.8250     1.3280 H     1 <1>   0.0800 
 31 H        2.6180     3.5040     1.3280 H     1 <1>   0.0800 
 32 H        3.1760     4.0110    -0.2560 H     1 <1>   0.0800 
 33 H       -1.6060     8.9420    -1.4580 H     1 <1>   0.0800 
 34 H       -3.0500     9.5860     1.1240 H     1 <1>   0.0800 
 35 H       -2.4970    10.7640    -0.0480 H     1 <1>   0.0800 
 36 H       -1.3410     9.7940     0.8330 H     1 <1>   0.0800 
 37 H       -4.5180     8.5500    -0.7310 H     1 <1>   0.0800 
 38 H       -3.7580     7.9980    -2.2020 H     1 <1>   0.0800 
 39 H       -3.8950     9.7100    -1.8840 H     1 <1>   0.0800 
@<TRIPOS>BOND
  1   1   2  1   
  2   1   3  1   
  3   2   4  ar  
  4   2   5  ar  
  5   3   6  2   
  6   3  23  1   
  7   4   7  ar  
  8   4   8  1   
  9   5   6  1   
 10   5   9  ar  
 11   6  24  1   
 12   7  10  ar  
 13   8  11  1   
 14   8  12  1   
 15   9  10  ar  
 16  10  25  1   
 17  11  13  1   
 18  11  14  1   
 19  11  26  1   
 20  12  15  1   
 21  12  27  1   
 22  12  28  1   
 23  13  16  1   
 24  13  17  2   
 25  14  15  1   
 26  14  29  1   
 27  14  30  1   
 28  15  31  1   
 29  15  32  1   
 30  16  18  1   
 31  17  19  1   
 32  18  19  2   
 33  19  20  1   
 34  20  21  1   
 35  20  22  1   
 36  20  33  1   
 37  21  34  1   
 38  21  35  1   
 39  21  36  1   
 40  22  37  1   
 41  22  38  1   
 42  22  39  1   
@<TRIPOS>SUBSTRUCTURE
  1 ****   8 GROUP 4 **** **** 0

# MOE 2024.06 (io_trps.svl 2023.06)
