@<TRIPOS>MOLECULE
NONAME
51 53 1 0 0 
SMALL
USER_CHARGES


@<TRIPOS>ATOM
  1 O       -0.0660    -0.2540    -0.5290 O.2   1 <1>  -0.5700 
  2 C       -1.1150     0.2380    -0.1590 C.2   1 <1>   0.7160 
  3 N       -2.1340    -0.6020     0.1580 N.am  1 <1>  -0.7300 
  4 C       -1.2950     1.6570    -0.0740 C.2   1 <1>  -0.0860 
  5 C       -2.1910    -2.0530    -0.1440 C.3   1 <1>   0.1400 
  6 C       -2.5240     2.3320    -0.0330 C.2   1 <1>   0.3720 
  7 C       -0.3850     2.6700    -0.0280 C.2   1 <1>   0.0870 
  8 C       -3.5570    -2.6720     0.2340 C.3   1 <1>   0.2800 
  9 N       -2.3540     3.6060     0.0290 N.2   1 <1>  -0.4100 
 10 N       -3.7910     1.7300    -0.0720 N.pl3 1 <1>  -0.8210 
 11 O       -1.0630     3.7880     0.0260 O.3   1 <1>  -0.0190 
 12 C        1.0560     2.7240    -0.0150 C.ar  1 <1>   0.0530 
 13 O       -4.5390    -1.8960    -0.4060 O.3   1 <1>  -0.5600 
 14 C       -3.7560    -2.6240     1.7580 C.3   1 <1>  -0.2400 
 15 C       -3.6230    -4.1150    -0.2840 C.3   1 <1>  -0.2400 
 16 C       -4.2370     1.2990    -1.4370 C.3   1 <1>   0.2090 
 17 C       -4.8900     2.4370     0.6640 C.3   1 <1>   0.2090 
 18 C        1.7330     3.7400    -0.6910 C.ar  1 <1>  -0.1500 
 19 C        1.8290     1.7920     0.6780 C.ar  1 <1>  -0.1500 
 20 C       -5.8940    -2.1780    -0.2020 C.3   1 <1>   0.0400 
 21 C       -4.9580     2.4310    -2.1890 C.3   1 <1>   0.1200 
 22 C       -5.6010     3.4900    -0.2100 C.3   1 <1>   0.1200 
 23 C        3.1130     3.8210    -0.6820 C.ar  1 <1>  -0.1500 
 24 C        3.2090     1.8650     0.6900 C.ar  1 <1>  -0.1500 
 25 O       -6.0180     2.9350    -1.4260 O.3   1 <1>  -0.5600 
 26 C        3.8560     2.8810     0.0090 C.ar  1 <1>  -0.1500 
 27 H       -3.0600    -0.1570     0.2600 H     1 <1>   0.3700 
 28 H       -1.4000    -2.5530     0.3880 H     1 <1>   0.0800 
 29 H       -2.0170    -2.1950    -1.1970 H     1 <1>   0.0800 
 30 H       -3.8310    -1.6050     2.0940 H     1 <1>   0.0800 
 31 H       -2.9150    -3.0770     2.2490 H     1 <1>   0.0800 
 32 H       -4.6350    -3.1640     2.0550 H     1 <1>   0.0800 
 33 H       -3.5910    -4.1240    -1.3590 H     1 <1>   0.0800 
 34 H       -4.5150    -4.6110     0.0510 H     1 <1>   0.0800 
 35 H       -2.7830    -4.6740     0.0850 H     1 <1>   0.0800 
 36 H       -4.9070     0.4630    -1.3420 H     1 <1>   0.0800 
 37 H       -3.3900     0.9720    -2.0140 H     1 <1>   0.0800 
 38 H       -4.4890     2.9160     1.5410 H     1 <1>   0.0800 
 39 H       -5.6130     1.7110     0.9920 H     1 <1>   0.0800 
 40 H        1.1660     4.4770    -1.2330 H     1 <1>   0.1500 
 41 H        1.3420     0.9980     1.2160 H     1 <1>   0.1500 
 42 H       -6.4670    -1.4980    -0.8060 H     1 <1>   0.0800 
 43 H       -6.1480    -2.0260     0.8320 H     1 <1>   0.0800 
 44 H       -6.1110    -3.1860    -0.5060 H     1 <1>   0.0800 
 45 H       -5.3650     2.0610    -3.1130 H     1 <1>   0.0800 
 46 H       -4.2750     3.2340    -2.4060 H     1 <1>   0.0800 
 47 H       -4.9430     4.3160    -0.4150 H     1 <1>   0.0800 
 48 H       -6.4730     3.8630     0.2970 H     1 <1>   0.0800 
 49 H        3.6110     4.6130    -1.2130 H     1 <1>   0.1500 
 50 H        3.7810     1.1290     1.2290 H     1 <1>   0.1500 
 51 H        4.9300     2.9380     0.0170 H     1 <1>   0.1500 
@<TRIPOS>BOND
  1   1   2  2   
  2   2   3  am  
  3   2   4  1   
  4   3   5  1   
  5   3  27  1   
  6   4   6  1   
  7   4   7  2   
  8   5   8  1   
  9   5  28  1   
 10   5  29  1   
 11   6   9  2   
 12   6  10  1   
 13   7  11  1   
 14   7  12  1   
 15   8  13  1   
 16   8  14  1   
 17   8  15  1   
 18   9  11  1   
 19  10  16  1   
 20  10  17  1   
 21  12  18  ar  
 22  12  19  ar  
 23  13  20  1   
 24  14  30  1   
 25  14  31  1   
 26  14  32  1   
 27  15  33  1   
 28  15  34  1   
 29  15  35  1   
 30  16  21  1   
 31  16  36  1   
 32  16  37  1   
 33  17  22  1   
 34  17  38  1   
 35  17  39  1   
 36  18  23  ar  
 37  18  40  1   
 38  19  24  ar  
 39  19  41  1   
 40  20  42  1   
 41  20  43  1   
 42  20  44  1   
 43  21  25  1   
 44  21  45  1   
 45  21  46  1   
 46  22  25  1   
 47  22  47  1   
 48  22  48  1   
 49  23  26  ar  
 50  23  49  1   
 51  24  26  ar  
 52  24  50  1   
 53  26  51  1   
@<TRIPOS>SUBSTRUCTURE
  1 ****   4 GROUP 4 **** **** 0

# MOE 2024.06 (io_trps.svl 2023.06)
