@<TRIPOS>MOLECULE
NONAME
52 54 1 0 0 
SMALL
USER_CHARGES


@<TRIPOS>ATOM
  1 S        1.0030     0.9050    -1.2070 S.o2  1 <1>   1.3330 
  2 O        1.9040     1.8430    -1.8390 O.2   1 <1>  -0.6500 
  3 O       -0.2100     0.5180    -1.8920 O.2   1 <1>  -0.6500 
  4 N        1.8850    -0.4990    -0.8480 N.am  1 <1>  -0.8490 
  5 C        0.5360     1.5210     0.4080 C.3   1 <1>  -0.0550 
  6 C        3.2720    -0.2300    -0.4520 C.3   1 <1>   0.1160 
  7 C        1.8600    -1.4640    -1.9510 C.3   1 <1>   0.1160 
  8 C       -0.3330     2.7930     0.3400 C.3   1 <1>  -0.0800 
  9 C       -0.8280     3.2910     1.6980 C.3   1 <1>   0.2000 
 10 C        0.3930     3.9970    -0.2770 C.3   1 <1>   0.2090 
 11 O        0.2040     3.2070     2.6200 O.3   1 <1>  -0.6800 
 12 C       -1.1090     4.7700     1.4440 C.3   1 <1>   0.2090 
 13 N       -0.0400     5.1930     0.4940 N.pl3 1 <1>  -0.8380 
 14 C        0.9800     6.0000     0.9470 C.ar  1 <1>   0.4100 
 15 N        1.4760     5.7520     2.1470 N.ar  1 <1>  -0.6200 
 16 C        1.4900     6.9930     0.1510 C.ar  1 <1>  -0.1500 
 17 C        2.4690     6.5410     2.5080 C.ar  1 <1>   0.4700 
 18 C        2.5450     7.7370     0.6220 C.ar  1 <1>   0.4100 
 19 N        3.0360     7.5170     1.8310 N.ar  1 <1>  -0.6200 
 20 N        3.1280     8.7290    -0.1470 N.pl3 1 <1>  -0.8380 
 21 C        3.5010     8.4710    -1.5630 C.3   1 <1>   0.2090 
 22 C        3.8390     9.8750     0.4860 C.3   1 <1>   0.2090 
 23 C        5.0150     8.2590    -1.6710 C.3   1 <1>  -0.1600 
 24 C        5.3540     9.6700     0.3860 C.3   1 <1>  -0.1600 
 25 C        5.8020     9.4290    -1.0620 C.3   1 <1>  -0.1600 
 26 H       -0.0110     0.7580     0.9260 H     1 <1>   0.0800 
 27 H        1.4220     1.7260     0.9770 H     1 <1>   0.0800 
 28 H        3.7560    -1.1460    -0.1590 H     1 <1>   0.0800 
 29 H        3.2960     0.4470     0.3850 H     1 <1>   0.0800 
 30 H        3.8190     0.2100    -1.2690 H     1 <1>   0.0800 
 31 H        2.4100    -2.3500    -1.6850 H     1 <1>   0.0800 
 32 H        2.2900    -1.0300    -2.8380 H     1 <1>   0.0800 
 33 H        0.8440    -1.7510    -2.1650 H     1 <1>   0.0800 
 34 H       -1.1960     2.5880    -0.2710 H     1 <1>   0.0800 
 35 H       -1.6770     2.7480     2.0760 H     1 <1>   0.0800 
 36 H        0.1380     4.1110    -1.3180 H     1 <1>   0.0800 
 37 H        1.4620     3.8820    -0.1930 H     1 <1>   0.0800 
 38 H        0.7770     4.0080     2.4830 H     1 <1>   0.4000 
 39 H       -1.1000     5.3430     2.3560 H     1 <1>   0.0800 
 40 H       -2.0650     4.8880     0.9650 H     1 <1>   0.0800 
 41 H        1.0650     7.1770    -0.8110 H     1 <1>   0.1500 
 42 H        2.8750     6.3620     3.4890 H     1 <1>   0.1500 
 43 H        2.9950     7.5990    -1.9370 H     1 <1>   0.0800 
 44 H        3.2050     9.3150    -2.1620 H     1 <1>   0.0800 
 45 H        3.5590    10.7800    -0.0240 H     1 <1>   0.0800 
 46 H        3.5470     9.9740     1.5170 H     1 <1>   0.0800 
 47 H        5.2690     7.3480    -1.1570 H     1 <1>   0.0800 
 48 H        5.2850     8.1410    -2.7050 H     1 <1>   0.0800 
 49 H        5.8560    10.5340     0.7850 H     1 <1>   0.0800 
 50 H        5.6220     8.8240     0.9950 H     1 <1>   0.0800 
 51 H        5.6290    10.3190    -1.6430 H     1 <1>   0.0800 
 52 H        6.8560     9.2110    -1.0860 H     1 <1>   0.0800 
@<TRIPOS>BOND
  1   1   2  2   
  2   1   3  2   
  3   1   4  am  
  4   1   5  1   
  5   4   6  1   
  6   4   7  1   
  7   5   8  1   
  8   5  26  1   
  9   5  27  1   
 10   6  28  1   
 11   6  29  1   
 12   6  30  1   
 13   7  31  1   
 14   7  32  1   
 15   7  33  1   
 16   8   9  1   
 17   8  10  1   
 18   8  34  1   
 19   9  11  1   
 20   9  12  1   
 21   9  35  1   
 22  10  13  1   
 23  10  36  1   
 24  10  37  1   
 25  11  38  1   
 26  12  13  1   
 27  12  39  1   
 28  12  40  1   
 29  13  14  1   
 30  14  15  ar  
 31  14  16  ar  
 32  15  17  ar  
 33  16  18  ar  
 34  16  41  1   
 35  17  19  ar  
 36  17  42  1   
 37  18  19  ar  
 38  18  20  1   
 39  20  21  1   
 40  20  22  1   
 41  21  23  1   
 42  21  43  1   
 43  21  44  1   
 44  22  24  1   
 45  22  45  1   
 46  22  46  1   
 47  23  25  1   
 48  23  47  1   
 49  23  48  1   
 50  24  25  1   
 51  24  49  1   
 52  24  50  1   
 53  25  51  1   
 54  25  52  1   
@<TRIPOS>SUBSTRUCTURE
  1 ****  14 GROUP 4 **** **** 0

# MOE 2024.06 (io_trps.svl 2023.06)
