@<TRIPOS>MOLECULE
NONAME
53 56 1 0 0 
SMALL
USER_CHARGES


@<TRIPOS>ATOM
  1 O        3.8990    -0.2620    -1.5320 O.2   1 <1>  -0.5700 
  2 C        3.6450    -1.0730    -0.6760 C.2   1 <1>   0.5690 
  3 N        4.6510    -1.6810     0.0410 N.am  1 <1>  -0.6600 
  4 C        2.1700    -1.3760    -0.4800 C.3   1 <1>  -0.0990 
  5 C        4.4820    -2.8220     0.9860 C.3   1 <1>   0.1400 
  6 C        6.0530    -1.1560    -0.0250 C.3   1 <1>   0.0600 
  7 C        1.7850    -2.1600     0.7740 C.3   1 <1>   0.1200 
  8 C        3.4600    -3.9150     0.5360 C.3   1 <1>   0.2800 
  9 O        2.1300    -3.5140     0.6710 O.3   1 <1>  -0.5600 
 10 C        3.6360    -4.3820    -0.9160 C.3   1 <1>  -0.1600 
 11 C        3.5890    -5.1600     1.4200 C.3   1 <1>  -0.1600 
 12 C        5.0140    -4.9850    -1.1150 C.3   1 <1>   0.3430 
 13 C        4.9420    -5.8470     1.2420 C.3   1 <1>   0.3430 
 14 N        5.2330    -6.1530    -0.1960 N.4   1 <1>  -0.9590 
 15 C        6.6320    -6.6870    -0.3500 C.3   1 <1>   0.4860 
 16 C        7.6420    -5.5590    -0.1640 C.ar  1 <1>  -0.1440 
 17 C        8.0640    -5.1800     1.1030 C.ar  1 <1>  -0.1500 
 18 C        8.1180    -4.8640    -1.2690 C.ar  1 <1>  -0.1500 
 19 C        8.8770    -4.0750     1.2650 C.ar  1 <1>  -0.1500 
 20 C        8.9380    -3.7630    -1.1040 C.ar  1 <1>  -0.1500 
 21 C        9.3040    -3.3380     0.1670 C.ar  1 <1>  -0.0230 
 22 N       10.0690    -2.1560     0.3520 N.pl3 1 <1>   0.5930 
 23 N        9.6460    -1.1390     1.1420 N.2   1 <1>  -0.7070 
 24 C       11.2450    -1.8290    -0.2350 C.2   1 <1>  -0.3020 
 25 C       10.5530    -0.2190     1.0380 C.2   1 <1>   0.1390 
 26 C       11.5850    -0.5930     0.1850 C.2   1 <1>  -0.1500 
 27 H        1.7920    -1.8800    -1.3490 H     1 <1>   0.0800 
 28 H        1.6690    -0.4270    -0.4310 H     1 <1>   0.0800 
 29 H        4.2180    -2.4450     1.9590 H     1 <1>   0.0800 
 30 H        5.4480    -3.2780     1.0970 H     1 <1>   0.0800 
 31 H        6.0940    -0.2270    -0.5690 H     1 <1>   0.0800 
 32 H        6.6910    -1.8670    -0.5180 H     1 <1>   0.0800 
 33 H        6.4300    -0.9760     0.9670 H     1 <1>   0.0800 
 34 H        0.7150    -2.1280     0.8890 H     1 <1>   0.0800 
 35 H        2.2180    -1.7350     1.6630 H     1 <1>   0.0800 
 36 H        3.5320    -3.5610    -1.5990 H     1 <1>   0.0800 
 37 H        2.8830    -5.1080    -1.1690 H     1 <1>   0.0800 
 38 H        2.8050    -5.8590     1.1850 H     1 <1>   0.0800 
 39 H        3.4740    -4.8780     2.4520 H     1 <1>   0.0800 
 40 H        5.7460    -4.2170    -0.9190 H     1 <1>   0.0800 
 41 H        5.1250    -5.2960    -2.1410 H     1 <1>   0.0800 
 42 H        4.9580    -6.7570     1.8210 H     1 <1>   0.0800 
 43 H        5.7040    -5.1960     1.6330 H     1 <1>   0.0800 
 44 H        4.5780    -6.8900    -0.4870 H     1 <1>   0.4500 
 45 H        6.7550    -7.1090    -1.3350 H     1 <1>   0.0800 
 46 H        6.8170    -7.4650     0.3730 H     1 <1>   0.0800 
 47 H        7.7610    -5.7270     1.9800 H     1 <1>   0.1500 
 48 H        7.8460    -5.1590    -2.2690 H     1 <1>   0.1500 
 49 H        9.1820    -3.7660     2.2530 H     1 <1>   0.1500 
 50 H        9.2850    -3.2190    -1.9680 H     1 <1>   0.1500 
 51 H       11.7580    -2.4920    -0.9050 H     1 <1>   0.1500 
 52 H       10.5060     0.7250     1.5560 H     1 <1>   0.1500 
 53 H       12.4490    -0.0020    -0.0620 H     1 <1>   0.1500 
@<TRIPOS>BOND
  1   1   2  2   
  2   2   3  am  
  3   2   4  1   
  4   3   5  1   
  5   3   6  1   
  6   4   7  1   
  7   4  27  1   
  8   4  28  1   
  9   5   8  1   
 10   5  29  1   
 11   5  30  1   
 12   6  31  1   
 13   6  32  1   
 14   6  33  1   
 15   7   9  1   
 16   7  34  1   
 17   7  35  1   
 18   8   9  1   
 19   8  10  1   
 20   8  11  1   
 21  10  12  1   
 22  10  36  1   
 23  10  37  1   
 24  11  13  1   
 25  11  38  1   
 26  11  39  1   
 27  12  14  1   
 28  12  40  1   
 29  12  41  1   
 30  13  14  1   
 31  13  42  1   
 32  13  43  1   
 33  14  15  1   
 34  14  44  1   
 35  15  16  1   
 36  15  45  1   
 37  15  46  1   
 38  16  17  ar  
 39  16  18  ar  
 40  17  19  ar  
 41  17  47  1   
 42  18  20  ar  
 43  18  48  1   
 44  19  21  ar  
 45  19  49  1   
 46  20  21  ar  
 47  20  50  1   
 48  21  22  1   
 49  22  23  1   
 50  22  24  1   
 51  23  25  2   
 52  24  26  2   
 53  24  51  1   
 54  25  26  1   
 55  25  52  1   
 56  26  53  1   
@<TRIPOS>SUBSTRUCTURE
  1 ****   6 GROUP 4 **** **** 0

# MOE 2024.06 (io_trps.svl 2023.06)
