@<TRIPOS>MOLECULE
NONAME
50 52 1 0 0 
SMALL
USER_CHARGES


@<TRIPOS>ATOM
  1 F       -0.7380    -1.5160     0.4370 F     1 <1>  -0.3400 
  2 C       -0.3750    -2.4470    -0.4360 C.3   1 <1>   1.3000 
  3 F        0.3300    -3.3720     0.2060 F     1 <1>  -0.3400 
  4 F        0.4210    -1.8780    -1.3280 F     1 <1>  -0.3400 
  5 O       -1.4960    -3.0170    -1.0820 O.3   1 <1>  -0.3630 
  6 C       -2.3790    -3.6880    -0.3160 C.ar  1 <1>   0.0830 
  7 C       -2.2390    -5.0580    -0.1510 C.ar  1 <1>  -0.1500 
  8 C       -3.4290    -3.0140     0.2840 C.ar  1 <1>  -0.1500 
  9 C       -3.1450    -5.7610     0.6280 C.ar  1 <1>  -0.1440 
 10 C       -4.3330    -3.7120     1.0640 C.ar  1 <1>  -0.1500 
 11 C       -4.1910    -5.0780     1.2380 C.ar  1 <1>  -0.1500 
 12 C       -2.9990    -7.2620     0.8000 C.3   1 <1>   0.4870 
 13 N       -4.2100    -7.9450     0.2780 N.4   1 <1>  -0.9590 
 14 C       -4.2560    -9.4360     0.5180 C.3   1 <1>   0.3430 
 15 C       -4.6350    -7.5370    -1.0880 C.3   1 <1>   0.3430 
 16 C       -5.4490   -10.1650    -0.2000 C.3   1 <1>   0.4230 
 17 C       -6.0690    -8.0350    -1.3650 C.3   1 <1>  -0.1600 
 18 N       -5.9590   -11.3840     0.5300 N.4   1 <1>  -0.9590 
 19 C       -6.5980    -9.1600    -0.4130 C.3   1 <1>  -0.1060 
 20 C       -7.0400   -12.0870    -0.2140 C.3   1 <1>   0.3430 
 21 C       -4.9390   -12.3430     1.0450 C.3   1 <1>   0.2630 
 22 C       -6.9110    -8.6240     0.9990 C.2   1 <1>   0.9060 
 23 C       -7.8270    -9.8280    -1.0840 C.3   1 <1>  -0.1600 
 24 C       -8.2290   -11.1460    -0.4060 C.3   1 <1>  -0.1600 
 25 O       -6.6510    -7.4470     1.2570 O.co2 1 <1>  -0.9000 
 26 O       -7.1020    -9.4410     1.9040 O.co2 1 <1>  -0.9000 
 27 H       -1.4180    -5.5560    -0.6380 H     1 <1>   0.1500 
 28 H       -3.5430    -1.9530     0.1450 H     1 <1>   0.1500 
 29 H       -5.1520    -3.1960     1.5370 H     1 <1>   0.1500 
 30 H       -4.9140    -5.5960     1.8510 H     1 <1>   0.1500 
 31 H       -2.8770    -7.4840     1.8480 H     1 <1>   0.0800 
 32 H       -2.1250    -7.6040     0.2710 H     1 <1>   0.0800 
 33 H       -4.9960    -7.5440     0.8630 H     1 <1>   0.4500 
 34 H       -3.3320    -9.8820     0.1920 H     1 <1>   0.0800 
 35 H       -4.3610    -9.5960     1.5790 H     1 <1>   0.0800 
 36 H       -4.6190    -6.4620    -1.1790 H     1 <1>   0.0800 
 37 H       -3.9550    -7.9460    -1.8170 H     1 <1>   0.0800 
 38 H       -5.1020   -10.4790    -1.1690 H     1 <1>   0.0800 
 39 H       -6.7350    -7.1890    -1.3030 H     1 <1>   0.0800 
 40 H       -6.0980    -8.3600    -2.3900 H     1 <1>   0.0800 
 41 H       -6.4620   -10.9470     1.3530 H     1 <1>   0.4500 
 42 H       -6.6750   -12.4150    -1.1730 H     1 <1>   0.0800 
 43 H       -7.3660   -12.9510     0.3420 H     1 <1>   0.0800 
 44 H       -4.3860   -12.7800     0.2300 H     1 <1>   0.0800 
 45 H       -5.4250   -13.1330     1.5960 H     1 <1>   0.0800 
 46 H       -4.2550   -11.8450     1.7120 H     1 <1>   0.0800 
 47 H       -8.6630    -9.1480    -1.0600 H     1 <1>   0.0800 
 48 H       -7.6130   -10.0400    -2.1170 H     1 <1>   0.0800 
 49 H       -8.9760   -11.6400    -1.0030 H     1 <1>   0.0800 
 50 H       -8.6800   -10.9450     0.5520 H     1 <1>   0.0800 
@<TRIPOS>BOND
  1   1   2  1   
  2   2   3  1   
  3   2   4  1   
  4   2   5  1   
  5   5   6  1   
  6   6   7  ar  
  7   6   8  ar  
  8   7   9  ar  
  9   7  27  1   
 10   8  10  ar  
 11   8  28  1   
 12   9  11  ar  
 13   9  12  1   
 14  10  11  ar  
 15  10  29  1   
 16  11  30  1   
 17  12  13  1   
 18  12  31  1   
 19  12  32  1   
 20  13  14  1   
 21  13  15  1   
 22  13  33  1   
 23  14  16  1   
 24  14  34  1   
 25  14  35  1   
 26  15  17  1   
 27  15  36  1   
 28  15  37  1   
 29  16  18  1   
 30  16  19  1   
 31  16  38  1   
 32  17  19  1   
 33  17  39  1   
 34  17  40  1   
 35  18  20  1   
 36  18  21  1   
 37  18  41  1   
 38  19  22  1   
 39  19  23  1   
 40  20  24  1   
 41  20  42  1   
 42  20  43  1   
 43  21  44  1   
 44  21  45  1   
 45  21  46  1   
 46  22  25  ar  
 47  22  26  ar  
 48  23  24  1   
 49  23  47  1   
 50  23  48  1   
 51  24  49  1   
 52  24  50  1   
@<TRIPOS>SUBSTRUCTURE
  1 ****  13 GROUP 4 **** **** 0

# MOE 2024.06 (io_trps.svl 2023.06)
