@<TRIPOS>MOLECULE
NONAME
50 53 1 0 0 
SMALL
USER_CHARGES


@<TRIPOS>ATOM
  1 CL      -4.1460    -0.2970     3.2500 Cl    1 <1>  -0.1770 
  2 C       -4.2080    -1.3150     1.8310 C.ar  1 <1>   0.1770 
  3 C       -3.9270    -2.6660     1.9570 C.ar  1 <1>  -0.1500 
  4 C       -4.5360    -0.7500     0.6070 C.ar  1 <1>  -0.1500 
  5 C       -3.9830    -3.4490     0.8200 C.ar  1 <1>  -0.1440 
  6 C       -4.5880    -1.5510    -0.5230 C.ar  1 <1>  -0.1500 
  7 C       -4.3110    -2.9050    -0.4030 C.ar  1 <1>   0.1000 
  8 C       -3.7190    -4.9270     0.6720 C.3   1 <1>  -0.0160 
  9 N       -4.3210    -3.8390    -1.4170 N.pl3 1 <1>  -0.8690 
 10 C       -3.8760    -5.1630    -0.8430 C.3   1 <1>   0.3500 
 11 C       -4.7380    -6.4150    -1.1460 C.2   1 <1>   0.5690 
 12 O       -4.1170    -7.4380    -1.3390 O.2   1 <1>  -0.5700 
 13 N       -6.1210    -6.4470    -1.1610 N.am  1 <1>  -0.6600 
 14 C       -6.8380    -7.7110    -1.5130 C.3   1 <1>   0.1400 
 15 C       -7.0370    -5.3130    -0.8350 C.3   1 <1>   0.1400 
 16 C       -7.3350    -8.4600    -0.2650 C.3   1 <1>   0.1400 
 17 C       -7.3660    -5.2450     0.6630 C.3   1 <1>  -0.1600 
 18 N       -8.1860    -7.6060     0.6320 N.am  1 <1>  -0.6600 
 19 C       -7.3970    -6.5910     1.3970 C.3   1 <1>   0.1400 
 20 C       -9.4950    -7.8920     0.9730 C.2   1 <1>   0.7030 
 21 O       -9.9460    -7.4380     2.0090 O.2   1 <1>  -0.5700 
 22 C      -10.3630    -8.7190     0.1420 C.2   1 <1>   0.2770 
 23 N      -11.2740    -9.6870     0.5760 N.pl3 1 <1>  -0.7640 
 24 C      -10.4780    -8.6960    -1.2100 C.2   1 <1>   0.2000 
 25 C      -11.8780   -10.1960    -0.4880 C.cat 1 <1>   0.6500 
 26 C      -11.5250   -10.0120     2.0100 C.3   1 <1>   0.2740 
 27 N      -11.4110    -9.6220    -1.5860 N.pl3 1 <1>  -0.7000 
 28 H       -3.6730    -3.0790     2.9150 H     1 <1>   0.1500 
 29 H       -4.7480     0.3020     0.5460 H     1 <1>   0.1500 
 30 H       -4.8430    -1.1420    -1.4830 H     1 <1>   0.1500 
 31 H       -4.4280    -5.5020     1.2360 H     1 <1>   0.0800 
 32 H       -2.7240    -5.1800     0.9900 H     1 <1>   0.0800 
 33 H       -3.7970    -3.5690    -2.2570 H     1 <1>   0.4000 
 34 H       -2.8960    -5.3620    -1.2410 H     1 <1>   0.0800 
 35 H       -6.1840    -8.3620    -2.0680 H     1 <1>   0.0800 
 36 H       -7.6650    -7.4830    -2.1600 H     1 <1>   0.0800 
 37 H       -7.9560    -5.4470    -1.3780 H     1 <1>   0.0800 
 38 H       -6.6360    -4.3740    -1.1630 H     1 <1>   0.0800 
 39 H       -6.4740    -8.8010     0.2860 H     1 <1>   0.0800 
 40 H       -7.8710    -9.3400    -0.5710 H     1 <1>   0.0800 
 41 H       -8.3180    -4.7600     0.7830 H     1 <1>   0.0800 
 42 H       -6.6460    -4.6100     1.1450 H     1 <1>   0.0800 
 43 H       -7.8100    -6.4470     2.3820 H     1 <1>   0.0800 
 44 H       -6.3900    -6.9480     1.5300 H     1 <1>   0.0800 
 45 H       -9.9530    -8.0650    -1.9100 H     1 <1>   0.1500 
 46 H      -12.6440   -10.9620    -0.4650 H     1 <1>   0.1500 
 47 H      -10.6020   -10.2880     2.4930 H     1 <1>   0.0800 
 48 H      -12.2210   -10.8280     2.0990 H     1 <1>   0.0800 
 49 H      -11.9320    -9.1510     2.5150 H     1 <1>   0.0800 
 50 H      -11.7150    -9.8250    -2.5460 H     1 <1>   0.4500 
@<TRIPOS>BOND
  1   1   2  1   
  2   2   3  ar  
  3   2   4  ar  
  4   3   5  ar  
  5   3  28  1   
  6   4   6  ar  
  7   4  29  1   
  8   5   7  ar  
  9   5   8  1   
 10   6   7  ar  
 11   6  30  1   
 12   7   9  1   
 13   8  10  1   
 14   8  31  1   
 15   8  32  1   
 16   9  10  1   
 17   9  33  1   
 18  10  11  1   
 19  10  34  1   
 20  11  12  2   
 21  11  13  am  
 22  13  14  1   
 23  13  15  1   
 24  14  16  1   
 25  14  35  1   
 26  14  36  1   
 27  15  17  1   
 28  15  37  1   
 29  15  38  1   
 30  16  18  1   
 31  16  39  1   
 32  16  40  1   
 33  17  19  1   
 34  17  41  1   
 35  17  42  1   
 36  18  19  1   
 37  18  20  am  
 38  19  43  1   
 39  19  44  1   
 40  20  21  2   
 41  20  22  1   
 42  22  23  1   
 43  22  24  2   
 44  23  25  ar  
 45  23  26  1   
 46  24  27  1   
 47  24  45  1   
 48  25  27  ar  
 49  25  46  1   
 50  26  47  1   
 51  26  48  1   
 52  26  49  1   
 53  27  50  1   
@<TRIPOS>SUBSTRUCTURE
  1 ****  17 GROUP 4 **** **** 0

# MOE 2024.06 (io_trps.svl 2023.06)
