@<TRIPOS>MOLECULE
NONAME
45 47 1 0 0 
SMALL
USER_CHARGES


@<TRIPOS>ATOM
  1 S        0.6180     0.6480    -0.6990 S.o2  1 <1>   1.3330 
  2 O        0.4660    -0.2420    -1.8310 O.2   1 <1>  -0.6500 
  3 O       -0.4350     1.6050    -0.4360 O.2   1 <1>  -0.6500 
  4 N        0.7550    -0.3270     0.6830 N.am  1 <1>  -0.8490 
  5 C        2.1970     1.4900    -0.8500 C.3   1 <1>  -0.0550 
  6 C       -0.2960    -1.3410     0.7490 C.3   1 <1>   0.1160 
  7 C        0.7800     0.4520     1.9280 C.3   1 <1>   0.1160 
  8 C        3.3860     0.5660    -1.1910 C.3   1 <1>  -0.0800 
  9 C        4.6880     1.2750    -1.5560 C.3   1 <1>   0.2200 
 10 C        3.8360    -0.3480    -0.0600 C.3   1 <1>   0.1200 
 11 N        4.8300     2.5610    -0.8360 N.am  1 <1>  -0.7300 
 12 C        5.7660     0.2930    -1.0780 C.3   1 <1>   0.1200 
 13 O        5.1070    -0.7620    -0.4430 O.3   1 <1>  -0.5600 
 14 C        4.5620     3.8040    -1.3390 C.2   1 <1>   0.5440 
 15 O        4.2400     3.8590    -2.5130 O.2   1 <1>  -0.5700 
 16 C        4.6460     5.0350    -0.5560 C.ar  1 <1>   0.0860 
 17 C        4.5790     5.0900     0.8510 C.ar  1 <1>   0.0410 
 18 C        4.7870     6.2510    -1.2350 C.ar  1 <1>  -0.1500 
 19 C        4.4480     3.9060     1.6460 C.2   1 <1>   0.6960 
 20 C        4.6440     6.3250     1.4990 C.ar  1 <1>  -0.1500 
 21 C        4.8550     7.4650    -0.5810 C.ar  1 <1>  -0.1500 
 22 N        5.4580     3.1430     1.9510 N.2   1 <1>  -0.6190 
 23 N        3.3160     3.4160     2.0640 N.2   1 <1>  -0.6190 
 24 C        4.7810     7.5040     0.7980 C.ar  1 <1>  -0.1500 
 25 N        4.9160     2.1600     2.5660 N.2   1 <1>  -0.2500 
 26 N        3.6330     2.3150     2.6520 N.2   1 <1>  -0.2500 
 27 H        2.1100     2.2160    -1.6340 H     1 <1>   0.0800 
 28 H        2.4060     2.0260     0.0530 H     1 <1>   0.0800 
 29 H       -0.1650    -1.9540     1.6240 H     1 <1>   0.0800 
 30 H       -0.2480    -1.9750    -0.1200 H     1 <1>   0.0800 
 31 H       -1.2650    -0.8710     0.7830 H     1 <1>   0.0800 
 32 H        0.9970    -0.1890     2.7650 H     1 <1>   0.0800 
 33 H       -0.1670     0.9410     2.0900 H     1 <1>   0.0800 
 34 H        1.5420     1.2060     1.8820 H     1 <1>   0.0800 
 35 H        3.1110    -0.0610    -2.0200 H     1 <1>   0.0800 
 36 H        4.7610     1.4400    -2.6170 H     1 <1>   0.0800 
 37 H        3.2030    -1.2100     0.0610 H     1 <1>   0.0800 
 38 H        3.9210     0.1860     0.8730 H     1 <1>   0.0800 
 39 H        5.0070     2.4510     0.1840 H     1 <1>   0.3700 
 40 H        6.4330     0.7510    -0.3670 H     1 <1>   0.0800 
 41 H        6.3220    -0.1120    -1.9030 H     1 <1>   0.0800 
 42 H        4.8420     6.2410    -2.3110 H     1 <1>   0.1500 
 43 H        4.5860     6.3410     2.5750 H     1 <1>   0.1500 
 44 H        4.9630     8.3780    -1.1410 H     1 <1>   0.1500 
 45 H        4.8310     8.4450     1.3180 H     1 <1>   0.1500 
@<TRIPOS>BOND
  1   1   2  2   
  2   1   3  2   
  3   1   4  am  
  4   1   5  1   
  5   4   6  1   
  6   4   7  1   
  7   5   8  1   
  8   5  27  1   
  9   5  28  1   
 10   6  29  1   
 11   6  30  1   
 12   6  31  1   
 13   7  32  1   
 14   7  33  1   
 15   7  34  1   
 16   8   9  1   
 17   8  10  1   
 18   8  35  1   
 19   9  11  1   
 20   9  12  1   
 21   9  36  1   
 22  10  13  1   
 23  10  37  1   
 24  10  38  1   
 25  11  14  am  
 26  11  39  1   
 27  12  13  1   
 28  12  40  1   
 29  12  41  1   
 30  14  15  2   
 31  14  16  1   
 32  16  17  ar  
 33  16  18  ar  
 34  17  19  1   
 35  17  20  ar  
 36  18  21  ar  
 37  18  42  1   
 38  19  22  2   
 39  19  23  1   
 40  20  24  ar  
 41  20  43  1   
 42  21  24  ar  
 43  21  44  1   
 44  22  25  1   
 45  23  26  2   
 46  24  45  1   
 47  25  26  1   
@<TRIPOS>SUBSTRUCTURE
  1 ****  11 GROUP 4 **** **** 0

# MOE 2024.06 (io_trps.svl 2023.06)
