@<TRIPOS>MOLECULE
NONAME
47 49 1 0 0 
SMALL
USER_CHARGES


@<TRIPOS>ATOM
  1 O       -1.3310    -0.0560    -0.0700 O.2   1 <1>  -0.5700 
  2 C       -2.0460     0.8300    -0.5050 C.2   1 <1>   0.5440 
  3 N       -3.2200     0.4470    -1.1160 N.am  1 <1>  -0.6600 
  4 C       -1.6780     2.2260    -0.3320 C.ar  1 <1>   0.0860 
  5 C       -3.3610    -0.9540    -1.5900 C.3   1 <1>   0.1400 
  6 C       -4.5130     1.0760    -0.7330 C.3   1 <1>   0.1400 
  7 C       -0.9500     2.6370     0.7840 C.ar  1 <1>  -0.1500 
  8 C       -2.0320     3.2020    -1.2670 C.ar  1 <1>  -0.1500 
  9 C       -3.9350    -1.8060    -0.4360 C.3   1 <1>   0.4230 
 10 C       -5.1280     0.2520     0.4080 C.3   1 <1>  -0.1600 
 11 C       -0.6090     3.9660     0.9600 C.ar  1 <1>   0.0830 
 12 C       -1.6920     4.5330    -1.0910 C.ar  1 <1>  -0.1500 
 13 N       -3.9210    -3.3040    -0.7050 N.4   1 <1>  -0.9590 
 14 C       -5.3060    -1.2590     0.0670 C.3   1 <1>   0.0000 
 15 O        0.0900     4.3450     2.0400 O.3   1 <1>  -0.5330 
 16 C       -0.9790     4.9180     0.0290 C.ar  1 <1>  -0.1500 
 17 C       -4.8200    -4.0950     0.1960 C.3   1 <1>   0.3430 
 18 C       -4.1360    -3.7080    -2.1330 C.3   1 <1>   0.2630 
 19 C       -5.7170    -2.0180     1.3640 C.3   1 <1>  -0.1600 
 20 C       -6.3910    -1.4390    -1.0330 C.3   1 <1>   0.1200 
 21 C       -5.0210    -3.3820     1.5330 C.3   1 <1>  -0.1600 
 22 O       -7.5670    -0.7870    -0.7060 O.3   1 <1>  -0.6800 
 23 H       -3.9970    -0.9670    -2.4550 H     1 <1>   0.0800 
 24 H       -2.3920    -1.3290    -1.8740 H     1 <1>   0.0800 
 25 H       -4.3590     2.0890    -0.4000 H     1 <1>   0.0800 
 26 H       -5.1740     1.1050    -1.5840 H     1 <1>   0.0800 
 27 H       -0.6520     1.9030     1.5100 H     1 <1>   0.1500 
 28 H       -2.5780     2.9140    -2.1480 H     1 <1>   0.1500 
 29 H       -3.2530    -1.6460     0.3830 H     1 <1>   0.0800 
 30 H       -4.4790     0.3580     1.2600 H     1 <1>   0.0800 
 31 H       -6.0690     0.6940     0.6850 H     1 <1>   0.0800 
 32 H       -1.9780     5.2680    -1.8240 H     1 <1>   0.1500 
 33 H       -2.9590    -3.5860    -0.4600 H     1 <1>   0.4500 
 34 H        0.3410     3.6040     2.6180 H     1 <1>   0.4500 
 35 H       -0.7050     5.9470     0.1840 H     1 <1>   0.1500 
 36 H       -5.7840    -4.2210    -0.2700 H     1 <1>   0.0800 
 37 H       -4.4020    -5.0750     0.3640 H     1 <1>   0.0800 
 38 H       -5.1120    -3.3990    -2.4700 H     1 <1>   0.0800 
 39 H       -4.0630    -4.7800    -2.2310 H     1 <1>   0.0800 
 40 H       -3.3910    -3.2610    -2.7700 H     1 <1>   0.0800 
 41 H       -5.4840    -1.4310     2.2380 H     1 <1>   0.0800 
 42 H       -6.7830    -2.1660     1.3840 H     1 <1>   0.0800 
 43 H       -6.6310    -2.4760    -1.1840 H     1 <1>   0.0800 
 44 H       -6.0710    -1.0240    -1.9720 H     1 <1>   0.0800 
 45 H       -5.6170    -4.0040     2.1800 H     1 <1>   0.0800 
 46 H       -4.0650    -3.2560     2.0120 H     1 <1>   0.0800 
 47 H       -7.9750    -1.1410     0.1090 H     1 <1>   0.4000 
@<TRIPOS>BOND
  1   1   2  2   
  2   2   3  am  
  3   2   4  1   
  4   3   5  1   
  5   3   6  1   
  6   4   7  ar  
  7   4   8  ar  
  8   5   9  1   
  9   5  23  1   
 10   5  24  1   
 11   6  10  1   
 12   6  25  1   
 13   6  26  1   
 14   7  11  ar  
 15   7  27  1   
 16   8  12  ar  
 17   8  28  1   
 18   9  13  1   
 19   9  14  1   
 20   9  29  1   
 21  10  14  1   
 22  10  30  1   
 23  10  31  1   
 24  11  15  1   
 25  11  16  ar  
 26  12  16  ar  
 27  12  32  1   
 28  13  17  1   
 29  13  18  1   
 30  13  33  1   
 31  14  19  1   
 32  14  20  1   
 33  15  34  1   
 34  16  35  1   
 35  17  21  1   
 36  17  36  1   
 37  17  37  1   
 38  18  38  1   
 39  18  39  1   
 40  18  40  1   
 41  19  21  1   
 42  19  41  1   
 43  19  42  1   
 44  20  22  1   
 45  20  43  1   
 46  20  44  1   
 47  21  45  1   
 48  21  46  1   
 49  22  47  1   
@<TRIPOS>SUBSTRUCTURE
  1 ****   3 GROUP 4 **** **** 0

# MOE 2024.06 (io_trps.svl 2023.06)
