@<TRIPOS>MOLECULE
NONAME
41 43 1 0 0 
SMALL
USER_CHARGES


@<TRIPOS>ATOM
  1 S        0.1710     0.1470     1.5140 S.o2  1 <1>   1.4470 
  2 O       -0.3720     1.2710     2.2430 O.2   1 <1>  -0.6500 
  3 O        0.7260    -0.9830     2.2240 O.2   1 <1>  -0.6500 
  4 N        1.4610     0.7940     0.6150 N.am  1 <1>  -0.8490 
  5 C       -1.0230    -0.3940     0.2570 C.ar  1 <1>  -0.0090 
  6 C        2.4330     1.4280     1.5410 C.3   1 <1>   0.1960 
  7 C        2.1260    -0.2230    -0.2170 C.3   1 <1>   0.1960 
  8 C       -1.7890     0.5370    -0.4430 C.ar  1 <1>  -0.1500 
  9 C       -1.1810    -1.7450    -0.0500 C.ar  1 <1>  -0.1500 
 10 C        3.5410     2.3020     0.8840 C.3   1 <1>   0.4230 
 11 C        3.0760     0.4070    -1.2580 C.3   1 <1>  -0.0800 
 12 C       -2.6830     0.1400    -1.4250 C.ar  1 <1>  -0.1500 
 13 C       -2.0680    -2.1620    -1.0290 C.ar  1 <1>  -0.1500 
 14 N        3.1860     2.8730    -0.4780 N.4   1 <1>  -0.9590 
 15 C        4.9110     1.5890     0.8700 C.3   1 <1>   0.1200 
 16 C        4.5620     0.1390    -0.9760 C.3   1 <1>   0.1200 
 17 C        2.7600     1.8850    -1.5320 C.3   1 <1>   0.3430 
 18 C       -2.8040    -1.2070    -1.7020 C.ar  1 <1>   0.1900 
 19 C        2.1060     3.8980    -0.3220 C.3   1 <1>   0.2630 
 20 O        4.8420     0.2900     0.3740 O.3   1 <1>  -0.5600 
 21 F       -3.6390    -1.5900    -2.6280 F     1 <1>  -0.1900 
 22 H        1.8990     2.0800     2.2110 H     1 <1>   0.0800 
 23 H        2.8880     0.6720     2.1620 H     1 <1>   0.0800 
 24 H        2.6470    -0.9370     0.4030 H     1 <1>   0.0800 
 25 H        1.3750    -0.7730    -0.7600 H     1 <1>   0.0800 
 26 H       -1.6910     1.5840    -0.2110 H     1 <1>   0.1500 
 27 H       -0.6060    -2.4830     0.4870 H     1 <1>   0.1500 
 28 H        3.6820     3.1400     1.5460 H     1 <1>   0.0800 
 29 H        2.8740    -0.1020    -2.1840 H     1 <1>   0.0800 
 30 H       -3.2790     0.8550    -1.9650 H     1 <1>   0.1500 
 31 H       -2.1930    -3.2040    -1.2660 H     1 <1>   0.1500 
 32 H        4.0280     3.3480    -0.8290 H     1 <1>   0.4500 
 33 H        5.2660     1.5040     1.8830 H     1 <1>   0.0800 
 34 H        5.6430     2.1440     0.3100 H     1 <1>   0.0800 
 35 H        5.2140     0.7740    -1.5540 H     1 <1>   0.0800 
 36 H        4.7920    -0.8850    -1.2190 H     1 <1>   0.0800 
 37 H        1.6920     1.9580    -1.6650 H     1 <1>   0.0800 
 38 H        3.2120     2.1650    -2.4700 H     1 <1>   0.0800 
 39 H        1.2050     3.4310     0.0460 H     1 <1>   0.0800 
 40 H        1.8900     4.3630    -1.2700 H     1 <1>   0.0800 
 41 H        2.4070     4.6620     0.3750 H     1 <1>   0.0800 
@<TRIPOS>BOND
  1   1   2  2   
  2   1   3  2   
  3   1   4  am  
  4   1   5  1   
  5   4   6  1   
  6   4   7  1   
  7   5   8  ar  
  8   5   9  ar  
  9   6  10  1   
 10   6  22  1   
 11   6  23  1   
 12   7  11  1   
 13   7  24  1   
 14   7  25  1   
 15   8  12  ar  
 16   8  26  1   
 17   9  13  ar  
 18   9  27  1   
 19  10  14  1   
 20  10  15  1   
 21  10  28  1   
 22  11  16  1   
 23  11  17  1   
 24  11  29  1   
 25  12  18  ar  
 26  12  30  1   
 27  13  18  ar  
 28  13  31  1   
 29  14  17  1   
 30  14  19  1   
 31  14  32  1   
 32  15  20  1   
 33  15  33  1   
 34  15  34  1   
 35  16  20  1   
 36  16  35  1   
 37  16  36  1   
 38  17  37  1   
 39  17  38  1   
 40  18  21  1   
 41  19  39  1   
 42  19  40  1   
 43  19  41  1   
@<TRIPOS>SUBSTRUCTURE
  1 ****   4 GROUP 4 **** **** 0

# MOE 2024.06 (io_trps.svl 2023.06)
