@<TRIPOS>MOLECULE
NONAME
45 47 1 0 0 
SMALL
USER_CHARGES


@<TRIPOS>ATOM
  1 F       -1.4420    -1.2930     2.5940 F     1 <1>  -0.3400 
  2 C       -0.4880    -2.2180     2.5510 C.3   1 <1>   1.0200 
  3 F       -0.1200    -2.4210     3.8100 F     1 <1>  -0.3400 
  4 F        0.5510    -1.6580     1.9440 F     1 <1>  -0.3400 
  5 C       -0.9600    -3.5400     1.8770 C.3   1 <1>   0.1100 
  6 N       -1.2030    -3.5640     0.3960 N.3   1 <1>  -0.8100 
  7 C       -2.3140    -2.6750    -0.0250 C.3   1 <1>   0.1100 
  8 C       -1.4590    -4.9450    -0.0760 C.3   1 <1>   0.1100 
  9 C       -2.5360    -2.6940    -1.5500 C.3   1 <1>   0.2090 
 10 C       -1.6540    -5.0180    -1.6020 C.3   1 <1>   0.2090 
 11 N       -2.7320    -4.0850    -2.0550 N.pl3 1 <1>  -0.8380 
 12 C       -4.0110    -4.5460    -2.3290 C.ar  1 <1>   0.4100 
 13 N       -4.4200    -5.6120    -1.6590 N.ar  1 <1>  -0.6200 
 14 C       -4.8210    -3.8910    -3.2700 C.ar  1 <1>   0.1600 
 15 C       -5.6700    -5.9990    -1.9660 C.ar  1 <1>   0.3960 
 16 N       -6.0520    -4.2380    -3.5850 N.ar  1 <1>  -0.6200 
 17 C       -6.2750    -7.1670    -1.3270 C.2   1 <1>   0.5440 
 18 C       -6.4370    -5.3120    -2.9110 C.ar  1 <1>   0.1600 
 19 O       -6.9560    -7.9170    -2.0070 O.2   1 <1>  -0.5700 
 20 N       -6.1410    -7.4710     0.0180 N.am  1 <1>  -0.6600 
 21 C       -6.4080    -8.8400     0.5530 C.3   1 <1>   0.1400 
 22 C       -5.5720    -6.5650     1.0580 C.3   1 <1>   0.1400 
 23 C       -5.1500    -9.3870     1.2510 C.3   1 <1>   0.1200 
 24 C       -4.3370    -7.2230     1.6920 C.3   1 <1>   0.1200 
 25 O       -4.6670    -8.4820     2.2090 O.3   1 <1>  -0.5600 
 26 H       -1.8530    -3.8580     2.3830 H     1 <1>   0.0800 
 27 H       -0.1960    -4.2650     2.0930 H     1 <1>   0.0800 
 28 H       -2.0960    -1.6610     0.2590 H     1 <1>   0.0800 
 29 H       -3.2260    -2.9730     0.4620 H     1 <1>   0.0800 
 30 H       -2.3430    -5.3350     0.3980 H     1 <1>   0.0800 
 31 H       -0.6290    -5.5750     0.1910 H     1 <1>   0.0800 
 32 H       -1.6780    -2.2610    -2.0350 H     1 <1>   0.0800 
 33 H       -3.3920    -2.0870    -1.7880 H     1 <1>   0.0800 
 34 H       -1.8930    -6.0270    -1.8890 H     1 <1>   0.0800 
 35 H       -0.7320    -4.7500    -2.0870 H     1 <1>   0.0800 
 36 H       -4.4000    -3.0430    -3.7760 H     1 <1>   0.1500 
 37 H       -7.4270    -5.6820    -3.1170 H     1 <1>   0.1500 
 38 H       -6.6920    -9.5110    -0.2380 H     1 <1>   0.0800 
 39 H       -7.2190    -8.7950     1.2580 H     1 <1>   0.0800 
 40 H       -6.3110    -6.4010     1.8230 H     1 <1>   0.0800 
 41 H       -5.3110    -5.6070     0.6510 H     1 <1>   0.0800 
 42 H       -4.3720    -9.5710     0.5300 H     1 <1>   0.0800 
 43 H       -5.3780   -10.3090     1.7560 H     1 <1>   0.0800 
 44 H       -3.9700    -6.6210     2.5040 H     1 <1>   0.0800 
 45 H       -3.5570    -7.3420     0.9610 H     1 <1>   0.0800 
@<TRIPOS>BOND
  1   1   2  1   
  2   2   3  1   
  3   2   4  1   
  4   2   5  1   
  5   5   6  1   
  6   5  26  1   
  7   5  27  1   
  8   6   7  1   
  9   6   8  1   
 10   7   9  1   
 11   7  28  1   
 12   7  29  1   
 13   8  10  1   
 14   8  30  1   
 15   8  31  1   
 16   9  11  1   
 17   9  32  1   
 18   9  33  1   
 19  10  11  1   
 20  10  34  1   
 21  10  35  1   
 22  11  12  1   
 23  12  13  ar  
 24  12  14  ar  
 25  13  15  ar  
 26  14  16  ar  
 27  14  36  1   
 28  15  17  1   
 29  15  18  ar  
 30  16  18  ar  
 31  17  19  2   
 32  17  20  am  
 33  18  37  1   
 34  20  21  1   
 35  20  22  1   
 36  21  23  1   
 37  21  38  1   
 38  21  39  1   
 39  22  24  1   
 40  22  40  1   
 41  22  41  1   
 42  23  25  1   
 43  23  42  1   
 44  23  43  1   
 45  24  25  1   
 46  24  44  1   
 47  24  45  1   
@<TRIPOS>SUBSTRUCTURE
  1 ****  13 GROUP 4 **** **** 0

# MOE 2024.06 (io_trps.svl 2023.06)
