@<TRIPOS>MOLECULE
NONAME
49 52 1 0 0 
SMALL
USER_CHARGES


@<TRIPOS>ATOM
  1 O        0.7260    -0.1530     1.6170 O.3   1 <1>  -0.5600 
  2 C        0.5120    -1.4520     1.1300 C.3   1 <1>   0.1200 
  3 C        1.4980     0.6400     0.7670 C.3   1 <1>   0.1200 
  4 C        1.8490    -2.1850     0.8870 C.3   1 <1>   0.3340 
  5 C        2.8850     0.0000     0.5700 C.3   1 <1>   0.1900 
  6 N        2.7520    -1.3740     0.0270 N.3   1 <1>  -0.8100 
  7 C        1.5890    -3.5460     0.2480 C.ar  1 <1>  -0.1440 
  8 C        3.7480     0.8660    -0.3710 C.3   1 <1>   0.3430 
  9 C        4.0760    -2.0100    -0.1490 C.3   1 <1>   0.1100 
 10 C        1.7880    -4.7090     0.9800 C.ar  1 <1>  -0.1500 
 11 C        1.1560    -3.6440    -1.0680 C.ar  1 <1>  -0.1500 
 12 N        5.0930     0.2400    -0.6400 N.4   1 <1>  -0.9590 
 13 C        4.9680    -1.1840    -1.0960 C.3   1 <1>   0.3430 
 14 C        1.5620    -5.9470     0.4040 C.ar  1 <1>  -0.1500 
 15 C        0.9290    -4.8810    -1.6440 C.ar  1 <1>  -0.1500 
 16 C        5.9350     1.0650    -1.5390 C.3   1 <1>   0.4860 
 17 C        1.1330    -6.0340    -0.9080 C.ar  1 <1>  -0.1500 
 18 C        6.2020     2.3930    -0.8640 C.ar  1 <1>  -0.1440 
 19 C        6.7840     2.4290     0.4040 C.ar  1 <1>   0.4100 
 20 C        5.8560     3.5800    -1.4740 C.ar  1 <1>  -0.1500 
 21 N        7.0040     3.5240     1.0920 N.ar  1 <1>  -0.6200 
 22 N        7.1650     1.3100     1.0730 N.pl3 1 <1>  -0.9000 
 23 C        6.1030     4.7400    -0.7660 C.ar  1 <1>  -0.1500 
 24 C        6.6670     4.6560     0.4950 C.ar  1 <1>   0.1600 
 25 H       -0.0720    -1.9860     1.8580 H     1 <1>   0.0800 
 26 H       -0.0550    -1.3890     0.2180 H     1 <1>   0.0800 
 27 H        0.9790     0.7430    -0.1710 H     1 <1>   0.0800 
 28 H        1.5880     1.6090     1.2260 H     1 <1>   0.0800 
 29 H        2.3160    -2.3330     1.8460 H     1 <1>   0.0800 
 30 H        3.3660    -0.0360     1.5340 H     1 <1>   0.0800 
 31 H        3.8810     1.8390     0.0730 H     1 <1>   0.0800 
 32 H        3.2150     0.9910    -1.2980 H     1 <1>   0.0800 
 33 H        4.5630    -2.1240     0.8050 H     1 <1>   0.0800 
 34 H        3.9550    -2.9920    -0.5750 H     1 <1>   0.0800 
 35 H        2.1180    -4.6620     2.0030 H     1 <1>   0.1500 
 36 H        0.9980    -2.7520    -1.6480 H     1 <1>   0.1500 
 37 H        5.6150     0.2580     0.2580 H     1 <1>   0.4500 
 38 H        4.5290    -1.2130    -2.0790 H     1 <1>   0.0800 
 39 H        5.9430    -1.6410    -1.1510 H     1 <1>   0.0800 
 40 H        1.7180    -6.8450     0.9780 H     1 <1>   0.1500 
 41 H        0.5920    -4.9480    -2.6640 H     1 <1>   0.1500 
 42 H        6.8740     0.5680    -1.7210 H     1 <1>   0.0800 
 43 H        5.4360     1.2180    -2.4820 H     1 <1>   0.0800 
 44 H        0.9570    -6.9970    -1.3550 H     1 <1>   0.1500 
 45 H        5.4120     3.6260    -2.4550 H     1 <1>   0.1500 
 46 H        7.1650     1.5390     2.0760 H     1 <1>   0.4000 
 47 H        8.1450     1.0790     0.8770 H     1 <1>   0.4000 
 48 H        5.8600     5.7010    -1.1840 H     1 <1>   0.1500 
 49 H        6.8510     5.5680     1.0400 H     1 <1>   0.1500 
@<TRIPOS>BOND
  1   1   2  1   
  2   1   3  1   
  3   2   4  1   
  4   2  25  1   
  5   2  26  1   
  6   3   5  1   
  7   3  27  1   
  8   3  28  1   
  9   4   6  1   
 10   4   7  1   
 11   4  29  1   
 12   5   6  1   
 13   5   8  1   
 14   5  30  1   
 15   6   9  1   
 16   7  10  ar  
 17   7  11  ar  
 18   8  12  1   
 19   8  31  1   
 20   8  32  1   
 21   9  13  1   
 22   9  33  1   
 23   9  34  1   
 24  10  14  ar  
 25  10  35  1   
 26  11  15  ar  
 27  11  36  1   
 28  12  13  1   
 29  12  16  1   
 30  12  37  1   
 31  13  38  1   
 32  13  39  1   
 33  14  17  ar  
 34  14  40  1   
 35  15  17  ar  
 36  15  41  1   
 37  16  18  1   
 38  16  42  1   
 39  16  43  1   
 40  17  44  1   
 41  18  19  ar  
 42  18  20  ar  
 43  19  21  ar  
 44  19  22  1   
 45  20  23  ar  
 46  20  45  1   
 47  21  24  ar  
 48  22  46  1   
 49  22  47  1   
 50  23  24  ar  
 51  23  48  1   
 52  24  49  1   
@<TRIPOS>SUBSTRUCTURE
  1 ****   5 GROUP 4 **** **** 0

# MOE 2024.06 (io_trps.svl 2023.06)
