@<TRIPOS>MOLECULE
NONAME
48 50 1 0 0 
SMALL
USER_CHARGES


@<TRIPOS>ATOM
  1 O       -4.8910    -0.4850    -2.7190 O.2   1 <1>  -0.5700 
  2 C       -4.2200    -0.9520    -1.8340 C.2   1 <1>   0.5690 
  3 N       -3.5640    -0.1710    -0.9240 N.am  1 <1>  -0.6600 
  4 C       -4.1590    -2.4530    -1.7310 C.3   1 <1>  -0.0190 
  5 C       -2.7890    -0.7380     0.2170 C.3   1 <1>   0.2200 
  6 C       -3.5520     1.3190    -1.0470 C.3   1 <1>   0.0600 
  7 C       -2.7200    -2.9940    -1.8640 C.3   1 <1>   0.1200 
  8 C       -4.9560    -2.8920    -0.5000 C.3   1 <1>   0.3430 
  9 C       -1.6020    -1.5920    -0.2890 C.3   1 <1>   0.1200 
 10 C       -3.7240    -1.4750     1.2150 C.3   1 <1>   0.3430 
 11 O       -1.9810    -2.8860    -0.6780 O.3   1 <1>  -0.5600 
 12 N       -4.1850    -2.8410     0.7870 N.4   1 <1>  -0.9590 
 13 C       -4.8910    -3.5670     1.8790 C.3   1 <1>   0.4860 
 14 C       -5.0590    -5.0230     1.4920 C.ar  1 <1>  -0.1440 
 15 C       -6.2760    -5.4580     0.9780 C.ar  1 <1>   0.0820 
 16 C       -4.0100    -5.9180     1.6350 C.ar  1 <1>  -0.1500 
 17 O       -7.2570    -4.5300     0.8390 O.3   1 <1>  -0.3620 
 18 C       -6.4360    -6.7920     0.6190 C.ar  1 <1>  -0.1500 
 19 C       -4.1720    -7.2420     1.2690 C.ar  1 <1>  -0.1500 
 20 C       -8.2700    -4.6440    -0.1430 C.3   1 <1>   0.2580 
 21 C       -5.3840    -7.6780     0.7630 C.ar  1 <1>  -0.1500 
 22 C       -7.6390    -4.4860    -1.5180 C.2   1 <1>  -0.2880 
 23 C       -7.7990    -3.4320    -2.3250 C.2   1 <1>  -0.3000 
 24 H       -4.6970    -2.8240    -2.5840 H     1 <1>   0.0800 
 25 H       -2.3620     0.0950     0.7500 H     1 <1>   0.0800 
 26 H       -3.9980     1.7660    -0.1750 H     1 <1>   0.0800 
 27 H       -4.1070     1.6410    -1.9120 H     1 <1>   0.0800 
 28 H       -2.5400     1.6710    -1.1480 H     1 <1>   0.0800 
 29 H       -2.1890    -2.4870    -2.6530 H     1 <1>   0.0800 
 30 H       -2.7560    -4.0420    -2.1100 H     1 <1>   0.0800 
 31 H       -5.2650    -3.9090    -0.6760 H     1 <1>   0.0800 
 32 H       -5.8510    -2.2970    -0.4200 H     1 <1>   0.0800 
 33 H       -0.8880    -1.7110     0.5080 H     1 <1>   0.0800 
 34 H       -1.1010    -1.1080    -1.1110 H     1 <1>   0.0800 
 35 H       -4.5780    -0.8470     1.4070 H     1 <1>   0.0800 
 36 H       -3.1840    -1.5790     2.1410 H     1 <1>   0.0800 
 37 H       -3.3180    -3.3680     0.5670 H     1 <1>   0.4500 
 38 H       -4.3190    -3.5120     2.7900 H     1 <1>   0.0800 
 39 H       -5.8560    -3.1210     2.0570 H     1 <1>   0.0800 
 40 H       -3.0590    -5.6020     2.0320 H     1 <1>   0.1500 
 41 H       -7.3670    -7.1620     0.2320 H     1 <1>   0.1500 
 42 H       -3.3570    -7.9380     1.3810 H     1 <1>   0.1500 
 43 H       -8.7820    -5.5830    -0.0340 H     1 <1>   0.0800 
 44 H       -8.9750    -3.8510     0.0350 H     1 <1>   0.0800 
 45 H       -5.5070    -8.7120     0.4850 H     1 <1>   0.1500 
 46 H       -7.0350    -5.3350    -1.7920 H     1 <1>   0.1500 
 47 H       -7.3510    -3.3440    -3.3010 H     1 <1>   0.1500 
 48 H       -8.3980    -2.5670    -2.0910 H     1 <1>   0.1500 
@<TRIPOS>BOND
  1   1   2  2   
  2   2   3  am  
  3   2   4  1   
  4   3   5  1   
  5   3   6  1   
  6   4   7  1   
  7   4   8  1   
  8   4  24  1   
  9   5   9  1   
 10   5  10  1   
 11   5  25  1   
 12   6  26  1   
 13   6  27  1   
 14   6  28  1   
 15   7  11  1   
 16   7  29  1   
 17   7  30  1   
 18   8  12  1   
 19   8  31  1   
 20   8  32  1   
 21   9  11  1   
 22   9  33  1   
 23   9  34  1   
 24  10  12  1   
 25  10  35  1   
 26  10  36  1   
 27  12  13  1   
 28  12  37  1   
 29  13  14  1   
 30  13  38  1   
 31  13  39  1   
 32  14  15  ar  
 33  14  16  ar  
 34  15  17  1   
 35  15  18  ar  
 36  16  19  ar  
 37  16  40  1   
 38  17  20  1   
 39  18  21  ar  
 40  18  41  1   
 41  19  21  ar  
 42  19  42  1   
 43  20  22  1   
 44  20  43  1   
 45  20  44  1   
 46  21  45  1   
 47  22  23  2   
 48  22  46  1   
 49  23  47  1   
 50  23  48  1   
@<TRIPOS>SUBSTRUCTURE
  1 ****   8 GROUP 4 **** **** 0

# MOE 2024.06 (io_trps.svl 2023.06)
