@<TRIPOS>MOLECULE
NONAME
47 50 1 0 0 
SMALL
USER_CHARGES


@<TRIPOS>ATOM
  1 O        1.2900     0.0660     0.8390 O.3   1 <1>  -0.6800 
  2 C        1.7230    -0.1770    -0.4640 C.3   1 <1>   0.2000 
  3 C        2.6650    -1.3830    -0.4900 C.3   1 <1>  -0.0800 
  4 C        2.6430     0.9710    -0.8880 C.3   1 <1>   0.3430 
  5 C        4.0350    -0.8160    -0.0900 C.3   1 <1>   0.3430 
  6 C        2.2480    -2.5900     0.3710 C.3   1 <1>   0.0210 
  7 N        3.9630     0.6630    -0.2650 N.4   1 <1>  -0.9590 
  8 C        3.2460    -3.7260     0.2420 C.2   1 <1>   0.1080 
  9 C        4.1130     1.3790     1.0380 C.3   1 <1>   0.4860 
 10 N        4.4950    -3.6070     0.5740 N.2   1 <1>  -0.7070 
 11 C        2.9460    -4.9970    -0.2320 C.2   1 <1>  -0.1500 
 12 C        4.4030     2.8550     0.7760 C.ar  1 <1>   0.1670 
 13 N        5.0290    -4.8220     0.3270 N.pl3 1 <1>   0.3000 
 14 C        4.1090    -5.6770    -0.1660 C.2   1 <1>  -0.3320 
 15 N        5.1650     3.1490    -0.2410 N.ar  1 <1>  -0.6200 
 16 C        3.8330     3.8180     1.6240 C.ar  1 <1>  -0.1500 
 17 C        4.4030    -7.1170    -0.5450 C.3   1 <1>  -0.0600 
 18 C        5.4270     4.4630    -0.4770 C.ar  1 <1>   0.3100 
 19 C        4.0730     5.1400     1.4030 C.ar  1 <1>  -0.1500 
 20 C        4.8940     5.4990     0.3210 C.ar  1 <1>   0.0000 
 21 C        6.2560     4.8100    -1.5560 C.ar  1 <1>  -0.1500 
 22 C        5.2050     6.8360     0.0050 C.ar  1 <1>  -0.1500 
 23 C        6.5470     6.1170    -1.8450 C.ar  1 <1>  -0.1500 
 24 C        6.0140     7.1400    -1.0560 C.ar  1 <1>  -0.1500 
 25 H        0.5420    -0.5220     1.0790 H     1 <1>   0.4000 
 26 H        0.8640    -0.2770    -1.1070 H     1 <1>   0.0800 
 27 H        2.7510    -1.7180    -1.5090 H     1 <1>   0.0800 
 28 H        2.2550     1.9270    -0.5780 H     1 <1>   0.0800 
 29 H        2.7460     0.9620    -1.9600 H     1 <1>   0.0800 
 30 H        4.8090    -1.2480    -0.7040 H     1 <1>   0.0800 
 31 H        4.2410    -1.0630     0.9390 H     1 <1>   0.0800 
 32 H        1.2770    -2.9390     0.0670 H     1 <1>   0.0800 
 33 H        2.1950    -2.3170     1.4100 H     1 <1>   0.0800 
 34 H        4.7250     1.0460    -0.8500 H     1 <1>   0.4500 
 35 H        3.2200     1.2710     1.6310 H     1 <1>   0.0800 
 36 H        4.9430     0.9640     1.5860 H     1 <1>   0.0800 
 37 H        1.9860    -5.3470    -0.5700 H     1 <1>   0.1500 
 38 H        6.0170    -5.0410     0.5080 H     1 <1>   0.2700 
 39 H        3.2100     3.5090     2.4460 H     1 <1>   0.1500 
 40 H        3.5100    -7.5930    -0.9100 H     1 <1>   0.0800 
 41 H        4.7540    -7.6640     0.3120 H     1 <1>   0.0800 
 42 H        5.1510    -7.1560    -1.3170 H     1 <1>   0.0800 
 43 H        3.6550     5.9100     2.0290 H     1 <1>   0.1500 
 44 H        6.6610     4.0150    -2.1530 H     1 <1>   0.1500 
 45 H        4.7940     7.6210     0.6160 H     1 <1>   0.1500 
 46 H        7.1850     6.3720    -2.6750 H     1 <1>   0.1500 
 47 H        6.2510     8.1630    -1.2950 H     1 <1>   0.1500 
@<TRIPOS>BOND
  1   1   2  1   
  2   1  25  1   
  3   2   3  1   
  4   2   4  1   
  5   2  26  1   
  6   3   5  1   
  7   3   6  1   
  8   3  27  1   
  9   4   7  1   
 10   4  28  1   
 11   4  29  1   
 12   5   7  1   
 13   5  30  1   
 14   5  31  1   
 15   6   8  1   
 16   6  32  1   
 17   6  33  1   
 18   7   9  1   
 19   7  34  1   
 20   8  10  2   
 21   8  11  1   
 22   9  12  1   
 23   9  35  1   
 24   9  36  1   
 25  10  13  1   
 26  11  14  2   
 27  11  37  1   
 28  12  15  ar  
 29  12  16  ar  
 30  13  14  1   
 31  13  38  1   
 32  14  17  1   
 33  15  18  ar  
 34  16  19  ar  
 35  16  39  1   
 36  17  40  1   
 37  17  41  1   
 38  17  42  1   
 39  18  20  ar  
 40  18  21  ar  
 41  19  20  ar  
 42  19  43  1   
 43  20  22  ar  
 44  21  23  ar  
 45  21  44  1   
 46  22  24  ar  
 47  22  45  1   
 48  23  24  ar  
 49  23  46  1   
 50  24  47  1   
@<TRIPOS>SUBSTRUCTURE
  1 ****   7 GROUP 4 **** **** 0

# MOE 2024.06 (io_trps.svl 2023.06)
