@<TRIPOS>MOLECULE
NONAME
36 37 1 0 0 
SMALL
USER_CHARGES


@<TRIPOS>ATOM
  1 F       -0.3380    -0.1160    -0.9450 F     1 <1>  -0.3400 
  2 C       -1.5260    -0.3020    -0.3840 C.3   1 <1>   1.0200 
  3 F       -1.4450     0.1980     0.8430 F     1 <1>  -0.3400 
  4 F       -2.3750     0.4740    -1.0490 F     1 <1>  -0.3400 
  5 C       -1.9430    -1.8030    -0.4080 C.3   1 <1>   0.1100 
  6 N       -3.1520    -2.2470     0.3710 N.3   1 <1>  -0.8100 
  7 C       -4.4100    -1.6340    -0.1030 C.3   1 <1>   0.1100 
  8 C       -3.2620    -3.7220     0.3710 C.3   1 <1>   0.1100 
  9 C       -5.6200    -2.0850     0.7420 C.3   1 <1>   0.2090 
 10 C       -4.4470    -4.2090     1.2250 C.3   1 <1>   0.2090 
 11 N       -5.7450    -3.5860     0.7700 N.pl3 1 <1>  -0.8380 
 12 C       -6.8260    -4.3410     0.4340 C.ar  1 <1>   0.7710 
 13 N       -6.7060    -5.6600     0.3610 N.ar  1 <1>  -0.6200 
 14 N       -7.9990    -3.7310     0.1850 N.ar  1 <1>  -0.1790 
 15 C       -7.7620    -6.3620     0.0310 C.ar  1 <1>   0.4100 
 16 C       -9.1100    -4.4270    -0.1590 C.ar  1 <1>   0.2110 
 17 N       -7.5690    -7.6820    -0.0250 N.pl3 1 <1>  -0.9000 
 18 C       -9.0170    -5.7770    -0.2480 C.ar  1 <1>  -0.1440 
 19 C      -10.2170    -6.6410    -0.6310 C.3   1 <1>  -0.0970 
 20 H       -1.0950    -2.3460    -0.0300 H     1 <1>   0.0800 
 21 H       -2.0660    -2.0840    -1.4380 H     1 <1>   0.0800 
 22 H       -4.5770    -1.8890    -1.1360 H     1 <1>   0.0800 
 23 H       -4.3390    -0.5630    -0.0280 H     1 <1>   0.0800 
 24 H       -2.3580    -4.1460     0.7730 H     1 <1>   0.0800 
 25 H       -3.3820    -4.0850    -0.6360 H     1 <1>   0.0800 
 26 H       -6.5010    -1.6190     0.3420 H     1 <1>   0.0800 
 27 H       -5.4820    -1.7240     1.7480 H     1 <1>   0.0800 
 28 H       -4.2650    -3.9370     2.2500 H     1 <1>   0.0800 
 29 H       -4.4780    -5.2840     1.1830 H     1 <1>   0.0800 
 30 H       -8.0020    -2.7260     0.2980 H     1 <1>   0.4570 
 31 H      -10.0260    -3.8900    -0.3480 H     1 <1>   0.1500 
 32 H       -8.2830    -8.3710    -0.2660 H     1 <1>   0.4000 
 33 H       -6.6470    -8.0740     0.1850 H     1 <1>   0.4000 
 34 H      -10.0010    -7.1970    -1.5260 H     1 <1>   0.0800 
 35 H      -11.0920    -6.0410    -0.8090 H     1 <1>   0.0800 
 36 H      -10.4400    -7.3360     0.1610 H     1 <1>   0.0800 
@<TRIPOS>BOND
  1   1   2  1   
  2   2   3  1   
  3   2   4  1   
  4   2   5  1   
  5   5   6  1   
  6   5  20  1   
  7   5  21  1   
  8   6   7  1   
  9   6   8  1   
 10   7   9  1   
 11   7  22  1   
 12   7  23  1   
 13   8  10  1   
 14   8  24  1   
 15   8  25  1   
 16   9  11  1   
 17   9  26  1   
 18   9  27  1   
 19  10  11  1   
 20  10  28  1   
 21  10  29  1   
 22  11  12  1   
 23  12  13  ar  
 24  12  14  ar  
 25  13  15  ar  
 26  14  16  ar  
 27  14  30  1   
 28  15  17  1   
 29  15  18  ar  
 30  16  18  ar  
 31  16  31  1   
 32  17  32  1   
 33  17  33  1   
 34  18  19  1   
 35  19  34  1   
 36  19  35  1   
 37  19  36  1   
@<TRIPOS>SUBSTRUCTURE
  1 ****  11 GROUP 4 **** **** 0

# MOE 2024.06 (io_trps.svl 2023.06)
