@<TRIPOS>MOLECULE
NONAME
52 54 1 0 0 
SMALL
USER_CHARGES


@<TRIPOS>ATOM
  1 O       -0.4680     0.2270     0.7270 O.2   1 <1>  -0.5700 
  2 C       -1.4940     0.7790     0.4000 C.2   1 <1>   0.5690 
  3 N       -2.5970     0.0750     0.0020 N.am  1 <1>  -0.6600 
  4 C       -1.4990     2.3180     0.4330 C.3   1 <1>   0.4040 
  5 C       -3.9230     0.6230    -0.3940 C.3   1 <1>   0.1400 
  6 C       -2.6370    -1.4120     0.0140 C.3   1 <1>   0.1400 
  7 N       -0.1130     2.9230     0.3760 N.4   1 <1>  -0.9590 
  8 C       -4.7490    -0.5950    -0.8070 C.3   1 <1>   0.2000 
  9 C       -4.1200    -1.7760    -0.0760 C.3   1 <1>  -0.0800 
 10 C       -0.0870     4.3560     0.7800 C.3   1 <1>   0.3430 
 11 C        0.5380     2.6770    -0.9430 C.3   1 <1>   0.3430 
 12 O       -6.0750    -0.4470    -0.4400 O.3   1 <1>  -0.6800 
 13 C       -4.3830    -3.1270    -0.7600 C.3   1 <1>   0.0210 
 14 C        1.3610     4.8420     0.8530 C.3   1 <1>  -0.1600 
 15 C        1.9930     3.1430    -0.8920 C.3   1 <1>  -0.1600 
 16 C       -3.6280    -4.2430    -0.0650 C.2   1 <1>   0.1080 
 17 C        2.1050     4.6150    -0.4710 C.3   1 <1>  -0.0800 
 18 N       -3.7460    -4.4880     1.2030 N.2   1 <1>  -0.7070 
 19 C       -2.7310    -5.1070    -0.6860 C.2   1 <1>  -0.1500 
 20 C        3.5750     5.0280    -0.3410 C.3   1 <1>  -0.2400 
 21 N       -2.9210    -5.5290     1.4270 N.pl3 1 <1>   0.3000 
 22 C       -2.2930    -5.9190     0.2980 C.2   1 <1>  -0.3320 
 23 C       -1.2980    -7.0630     0.2280 C.3   1 <1>  -0.0600 
 24 H       -1.9810     2.6170     1.3470 H     1 <1>   0.0800 
 25 H       -2.0870     2.6810    -0.3910 H     1 <1>   0.0800 
 26 H       -4.3770     1.1120     0.4510 H     1 <1>   0.0800 
 27 H       -3.8280     1.3050    -1.2210 H     1 <1>   0.0800 
 28 H       -2.0970    -1.7880    -0.8390 H     1 <1>   0.0800 
 29 H       -2.1950    -1.8100     0.9140 H     1 <1>   0.0800 
 30 H        0.4430     2.3760     1.0550 H     1 <1>   0.4500 
 31 H       -4.7050    -0.7200    -1.8750 H     1 <1>   0.0800 
 32 H       -4.4920    -1.8180     0.9340 H     1 <1>   0.0800 
 33 H       -0.6270     4.9480     0.0590 H     1 <1>   0.0800 
 34 H       -0.5540     4.4790     1.7440 H     1 <1>   0.0800 
 35 H        0.5120     1.6230    -1.1780 H     1 <1>   0.0800 
 36 H        0.0160     3.2140    -1.7180 H     1 <1>   0.0800 
 37 H       -6.2060    -0.6960     0.4960 H     1 <1>   0.4000 
 38 H       -4.0850    -3.0870    -1.7910 H     1 <1>   0.0800 
 39 H       -5.4340    -3.3500    -0.7240 H     1 <1>   0.0800 
 40 H        1.3630     5.8920     1.0890 H     1 <1>   0.0800 
 41 H        1.8660     4.3320     1.6550 H     1 <1>   0.0800 
 42 H        2.5390     2.5160    -0.2080 H     1 <1>   0.0800 
 43 H        2.4330     3.0130    -1.8650 H     1 <1>   0.0800 
 44 H        1.6510     5.2290    -1.2340 H     1 <1>   0.0800 
 45 H       -2.4630    -5.1060    -1.7270 H     1 <1>   0.1500 
 46 H        4.0760     4.4430     0.4100 H     1 <1>   0.0800 
 47 H        3.6510     6.0670    -0.0700 H     1 <1>   0.0800 
 48 H        4.0880     4.8900    -1.2780 H     1 <1>   0.0800 
 49 H       -2.8100    -5.9500     2.3580 H     1 <1>   0.2700 
 50 H       -0.9360    -7.1770    -0.7780 H     1 <1>   0.0800 
 51 H       -1.7660    -7.9830     0.5300 H     1 <1>   0.0800 
 52 H       -0.4590    -6.8660     0.8730 H     1 <1>   0.0800 
@<TRIPOS>BOND
  1   1   2  2   
  2   2   3  am  
  3   2   4  1   
  4   3   5  1   
  5   3   6  1   
  6   4   7  1   
  7   4  24  1   
  8   4  25  1   
  9   5   8  1   
 10   5  26  1   
 11   5  27  1   
 12   6   9  1   
 13   6  28  1   
 14   6  29  1   
 15   7  10  1   
 16   7  11  1   
 17   7  30  1   
 18   8   9  1   
 19   8  12  1   
 20   8  31  1   
 21   9  13  1   
 22   9  32  1   
 23  10  14  1   
 24  10  33  1   
 25  10  34  1   
 26  11  15  1   
 27  11  35  1   
 28  11  36  1   
 29  12  37  1   
 30  13  16  1   
 31  13  38  1   
 32  13  39  1   
 33  14  17  1   
 34  14  40  1   
 35  14  41  1   
 36  15  17  1   
 37  15  42  1   
 38  15  43  1   
 39  16  18  2   
 40  16  19  1   
 41  17  20  1   
 42  17  44  1   
 43  18  21  1   
 44  19  22  2   
 45  19  45  1   
 46  20  46  1   
 47  20  47  1   
 48  20  48  1   
 49  21  22  1   
 50  21  49  1   
 51  22  23  1   
 52  23  50  1   
 53  23  51  1   
 54  23  52  1   
@<TRIPOS>SUBSTRUCTURE
  1 ****   3 GROUP 4 **** **** 0

# MOE 2024.06 (io_trps.svl 2023.06)
