@<TRIPOS>MOLECULE
NONAME
43 45 1 0 0 
SMALL
USER_CHARGES


@<TRIPOS>ATOM
  1 S       -0.3960     0.2900    -1.4000 S.3   1 <1>  -0.0800 
  2 C        1.0430    -0.1750    -0.5000 C.2   1 <1>   0.3250 
  3 C       -0.9700    -1.3450    -1.3420 C.2   1 <1>  -0.1100 
  4 N        1.0440    -1.4310    -0.2150 N.2   1 <1>  -0.5650 
  5 C        2.0420     0.8230    -0.1710 C.ar  1 <1>   0.0530 
  6 C       -0.0760    -2.0960    -0.6750 C.2   1 <1>   0.0460 
  7 C        3.1320     0.4780     0.6280 C.ar  1 <1>  -0.1500 
  8 C        1.9860     2.1460    -0.6150 C.ar  1 <1>  -0.1500 
  9 C       -0.1470    -3.5960    -0.3740 C.3   1 <1>   0.5240 
 10 C        4.1090     1.3950     0.9690 C.ar  1 <1>  -0.1500 
 11 C        2.9600     3.0680    -0.2770 C.ar  1 <1>  -0.1500 
 12 N       -1.3420    -4.2410    -1.0280 N.4   1 <1>  -0.9590 
 13 C        4.0380     2.7100     0.5240 C.ar  1 <1>  -0.1430 
 14 C       -1.0530    -5.7070    -1.2510 C.3   1 <1>   0.3430 
 15 C       -2.5510    -3.9790    -0.1710 C.3   1 <1>   0.3430 
 16 C        5.1210     3.7370     0.8940 C.3   1 <1>   1.1630 
 17 C       -1.5380    -6.5750    -0.0970 C.3   1 <1>  -0.1860 
 18 C       -3.6010    -5.0610    -0.3930 C.3   1 <1>  -0.1600 
 19 F        6.0690     3.8140    -0.0310 F     1 <1>  -0.3400 
 20 F        4.6360     4.9650     1.0330 F     1 <1>  -0.3400 
 21 F        5.7370     3.4520     2.0360 F     1 <1>  -0.3400 
 22 C       -0.6630    -6.1680     1.0580 C.2   1 <1>   0.9060 
 23 C       -3.0680    -6.4270     0.0580 C.3   1 <1>   0.2000 
 24 O        0.5520    -6.2120     0.8700 O.co2 1 <1>  -0.9000 
 25 O       -1.1560    -5.5860     2.0290 O.co2 1 <1>  -0.9000 
 26 O       -3.4210    -6.6030     1.3730 O.3   1 <1>  -0.6800 
 27 H       -1.9130    -1.5450    -1.8150 H     1 <1>   0.1500 
 28 H        3.2150    -0.5330     0.9900 H     1 <1>   0.1500 
 29 H        1.1740     2.4750    -1.2370 H     1 <1>   0.1500 
 30 H       -0.1750    -3.7490     0.6940 H     1 <1>   0.0800 
 31 H        0.7580    -4.0570    -0.7320 H     1 <1>   0.0800 
 32 H        4.9300     1.0700     1.5890 H     1 <1>   0.1500 
 33 H        2.8720     4.0780    -0.6460 H     1 <1>   0.1500 
 34 H       -1.4480    -3.7950    -1.9410 H     1 <1>   0.4500 
 35 H       -1.5490    -6.0340    -2.1490 H     1 <1>   0.0800 
 36 H        0.0080    -5.8580    -1.3850 H     1 <1>   0.0800 
 37 H       -2.2700    -3.9920     0.8720 H     1 <1>   0.0800 
 38 H       -2.9610    -3.0080    -0.3910 H     1 <1>   0.0800 
 39 H       -1.3110    -7.6010    -0.3140 H     1 <1>   0.0800 
 40 H       -3.8550    -5.0940    -1.4370 H     1 <1>   0.0800 
 41 H       -4.5000    -4.8210     0.1490 H     1 <1>   0.0800 
 42 H       -3.5740    -7.1980    -0.4990 H     1 <1>   0.0800 
 43 H       -2.6840    -6.2150     1.9370 H     1 <1>   0.4000 
@<TRIPOS>BOND
  1   1   2  1   
  2   1   3  1   
  3   2   4  2   
  4   2   5  1   
  5   3   6  2   
  6   3  27  1   
  7   4   6  1   
  8   5   7  ar  
  9   5   8  ar  
 10   6   9  1   
 11   7  10  ar  
 12   7  28  1   
 13   8  11  ar  
 14   8  29  1   
 15   9  12  1   
 16   9  30  1   
 17   9  31  1   
 18  10  13  ar  
 19  10  32  1   
 20  11  13  ar  
 21  11  33  1   
 22  12  14  1   
 23  12  15  1   
 24  12  34  1   
 25  13  16  1   
 26  14  17  1   
 27  14  35  1   
 28  14  36  1   
 29  15  18  1   
 30  15  37  1   
 31  15  38  1   
 32  16  19  1   
 33  16  20  1   
 34  16  21  1   
 35  17  22  1   
 36  17  23  1   
 37  17  39  1   
 38  18  23  1   
 39  18  40  1   
 40  18  41  1   
 41  22  24  ar  
 42  22  25  ar  
 43  23  26  1   
 44  23  42  1   
 45  26  43  1   
@<TRIPOS>SUBSTRUCTURE
  1 ****   4 GROUP 4 **** **** 0

# MOE 2024.06 (io_trps.svl 2023.06)
