@<TRIPOS>MOLECULE
NONAME
52 55 1 0 0 
SMALL
USER_CHARGES


@<TRIPOS>ATOM
  1 S       -0.6340    -0.7120     0.0200 S.3   1 <1>  -0.0800 
  2 C       -0.7850     0.9700    -0.4640 C.2   1 <1>  -0.1400 
  3 C       -1.4540    -1.2570    -1.4350 C.2   1 <1>  -0.1400 
  4 C       -1.4200     1.0560    -1.6490 C.2   1 <1>  -0.1500 
  5 C       -0.2060     2.0120     0.4830 C.3   1 <1>   0.1000 
  6 C       -1.7990    -0.2070    -2.2030 C.2   1 <1>  -0.1500 
  7 C       -1.6460    -2.7480    -1.5890 C.3   1 <1>   0.5230 
  8 C       -0.3900     3.4530     0.0140 C.3   1 <1>  -0.1600 
  9 C        1.3070     1.8900     0.6510 C.3   1 <1>  -0.1600 
 10 N       -2.4350    -3.2310    -0.4260 N.4   1 <1>  -0.9590 
 11 C        0.6460     4.2500     0.8070 C.3   1 <1>  -0.1600 
 12 C        1.7860     3.2710     1.1100 C.3   1 <1>  -0.1600 
 13 C       -2.3100    -4.7250    -0.2830 C.3   1 <1>   0.3430 
 14 C       -3.8380    -2.7030    -0.4960 C.3   1 <1>   0.3430 
 15 C       -3.0990    -5.3310     0.8960 C.3   1 <1>   0.1400 
 16 C       -4.4350    -2.6030     0.9090 C.3   1 <1>  -0.1600 
 17 N       -4.5560    -5.0920     0.7150 N.am  1 <1>  -0.6600 
 18 C       -5.1060    -3.8910     1.3990 C.3   1 <1>   0.1400 
 19 C       -5.3210    -5.7930    -0.1840 C.2   1 <1>   0.6300 
 20 O       -6.3110    -5.3070    -0.6720 O.2   1 <1>  -0.5700 
 21 C       -4.8960    -7.1810    -0.6520 C.3   1 <1>  -0.1000 
 22 C       -5.8770    -8.3170    -0.6040 C.3   1 <1>  -0.2000 
 23 C       -4.6950    -8.3190     0.3100 C.3   1 <1>  -0.2000 
 24 H       -1.6430     1.9710    -2.1710 H     1 <1>   0.1500 
 25 H       -0.6700     1.9080     1.4500 H     1 <1>   0.0800 
 26 H       -2.3100    -0.2460    -3.1510 H     1 <1>   0.1500 
 27 H       -0.6790    -3.2240    -1.6090 H     1 <1>   0.0800 
 28 H       -2.1590    -2.9660    -2.5120 H     1 <1>   0.0800 
 29 H       -1.3910     3.8090     0.1810 H     1 <1>   0.0800 
 30 H       -0.1550     3.5270    -1.0340 H     1 <1>   0.0800 
 31 H        1.7520     1.6610    -0.3030 H     1 <1>   0.0800 
 32 H        1.5690     1.1190     1.3540 H     1 <1>   0.0800 
 33 H       -2.0000    -2.7770     0.3880 H     1 <1>   0.4500 
 34 H        0.2100     4.5880     1.7320 H     1 <1>   0.0800 
 35 H        0.9920     5.1060     0.2520 H     1 <1>   0.0800 
 36 H        2.6840     3.5490     0.5850 H     1 <1>   0.0800 
 37 H        1.9910     3.2650     2.1680 H     1 <1>   0.0800 
 38 H       -1.2700    -4.9790    -0.1550 H     1 <1>   0.0800 
 39 H       -2.6500    -5.2000    -1.1880 H     1 <1>   0.0800 
 40 H       -4.4570    -3.3280    -1.1230 H     1 <1>   0.0800 
 41 H       -3.8270    -1.7120    -0.9210 H     1 <1>   0.0800 
 42 H       -2.7650    -4.9030     1.8260 H     1 <1>   0.0800 
 43 H       -2.9070    -6.3880     0.9440 H     1 <1>   0.0800 
 44 H       -5.1930    -1.8390     0.8960 H     1 <1>   0.0800 
 45 H       -3.6900    -2.2780     1.6130 H     1 <1>   0.0800 
 46 H       -6.1670    -3.8270     1.2140 H     1 <1>   0.0800 
 47 H       -4.9810    -3.9930     2.4640 H     1 <1>   0.0800 
 48 H       -4.2860    -7.1340    -1.5340 H     1 <1>   0.1000 
 49 H       -5.9040    -9.0110    -1.4270 H     1 <1>   0.1000 
 50 H       -6.8560    -8.1310    -0.1930 H     1 <1>   0.1000 
 51 H       -4.8760    -8.1660     1.3610 H     1 <1>   0.1000 
 52 H       -3.9140    -9.0380     0.1260 H     1 <1>   0.1000 
@<TRIPOS>BOND
  1   1   2  1   
  2   1   3  1   
  3   2   4  2   
  4   2   5  1   
  5   3   6  2   
  6   3   7  1   
  7   4   6  1   
  8   4  24  1   
  9   5   8  1   
 10   5   9  1   
 11   5  25  1   
 12   6  26  1   
 13   7  10  1   
 14   7  27  1   
 15   7  28  1   
 16   8  11  1   
 17   8  29  1   
 18   8  30  1   
 19   9  12  1   
 20   9  31  1   
 21   9  32  1   
 22  10  13  1   
 23  10  14  1   
 24  10  33  1   
 25  11  12  1   
 26  11  34  1   
 27  11  35  1   
 28  12  36  1   
 29  12  37  1   
 30  13  15  1   
 31  13  38  1   
 32  13  39  1   
 33  14  16  1   
 34  14  40  1   
 35  14  41  1   
 36  15  17  1   
 37  15  42  1   
 38  15  43  1   
 39  16  18  1   
 40  16  44  1   
 41  16  45  1   
 42  17  18  1   
 43  17  19  am  
 44  18  46  1   
 45  18  47  1   
 46  19  20  2   
 47  19  21  1   
 48  21  22  1   
 49  21  23  1   
 50  21  48  1   
 51  22  23  1   
 52  22  49  1   
 53  22  50  1   
 54  23  51  1   
 55  23  52  1   
@<TRIPOS>SUBSTRUCTURE
  1 ****  10 GROUP 4 **** **** 0

# MOE 2024.06 (io_trps.svl 2023.06)
