@<TRIPOS>MOLECULE
NONAME
46 49 1 0 0 
SMALL
USER_CHARGES


@<TRIPOS>ATOM
  1 S       -0.3140    -0.3540     2.1160 S.3   1 <1>  -0.0800 
  2 C       -0.9980     0.4330     0.7020 C.2   1 <1>   0.3250 
  3 C        0.4690     1.1200     2.5610 C.2   1 <1>  -0.1100 
  4 N       -0.6470     1.6680     0.6140 N.2   1 <1>  -0.5650 
  5 C       -1.8560    -0.3250    -0.1860 C.ar  1 <1>   0.0530 
  6 C        0.1940     2.0850     1.6580 C.2   1 <1>   0.1410 
  7 C       -2.7240     0.3390    -1.0540 C.ar  1 <1>  -0.1500 
  8 C       -1.8620    -1.7220    -0.2280 C.ar  1 <1>  -0.1500 
  9 C        0.6970     3.4560     1.7510 C.2   1 <1>   0.7160 
 10 C       -3.5570    -0.3490    -1.9170 C.ar  1 <1>  -0.1500 
 11 C       -2.6930    -2.4170    -1.0880 C.ar  1 <1>  -0.1500 
 12 O        0.9870     3.9030     2.8490 O.2   1 <1>  -0.5700 
 13 N        0.8760     4.2910     0.6550 N.am  1 <1>  -0.6600 
 14 C       -3.5440    -1.7310    -1.9350 C.ar  1 <1>  -0.1500 
 15 C        1.0430     5.7640     0.8790 C.3   1 <1>   0.1400 
 16 C        1.1630     3.7240    -0.7020 C.3   1 <1>   0.1400 
 17 C        2.4960     6.2830     0.7180 C.3   1 <1>   0.4230 
 18 C        2.4210     4.2850    -1.3990 C.3   1 <1>  -0.0800 
 19 N        2.8310     6.6810    -0.6990 N.4   1 <1>  -0.9590 
 20 C        3.5890     5.3360     1.2830 C.3   1 <1>   0.1200 
 21 C        3.7570     3.9390    -0.7070 C.3   1 <1>   0.1200 
 22 C        2.2690     5.7690    -1.7400 C.3   1 <1>   0.3430 
 23 C        2.4450     8.0980    -0.9810 C.3   1 <1>   0.2630 
 24 O        3.6840     4.0710     0.6770 O.3   1 <1>  -0.5600 
 25 H        1.0610     1.1380     3.4580 H     1 <1>   0.1500 
 26 H       -2.7460     1.4150    -1.0480 H     1 <1>   0.1500 
 27 H       -1.2080    -2.2840     0.4140 H     1 <1>   0.1500 
 28 H       -4.2180     0.1900    -2.5740 H     1 <1>   0.1500 
 29 H       -2.6790    -3.4930    -1.1000 H     1 <1>   0.1500 
 30 H       -4.1920    -2.2700    -2.6050 H     1 <1>   0.1500 
 31 H        0.3810     6.3000     0.2230 H     1 <1>   0.0800 
 32 H        0.7240     6.0060     1.8780 H     1 <1>   0.0800 
 33 H        1.3020     2.6600    -0.6230 H     1 <1>   0.0800 
 34 H        0.2980     3.8820    -1.3240 H     1 <1>   0.0800 
 35 H        2.5550     7.1780     1.3140 H     1 <1>   0.0800 
 36 H        2.4530     3.7880    -2.3520 H     1 <1>   0.0800 
 37 H        3.8560     6.6070    -0.7650 H     1 <1>   0.4500 
 38 H        3.3810     5.1540     2.3240 H     1 <1>   0.0800 
 39 H        4.5550     5.8030     1.2240 H     1 <1>   0.0800 
 40 H        4.5790     4.5290    -1.0750 H     1 <1>   0.0800 
 41 H        3.9860     2.9030    -0.8920 H     1 <1>   0.0800 
 42 H        1.2220     5.9820    -1.8870 H     1 <1>   0.0800 
 43 H        2.7720     5.9600    -2.6740 H     1 <1>   0.0800 
 44 H        1.3750     8.2170    -0.9150 H     1 <1>   0.0800 
 45 H        2.7620     8.3840    -1.9710 H     1 <1>   0.0800 
 46 H        2.9090     8.7630    -0.2690 H     1 <1>   0.0800 
@<TRIPOS>BOND
  1   1   2  1   
  2   1   3  1   
  3   2   4  2   
  4   2   5  1   
  5   3   6  2   
  6   3  25  1   
  7   4   6  1   
  8   5   7  ar  
  9   5   8  ar  
 10   6   9  1   
 11   7  10  ar  
 12   7  26  1   
 13   8  11  ar  
 14   8  27  1   
 15   9  12  2   
 16   9  13  am  
 17  10  14  ar  
 18  10  28  1   
 19  11  14  ar  
 20  11  29  1   
 21  13  15  1   
 22  13  16  1   
 23  14  30  1   
 24  15  17  1   
 25  15  31  1   
 26  15  32  1   
 27  16  18  1   
 28  16  33  1   
 29  16  34  1   
 30  17  19  1   
 31  17  20  1   
 32  17  35  1   
 33  18  21  1   
 34  18  22  1   
 35  18  36  1   
 36  19  22  1   
 37  19  23  1   
 38  19  37  1   
 39  20  24  1   
 40  20  38  1   
 41  20  39  1   
 42  21  24  1   
 43  21  40  1   
 44  21  41  1   
 45  22  42  1   
 46  22  43  1   
 47  23  44  1   
 48  23  45  1   
 49  23  46  1   
@<TRIPOS>SUBSTRUCTURE
  1 ****  16 GROUP 4 **** **** 0

# MOE 2024.06 (io_trps.svl 2023.06)
