@<TRIPOS>MOLECULE
NONAME
43 45 1 0 0 
SMALL
USER_CHARGES


@<TRIPOS>ATOM
  1 F        1.0840    -1.8810     1.5260 F     1 <1>  -0.1900 
  2 C        0.4810    -2.8010     0.8230 C.ar  1 <1>   0.1900 
  3 C        1.1670    -3.3940    -0.2180 C.ar  1 <1>  -0.1500 
  4 C       -0.8180    -3.1400     1.1490 C.ar  1 <1>  -0.1500 
  5 C        0.4880    -4.3610    -0.9320 C.ar  1 <1>   0.1900 
  6 C       -1.4960    -4.1130     0.4110 C.ar  1 <1>   0.0860 
  7 F        1.0990    -4.9490    -1.9240 F     1 <1>  -0.1900 
  8 C       -0.8120    -4.7280    -0.6380 C.ar  1 <1>  -0.1500 
  9 C       -2.8620    -4.4880     0.7210 C.2   1 <1>   0.5440 
 10 O       -3.1110    -5.6580     0.9370 O.2   1 <1>  -0.5700 
 11 N       -3.8790    -3.5560     0.7660 N.am  1 <1>  -0.6600 
 12 C       -5.2710    -3.9420     1.1480 C.3   1 <1>   0.1400 
 13 C       -3.7310    -2.1620     0.2440 C.3   1 <1>   0.1400 
 14 C       -6.2450    -3.8680    -0.0620 C.3   1 <1>   0.0000 
 15 C       -5.0600    -1.6050    -0.2900 C.3   1 <1>  -0.1600 
 16 C       -7.6870    -3.8070     0.4920 C.3   1 <1>   0.2000 
 17 C       -5.8570    -2.6980    -1.0140 C.3   1 <1>  -0.1600 
 18 C       -6.2410    -5.2110    -0.8130 C.3   1 <1>  -0.1600 
 19 O       -8.5820    -3.4350    -0.5190 O.3   1 <1>  -0.5600 
 20 C       -8.0060    -5.2510     0.8940 C.3   1 <1>  -0.1600 
 21 C       -7.1730    -6.1470    -0.0330 C.3   1 <1>  -0.1600 
 22 C       -9.7680    -2.8550    -0.0760 C.3   1 <1>   0.0400 
 23 H        2.1770    -3.1180    -0.4600 H     1 <1>   0.1500 
 24 H       -1.3050    -2.6570     1.9770 H     1 <1>   0.1500 
 25 H       -1.2990    -5.4930    -1.2170 H     1 <1>   0.1500 
 26 H       -5.2840    -4.9270     1.5820 H     1 <1>   0.0800 
 27 H       -5.5970    -3.2610     1.9140 H     1 <1>   0.0800 
 28 H       -3.3580    -1.5230     1.0250 H     1 <1>   0.0800 
 29 H       -3.0160    -2.1660    -0.5620 H     1 <1>   0.0800 
 30 H       -5.6410    -1.2090     0.5240 H     1 <1>   0.0800 
 31 H       -4.8550    -0.7920    -0.9640 H     1 <1>   0.0800 
 32 H       -7.7720    -3.1130     1.3110 H     1 <1>   0.0800 
 33 H       -5.2360    -3.0830    -1.8040 H     1 <1>   0.0800 
 34 H       -6.7210    -2.2650    -1.4850 H     1 <1>   0.0800 
 35 H       -6.6520    -5.0660    -1.7980 H     1 <1>   0.0800 
 36 H       -5.2500    -5.6200    -0.9100 H     1 <1>   0.0800 
 37 H       -7.6910    -5.4110     1.9100 H     1 <1>   0.0800 
 38 H       -9.0560    -5.4730     0.8240 H     1 <1>   0.0800 
 39 H       -6.6000    -6.8520     0.5450 H     1 <1>   0.0800 
 40 H       -7.8080    -6.6870    -0.7150 H     1 <1>   0.0800 
 41 H      -10.3770    -2.6460    -0.9370 H     1 <1>   0.0800 
 42 H       -9.5420    -1.9370     0.4380 H     1 <1>   0.0800 
 43 H      -10.2840    -3.5380     0.5750 H     1 <1>   0.0800 
@<TRIPOS>BOND
  1   1   2  1   
  2   2   3  ar  
  3   2   4  ar  
  4   3   5  ar  
  5   3  23  1   
  6   4   6  ar  
  7   4  24  1   
  8   5   7  1   
  9   5   8  ar  
 10   6   8  ar  
 11   6   9  1   
 12   8  25  1   
 13   9  10  2   
 14   9  11  am  
 15  11  12  1   
 16  11  13  1   
 17  12  14  1   
 18  12  26  1   
 19  12  27  1   
 20  13  15  1   
 21  13  28  1   
 22  13  29  1   
 23  14  16  1   
 24  14  17  1   
 25  14  18  1   
 26  15  17  1   
 27  15  30  1   
 28  15  31  1   
 29  16  19  1   
 30  16  20  1   
 31  16  32  1   
 32  17  33  1   
 33  17  34  1   
 34  18  21  1   
 35  18  35  1   
 36  18  36  1   
 37  19  22  1   
 38  20  21  1   
 39  20  37  1   
 40  20  38  1   
 41  21  39  1   
 42  21  40  1   
 43  22  41  1   
 44  22  42  1   
 45  22  43  1   
@<TRIPOS>SUBSTRUCTURE
  1 ****  11 GROUP 4 **** **** 0

# MOE 2024.06 (io_trps.svl 2023.06)
