@<TRIPOS>MOLECULE
NONAME
50 53 1 0 0 
SMALL
USER_CHARGES


@<TRIPOS>ATOM
  1 F       -0.5890     0.1350    -0.6550 F     1 <1>  -0.3400 
  2 C       -1.2090    -0.3900     0.3930 C.3   1 <1>   1.1640 
  3 F       -2.3070     0.3310     0.5800 F     1 <1>  -0.3400 
  4 F       -0.4290    -0.1710     1.4420 F     1 <1>  -0.3400 
  5 C       -1.4950    -1.8930     0.1970 C.ar  1 <1>  -0.1440 
  6 C       -2.7480    -2.4360     0.3870 C.ar  1 <1>  -0.1500 
  7 C       -0.4500    -2.7480    -0.1770 C.ar  1 <1>  -0.1500 
  8 C       -3.0330    -3.8020     0.1830 C.ar  1 <1>   0.0000 
  9 C       -0.6680    -4.0940    -0.3140 C.ar  1 <1>  -0.1500 
 10 C       -1.9390    -4.6440    -0.0990 C.ar  1 <1>   0.3610 
 11 C       -4.3410    -4.3810     0.3060 C.ar  1 <1>   0.1000 
 12 N       -2.1220    -6.0070    -0.1090 N.ar  1 <1>  -0.1790 
 13 N       -5.4900    -3.6520     0.3180 N.pl3 1 <1>  -0.8380 
 14 C       -4.4070    -5.7760     0.3650 C.ar  1 <1>  -0.1500 
 15 C       -3.3120    -6.5720     0.1530 C.ar  1 <1>   0.2180 
 16 C       -6.6970    -3.9880     1.1540 C.3   1 <1>   0.2090 
 17 C       -5.7060    -2.4270    -0.5160 C.3   1 <1>   0.2090 
 18 C       -3.4070    -8.0880     0.1860 C.3   1 <1>  -0.0970 
 19 C       -7.9740    -4.1860     0.3080 C.3   1 <1>   0.0000 
 20 C       -6.9330    -2.6000    -1.4130 C.3   1 <1>  -0.1600 
 21 C       -9.1800    -4.4730     1.2250 C.3   1 <1>   0.2000 
 22 C       -8.1900    -2.9430    -0.6000 C.3   1 <1>  -0.1600 
 23 C       -7.9520    -5.4760    -0.5340 C.3   1 <1>  -0.1600 
 24 O       -9.7260    -3.3310     1.7770 O.3   1 <1>  -0.6800 
 25 C      -10.2130    -5.2000     0.3640 C.3   1 <1>  -0.1600 
 26 C       -9.4220    -5.8270    -0.7920 C.3   1 <1>  -0.1600 
 27 H       -3.5520    -1.8020     0.7190 H     1 <1>   0.1500 
 28 H        0.5360    -2.3370    -0.3440 H     1 <1>   0.1500 
 29 H        0.1570    -4.7320    -0.5810 H     1 <1>   0.1500 
 30 H       -1.3060    -6.5950    -0.2900 H     1 <1>   0.4570 
 31 H       -5.3560    -6.2390     0.5440 H     1 <1>   0.1500 
 32 H       -6.5110    -4.8590     1.7560 H     1 <1>   0.0800 
 33 H       -6.8680    -3.1720     1.8370 H     1 <1>   0.0800 
 34 H       -5.8460    -1.5770     0.1310 H     1 <1>   0.0800 
 35 H       -4.8530    -2.2440    -1.1450 H     1 <1>   0.0800 
 36 H       -4.4140    -8.4010     0.4020 H     1 <1>   0.0800 
 37 H       -2.7640    -8.4890     0.9490 H     1 <1>   0.0800 
 38 H       -3.1270    -8.5040    -0.7660 H     1 <1>   0.0800 
 39 H       -7.0990    -1.6840    -1.9520 H     1 <1>   0.0800 
 40 H       -6.7290    -3.3630    -2.1410 H     1 <1>   0.0800 
 41 H       -8.8790    -5.1160     2.0350 H     1 <1>   0.0800 
 42 H       -9.0190    -3.0930    -1.2690 H     1 <1>   0.0800 
 43 H       -8.4150    -2.0860     0.0100 H     1 <1>   0.0800 
 44 H       -7.3920    -5.3850    -1.4470 H     1 <1>   0.0800 
 45 H       -7.5250    -6.2730     0.0460 H     1 <1>   0.0800 
 46 H      -10.0850    -2.7640     1.0680 H     1 <1>   0.4000 
 47 H      -10.7100    -5.9570     0.9450 H     1 <1>   0.0800 
 48 H      -10.9440    -4.5150    -0.0290 H     1 <1>   0.0800 
 49 H       -9.5640    -6.8930    -0.8360 H     1 <1>   0.0800 
 50 H       -9.7430    -5.3980    -1.7260 H     1 <1>   0.0800 
@<TRIPOS>BOND
  1   1   2  1   
  2   2   3  1   
  3   2   4  1   
  4   2   5  1   
  5   5   6  ar  
  6   5   7  ar  
  7   6   8  ar  
  8   6  27  1   
  9   7   9  ar  
 10   7  28  1   
 11   8  10  ar  
 12   8  11  ar  
 13   9  10  ar  
 14   9  29  1   
 15  10  12  ar  
 16  11  13  1   
 17  11  14  ar  
 18  12  15  ar  
 19  12  30  1   
 20  13  16  1   
 21  13  17  1   
 22  14  15  ar  
 23  14  31  1   
 24  15  18  1   
 25  16  19  1   
 26  16  32  1   
 27  16  33  1   
 28  17  20  1   
 29  17  34  1   
 30  17  35  1   
 31  18  36  1   
 32  18  37  1   
 33  18  38  1   
 34  19  21  1   
 35  19  22  1   
 36  19  23  1   
 37  20  22  1   
 38  20  39  1   
 39  20  40  1   
 40  21  24  1   
 41  21  25  1   
 42  21  41  1   
 43  22  42  1   
 44  22  43  1   
 45  23  26  1   
 46  23  44  1   
 47  23  45  1   
 48  24  46  1   
 49  25  26  1   
 50  25  47  1   
 51  25  48  1   
 52  26  49  1   
 53  26  50  1   
@<TRIPOS>SUBSTRUCTURE
  1 ****  11 GROUP 4 **** **** 0

# MOE 2024.06 (io_trps.svl 2023.06)
