@<TRIPOS>MOLECULE
NONAME
42 44 1 0 0 
SMALL
USER_CHARGES


@<TRIPOS>ATOM
  1 CL       0.5080    -0.1660     0.4160 Cl    1 <1>  -0.1770 
  2 C        2.1400     0.1660    -0.1070 C.ar  1 <1>   0.1770 
  3 C        2.5610     1.4970    -0.2200 C.ar  1 <1>   0.0000 
  4 C        2.9950    -0.8690    -0.4000 C.ar  1 <1>  -0.1500 
  5 C        3.8650     1.7520    -0.6320 C.ar  1 <1>  -0.1520 
  6 C        1.9600     2.7510    -0.0120 C.2   1 <1>  -0.1500 
  7 C        4.3050    -0.5950    -0.8170 C.ar  1 <1>  -0.1500 
  8 N        4.0430     3.1090    -0.6680 N.pl3 1 <1>   0.0330 
  9 C        4.7420     0.7050    -0.9350 C.ar  1 <1>  -0.1500 
 10 C        2.8780     3.7270    -0.2760 C.2   1 <1>  -0.2370 
 11 C        2.7310     5.1540    -0.2060 C.2   1 <1>   0.7150 
 12 O        1.7660     5.6950    -0.7060 O.2   1 <1>  -0.5700 
 13 N        3.7010     5.8740     0.4300 N.am  1 <1>  -0.4930 
 14 C        3.8560     7.2750     0.5780 C.2   1 <1>   0.0630 
 15 C        2.9080     8.2560     0.8910 C.2   1 <1>   0.1080 
 16 C        5.0230     7.9480     0.4710 C.2   1 <1>  -0.3320 
 17 N        3.4360     9.4370     0.9670 N.2   1 <1>  -0.7070 
 18 C        1.4320     8.0410     1.1440 C.3   1 <1>  -0.0590 
 19 N        4.7390     9.2550     0.7010 N.pl3 1 <1>   0.3140 
 20 C        6.4160     7.4230     0.1490 C.3   1 <1>  -0.0600 
 21 C        5.6720    10.4020     0.6810 C.3   1 <1>   0.0960 
 22 C        5.7830    10.9950    -0.7310 C.3   1 <1>  -0.1600 
 23 C        6.7610    12.1750    -0.7670 C.3   1 <1>  -0.2400 
 24 H        2.6610    -1.8870    -0.3100 H     1 <1>   0.1500 
 25 H        0.9380     2.8860     0.3020 H     1 <1>   0.1500 
 26 H        4.9630    -1.4160    -1.0450 H     1 <1>   0.1500 
 27 H        4.8810     3.5790    -1.0250 H     1 <1>   0.2700 
 28 H        5.7470     0.9190    -1.2570 H     1 <1>   0.1500 
 29 H        4.4070     5.3240     0.9090 H     1 <1>   0.3700 
 30 H        1.2680     7.0880     1.6100 H     1 <1>   0.0800 
 31 H        0.9010     8.0760     0.2120 H     1 <1>   0.0800 
 32 H        1.0570     8.8140     1.7890 H     1 <1>   0.0800 
 33 H        6.3920     6.3640    -0.0300 H     1 <1>   0.0800 
 34 H        7.0830     7.6160     0.9700 H     1 <1>   0.0800 
 35 H        6.7980     7.9050    -0.7330 H     1 <1>   0.0800 
 36 H        6.6320    10.0740     1.0310 H     1 <1>   0.0800 
 37 H        5.2970    11.1460     1.3610 H     1 <1>   0.0800 
 38 H        4.8090    11.3310    -1.0470 H     1 <1>   0.0800 
 39 H        6.1180    10.2360    -1.4170 H     1 <1>   0.0800 
 40 H        6.4310    12.9560    -0.1050 H     1 <1>   0.0800 
 41 H        6.8140    12.5750    -1.7650 H     1 <1>   0.0800 
 42 H        7.7460    11.8610    -0.4720 H     1 <1>   0.0800 
@<TRIPOS>BOND
  1   1   2  1   
  2   2   3  ar  
  3   2   4  ar  
  4   3   5  ar  
  5   3   6  1   
  6   4   7  ar  
  7   4  24  1   
  8   5   8  1   
  9   5   9  ar  
 10   6  10  2   
 11   6  25  1   
 12   7   9  ar  
 13   7  26  1   
 14   8  10  1   
 15   8  27  1   
 16   9  28  1   
 17  10  11  1   
 18  11  12  2   
 19  11  13  am  
 20  13  14  1   
 21  13  29  1   
 22  14  15  1   
 23  14  16  2   
 24  15  17  2   
 25  15  18  1   
 26  16  19  1   
 27  16  20  1   
 28  17  19  1   
 29  18  30  1   
 30  18  31  1   
 31  18  32  1   
 32  19  21  1   
 33  20  33  1   
 34  20  34  1   
 35  20  35  1   
 36  21  22  1   
 37  21  36  1   
 38  21  37  1   
 39  22  23  1   
 40  22  38  1   
 41  22  39  1   
 42  23  40  1   
 43  23  41  1   
 44  23  42  1   
@<TRIPOS>SUBSTRUCTURE
  1 ****  13 GROUP 4 **** **** 0

# MOE 2024.06 (io_trps.svl 2023.06)
