@<TRIPOS>MOLECULE
NONAME
42 44 1 0 0 
SMALL
USER_CHARGES


@<TRIPOS>ATOM
  1 O       -0.1960     0.0150     0.0980 O.3   1 <1>  -0.6800 
  2 C        0.8940    -0.6850    -0.4020 C.3   1 <1>   0.2000 
  3 C        1.3320    -1.6860     0.6780 C.3   1 <1>  -0.0800 
  4 C        2.0570     0.3090    -0.5610 C.3   1 <1>   0.3430 
  5 C        2.3520    -0.8780     1.4830 C.3   1 <1>   0.3430 
  6 C        1.9260    -2.9980     0.1030 C.3   1 <1>   0.0210 
  7 N        3.0610    -0.0710     0.4700 N.4   1 <1>  -0.9590 
  8 C        3.2990    -2.8240    -0.5220 C.2   1 <1>   0.1080 
  9 C        3.9110     1.0500     0.9330 C.3   1 <1>   0.5240 
 10 N        3.4910    -2.1240    -1.5950 N.2   1 <1>  -0.7070 
 11 C        4.4890    -3.3230    -0.0050 C.2   1 <1>  -0.1500 
 12 C        5.1290     1.1650     0.0180 C.2   1 <1>   0.0460 
 13 N        4.8230    -2.1630    -1.8050 N.pl3 1 <1>   0.3000 
 14 C        5.4470    -2.8730    -0.8430 C.2   1 <1>  -0.3320 
 15 N        4.9940     1.1790    -1.3270 N.2   1 <1>  -0.5650 
 16 C        6.4340     1.2630     0.3680 C.2   1 <1>  -0.3320 
 17 C        6.9490    -3.0880    -0.7910 C.3   1 <1>  -0.0600 
 18 C        6.2050     1.3070    -1.7620 C.2   1 <1>   0.0360 
 19 N        7.1290     1.3610    -0.7820 N.pl3 1 <1>   0.0330 
 20 C        7.1140     1.2860     1.7270 C.3   1 <1>  -0.0600 
 21 H       -1.0250    -0.4950    -0.0160 H     1 <1>   0.4000 
 22 H        0.6190    -1.1380    -1.3390 H     1 <1>   0.0800 
 23 H        0.5000    -1.9560     1.3050 H     1 <1>   0.0800 
 24 H        1.7010     1.3140    -0.4110 H     1 <1>   0.0800 
 25 H        2.4970     0.2240    -1.5420 H     1 <1>   0.0800 
 26 H        3.0280    -1.5160     2.0280 H     1 <1>   0.0800 
 27 H        1.8300    -0.2270     2.1650 H     1 <1>   0.0800 
 28 H        1.2600    -3.4080    -0.6350 H     1 <1>   0.0800 
 29 H        2.0070    -3.7220     0.8940 H     1 <1>   0.0800 
 30 H        3.6910    -0.7070    -0.0620 H     1 <1>   0.4500 
 31 H        3.3540     1.9710     0.9160 H     1 <1>   0.0800 
 32 H        4.2490     0.8670     1.9380 H     1 <1>   0.0800 
 33 H        4.6030    -3.9330     0.8740 H     1 <1>   0.1500 
 34 H        5.2700    -1.6860    -2.5990 H     1 <1>   0.2700 
 35 H        7.2080    -3.6930     0.0600 H     1 <1>   0.0800 
 36 H        7.4590    -2.1450    -0.7100 H     1 <1>   0.0800 
 37 H        7.2830    -3.5920    -1.6810 H     1 <1>   0.0800 
 38 H        6.4740     1.3720    -2.8030 H     1 <1>   0.1500 
 39 H        8.1420     1.4720    -0.8970 H     1 <1>   0.2700 
 40 H        6.3950     1.2050     2.5220 H     1 <1>   0.0800 
 41 H        7.6560     2.2070     1.8550 H     1 <1>   0.0800 
 42 H        7.8060     0.4660     1.8110 H     1 <1>   0.0800 
@<TRIPOS>BOND
  1   1   2  1   
  2   1  21  1   
  3   2   3  1   
  4   2   4  1   
  5   2  22  1   
  6   3   5  1   
  7   3   6  1   
  8   3  23  1   
  9   4   7  1   
 10   4  24  1   
 11   4  25  1   
 12   5   7  1   
 13   5  26  1   
 14   5  27  1   
 15   6   8  1   
 16   6  28  1   
 17   6  29  1   
 18   7   9  1   
 19   7  30  1   
 20   8  10  2   
 21   8  11  1   
 22   9  12  1   
 23   9  31  1   
 24   9  32  1   
 25  10  13  1   
 26  11  14  2   
 27  11  33  1   
 28  12  15  1   
 29  12  16  2   
 30  13  14  1   
 31  13  34  1   
 32  14  17  1   
 33  15  18  2   
 34  16  19  1   
 35  16  20  1   
 36  17  35  1   
 37  17  36  1   
 38  17  37  1   
 39  18  19  1   
 40  18  38  1   
 41  19  39  1   
 42  20  40  1   
 43  20  41  1   
 44  20  42  1   
@<TRIPOS>SUBSTRUCTURE
  1 ****   7 GROUP 4 **** **** 0

# MOE 2024.06 (io_trps.svl 2023.06)
