@<TRIPOS>MOLECULE
NONAME
41 42 1 0 0 
SMALL
USER_CHARGES


@<TRIPOS>ATOM
  1 O       -1.6520    -1.0580    -1.9890 O.3   1 <1>  -0.8500 
  2 C       -1.0550    -1.8880    -1.2830 C.2   1 <1>  -0.1500 
  3 C       -1.4870    -2.3300    -0.0270 C.2   1 <1>  -0.1240 
  4 C        0.1520    -2.4280    -1.7990 C.2   1 <1>  -0.1500 
  5 C       -0.7460    -3.3070     0.6580 C.2   1 <1>   0.6160 
  6 C       -2.7630    -1.8010     0.6470 C.3   1 <1>   0.2020 
  7 C        0.8700    -3.3650    -1.1350 C.2   1 <1>  -0.0290 
  8 O       -1.0850    -3.7420     1.7820 O.2   1 <1>  -0.5700 
  9 N        0.4290    -3.8430     0.0980 N.am  1 <1>  -0.4690 
 10 C       -3.9710    -2.6750     0.2950 C.ar  1 <1>  -0.1440 
 11 C       -3.0950    -0.3160     0.4220 C.3   1 <1>  -0.0990 
 12 C        2.1640    -3.8960    -1.7310 C.3   1 <1>  -0.1020 
 13 C        1.1830    -4.8770     0.8640 C.3   1 <1>   0.0600 
 14 C       -4.3870    -2.7980    -1.0240 C.ar  1 <1>  -0.1500 
 15 C       -4.6610    -3.3580     1.2880 C.ar  1 <1>  -0.1500 
 16 C       -1.9510     0.5890     0.8190 C.2   1 <1>   0.6590 
 17 C       -5.4830    -3.5790    -1.3470 C.ar  1 <1>  -0.1500 
 18 C       -5.7570    -4.1430     0.9720 C.ar  1 <1>  -0.1500 
 19 O       -1.3450     0.4350     1.8530 O.2   1 <1>  -0.5700 
 20 O       -1.7060     1.6200     0.0180 O.3   1 <1>  -0.4300 
 21 C       -6.1660    -4.2480    -0.3480 C.ar  1 <1>   0.0830 
 22 C       -0.5910     2.4570     0.2160 C.3   1 <1>   0.0400 
 23 O       -7.2270    -5.0080    -0.6640 O.3   1 <1>  -0.5320 
 24 H        0.4470    -2.0350    -2.7520 H     1 <1>   0.1500 
 25 H       -2.6140    -1.8810     1.7090 H     1 <1>   0.0800 
 26 H       -3.9480    -0.0540     1.0160 H     1 <1>   0.0800 
 27 H       -3.3510    -0.1370    -0.6030 H     1 <1>   0.0800 
 28 H        2.9750    -3.7490    -1.0420 H     1 <1>   0.0800 
 29 H        2.3950    -3.3750    -2.6420 H     1 <1>   0.0800 
 30 H        2.0630    -4.9410    -1.9570 H     1 <1>   0.0800 
 31 H        0.5040    -5.4880     1.4320 H     1 <1>   0.0800 
 32 H        1.8630    -4.3900     1.5390 H     1 <1>   0.0800 
 33 H        1.7280    -5.5240     0.2050 H     1 <1>   0.0800 
 34 H       -3.8390    -2.2830    -1.8000 H     1 <1>   0.1500 
 35 H       -4.3360    -3.2840     2.3110 H     1 <1>   0.1500 
 36 H       -5.7990    -3.6700    -2.3690 H     1 <1>   0.1500 
 37 H       -6.2780    -4.6650     1.7510 H     1 <1>   0.1500 
 38 H       -0.5850     3.2000    -0.5610 H     1 <1>   0.0800 
 39 H        0.2980     1.8530     0.1580 H     1 <1>   0.0800 
 40 H       -0.6690     2.9200     1.1830 H     1 <1>   0.0800 
 41 H       -7.6020    -5.4630     0.1080 H     1 <1>   0.4500 
@<TRIPOS>BOND
  1   1   2  1   
  2   2   3  2   
  3   2   4  1   
  4   3   5  1   
  5   3   6  1   
  6   4   7  2   
  7   4  24  1   
  8   5   8  2   
  9   5   9  am  
 10   6  10  1   
 11   6  11  1   
 12   6  25  1   
 13   7   9  1   
 14   7  12  1   
 15   9  13  1   
 16  10  14  ar  
 17  10  15  ar  
 18  11  16  1   
 19  11  26  1   
 20  11  27  1   
 21  12  28  1   
 22  12  29  1   
 23  12  30  1   
 24  13  31  1   
 25  13  32  1   
 26  13  33  1   
 27  14  17  ar  
 28  14  34  1   
 29  15  18  ar  
 30  15  35  1   
 31  16  19  2   
 32  16  20  1   
 33  17  21  ar  
 34  17  36  1   
 35  18  21  ar  
 36  18  37  1   
 37  20  22  1   
 38  21  23  1   
 39  22  38  1   
 40  22  39  1   
 41  22  40  1   
 42  23  41  1   
@<TRIPOS>SUBSTRUCTURE
  1 ****   3 GROUP 4 **** **** 0

# MOE 2024.06 (io_trps.svl 2023.06)
