@<TRIPOS>MOLECULE
NONAME
52 55 1 0 0 
SMALL
USER_CHARGES


@<TRIPOS>ATOM
  1 O        1.1010     0.2470     2.1240 O.co2 1 <1>  -0.9020 
  2 C        1.6490    -0.8580     1.9850 C.2   1 <1>   0.9770 
  3 O        1.0520    -1.8930     2.3180 O.co2 1 <1>  -0.9020 
  4 C        2.9930    -0.9220     1.4320 C.ar  1 <1>  -0.1860 
  5 C        3.6430     0.2410     1.0330 C.ar  1 <1>  -0.1160 
  6 C        3.6750    -2.1450     1.2840 C.ar  1 <1>  -0.1570 
  7 C        4.9220     0.1660     0.5130 C.ar  1 <1>   0.3030 
  8 C        4.9510    -2.2170     0.7630 C.ar  1 <1>  -0.1160 
  9 N        5.7770     1.1400     0.0450 N.pl3 1 <1>  -0.7040 
 10 C        5.5790    -1.0380     0.3770 C.ar  1 <1>   0.3030 
 11 C        6.9000     0.5670    -0.3780 C.cat 1 <1>   1.0690 
 12 N        6.8350    -0.7630    -0.1670 N.pl3 1 <1>  -0.7670 
 13 N        7.9300     1.2700    -0.9220 N.pl3 1 <1>  -0.5960 
 14 C        7.8370    -1.8490    -0.3470 C.3   1 <1>   0.2680 
 15 C        8.0020     2.7780    -0.8730 C.3   1 <1>   0.1610 
 16 C        8.8930     0.6620    -1.8970 C.3   1 <1>   0.0800 
 17 C        9.4050     3.3760    -0.5580 C.3   1 <1>   0.4180 
 18 N        9.8590     3.2570     0.8770 N.4   1 <1>  -0.9610 
 19 C        9.4060     4.8630    -0.9470 C.3   1 <1>  -0.0250 
 20 C       11.3070     3.6130     0.9630 C.3   1 <1>   0.4810 
 21 C        9.6370     1.9480     1.5570 C.3   1 <1>   0.2570 
 22 C       10.6600     5.5890    -0.4930 C.ar  1 <1>  -0.1510 
 23 C       11.5400     5.0050     0.4100 C.ar  1 <1>  -0.1510 
 24 C       10.9150     6.8590    -0.9810 C.ar  1 <1>  -0.1570 
 25 C       12.6680     5.7040     0.8150 C.ar  1 <1>  -0.1570 
 26 C       12.0410     7.5500    -0.5750 C.ar  1 <1>  -0.1570 
 27 C       12.9180     6.9720     0.3240 C.ar  1 <1>  -0.1570 
 28 H        3.1430     1.1900     1.1320 H     1 <1>   0.1430 
 29 H        3.1620    -3.0450     1.5930 H     1 <1>   0.1430 
 30 H        5.4390    -3.1680     0.6610 H     1 <1>   0.1430 
 31 H        5.4880     2.1080    -0.0570 H     1 <1>   0.4450 
 32 H        7.7200    -2.5930     0.4230 H     1 <1>   0.0720 
 33 H        8.8380    -1.4620    -0.2800 H     1 <1>   0.0720 
 34 H        7.6980    -2.3210    -1.3050 H     1 <1>   0.0720 
 35 H        7.3030     3.1710    -0.1560 H     1 <1>   0.0720 
 36 H        7.6960     3.1410    -1.8410 H     1 <1>   0.0720 
 37 H        8.4750    -0.2240    -2.3430 H     1 <1>   0.0720 
 38 H        9.8160     0.4100    -1.4040 H     1 <1>   0.0720 
 39 H        9.1040     1.3500    -2.6980 H     1 <1>   0.0720 
 40 H       10.1280     2.8840    -1.1860 H     1 <1>   0.0720 
 41 H        9.3950     4.0080     1.4090 H     1 <1>   0.4450 
 42 H        8.5530     5.3580    -0.5170 H     1 <1>   0.0720 
 43 H        9.3250     4.9470    -2.0170 H     1 <1>   0.0720 
 44 H       11.8980     2.9070     0.4030 H     1 <1>   0.0720 
 45 H       11.6300     3.5870     1.9910 H     1 <1>   0.0720 
 46 H       10.1300     1.1580     1.0160 H     1 <1>   0.0720 
 47 H        8.5840     1.7300     1.6170 H     1 <1>   0.0720 
 48 H       10.0340     1.9800     2.5600 H     1 <1>   0.0720 
 49 H       10.2420     7.3270    -1.6800 H     1 <1>   0.1430 
 50 H       13.3680     5.2750     1.5120 H     1 <1>   0.1430 
 51 H       12.2360     8.5370    -0.9570 H     1 <1>   0.1430 
 52 H       13.7940     7.5130     0.6390 H     1 <1>   0.1430 
@<TRIPOS>BOND
  1   1   2  ar  
  2   2   3  ar  
  3   2   4  1   
  4   4   5  ar  
  5   4   6  ar  
  6   5   7  ar  
  7   5  28  1   
  8   6   8  ar  
  9   6  29  1   
 10   7   9  1   
 11   7  10  ar  
 12   8  10  ar  
 13   8  30  1   
 14   9  11  ar  
 15   9  31  1   
 16  10  12  1   
 17  11  12  ar  
 18  11  13  ar  
 19  12  14  1   
 20  13  15  1   
 21  13  16  1   
 22  14  32  1   
 23  14  33  1   
 24  14  34  1   
 25  15  17  1   
 26  15  35  1   
 27  15  36  1   
 28  16  37  1   
 29  16  38  1   
 30  16  39  1   
 31  17  18  1   
 32  17  19  1   
 33  17  40  1   
 34  18  20  1   
 35  18  21  1   
 36  18  41  1   
 37  19  22  1   
 38  19  42  1   
 39  19  43  1   
 40  20  23  1   
 41  20  44  1   
 42  20  45  1   
 43  21  46  1   
 44  21  47  1   
 45  21  48  1   
 46  22  23  ar  
 47  22  24  ar  
 48  23  25  ar  
 49  24  26  ar  
 50  24  49  1   
 51  25  27  ar  
 52  25  50  1   
 53  26  27  ar  
 54  26  51  1   
 55  27  52  1   
@<TRIPOS>SUBSTRUCTURE
  1 ****  13 GROUP 4 **** **** 0

# MOE 2024.06 (io_trps.svl 2023.06)
