@<TRIPOS>MOLECULE
NONAME
37 38 1 0 0 
SMALL
USER_CHARGES


@<TRIPOS>ATOM
  1 O        0.0350     2.1450     1.4720 O.2   1 <1>  -0.5700 
  2 C        0.4870     1.4200     0.6080 C.2   1 <1>   0.5440 
  3 N       -0.2860     1.2790    -0.5070 N.am  1 <1>  -0.7300 
  4 C        1.7850     0.8140     0.7710 C.ar  1 <1>   0.0860 
  5 C       -0.0550     0.3860    -1.6670 C.3   1 <1>   0.0600 
  6 C        1.9890    -0.5820     0.8530 C.ar  1 <1>   0.4100 
  7 C        2.8970     1.6410     0.8520 C.ar  1 <1>  -0.1500 
  8 N        3.2020    -1.1310     0.9530 N.ar  1 <1>  -0.6200 
  9 N        0.9360    -1.4890     0.8460 N.pl3 1 <1>  -0.8380 
 10 C        4.1390     1.0640     0.9760 C.ar  1 <1>  -0.1500 
 11 C        4.2320    -0.3130     1.0170 C.ar  1 <1>   0.1600 
 12 C        1.1250    -2.9020     0.3680 C.3   1 <1>   0.2090 
 13 C       -0.1960    -1.3150     1.8030 C.3   1 <1>   0.1290 
 14 C       -0.0100    -3.3960    -0.5520 C.3   1 <1>   0.2000 
 15 O       -1.2120    -3.5710     0.1340 O.3   1 <1>  -0.5600 
 16 C        0.2580    -4.7630    -1.1670 C.3   1 <1>  -0.1600 
 17 C       -2.0430    -4.4490    -0.5540 C.3   1 <1>   0.1200 
 18 C       -1.1390    -5.2810    -1.4620 C.3   1 <1>  -0.1600 
 19 H       -1.1880     1.7580    -0.4650 H     1 <1>   0.3700 
 20 H        0.9400    -0.0230    -1.6420 H     1 <1>   0.0800 
 21 H       -0.1810     0.9390    -2.5810 H     1 <1>   0.0800 
 22 H       -0.7640    -0.4240    -1.6400 H     1 <1>   0.0800 
 23 H        2.7770     2.7100     0.8170 H     1 <1>   0.1500 
 24 H        5.0240     1.6700     1.0410 H     1 <1>   0.1500 
 25 H        5.2060    -0.7630     1.1080 H     1 <1>   0.1500 
 26 H        1.2170    -3.5600     1.2140 H     1 <1>   0.0800 
 27 H        2.0400    -2.9670    -0.1930 H     1 <1>   0.0800 
 28 H        0.0070    -0.5140     2.4930 H     1 <1>   0.0800 
 29 H       -0.3500    -2.2180     2.3670 H     1 <1>   0.0800 
 30 H       -1.0970    -1.0890     1.2580 H     1 <1>   0.0800 
 31 H       -0.1800    -2.6760    -1.3320 H     1 <1>   0.0800 
 32 H        0.7420    -5.3970    -0.4450 H     1 <1>   0.0800 
 33 H        0.8700    -4.6930    -2.0490 H     1 <1>   0.0800 
 34 H       -2.7490    -3.8700    -1.1240 H     1 <1>   0.0800 
 35 H       -2.5620    -5.0580     0.1670 H     1 <1>   0.0800 
 36 H       -1.2300    -6.3320    -1.2500 H     1 <1>   0.0800 
 37 H       -1.4060    -5.1060    -2.4890 H     1 <1>   0.0800 
@<TRIPOS>BOND
  1   1   2  2   
  2   2   3  am  
  3   2   4  1   
  4   3   5  1   
  5   3  19  1   
  6   4   6  ar  
  7   4   7  ar  
  8   5  20  1   
  9   5  21  1   
 10   5  22  1   
 11   6   8  ar  
 12   6   9  1   
 13   7  10  ar  
 14   7  23  1   
 15   8  11  ar  
 16   9  12  1   
 17   9  13  1   
 18  10  11  ar  
 19  10  24  1   
 20  11  25  1   
 21  12  14  1   
 22  12  26  1   
 23  12  27  1   
 24  13  28  1   
 25  13  29  1   
 26  13  30  1   
 27  14  15  1   
 28  14  16  1   
 29  14  31  1   
 30  15  17  1   
 31  16  18  1   
 32  16  32  1   
 33  16  33  1   
 34  17  18  1   
 35  17  34  1   
 36  17  35  1   
 37  18  36  1   
 38  18  37  1   
@<TRIPOS>SUBSTRUCTURE
  1 ****   9 GROUP 4 **** **** 0

# MOE 2024.06 (io_trps.svl 2023.06)
