@<TRIPOS>MOLECULE
NONAME
50 51 1 0 0 
SMALL
USER_CHARGES


@<TRIPOS>ATOM
  1 F       -4.5350    -0.7830    -1.5970 F     1 <1>  -0.1900 
  2 C       -3.9510     0.1290    -0.8610 C.ar  1 <1>   0.1900 
  3 C       -3.3970    -0.2300     0.3620 C.ar  1 <1>  -0.1440 
  4 C       -3.9270     1.4260    -1.3380 C.ar  1 <1>  -0.1500 
  5 C       -2.8040     0.7680     1.1200 C.ar  1 <1>  -0.1500 
  6 C       -3.4320    -1.6650     0.8710 C.3   1 <1>  -0.0160 
  7 C       -3.3300     2.4060    -0.5660 C.ar  1 <1>  -0.1500 
  8 C       -2.7720     2.0760     0.6590 C.ar  1 <1>  -0.1500 
  9 C       -4.8380    -2.0090     1.3780 C.3   1 <1>  -0.0990 
 10 C       -5.0270    -3.5000     1.5940 C.2   1 <1>   0.5690 
 11 O       -4.9890    -3.8890     2.7330 O.2   1 <1>  -0.5700 
 12 N       -5.2680    -4.3600     0.5490 N.am  1 <1>  -0.6600 
 13 C       -5.1780    -5.8350     0.7870 C.3   1 <1>   0.3200 
 14 C       -5.4810    -3.9310    -0.8770 C.3   1 <1>   0.1400 
 15 C       -6.5050    -6.4530     0.4090 C.2   1 <1>  -0.3320 
 16 C       -6.8430    -3.2450    -1.1550 C.3   1 <1>   0.3430 
 17 N       -6.7580    -7.1150    -0.7390 N.pl3 1 <1>   0.0330 
 18 C       -7.6560    -6.4510     1.1130 C.2   1 <1>   0.0770 
 19 N       -7.9950    -3.8960    -0.4480 N.4   1 <1>  -0.9590 
 20 C       -8.0730    -7.4130    -0.6860 C.2   1 <1>   0.0060 
 21 N       -8.6500    -7.0020     0.3950 N.2   1 <1>  -0.5650 
 22 C       -9.1990    -4.0620    -1.3120 C.3   1 <1>   0.2630 
 23 C       -8.3560    -3.2030     0.8250 C.3   1 <1>   0.2630 
 24 C       -8.7890    -8.1720    -1.7830 C.3   1 <1>  -0.0600 
 25 H       -4.3630     1.6630    -2.2910 H     1 <1>   0.1500 
 26 H       -2.3630     0.5370     2.0750 H     1 <1>   0.1500 
 27 H       -2.7240    -1.7970     1.6710 H     1 <1>   0.0800 
 28 H       -3.1350    -2.3250     0.0770 H     1 <1>   0.0800 
 29 H       -3.2970     3.4240    -0.9150 H     1 <1>   0.1500 
 30 H       -2.3080     2.8410     1.2580 H     1 <1>   0.1500 
 31 H       -5.5820    -1.6410     0.7030 H     1 <1>   0.0800 
 32 H       -4.9940    -1.5030     2.3140 H     1 <1>   0.0800 
 33 H       -4.9690    -6.0510     1.8220 H     1 <1>   0.0800 
 34 H       -4.3770    -6.2520     0.2000 H     1 <1>   0.0800 
 35 H       -5.4040    -4.7900    -1.5190 H     1 <1>   0.0800 
 36 H       -4.6910    -3.2680    -1.1770 H     1 <1>   0.0800 
 37 H       -7.0140    -3.2670    -2.2180 H     1 <1>   0.0800 
 38 H       -6.7860    -2.2080    -0.8710 H     1 <1>   0.0800 
 39 H       -6.1030    -7.3820    -1.4820 H     1 <1>   0.2700 
 40 H       -7.8280    -6.0550     2.1030 H     1 <1>   0.1500 
 41 H       -7.6920    -4.8550    -0.1730 H     1 <1>   0.4500 
 42 H       -9.6000    -3.1020    -1.5910 H     1 <1>   0.0800 
 43 H       -9.9560    -4.6170    -0.7800 H     1 <1>   0.0800 
 44 H       -8.9450    -4.6100    -2.2040 H     1 <1>   0.0800 
 45 H       -8.6610    -2.1880     0.6290 H     1 <1>   0.0800 
 46 H       -7.5150    -3.1930     1.4980 H     1 <1>   0.0800 
 47 H       -9.1670    -3.7220     1.3090 H     1 <1>   0.0800 
 48 H       -8.7100    -7.6510    -2.7190 H     1 <1>   0.0800 
 49 H       -9.8310    -8.2790    -1.5340 H     1 <1>   0.0800 
 50 H       -8.3650    -9.1540    -1.8870 H     1 <1>   0.0800 
@<TRIPOS>BOND
  1   1   2  1   
  2   2   3  ar  
  3   2   4  ar  
  4   3   5  ar  
  5   3   6  1   
  6   4   7  ar  
  7   4  25  1   
  8   5   8  ar  
  9   5  26  1   
 10   6   9  1   
 11   6  27  1   
 12   6  28  1   
 13   7   8  ar  
 14   7  29  1   
 15   8  30  1   
 16   9  10  1   
 17   9  31  1   
 18   9  32  1   
 19  10  11  2   
 20  10  12  am  
 21  12  13  1   
 22  12  14  1   
 23  13  15  1   
 24  13  33  1   
 25  13  34  1   
 26  14  16  1   
 27  14  35  1   
 28  14  36  1   
 29  15  17  1   
 30  15  18  2   
 31  16  19  1   
 32  16  37  1   
 33  16  38  1   
 34  17  20  1   
 35  17  39  1   
 36  18  21  1   
 37  18  40  1   
 38  19  22  1   
 39  19  23  1   
 40  19  41  1   
 41  20  21  2   
 42  20  24  1   
 43  22  42  1   
 44  22  43  1   
 45  22  44  1   
 46  23  45  1   
 47  23  46  1   
 48  23  47  1   
 49  24  48  1   
 50  24  49  1   
 51  24  50  1   
@<TRIPOS>SUBSTRUCTURE
  1 ****  14 GROUP 4 **** **** 0

# MOE 2024.06 (io_trps.svl 2023.06)
