@<TRIPOS>MOLECULE
NONAME
44 46 1 0 0 
SMALL
USER_CHARGES


@<TRIPOS>ATOM
  1 F        0.3430     0.2590     1.7530 F     1 <1>  -0.1900 
  2 C        1.3330     0.7550     1.0590 C.ar  1 <1>   0.1900 
  3 C        2.2250    -0.1200     0.4670 C.ar  1 <1>  -0.1440 
  4 C        1.4390     2.1270     0.9330 C.ar  1 <1>  -0.1500 
  5 C        3.2460     0.4450    -0.2740 C.ar  1 <1>   0.1900 
  6 C        2.0870    -1.6170     0.6350 C.3   1 <1>   0.4860 
  7 C        2.4790     2.6620     0.1860 C.ar  1 <1>   0.0820 
  8 F        4.0990    -0.3500    -0.8630 F     1 <1>  -0.1900 
  9 C        3.3970     1.8110    -0.4290 C.ar  1 <1>  -0.1500 
 10 N        1.6120    -2.2330    -0.6380 N.4   1 <1>  -0.9590 
 11 O        2.5310     4.0110     0.0990 O.3   1 <1>  -0.3620 
 12 C        0.2800    -1.7120    -1.0900 C.3   1 <1>   0.3430 
 13 C        1.4260    -3.7020    -0.4850 C.3   1 <1>   0.3430 
 14 C        3.5670     4.6710    -0.5970 C.3   1 <1>   0.0400 
 15 C       -0.7750    -2.7120    -0.5940 C.3   1 <1>   0.2000 
 16 C       -0.0070    -3.8850     0.0210 C.3   1 <1>  -0.0800 
 17 O       -1.6010    -2.1430     0.3640 O.3   1 <1>  -0.6800 
 18 C       -0.6220    -5.2500    -0.3430 C.3   1 <1>  -0.0170 
 19 C        0.1370    -6.4120     0.2840 C.ar  1 <1>   0.1670 
 20 N        1.3830    -6.5920    -0.1290 N.ar  1 <1>  -0.6200 
 21 C       -0.4850    -7.2240     1.2320 C.ar  1 <1>   0.1600 
 22 C        1.9520    -7.6390     0.4520 C.ar  1 <1>   0.1600 
 23 N        0.0900    -8.2570     1.8230 N.ar  1 <1>  -0.6200 
 24 C        1.3270    -8.4430     1.3970 C.ar  1 <1>   0.1600 
 25 H        0.7280     2.7800     1.4080 H     1 <1>   0.1500 
 26 H        1.3950    -1.8320     1.4320 H     1 <1>   0.0800 
 27 H        3.0460    -2.0310     0.9040 H     1 <1>   0.0800 
 28 H        4.2140     2.1840    -1.0170 H     1 <1>   0.1500 
 29 H        2.3300    -2.0360    -1.3520 H     1 <1>   0.4500 
 30 H        0.0790    -0.7210    -0.7190 H     1 <1>   0.0800 
 31 H        0.2540    -1.6920    -2.1670 H     1 <1>   0.0800 
 32 H        1.5260    -4.1840    -1.4450 H     1 <1>   0.0800 
 33 H        2.1440    -4.1380     0.1920 H     1 <1>   0.0800 
 34 H        3.4050     5.7310    -0.5110 H     1 <1>   0.0800 
 35 H        3.5360     4.3820    -1.6320 H     1 <1>   0.0800 
 36 H        4.5110     4.4110    -0.1500 H     1 <1>   0.0800 
 37 H       -1.3990    -3.0190    -1.4180 H     1 <1>   0.0800 
 38 H        0.0120    -3.7940     1.0930 H     1 <1>   0.0800 
 39 H       -1.1240    -1.8160     1.1530 H     1 <1>   0.4000 
 40 H       -0.6250    -5.3840    -1.4110 H     1 <1>   0.0800 
 41 H       -1.6470    -5.2710    -0.0140 H     1 <1>   0.0800 
 42 H       -1.5010    -7.0160     1.5170 H     1 <1>   0.1500 
 43 H        2.9630    -7.8770     0.1680 H     1 <1>   0.1500 
 44 H        1.8710    -9.2710     1.8160 H     1 <1>   0.1500 
@<TRIPOS>BOND
  1   1   2  1   
  2   2   3  ar  
  3   2   4  ar  
  4   3   5  ar  
  5   3   6  1   
  6   4   7  ar  
  7   4  25  1   
  8   5   8  1   
  9   5   9  ar  
 10   6  10  1   
 11   6  26  1   
 12   6  27  1   
 13   7   9  ar  
 14   7  11  1   
 15   9  28  1   
 16  10  12  1   
 17  10  13  1   
 18  10  29  1   
 19  11  14  1   
 20  12  15  1   
 21  12  30  1   
 22  12  31  1   
 23  13  16  1   
 24  13  32  1   
 25  13  33  1   
 26  14  34  1   
 27  14  35  1   
 28  14  36  1   
 29  15  16  1   
 30  15  17  1   
 31  15  37  1   
 32  16  18  1   
 33  16  38  1   
 34  17  39  1   
 35  18  19  1   
 36  18  40  1   
 37  18  41  1   
 38  19  20  ar  
 39  19  21  ar  
 40  20  22  ar  
 41  21  23  ar  
 42  21  42  1   
 43  22  24  ar  
 44  22  43  1   
 45  23  24  ar  
 46  24  44  1   
@<TRIPOS>SUBSTRUCTURE
  1 ****  10 GROUP 4 **** **** 0

# MOE 2024.06 (io_trps.svl 2023.06)
