@<TRIPOS>MOLECULE
NONAME
51 52 1 0 0 
SMALL
USER_CHARGES


@<TRIPOS>ATOM
  1 O       -1.1440     0.1890     2.7670 O.2   1 <1>  -0.5700 
  2 C       -1.6290     0.6150     1.7400 C.2   1 <1>   0.5440 
  3 N       -2.0860    -0.2790     0.7890 N.am  1 <1>  -0.6600 
  4 C       -1.7740     2.0470     1.5680 C.ar  1 <1>   0.0860 
  5 C       -2.1570    -1.7400     1.1010 C.3   1 <1>   0.3200 
  6 C       -2.6550     0.1470    -0.5300 C.3   1 <1>   0.1400 
  7 C       -1.1040     2.7460     0.5670 C.ar  1 <1>  -0.1500 
  8 C       -2.6240     2.7720     2.4020 C.ar  1 <1>  -0.1500 
  9 C       -3.5810    -2.2030     0.8650 C.2   1 <1>  -0.3320 
 10 C       -4.0990     0.6620    -0.3580 C.3   1 <1>   0.3430 
 11 C       -1.3160     4.0970     0.3620 C.ar  1 <1>   0.0830 
 12 C       -2.8270     4.1290     2.2220 C.ar  1 <1>  -0.1500 
 13 N       -3.9600    -3.0910    -0.0750 N.pl3 1 <1>   0.0330 
 14 C       -4.7090    -1.8160     1.4990 C.2   1 <1>   0.0770 
 15 N       -4.5550     1.5650    -1.4670 N.4   1 <1>  -0.9590 
 16 O       -0.6670     4.6640    -0.6790 O.3   1 <1>  -0.3620 
 17 C       -2.1790     4.7960     1.1980 C.ar  1 <1>  -0.1500 
 18 C       -5.3060    -3.1480     0.0180 C.2   1 <1>   0.0060 
 19 N       -5.7920    -2.3800     0.9370 N.2   1 <1>  -0.5650 
 20 C       -3.8640     2.8960    -1.4260 C.3   1 <1>   0.2630 
 21 C       -6.0360     1.7460    -1.3680 C.3   1 <1>   0.2630 
 22 C       -0.3970     6.0490    -0.6900 C.3   1 <1>   0.1200 
 23 C       -6.1530    -4.0410    -0.8640 C.3   1 <1>  -0.0600 
 24 C        0.5480     6.3350    -1.8520 C.3   1 <1>  -0.2400 
 25 H       -1.8900    -1.9360     2.1270 H     1 <1>   0.0800 
 26 H       -1.4680    -2.2750     0.4710 H     1 <1>   0.0800 
 27 H       -2.6510    -0.6860    -1.2090 H     1 <1>   0.0800 
 28 H       -2.0290     0.9080    -0.9530 H     1 <1>   0.0800 
 29 H       -0.4000     2.2300    -0.0620 H     1 <1>   0.1500 
 30 H       -3.1230     2.2590     3.2080 H     1 <1>   0.1500 
 31 H       -4.1680     1.1930     0.5770 H     1 <1>   0.0800 
 32 H       -4.7560    -0.1900    -0.3030 H     1 <1>   0.0800 
 33 H       -3.4840     4.6670     2.8860 H     1 <1>   0.1500 
 34 H       -3.3690    -3.6350    -0.7130 H     1 <1>   0.2700 
 35 H       -4.7990    -1.1370     2.3320 H     1 <1>   0.1500 
 36 H       -4.3520     1.1080    -2.3690 H     1 <1>   0.4500 
 37 H       -2.3530     5.8490     1.0690 H     1 <1>   0.1500 
 38 H       -4.0260     3.3740    -0.4730 H     1 <1>   0.0800 
 39 H       -4.2440     3.5400    -2.2030 H     1 <1>   0.0800 
 40 H       -2.8020     2.7810    -1.5720 H     1 <1>   0.0800 
 41 H       -6.2940     2.2260    -0.4370 H     1 <1>   0.0800 
 42 H       -6.5340     0.7900    -1.4090 H     1 <1>   0.0800 
 43 H       -6.3960     2.3560    -2.1810 H     1 <1>   0.0800 
 44 H        0.0630     6.3150     0.2470 H     1 <1>   0.0800 
 45 H       -1.3230     6.5820    -0.8150 H     1 <1>   0.0800 
 46 H       -6.0120    -3.7900    -1.8990 H     1 <1>   0.0800 
 47 H       -7.1930    -3.9160    -0.6170 H     1 <1>   0.0800 
 48 H       -5.8890    -5.0710    -0.7080 H     1 <1>   0.0800 
 49 H        1.4670     5.7910    -1.7260 H     1 <1>   0.0800 
 50 H        0.7760     7.3850    -1.8850 H     1 <1>   0.0800 
 51 H        0.0900     6.0560    -2.7840 H     1 <1>   0.0800 
@<TRIPOS>BOND
  1   1   2  2   
  2   2   3  am  
  3   2   4  1   
  4   3   5  1   
  5   3   6  1   
  6   4   7  ar  
  7   4   8  ar  
  8   5   9  1   
  9   5  25  1   
 10   5  26  1   
 11   6  10  1   
 12   6  27  1   
 13   6  28  1   
 14   7  11  ar  
 15   7  29  1   
 16   8  12  ar  
 17   8  30  1   
 18   9  13  1   
 19   9  14  2   
 20  10  15  1   
 21  10  31  1   
 22  10  32  1   
 23  11  16  1   
 24  11  17  ar  
 25  12  17  ar  
 26  12  33  1   
 27  13  18  1   
 28  13  34  1   
 29  14  19  1   
 30  14  35  1   
 31  15  20  1   
 32  15  21  1   
 33  15  36  1   
 34  16  22  1   
 35  17  37  1   
 36  18  19  2   
 37  18  23  1   
 38  20  38  1   
 39  20  39  1   
 40  20  40  1   
 41  21  41  1   
 42  21  42  1   
 43  21  43  1   
 44  22  24  1   
 45  22  44  1   
 46  22  45  1   
 47  23  46  1   
 48  23  47  1   
 49  23  48  1   
 50  24  49  1   
 51  24  50  1   
 52  24  51  1   
@<TRIPOS>SUBSTRUCTURE
  1 ****   6 GROUP 4 **** **** 0

# MOE 2024.06 (io_trps.svl 2023.06)
