@<TRIPOS>MOLECULE
NONAME
47 50 1 0 0 
SMALL
USER_CHARGES


@<TRIPOS>ATOM
  1 CL       0.1670     0.3220     0.3170 Cl    1 <1>  -0.1770 
  2 C       -0.7270     1.7880    -0.0160 C.ar  1 <1>   0.1770 
  3 C       -1.8980     1.7250    -0.7860 C.ar  1 <1>  -0.1440 
  4 C       -0.2440     2.9740     0.4960 C.ar  1 <1>  -0.1500 
  5 C       -2.5930     2.8930    -1.0410 C.ar  1 <1>  -0.1500 
  6 C       -2.4010     0.3970    -1.3330 C.3   1 <1>  -0.0960 
  7 C       -0.9480     4.1490     0.2330 C.ar  1 <1>   0.0000 
  8 C       -2.1050     4.0880    -0.5260 C.ar  1 <1>   0.1400 
  9 C       -0.7970     5.5150     0.5530 C.2   1 <1>  -0.1810 
 10 O       -2.6310     5.3060    -0.6660 O.3   1 <1>  -0.2800 
 11 C       -1.8410     6.1510    -0.0130 C.2   1 <1>  -0.0100 
 12 C        0.3540     6.0830     1.3750 C.3   1 <1>   0.0820 
 13 C        0.4600     7.6010     1.3050 C.2   1 <1>   0.5690 
 14 O        0.1190     8.2180     2.2880 O.2   1 <1>  -0.5700 
 15 N        0.9420     8.2430     0.1830 N.am  1 <1>  -0.6600 
 16 C        1.3700     9.6760     0.2900 C.3   1 <1>   0.1400 
 17 C        1.2690     7.5510    -1.1070 C.3   1 <1>   0.1400 
 18 C        2.8980     9.8990     0.1960 C.3   1 <1>   0.2200 
 19 C        2.7680     7.5130    -1.4710 C.3   1 <1>  -0.0190 
 20 N        3.3360     9.9290    -1.2290 N.am  1 <1>  -0.6600 
 21 C        3.7770     8.9390     1.0420 C.3   1 <1>   0.1200 
 22 C        3.2300     8.8360    -2.0380 C.2   1 <1>   0.5690 
 23 C        3.7510     7.0130    -0.3960 C.3   1 <1>   0.1200 
 24 C        3.8300    11.2420    -1.7360 C.3   1 <1>   0.0600 
 25 O        3.5320     7.5660     0.8660 O.3   1 <1>  -0.5600 
 26 O        3.5020     8.8780    -3.2140 O.2   1 <1>  -0.5700 
 27 H        0.6530     2.9930     1.0850 H     1 <1>   0.1500 
 28 H       -3.4960     2.9080    -1.6230 H     1 <1>   0.1500 
 29 H       -3.3060     0.5300    -1.8970 H     1 <1>   0.0800 
 30 H       -2.6010    -0.2830    -0.5240 H     1 <1>   0.0800 
 31 H       -1.6590    -0.0410    -1.9780 H     1 <1>   0.0800 
 32 H       -2.1080     7.1950    -0.0080 H     1 <1>   0.1500 
 33 H        1.2840     5.6620     1.0450 H     1 <1>   0.0800 
 34 H        0.2190     5.7950     2.4020 H     1 <1>   0.0800 
 35 H        0.8790    10.2480    -0.4780 H     1 <1>   0.0800 
 36 H        1.0430    10.0800     1.2310 H     1 <1>   0.0800 
 37 H        0.9090     6.5410    -1.0880 H     1 <1>   0.0800 
 38 H        0.7350     8.0480    -1.9000 H     1 <1>   0.0800 
 39 H        3.0740    10.8830     0.5930 H     1 <1>   0.0800 
 40 H        2.8520     6.8160    -2.2850 H     1 <1>   0.0800 
 41 H        3.5920     9.1410     2.0820 H     1 <1>   0.0800 
 42 H        4.8180     9.1250     0.8480 H     1 <1>   0.0800 
 43 H        4.7690     7.2140    -0.6850 H     1 <1>   0.0800 
 44 H        3.6390     5.9490    -0.2850 H     1 <1>   0.0800 
 45 H        4.6720    11.5670    -1.1510 H     1 <1>   0.0800 
 46 H        3.0460    11.9750    -1.6720 H     1 <1>   0.0800 
 47 H        4.1410    11.1630    -2.7640 H     1 <1>   0.0800 
@<TRIPOS>BOND
  1   1   2  1   
  2   2   3  ar  
  3   2   4  ar  
  4   3   5  ar  
  5   3   6  1   
  6   4   7  ar  
  7   4  27  1   
  8   5   8  ar  
  9   5  28  1   
 10   6  29  1   
 11   6  30  1   
 12   6  31  1   
 13   7   8  ar  
 14   7   9  1   
 15   8  10  1   
 16   9  11  2   
 17   9  12  1   
 18  10  11  1   
 19  11  32  1   
 20  12  13  1   
 21  12  33  1   
 22  12  34  1   
 23  13  14  2   
 24  13  15  am  
 25  15  16  1   
 26  15  17  1   
 27  16  18  1   
 28  16  35  1   
 29  16  36  1   
 30  17  19  1   
 31  17  37  1   
 32  17  38  1   
 33  18  20  1   
 34  18  21  1   
 35  18  39  1   
 36  19  22  1   
 37  19  23  1   
 38  19  40  1   
 39  20  22  am  
 40  20  24  1   
 41  21  25  1   
 42  21  41  1   
 43  21  42  1   
 44  22  26  2   
 45  23  25  1   
 46  23  43  1   
 47  23  44  1   
 48  24  45  1   
 49  24  46  1   
 50  24  47  1   
@<TRIPOS>SUBSTRUCTURE
  1 ****  17 GROUP 4 **** **** 0

# MOE 2024.06 (io_trps.svl 2023.06)
