@<TRIPOS>MOLECULE
NONAME
39 40 1 0 0 
SMALL
USER_CHARGES


@<TRIPOS>ATOM
  1 S       -0.1120     0.2360    -1.3240 S.3   1 <1>  -0.0800 
  2 C       -1.0370     0.5420     0.1220 C.2   1 <1>   0.1980 
  3 C       -1.4630    -0.6380    -1.9900 C.2   1 <1>  -0.1400 
  4 N       -2.2070     0.0450     0.1030 N.2   1 <1>  -0.5650 
  5 C       -0.3690     1.3410     1.2170 C.3   1 <1>  -0.0600 
  6 C       -2.4710    -0.6150    -1.0930 C.2   1 <1>   0.0460 
  7 C       -1.2150    -1.2100    -3.3770 C.3   1 <1>  -0.0600 
  8 C       -3.8800    -1.2160    -1.1760 C.3   1 <1>   0.6040 
  9 N       -3.8680    -2.6620    -0.7750 N.4   1 <1>  -0.9590 
 10 C       -4.5140    -1.0430    -2.5580 C.3   1 <1>  -0.2400 
 11 C       -5.2350    -3.2710    -0.7610 C.3   1 <1>   0.4810 
 12 C       -3.1640    -2.8380     0.5420 C.3   1 <1>   0.2630 
 13 C       -5.1440    -4.7860    -0.5880 C.2   1 <1>  -0.0290 
 14 N       -5.1440    -5.3290     0.6950 N.am  1 <1>  -0.5390 
 15 C       -5.0680    -5.6440    -1.6350 C.2   1 <1>  -0.1360 
 16 C       -5.0520    -6.6750     0.9240 C.2   1 <1>   0.6900 
 17 C       -4.9730    -7.0520    -1.4260 C.2   1 <1>   0.6160 
 18 O       -5.0430    -7.0950     2.0540 O.2   1 <1>  -0.5700 
 19 N       -4.9660    -7.5070    -0.1440 N.am  1 <1>  -0.4900 
 20 O       -4.8890    -7.8440    -2.3380 O.2   1 <1>  -0.5700 
 21 H       -0.0940     2.3110     0.8440 H     1 <1>   0.0800 
 22 H        0.5140     0.8310     1.5570 H     1 <1>   0.0800 
 23 H       -1.0430     1.4650     2.0450 H     1 <1>   0.0800 
 24 H       -0.2820    -1.7470    -3.3850 H     1 <1>   0.0800 
 25 H       -1.1480    -0.4100    -4.0930 H     1 <1>   0.0800 
 26 H       -1.9890    -1.8850    -3.6810 H     1 <1>   0.0800 
 27 H       -4.4820    -0.6630    -0.4730 H     1 <1>   0.0800 
 28 H       -3.3040    -3.1460    -1.4830 H     1 <1>   0.4500 
 29 H       -4.1480    -1.7620    -3.2640 H     1 <1>   0.0800 
 30 H       -4.2880    -0.0570    -2.9270 H     1 <1>   0.0800 
 31 H       -5.5840    -1.1150    -2.4970 H     1 <1>   0.0800 
 32 H       -5.7310    -3.0720    -1.6960 H     1 <1>   0.0800 
 33 H       -5.8300    -2.8450     0.0300 H     1 <1>   0.0800 
 34 H       -3.6780    -2.2990     1.3200 H     1 <1>   0.0800 
 35 H       -2.1550    -2.4620     0.4840 H     1 <1>   0.0800 
 36 H       -3.1130    -3.8810     0.8110 H     1 <1>   0.0800 
 37 H       -5.2870    -4.7960     1.5580 H     1 <1>   0.3700 
 38 H       -5.0710    -5.3350    -2.6640 H     1 <1>   0.1500 
 39 H       -4.9070    -8.5070     0.0200 H     1 <1>   0.3700 
@<TRIPOS>BOND
  1   1   2  1   
  2   1   3  1   
  3   2   4  2   
  4   2   5  1   
  5   3   6  2   
  6   3   7  1   
  7   4   6  1   
  8   5  21  1   
  9   5  22  1   
 10   5  23  1   
 11   6   8  1   
 12   7  24  1   
 13   7  25  1   
 14   7  26  1   
 15   8   9  1   
 16   8  10  1   
 17   8  27  1   
 18   9  11  1   
 19   9  12  1   
 20   9  28  1   
 21  10  29  1   
 22  10  30  1   
 23  10  31  1   
 24  11  13  1   
 25  11  32  1   
 26  11  33  1   
 27  12  34  1   
 28  12  35  1   
 29  12  36  1   
 30  13  14  1   
 31  13  15  2   
 32  14  16  am  
 33  14  37  1   
 34  15  17  1   
 35  15  38  1   
 36  16  18  2   
 37  16  19  am  
 38  17  19  am  
 39  17  20  2   
 40  19  39  1   
@<TRIPOS>SUBSTRUCTURE
  1 ****   9 GROUP 4 **** **** 0

# MOE 2024.06 (io_trps.svl 2023.06)
