@<TRIPOS>MOLECULE
NONAME
42 44 1 0 0 
SMALL
USER_CHARGES


@<TRIPOS>ATOM
  1 O        0.8630    -1.1240     2.3010 O.2   1 <1>  -0.5700 
  2 C        1.5360    -1.4230     1.3330 C.2   1 <1>   0.5440 
  3 N        2.3700    -0.4760     0.7860 N.am  1 <1>  -0.6600 
  4 C        1.4310    -2.7580     0.7800 C.ar  1 <1>   0.0860 
  5 C        2.4900     0.8860     1.3550 C.3   1 <1>   0.1400 
  6 C        2.9240    -0.5240    -0.5860 C.3   1 <1>   0.1400 
  7 C        0.2100    -3.3510     0.5250 C.ar  1 <1>  -0.1500 
  8 C        2.5380    -3.5400     0.4750 C.ar  1 <1>  -0.1500 
  9 C        3.3390     1.6590     0.3520 C.3   1 <1>  -0.1600 
 10 C        3.1220     0.9360    -0.9740 C.3   1 <1>  -0.1600 
 11 C        0.1330    -4.6280    -0.0120 C.ar  1 <1>   0.4100 
 12 C        2.3680    -4.8020    -0.0570 C.ar  1 <1>   0.1600 
 13 N        1.1970    -5.3590    -0.3110 N.ar  1 <1>  -0.6200 
 14 N       -1.0980    -5.1810    -0.2560 N.pl3 1 <1>  -0.8690 
 15 C       -1.2540    -6.6380    -0.4140 C.3   1 <1>   0.3900 
 16 C       -2.7110    -6.9760    -0.1900 C.2   1 <1>  -0.1810 
 17 C       -3.3140    -7.5580     0.8590 C.2   1 <1>  -0.0400 
 18 C       -3.7630    -6.7330    -1.0710 C.2   1 <1>   0.1080 
 19 O       -4.5900    -7.6390     0.5930 O.3   1 <1>  -0.0190 
 20 C       -2.7970    -8.0820     2.1830 C.3   1 <1>  -0.0600 
 21 N       -4.8760    -7.1410    -0.5750 N.2   1 <1>  -0.4100 
 22 C       -3.6400    -6.0790    -2.4310 C.3   1 <1>  -0.0590 
 23 H        2.9480     0.8520     2.3280 H     1 <1>   0.0800 
 24 H        1.5070     1.3200     1.4360 H     1 <1>   0.0800 
 25 H        2.2530    -1.0240    -1.2640 H     1 <1>   0.0800 
 26 H        3.8730    -1.0330    -0.5650 H     1 <1>   0.0800 
 27 H       -0.6930    -2.8130     0.7450 H     1 <1>   0.1500 
 28 H        3.5250    -3.1600     0.6630 H     1 <1>   0.1500 
 29 H        4.3720     1.5900     0.6440 H     1 <1>   0.0800 
 30 H        3.0560     2.6960     0.3070 H     1 <1>   0.0800 
 31 H        2.2240     1.2980    -1.4440 H     1 <1>   0.0800 
 32 H        3.9480     1.0630    -1.6520 H     1 <1>   0.0800 
 33 H        3.2420    -5.3880    -0.2870 H     1 <1>   0.1500 
 34 H       -1.8810    -4.7770     0.2600 H     1 <1>   0.4000 
 35 H       -0.6380    -7.1520     0.3040 H     1 <1>   0.0800 
 36 H       -0.9450    -6.9300    -1.4030 H     1 <1>   0.0800 
 37 H       -1.7380    -7.9200     2.2680 H     1 <1>   0.0800 
 38 H       -2.9980    -9.1350     2.2590 H     1 <1>   0.0800 
 39 H       -3.2920    -7.5730     2.9900 H     1 <1>   0.0800 
 40 H       -3.1390    -5.1330    -2.3400 H     1 <1>   0.0800 
 41 H       -4.6170    -5.9150    -2.8500 H     1 <1>   0.0800 
 42 H       -3.0800    -6.7140    -3.0920 H     1 <1>   0.0800 
@<TRIPOS>BOND
  1   1   2  2   
  2   2   3  am  
  3   2   4  1   
  4   3   5  1   
  5   3   6  1   
  6   4   7  ar  
  7   4   8  ar  
  8   5   9  1   
  9   5  23  1   
 10   5  24  1   
 11   6  10  1   
 12   6  25  1   
 13   6  26  1   
 14   7  11  ar  
 15   7  27  1   
 16   8  12  ar  
 17   8  28  1   
 18   9  10  1   
 19   9  29  1   
 20   9  30  1   
 21  10  31  1   
 22  10  32  1   
 23  11  13  ar  
 24  11  14  1   
 25  12  13  ar  
 26  12  33  1   
 27  14  15  1   
 28  14  34  1   
 29  15  16  1   
 30  15  35  1   
 31  15  36  1   
 32  16  17  2   
 33  16  18  1   
 34  17  19  1   
 35  17  20  1   
 36  18  21  2   
 37  18  22  1   
 38  19  21  1   
 39  20  37  1   
 40  20  38  1   
 41  20  39  1   
 42  22  40  1   
 43  22  41  1   
 44  22  42  1   
@<TRIPOS>SUBSTRUCTURE
  1 ****   7 GROUP 4 **** **** 0

# MOE 2024.06 (io_trps.svl 2023.06)
