@<TRIPOS>MOLECULE
NONAME
54 58 1 0 0 
SMALL
USER_CHARGES


@<TRIPOS>ATOM
  1 O        2.9560    -0.3400    -0.6380 O.2   1 <1>  -0.5700 
  2 C        2.0370    -1.1200    -0.4500 C.2   1 <1>   0.5440 
  3 N        0.8500    -0.5880     0.0240 N.am  1 <1>  -0.6600 
  4 C        2.2330    -2.5370    -0.7640 C.ar  1 <1>   0.3960 
  5 C       -0.4310    -1.3100     0.1790 C.3   1 <1>   0.1400 
  6 C        0.6910     0.8460     0.3490 C.3   1 <1>   0.1400 
  7 N        1.5920    -3.5020    -0.0780 N.ar  1 <1>  -0.6200 
  8 C        3.1150    -2.8510    -1.8050 C.ar  1 <1>   0.1600 
  9 C       -1.4790    -0.2150     0.3320 C.3   1 <1>  -0.1600 
 10 C       -0.7150     0.9650     0.9280 C.3   1 <1>  -0.1600 
 11 C        1.8720    -4.7180    -0.4920 C.ar  1 <1>   0.4100 
 12 N        3.4070    -4.0730    -2.2330 N.ar  1 <1>  -0.6200 
 13 N        1.2130    -5.6990     0.1950 N.pl3 1 <1>  -0.8690 
 14 C        2.7640    -4.9890    -1.5410 C.ar  1 <1>   0.1600 
 15 C        0.3000    -6.6080    -0.5270 C.3   1 <1>   0.4330 
 16 C       -1.1390    -6.2680    -0.2330 C.ar  1 <1>  -0.1430 
 17 C        0.5770    -8.0710    -0.1110 C.3   1 <1>  -0.1600 
 18 C       -1.9870    -7.3000    -0.5540 C.ar  1 <1>   0.0830 
 19 C       -1.6590    -5.0780     0.2550 C.ar  1 <1>  -0.1500 
 20 C       -0.5700    -9.1980    -0.1380 C.3   1 <1>   0.2800 
 21 O       -1.3990    -8.4280    -1.0180 O.3   1 <1>  -0.3630 
 22 C       -3.3600    -7.1690    -0.4270 C.ar  1 <1>  -0.1500 
 23 C       -3.0310    -4.9420     0.4080 C.ar  1 <1>  -0.1500 
 24 C        0.3570   -10.1410     0.7480 C.3   1 <1>  -0.1600 
 25 C       -1.7480   -10.2490    -0.0810 C.3   1 <1>  -0.1600 
 26 C       -3.8800    -5.9840     0.0630 C.ar  1 <1>  -0.1500 
 27 C       -0.0670   -11.5990     0.7650 C.3   1 <1>  -0.1600 
 28 C       -1.5430   -11.4490     0.8290 C.3   1 <1>  -0.1600 
 29 H       -0.3860    -1.9120     1.0710 H     1 <1>   0.0800 
 30 H       -0.6340    -1.9350    -0.6740 H     1 <1>   0.0800 
 31 H        0.7800     1.4220    -0.5560 H     1 <1>   0.0800 
 32 H        1.4420     1.1640     1.0530 H     1 <1>   0.0800 
 33 H        3.6040    -2.0370    -2.3110 H     1 <1>   0.1500 
 34 H       -2.2990    -0.5290     0.9520 H     1 <1>   0.0800 
 35 H       -1.8540     0.0480    -0.6420 H     1 <1>   0.0800 
 36 H       -1.1660     1.9110     0.6890 H     1 <1>   0.0800 
 37 H       -0.6600     0.8620     1.9980 H     1 <1>   0.0800 
 38 H        0.7320    -5.3110     1.0080 H     1 <1>   0.4000 
 39 H        2.9380    -6.0180    -1.7940 H     1 <1>   0.1500 
 40 H        0.4460    -6.5130    -1.5900 H     1 <1>   0.0800 
 41 H        0.9710    -7.9610     0.8870 H     1 <1>   0.0800 
 42 H        1.3870    -8.3930    -0.7410 H     1 <1>   0.0800 
 43 H       -1.0130    -4.2570     0.5060 H     1 <1>   0.1500 
 44 H       -4.0030    -7.9830    -0.7070 H     1 <1>   0.1500 
 45 H       -3.4400    -4.0230     0.7890 H     1 <1>   0.1500 
 46 H        0.3100    -9.8000     1.7710 H     1 <1>   0.0800 
 47 H        1.3960   -10.1660     0.4600 H     1 <1>   0.0800 
 48 H       -1.8970   -10.6470    -1.0730 H     1 <1>   0.0800 
 49 H       -2.6720    -9.7970     0.2390 H     1 <1>   0.0800 
 50 H       -4.9450    -5.8710     0.1750 H     1 <1>   0.1500 
 51 H        0.3280   -12.1370     1.6090 H     1 <1>   0.0800 
 52 H        0.2230   -12.0850    -0.1520 H     1 <1>   0.0800 
 53 H       -2.0640   -12.3270     0.4830 H     1 <1>   0.0800 
 54 H       -1.8530   -11.2140     1.8340 H     1 <1>   0.0800 
@<TRIPOS>BOND
  1   1   2  2   
  2   2   3  am  
  3   2   4  1   
  4   3   5  1   
  5   3   6  1   
  6   4   7  ar  
  7   4   8  ar  
  8   5   9  1   
  9   5  29  1   
 10   5  30  1   
 11   6  10  1   
 12   6  31  1   
 13   6  32  1   
 14   7  11  ar  
 15   8  12  ar  
 16   8  33  1   
 17   9  10  1   
 18   9  34  1   
 19   9  35  1   
 20  10  36  1   
 21  10  37  1   
 22  11  13  1   
 23  11  14  ar  
 24  12  14  ar  
 25  13  15  1   
 26  13  38  1   
 27  14  39  1   
 28  15  16  1   
 29  15  17  1   
 30  15  40  1   
 31  16  18  ar  
 32  16  19  ar  
 33  17  20  1   
 34  17  41  1   
 35  17  42  1   
 36  18  21  1   
 37  18  22  ar  
 38  19  23  ar  
 39  19  43  1   
 40  20  21  1   
 41  20  24  1   
 42  20  25  1   
 43  22  26  ar  
 44  22  44  1   
 45  23  26  ar  
 46  23  45  1   
 47  24  27  1   
 48  24  46  1   
 49  24  47  1   
 50  25  28  1   
 51  25  48  1   
 52  25  49  1   
 53  26  50  1   
 54  27  28  1   
 55  27  51  1   
 56  27  52  1   
 57  28  53  1   
 58  28  54  1   
@<TRIPOS>SUBSTRUCTURE
  1 ****  13 GROUP 4 **** **** 0

# MOE 2024.06 (io_trps.svl 2023.06)
