@<TRIPOS>MOLECULE
NONAME
45 47 1 0 0 
SMALL
USER_CHARGES


@<TRIPOS>ATOM
  1 CL       1.8130     0.7000    -1.7590 Cl    1 <1>  -0.1770 
  2 C        0.7900     1.7990    -0.8600 C.ar  1 <1>   0.1770 
  3 C        1.2200     2.3960     0.3230 C.ar  1 <1>  -0.1440 
  4 C       -0.4670     2.0490    -1.3810 C.ar  1 <1>  -0.1500 
  5 C        0.3470     3.2650     0.9670 C.ar  1 <1>  -0.1500 
  6 C        2.5940     2.1430     0.9410 C.3   1 <1>   0.3640 
  7 C       -1.3230     2.9130    -0.7240 C.ar  1 <1>  -0.1500 
  8 C       -0.9120     3.5210     0.4500 C.ar  1 <1>  -0.1500 
  9 N        2.7020     0.7030     1.2780 N.am  1 <1>  -0.7300 
 10 C        3.7680     2.6580     0.0600 C.3   1 <1>   0.2610 
 11 C        3.7500    -0.0720     0.9250 C.2   1 <1>   0.5690 
 12 O        4.9780     1.9490     0.3180 O.3   1 <1>  -0.5600 
 13 C        3.9630     4.1570     0.3090 C.2   1 <1>   0.5690 
 14 O        3.7860    -1.2380     1.2270 O.2   1 <1>  -0.5700 
 15 C        4.8890     0.5550     0.1190 C.3   1 <1>   0.1810 
 16 O        3.0690     4.9260     0.0490 O.2   1 <1>  -0.5700 
 17 N        5.1440     4.5890     0.8260 N.am  1 <1>  -0.7300 
 18 C        5.5260     5.9950     1.0830 C.3   1 <1>   0.1400 
 19 C        6.5510     6.4690     0.0440 C.3   1 <1>  -0.0800 
 20 C        7.8450     5.6330     0.0630 C.3   1 <1>  -0.1600 
 21 C        6.9030     7.9470     0.2750 C.3   1 <1>  -0.1600 
 22 C        8.9020     6.2360    -0.8670 C.3   1 <1>   0.1200 
 23 C        8.0190     8.4020    -0.6720 C.3   1 <1>   0.1200 
 24 O        9.1230     7.5660    -0.5150 O.3   1 <1>  -0.5600 
 25 H       -0.7690     1.5710    -2.2950 H     1 <1>   0.1500 
 26 H        0.6410     3.7590     1.8780 H     1 <1>   0.1500 
 27 H        2.6450     2.6810     1.8730 H     1 <1>   0.0800 
 28 H       -2.3020     3.1140    -1.1230 H     1 <1>   0.1500 
 29 H       -1.5740     4.1990     0.9610 H     1 <1>   0.1500 
 30 H        1.9180     0.2680     1.7670 H     1 <1>   0.3700 
 31 H        3.5360     2.5340    -0.9800 H     1 <1>   0.0800 
 32 H        4.7370     0.3660    -0.9280 H     1 <1>   0.0800 
 33 H        5.8220     0.1180     0.4220 H     1 <1>   0.0800 
 34 H        5.8700     3.8810     0.9760 H     1 <1>   0.3700 
 35 H        4.6490     6.6190     1.0340 H     1 <1>   0.0800 
 36 H        5.9380     6.0740     2.0750 H     1 <1>   0.0800 
 37 H        6.1010     6.3850    -0.9310 H     1 <1>   0.0800 
 38 H        7.6420     4.6250    -0.2520 H     1 <1>   0.0800 
 39 H        8.2480     5.5960     1.0600 H     1 <1>   0.0800 
 40 H        7.2350     8.0970     1.2880 H     1 <1>   0.0800 
 41 H        6.0330     8.5600     0.1170 H     1 <1>   0.0800 
 42 H        8.5860     6.2010    -1.8960 H     1 <1>   0.0800 
 43 H        9.8370     5.7120    -0.7690 H     1 <1>   0.0800 
 44 H        8.3300     9.4040    -0.4350 H     1 <1>   0.0800 
 45 H        7.7020     8.3660    -1.7000 H     1 <1>   0.0800 
@<TRIPOS>BOND
  1   1   2  1   
  2   2   3  ar  
  3   2   4  ar  
  4   3   5  ar  
  5   3   6  1   
  6   4   7  ar  
  7   4  25  1   
  8   5   8  ar  
  9   5  26  1   
 10   6   9  1   
 11   6  10  1   
 12   6  27  1   
 13   7   8  ar  
 14   7  28  1   
 15   8  29  1   
 16   9  11  am  
 17   9  30  1   
 18  10  12  1   
 19  10  13  1   
 20  10  31  1   
 21  11  14  2   
 22  11  15  1   
 23  12  15  1   
 24  13  16  2   
 25  13  17  am  
 26  15  32  1   
 27  15  33  1   
 28  17  18  1   
 29  17  34  1   
 30  18  19  1   
 31  18  35  1   
 32  18  36  1   
 33  19  20  1   
 34  19  21  1   
 35  19  37  1   
 36  20  22  1   
 37  20  38  1   
 38  20  39  1   
 39  21  23  1   
 40  21  40  1   
 41  21  41  1   
 42  22  24  1   
 43  22  42  1   
 44  22  43  1   
 45  23  24  1   
 46  23  44  1   
 47  23  45  1   
@<TRIPOS>SUBSTRUCTURE
  1 ****  13 GROUP 4 **** **** 0

# MOE 2024.06 (io_trps.svl 2023.06)
