@<TRIPOS>MOLECULE
NONAME
57 60 1 0 0 
SMALL
USER_CHARGES


@<TRIPOS>ATOM
  1 O       -0.6910    -0.3220     0.9550 O.2   1 <1>  -0.5700 
  2 C       -1.6780     0.2480     0.5290 C.2   1 <1>   0.5440 
  3 N       -1.5110     1.4290    -0.1650 N.am  1 <1>  -0.6600 
  4 C       -2.9760    -0.3370     0.7580 C.ar  1 <1>   0.0860 
  5 C       -2.5070     2.0130    -1.1120 C.3   1 <1>   0.1400 
  6 C       -0.1990     2.1430    -0.1920 C.3   1 <1>   0.1400 
  7 C       -3.2060    -1.6760     0.4550 C.ar  1 <1>   0.1600 
  8 C       -4.0450     0.3770     1.2920 C.ar  1 <1>  -0.1500 
  9 C       -2.5930     3.5380    -0.9290 C.3   1 <1>   0.1200 
 10 C       -0.4080     3.6620    -0.0730 C.3   1 <1>   0.1200 
 11 N       -4.3510    -2.3200     0.6010 N.ar  1 <1>  -0.6200 
 12 C       -5.2410    -0.2780     1.4570 C.ar  1 <1>  -0.1500 
 13 O       -1.3230     4.1180    -1.0310 O.3   1 <1>  -0.5600 
 14 C       -5.3610    -1.6190     1.1010 C.ar  1 <1>   0.4100 
 15 N       -6.5640    -2.2550     1.2630 N.pl3 1 <1>  -0.8690 
 16 C       -6.7460    -3.7280     1.1550 C.3   1 <1>   0.2090 
 17 C       -7.0790    -4.1170    -0.2830 C.3   1 <1>   0.0210 
 18 C       -7.2980    -5.6170    -0.3720 C.2   1 <1>  -0.1810 
 19 C       -8.5360    -6.2500    -0.1140 C.ar  1 <1>   0.0000 
 20 C       -6.3970    -6.5810    -0.6810 C.2   1 <1>  -0.3320 
 21 C       -8.3300    -7.6140    -0.2880 C.ar  1 <1>  -0.1520 
 22 C       -9.8030    -5.7920     0.2510 C.ar  1 <1>  -0.1500 
 23 N       -7.0160    -7.7980    -0.6380 N.pl3 1 <1>   0.0330 
 24 C       -4.9220    -6.4530    -1.0210 C.3   1 <1>  -0.0600 
 25 C       -9.3640    -8.5430    -0.1060 C.ar  1 <1>  -0.1430 
 26 C      -10.8200    -6.6970     0.4350 C.ar  1 <1>  -0.1500 
 27 C      -10.6130    -8.0740     0.2620 C.ar  1 <1>  -0.1430 
 28 C       -9.0400   -10.0160    -0.3240 C.3   1 <1>  -0.0970 
 29 C      -11.7970    -9.0020     0.4930 C.3   1 <1>  -0.0970 
 30 H       -3.4800     1.5770    -0.9730 H     1 <1>   0.0800 
 31 H       -2.1950     1.8020    -2.1200 H     1 <1>   0.0800 
 32 H        0.3060     1.9220    -1.1160 H     1 <1>   0.0800 
 33 H        0.4270     1.8090     0.6180 H     1 <1>   0.0800 
 34 H       -2.3780    -2.2430     0.0650 H     1 <1>   0.1500 
 35 H       -3.9230     1.4100     1.5680 H     1 <1>   0.1500 
 36 H       -3.0090     3.7840     0.0320 H     1 <1>   0.0800 
 37 H       -3.2120     3.9690    -1.6960 H     1 <1>   0.0800 
 38 H        0.5220     4.1770    -0.2360 H     1 <1>   0.0800 
 39 H       -0.7770     3.9150     0.9050 H     1 <1>   0.0800 
 40 H       -6.0930     0.2320     1.8630 H     1 <1>   0.1500 
 41 H       -7.3050    -1.7650     1.7640 H     1 <1>   0.4000 
 42 H       -7.5430    -4.0410     1.8070 H     1 <1>   0.0800 
 43 H       -5.8470    -4.2350     1.4620 H     1 <1>   0.0800 
 44 H       -6.2680    -3.8290    -0.9250 H     1 <1>   0.0800 
 45 H       -7.9650    -3.6030    -0.6090 H     1 <1>   0.0800 
 46 H       -9.9640    -4.7390     0.3820 H     1 <1>   0.1500 
 47 H       -6.5850    -8.7060    -0.8250 H     1 <1>   0.2700 
 48 H       -4.5970    -5.4320    -0.9330 H     1 <1>   0.0800 
 49 H       -4.7450    -6.7830    -2.0280 H     1 <1>   0.0800 
 50 H       -4.3350    -7.0500    -0.3470 H     1 <1>   0.0800 
 51 H      -11.7940    -6.3400     0.7170 H     1 <1>   0.1500 
 52 H       -8.5820   -10.1480    -1.2870 H     1 <1>   0.0800 
 53 H       -9.9150   -10.6370    -0.2900 H     1 <1>   0.0800 
 54 H       -8.3580   -10.3510     0.4360 H     1 <1>   0.0800 
 55 H      -11.5460    -9.7420     1.2300 H     1 <1>   0.0800 
 56 H      -12.0610    -9.4920    -0.4270 H     1 <1>   0.0800 
 57 H      -12.6550    -8.4580     0.8440 H     1 <1>   0.0800 
@<TRIPOS>BOND
  1   1   2  2   
  2   2   3  am  
  3   2   4  1   
  4   3   5  1   
  5   3   6  1   
  6   4   7  ar  
  7   4   8  ar  
  8   5   9  1   
  9   5  30  1   
 10   5  31  1   
 11   6  10  1   
 12   6  32  1   
 13   6  33  1   
 14   7  11  ar  
 15   7  34  1   
 16   8  12  ar  
 17   8  35  1   
 18   9  13  1   
 19   9  36  1   
 20   9  37  1   
 21  10  13  1   
 22  10  38  1   
 23  10  39  1   
 24  11  14  ar  
 25  12  14  ar  
 26  12  40  1   
 27  14  15  1   
 28  15  16  1   
 29  15  41  1   
 30  16  17  1   
 31  16  42  1   
 32  16  43  1   
 33  17  18  1   
 34  17  44  1   
 35  17  45  1   
 36  18  19  1   
 37  18  20  2   
 38  19  21  ar  
 39  19  22  ar  
 40  20  23  1   
 41  20  24  1   
 42  21  23  1   
 43  21  25  ar  
 44  22  26  ar  
 45  22  46  1   
 46  23  47  1   
 47  24  48  1   
 48  24  49  1   
 49  24  50  1   
 50  25  27  ar  
 51  25  28  1   
 52  26  27  ar  
 53  26  51  1   
 54  27  29  1   
 55  28  52  1   
 56  28  53  1   
 57  28  54  1   
 58  29  55  1   
 59  29  56  1   
 60  29  57  1   
@<TRIPOS>SUBSTRUCTURE
  1 ****  11 GROUP 4 **** **** 0

# MOE 2024.06 (io_trps.svl 2023.06)
