@<TRIPOS>MOLECULE
NONAME
48 50 1 0 0 
SMALL
USER_CHARGES


@<TRIPOS>ATOM
  1 F       -2.3900    -1.6120     2.7280 F     1 <1>  -0.1900 
  2 C       -2.4860    -1.8770     1.4510 C.ar  1 <1>   0.1900 
  3 C       -2.9830    -3.1050     1.0340 C.ar  1 <1>  -0.1440 
  4 C       -2.0770    -0.8920     0.5730 C.ar  1 <1>  -0.1500 
  5 C       -3.0680    -3.3450    -0.3410 C.ar  1 <1>   0.1170 
  6 C       -3.4280    -4.1680     2.0420 C.3   1 <1>  -0.0970 
  7 C       -2.1630    -1.1380    -0.7840 C.ar  1 <1>  -0.1500 
  8 N       -3.5600    -4.5790    -0.7930 N.am  1 <1>  -0.5470 
  9 C       -2.6520    -2.3540    -1.2300 C.ar  1 <1>  -0.1500 
 10 C       -4.0400    -5.0280    -1.9890 C.2   1 <1>   0.5690 
 11 O       -4.1050    -4.3650    -2.9960 O.2   1 <1>  -0.5700 
 12 C       -4.5340    -6.4770    -2.0150 C.3   1 <1>   0.1710 
 13 N       -4.9030    -7.0100    -0.6670 N.3   1 <1>  -0.8100 
 14 C       -6.1510    -6.4210    -0.1480 C.3   1 <1>   0.1100 
 15 C       -5.1330    -8.4690    -0.6850 C.3   1 <1>   0.1100 
 16 C       -6.5870    -7.3960     0.9360 C.3   1 <1>   0.2000 
 17 C       -6.3120    -8.7410     0.2660 C.3   1 <1>  -0.0800 
 18 O       -5.7240    -7.2260     2.0060 O.3   1 <1>  -0.6800 
 19 C       -6.0880    -9.9330     1.2160 C.3   1 <1>   0.0210 
 20 C       -5.8160   -11.2110     0.4420 C.2   1 <1>   0.1080 
 21 N       -6.6040   -11.6610    -0.4850 N.2   1 <1>  -0.7070 
 22 C       -4.7090   -12.0310     0.6340 C.2   1 <1>  -0.1500 
 23 N       -6.0180   -12.7970    -0.9080 N.pl3 1 <1>   0.3000 
 24 C       -4.8660   -13.0400    -0.2480 C.2   1 <1>  -0.3320 
 25 C       -3.9760   -14.2430    -0.5020 C.3   1 <1>  -0.0600 
 26 H       -1.7010     0.0430     0.9470 H     1 <1>   0.1500 
 27 H       -4.4680    -4.4010     1.8970 H     1 <1>   0.0800 
 28 H       -3.3060    -3.8350     3.0570 H     1 <1>   0.0800 
 29 H       -2.8470    -5.0630     1.9170 H     1 <1>   0.0800 
 30 H       -1.8510    -0.3900    -1.4930 H     1 <1>   0.1500 
 31 H       -3.6780    -5.2930    -0.0700 H     1 <1>   0.3700 
 32 H       -2.7060    -2.5280    -2.2890 H     1 <1>   0.1500 
 33 H       -3.7400    -7.0760    -2.4240 H     1 <1>   0.0800 
 34 H       -5.3750    -6.5450    -2.6820 H     1 <1>   0.0800 
 35 H       -6.0050    -5.4290     0.2430 H     1 <1>   0.0800 
 36 H       -6.9000    -6.3920    -0.9220 H     1 <1>   0.0800 
 37 H       -5.3840    -8.8180    -1.6730 H     1 <1>   0.0800 
 38 H       -4.2410    -8.9740    -0.3570 H     1 <1>   0.0800 
 39 H       -7.6030    -7.2660     1.2690 H     1 <1>   0.0800 
 40 H       -7.1630    -8.9740    -0.3500 H     1 <1>   0.0800 
 41 H       -4.8210    -7.2430     1.6280 H     1 <1>   0.4000 
 42 H       -6.9640   -10.0780     1.8200 H     1 <1>   0.0800 
 43 H       -5.2590    -9.7420     1.8720 H     1 <1>   0.0800 
 44 H       -3.9160   -11.8720     1.3420 H     1 <1>   0.1500 
 45 H       -6.4310   -13.3850    -1.6430 H     1 <1>   0.2700 
 46 H       -3.1210   -14.2130     0.1500 H     1 <1>   0.0800 
 47 H       -3.6310   -14.2440    -1.5200 H     1 <1>   0.0800 
 48 H       -4.5180   -15.1530    -0.3130 H     1 <1>   0.0800 
@<TRIPOS>BOND
  1   1   2  1   
  2   2   3  ar  
  3   2   4  ar  
  4   3   5  ar  
  5   3   6  1   
  6   4   7  ar  
  7   4  26  1   
  8   5   8  1   
  9   5   9  ar  
 10   6  27  1   
 11   6  28  1   
 12   6  29  1   
 13   7   9  ar  
 14   7  30  1   
 15   8  10  am  
 16   8  31  1   
 17   9  32  1   
 18  10  11  2   
 19  10  12  1   
 20  12  13  1   
 21  12  33  1   
 22  12  34  1   
 23  13  14  1   
 24  13  15  1   
 25  14  16  1   
 26  14  35  1   
 27  14  36  1   
 28  15  17  1   
 29  15  37  1   
 30  15  38  1   
 31  16  17  1   
 32  16  18  1   
 33  16  39  1   
 34  17  19  1   
 35  17  40  1   
 36  18  41  1   
 37  19  20  1   
 38  19  42  1   
 39  19  43  1   
 40  20  21  2   
 41  20  22  1   
 42  21  23  1   
 43  22  24  2   
 44  22  44  1   
 45  23  24  1   
 46  23  45  1   
 47  24  25  1   
 48  25  46  1   
 49  25  47  1   
 50  25  48  1   
@<TRIPOS>SUBSTRUCTURE
  1 ****  13 GROUP 4 **** **** 0

# MOE 2024.06 (io_trps.svl 2023.06)
