@<TRIPOS>MOLECULE
NONAME
49 51 1 0 0 
SMALL
USER_CHARGES


@<TRIPOS>ATOM
  1 O        2.8540    -0.3450     1.6460 O.3   1 <1>  -0.6800 
  2 C        1.6620    -0.2740     0.9110 C.3   1 <1>   0.1200 
  3 C        1.9530     0.0140    -0.5790 C.3   1 <1>   0.3430 
  4 N        3.3170    -0.4870    -0.9410 N.4   1 <1>  -0.9590 
  5 C        4.0940     0.4710    -1.7570 C.3   1 <1>   0.4810 
  6 C        3.3140    -1.8470    -1.5620 C.3   1 <1>   0.5240 
  7 C        4.1920     1.8040    -1.0460 C.2   1 <1>  -0.2540 
  8 C        2.4580    -2.8530    -0.8010 C.2   1 <1>   0.0460 
  9 C        3.6330     2.9540    -1.4490 C.2   1 <1>  -0.2880 
 10 C        5.0210     1.8310     0.2440 C.3   1 <1>   0.1160 
 11 N        1.1280    -2.9210    -1.0260 N.2   1 <1>  -0.5650 
 12 C        2.8380    -3.7680     0.1230 C.2   1 <1>  -0.3320 
 13 C        3.8650     4.2290    -0.6330 C.3   1 <1>  -0.0220 
 14 C        6.0320     3.0360     0.2800 C.3   1 <1>   0.0000 
 15 C        4.2090     2.6290     1.3160 C.3   1 <1>   0.0000 
 16 C        0.7300    -3.8770    -0.2510 C.2   1 <1>   0.0360 
 17 N        1.7210    -4.4330     0.4770 N.pl3 1 <1>   0.0330 
 18 C        4.1990    -4.0880     0.7200 C.3   1 <1>  -0.0600 
 19 C        4.7570     3.9050     0.5970 C.3   1 <1>   0.0000 
 20 C        7.0760     2.9790     1.4210 C.3   1 <1>  -0.2400 
 21 C        6.7820     3.3540    -1.0320 C.3   1 <1>  -0.2400 
 22 H        2.6600    -0.4630     2.6010 H     1 <1>   0.4000 
 23 H        1.1460    -1.2120     1.0180 H     1 <1>   0.0800 
 24 H        1.0450     0.5060     1.3240 H     1 <1>   0.0800 
 25 H        1.9030     1.0800    -0.7240 H     1 <1>   0.0800 
 26 H        1.1960    -0.4370    -1.2000 H     1 <1>   0.0800 
 27 H        3.7580    -0.5630    -0.0060 H     1 <1>   0.4500 
 28 H        5.0870     0.0920    -1.9340 H     1 <1>   0.0800 
 29 H        3.6080     0.6130    -2.7090 H     1 <1>   0.0800 
 30 H        2.9360    -1.7870    -2.5690 H     1 <1>   0.0800 
 31 H        4.3220    -2.2220    -1.6060 H     1 <1>   0.0800 
 32 H        3.0260     3.0900    -2.3300 H     1 <1>   0.1500 
 33 H        5.4080     0.8860     0.5840 H     1 <1>   0.0000 
 34 H        2.9220     4.6230    -0.2970 H     1 <1>   0.0800 
 35 H        4.3440     4.9760    -1.2410 H     1 <1>   0.0800 
 36 H        3.1420     2.5100     1.2460 H     1 <1>   0.0000 
 37 H        4.5510     2.4990     2.3270 H     1 <1>   0.0000 
 38 H       -0.2900    -4.2170    -0.1780 H     1 <1>   0.1500 
 39 H        1.6330    -5.2060     1.1460 H     1 <1>   0.2700 
 40 H        4.9580    -3.4430     0.3160 H     1 <1>   0.0800 
 41 H        4.4680    -5.1070     0.5050 H     1 <1>   0.0800 
 42 H        4.1750    -3.9550     1.7880 H     1 <1>   0.0800 
 43 H        4.9320     4.7390     1.2530 H     1 <1>   0.0000 
 44 H        7.5860     3.9240     1.4930 H     1 <1>   0.0800 
 45 H        7.8080     2.2200     1.2100 H     1 <1>   0.0800 
 46 H        6.6560     2.7660     2.3850 H     1 <1>   0.0800 
 47 H        7.2800     4.3040    -0.9430 H     1 <1>   0.0800 
 48 H        6.1450     3.4030    -1.8930 H     1 <1>   0.0800 
 49 H        7.5270     2.6020    -1.2190 H     1 <1>   0.0800 
@<TRIPOS>BOND
  1   1   2  1   
  2   1  22  1   
  3   2   3  1   
  4   2  23  1   
  5   2  24  1   
  6   3   4  1   
  7   3  25  1   
  8   3  26  1   
  9   4   5  1   
 10   4   6  1   
 11   4  27  1   
 12   5   7  1   
 13   5  28  1   
 14   5  29  1   
 15   6   8  1   
 16   6  30  1   
 17   6  31  1   
 18   7   9  2   
 19   7  10  1   
 20   8  11  1   
 21   8  12  2   
 22   9  13  1   
 23   9  32  1   
 24  10  14  1   
 25  10  15  1   
 26  10  33  1   
 27  11  16  2   
 28  12  17  1   
 29  12  18  1   
 30  13  19  1   
 31  13  34  1   
 32  13  35  1   
 33  14  19  1   
 34  14  20  1   
 35  14  21  1   
 36  15  19  1   
 37  15  36  1   
 38  15  37  1   
 39  16  17  1   
 40  16  38  1   
 41  17  39  1   
 42  18  40  1   
 43  18  41  1   
 44  18  42  1   
 45  19  43  1   
 46  20  44  1   
 47  20  45  1   
 48  20  46  1   
 49  21  47  1   
 50  21  48  1   
 51  21  49  1   
@<TRIPOS>SUBSTRUCTURE
  1 ****   4 GROUP 4 **** **** 0

# MOE 2024.06 (io_trps.svl 2023.06)
