@<TRIPOS>MOLECULE
NONAME
53 57 1 0 0 
SMALL
USER_CHARGES


@<TRIPOS>ATOM
  1 CL      -1.9230     0.2590     3.3190 Cl    1 <1>  -0.1230 
  2 C       -1.8900     1.4070     1.9920 C.2   1 <1>   0.1230 
  3 C       -3.0090     1.9500     1.3830 C.2   1 <1>   0.1080 
  4 C       -0.8170     1.9300     1.3670 C.2   1 <1>  -0.3320 
  5 N       -2.6760     2.7700     0.4200 N.2   1 <1>  -0.7070 
  6 C       -4.4460     1.6410     1.7720 C.3   1 <1>   0.5240 
  7 N       -1.3160     2.7570     0.4190 N.pl3 1 <1>   0.3000 
  8 C        0.6660     1.7000     1.6100 C.3   1 <1>  -0.0600 
  9 N       -5.2940     2.0190     0.6100 N.4   1 <1>  -0.9590 
 10 C       -6.5950     2.6440     1.0060 C.3   1 <1>   0.3430 
 11 C       -5.4510     0.8990    -0.3550 C.3   1 <1>   0.3430 
 12 C       -7.3590     3.1840    -0.2160 C.3   1 <1>   0.1430 
 13 C       -6.1720     1.3980    -1.6110 C.3   1 <1>  -0.1600 
 14 C       -8.7150     3.6670     0.2400 C.ar  1 <1>   0.1670 
 15 C       -7.5150     2.0790    -1.2830 C.3   1 <1>  -0.1600 
 16 C       -6.7250     4.4760    -0.8030 C.3   1 <1>  -0.1600 
 17 N       -9.5180     2.9900     1.0210 N.ar  1 <1>  -0.6200 
 18 C       -9.0040     4.9030    -0.2450 C.ar  1 <1>  -0.1430 
 19 C       -7.8880     5.4420    -1.1040 C.3   1 <1>  -0.0170 
 20 C      -10.6800     3.5940     1.3160 C.ar  1 <1>   0.6200 
 21 C      -10.2100     5.4540     0.1050 C.ar  1 <1>   0.1600 
 22 N      -11.0480     4.8080     0.8840 N.ar  1 <1>  -0.6200 
 23 C      -11.6070     2.8760     2.1780 C.ar  1 <1>   0.0000 
 24 C      -11.7060     1.4820     2.1480 C.ar  1 <1>  -0.1500 
 25 C      -12.4410     3.5490     3.0760 C.ar  1 <1>  -0.1500 
 26 C      -12.5820     0.7970     2.9700 C.ar  1 <1>  -0.1500 
 27 C      -13.3200     2.8710     3.9000 C.ar  1 <1>  -0.1500 
 28 C      -13.3920     1.4910     3.8500 C.ar  1 <1>  -0.1500 
 29 H       -4.7030     2.2340     2.6330 H     1 <1>   0.0800 
 30 H       -4.5600     0.5970     2.0140 H     1 <1>   0.0800 
 31 H       -0.7550     3.3210    -0.2360 H     1 <1>   0.2700 
 32 H        0.8100     1.0020     2.4170 H     1 <1>   0.0800 
 33 H        1.1500     2.6250     1.8720 H     1 <1>   0.0800 
 34 H        1.1330     1.2990     0.7280 H     1 <1>   0.0800 
 35 H       -4.6930     2.7270     0.1420 H     1 <1>   0.4500 
 36 H       -6.4280     3.4520     1.6990 H     1 <1>   0.0800 
 37 H       -7.2140     1.9090     1.4950 H     1 <1>   0.0800 
 38 H       -6.0260     0.1060     0.0960 H     1 <1>   0.0800 
 39 H       -4.4830     0.5080    -0.6290 H     1 <1>   0.0800 
 40 H       -6.3520     0.5610    -2.2630 H     1 <1>   0.0800 
 41 H       -5.5260     2.0760    -2.1410 H     1 <1>   0.0800 
 42 H       -7.9500     2.4890    -2.1790 H     1 <1>   0.0800 
 43 H       -8.1980     1.3330    -0.9110 H     1 <1>   0.0800 
 44 H       -6.1360     4.2960    -1.6850 H     1 <1>   0.0800 
 45 H       -6.0930     4.9380    -0.0640 H     1 <1>   0.0800 
 46 H       -8.1730     5.3880    -2.1410 H     1 <1>   0.0800 
 47 H       -7.6400     6.4570    -0.8470 H     1 <1>   0.0800 
 48 H      -10.4910     6.4310    -0.2520 H     1 <1>   0.1500 
 49 H      -11.0880     0.9250     1.4660 H     1 <1>   0.1500 
 50 H      -12.4010     4.6230     3.1270 H     1 <1>   0.1500 
 51 H      -12.6380    -0.2770     2.9250 H     1 <1>   0.1500 
 52 H      -13.9500     3.4170     4.5810 H     1 <1>   0.1500 
 53 H      -14.0760     0.9610     4.4900 H     1 <1>   0.1500 
@<TRIPOS>BOND
  1   1   2  1   
  2   2   3  1   
  3   2   4  2   
  4   3   5  2   
  5   3   6  1   
  6   4   7  1   
  7   4   8  1   
  8   5   7  1   
  9   6   9  1   
 10   6  29  1   
 11   6  30  1   
 12   7  31  1   
 13   8  32  1   
 14   8  33  1   
 15   8  34  1   
 16   9  10  1   
 17   9  11  1   
 18   9  35  1   
 19  10  12  1   
 20  10  36  1   
 21  10  37  1   
 22  11  13  1   
 23  11  38  1   
 24  11  39  1   
 25  12  14  1   
 26  12  15  1   
 27  12  16  1   
 28  13  15  1   
 29  13  40  1   
 30  13  41  1   
 31  14  17  ar  
 32  14  18  ar  
 33  15  42  1   
 34  15  43  1   
 35  16  19  1   
 36  16  44  1   
 37  16  45  1   
 38  17  20  ar  
 39  18  19  1   
 40  18  21  ar  
 41  19  46  1   
 42  19  47  1   
 43  20  22  ar  
 44  20  23  1   
 45  21  22  ar  
 46  21  48  1   
 47  23  24  ar  
 48  23  25  ar  
 49  24  26  ar  
 50  24  49  1   
 51  25  27  ar  
 52  25  50  1   
 53  26  28  ar  
 54  26  51  1   
 55  27  28  ar  
 56  27  52  1   
 57  28  53  1   
@<TRIPOS>SUBSTRUCTURE
  1 ****  10 GROUP 4 **** **** 0

# MOE 2024.06 (io_trps.svl 2023.06)
