@<TRIPOS>MOLECULE
NONAME
56 59 1 0 0 
SMALL
USER_CHARGES


@<TRIPOS>ATOM
  1 F        0.3820     1.0570     0.5530 F     1 <1>  -0.1900 
  2 C        0.4610     2.3500     0.7070 C.ar  1 <1>   0.1900 
  3 C        1.6560     2.9000     1.1280 C.ar  1 <1>  -0.1500 
  4 C       -0.6540     3.1220     0.4450 C.ar  1 <1>  -0.1500 
  5 C        1.7370     4.2730     1.2860 C.ar  1 <1>  -0.1500 
  6 C       -0.5640     4.4950     0.6050 C.ar  1 <1>  -0.1500 
  7 C        0.6320     5.0750     1.0190 C.ar  1 <1>  -0.1430 
  8 C        0.7340     6.5800     1.1760 C.3   1 <1>   0.4870 
  9 N        1.5210     7.1190     0.0370 N.4   1 <1>  -0.9590 
 10 C        1.8890     8.5560     0.2830 C.3   1 <1>   0.3430 
 11 C        0.8200     6.9340    -1.2690 C.3   1 <1>   0.3430 
 12 C        2.7400     9.1600    -0.8550 C.3   1 <1>   0.2890 
 13 C        1.6980     7.4560    -2.4100 C.3   1 <1>  -0.1600 
 14 N        2.8940    10.6060    -0.6470 N.pl3 1 <1>  -0.8690 
 15 C        2.0790     8.9340    -2.2180 C.3   1 <1>  -0.1600 
 16 C        3.4690    11.1840     0.4610 C.ar  1 <1>   0.4100 
 17 N        4.1640    10.3580     1.2430 N.ar  1 <1>  -0.6200 
 18 C        3.2940    12.5560     0.7170 C.ar  1 <1>   0.0860 
 19 C        4.7370    10.9020     2.3010 C.ar  1 <1>   0.1600 
 20 C        2.4940    13.3700    -0.1690 C.2   1 <1>   0.5440 
 21 C        3.8980    13.0830     1.8500 C.ar  1 <1>  -0.1500 
 22 C        4.6360    12.2370     2.6470 C.ar  1 <1>  -0.1500 
 23 O        1.3950    12.9770    -0.5270 O.2   1 <1>  -0.5700 
 24 N        2.9400    14.5840    -0.6400 N.am  1 <1>  -0.6600 
 25 C        2.1120    15.4410    -1.5180 C.3   1 <1>   0.1400 
 26 C        4.3610    14.9990    -0.6880 C.3   1 <1>   0.1400 
 27 C        3.0420    16.5620    -1.9670 C.3   1 <1>  -0.1600 
 28 C        4.4420    15.9640    -1.8650 C.3   1 <1>  -0.1600 
 29 H        2.4980     2.2600     1.3280 H     1 <1>   0.1500 
 30 H       -1.5670     2.6510     0.1260 H     1 <1>   0.1500 
 31 H        2.6680     4.7000     1.6230 H     1 <1>   0.1500 
 32 H       -1.4350     5.0980     0.4060 H     1 <1>   0.1500 
 33 H        1.2270     6.8070     2.1070 H     1 <1>   0.0800 
 34 H       -0.2500     7.0210     1.1940 H     1 <1>   0.0800 
 35 H        2.3880     6.5690    -0.0050 H     1 <1>   0.4500 
 36 H        2.4440     8.6390     1.2030 H     1 <1>   0.0800 
 37 H        0.9920     9.1450     0.3760 H     1 <1>   0.0800 
 38 H       -0.1150     7.4720    -1.2610 H     1 <1>   0.0800 
 39 H        0.6080     5.8880    -1.4300 H     1 <1>   0.0800 
 40 H        3.7170     8.7060    -0.8440 H     1 <1>   0.0800 
 41 H        1.1630     7.3490    -3.3370 H     1 <1>   0.0800 
 42 H        2.5870     6.8530    -2.4830 H     1 <1>   0.0800 
 43 H        2.2020    11.2090    -1.1240 H     1 <1>   0.4000 
 44 H        2.7570     9.2380    -2.9960 H     1 <1>   0.0800 
 45 H        1.1900     9.5380    -2.2900 H     1 <1>   0.0800 
 46 H        5.3190    10.2520     2.9330 H     1 <1>   0.1500 
 47 H        3.7850    14.1240     2.0970 H     1 <1>   0.1500 
 48 H        5.1280    12.6050     3.5310 H     1 <1>   0.1500 
 49 H        1.2570    15.8190    -0.9840 H     1 <1>   0.0800 
 50 H        1.7800    14.8630    -2.3650 H     1 <1>   0.0800 
 51 H        5.0140    14.1540    -0.8280 H     1 <1>   0.0800 
 52 H        4.6110    15.5090     0.2260 H     1 <1>   0.0800 
 53 H        2.9460    17.3890    -1.2850 H     1 <1>   0.0800 
 54 H        2.8100    16.8990    -2.9610 H     1 <1>   0.0800 
 55 H        4.6670    15.4070    -2.7580 H     1 <1>   0.0800 
 56 H        5.2000    16.7130    -1.7180 H     1 <1>   0.0800 
@<TRIPOS>BOND
  1   1   2  1   
  2   2   3  ar  
  3   2   4  ar  
  4   3   5  ar  
  5   3  29  1   
  6   4   6  ar  
  7   4  30  1   
  8   5   7  ar  
  9   5  31  1   
 10   6   7  ar  
 11   6  32  1   
 12   7   8  1   
 13   8   9  1   
 14   8  33  1   
 15   8  34  1   
 16   9  10  1   
 17   9  11  1   
 18   9  35  1   
 19  10  12  1   
 20  10  36  1   
 21  10  37  1   
 22  11  13  1   
 23  11  38  1   
 24  11  39  1   
 25  12  14  1   
 26  12  15  1   
 27  12  40  1   
 28  13  15  1   
 29  13  41  1   
 30  13  42  1   
 31  14  16  1   
 32  14  43  1   
 33  15  44  1   
 34  15  45  1   
 35  16  17  ar  
 36  16  18  ar  
 37  17  19  ar  
 38  18  20  1   
 39  18  21  ar  
 40  19  22  ar  
 41  19  46  1   
 42  20  23  2   
 43  20  24  am  
 44  21  22  ar  
 45  21  47  1   
 46  22  48  1   
 47  24  25  1   
 48  24  26  1   
 49  25  27  1   
 50  25  49  1   
 51  25  50  1   
 52  26  28  1   
 53  26  51  1   
 54  26  52  1   
 55  27  28  1   
 56  27  53  1   
 57  27  54  1   
 58  28  55  1   
 59  28  56  1   
@<TRIPOS>SUBSTRUCTURE
  1 ****  10 GROUP 4 **** **** 0

# MOE 2024.06 (io_trps.svl 2023.06)
