@<TRIPOS>MOLECULE
NONAME
52 54 1 0 0 
SMALL
USER_CHARGES


@<TRIPOS>ATOM
  1 CL      -0.5260    -3.5800    -0.4240 Cl    1 <1>  -0.1770 
  2 C       -2.1280    -3.0380     0.0230 C.ar  1 <1>   0.1770 
  3 C       -2.6110    -1.8030    -0.3940 C.ar  1 <1>   0.0830 
  4 C       -2.9120    -3.8860     0.7810 C.ar  1 <1>  -0.1500 
  5 O       -1.8720    -0.9650    -1.1500 O.3   1 <1>  -0.3630 
  6 C       -3.9020    -1.4320    -0.0540 C.ar  1 <1>  -0.1500 
  7 C       -4.2110    -3.5190     1.1090 C.ar  1 <1>  -0.1430 
  8 C       -0.8940    -0.2020    -0.4800 C.3   1 <1>   0.1200 
  9 C       -4.6980    -2.2850     0.6940 C.ar  1 <1>  -0.1500 
 10 C       -5.0850    -4.4850     1.8850 C.3   1 <1>   0.4870 
 11 C       -0.1610     0.6510    -1.5150 C.3   1 <1>  -0.1600 
 12 N       -5.4780    -5.5550     0.9430 N.4   1 <1>  -0.9590 
 13 C        0.9220     1.5140    -0.8600 C.3   1 <1>  -0.2400 
 14 C       -6.4820    -5.1740    -0.0920 C.3   1 <1>   0.3430 
 15 C       -5.9010    -6.8520     1.5090 C.3   1 <1>   0.3430 
 16 C       -7.1480    -6.4900    -0.5230 C.3   1 <1>   0.2000 
 17 C       -6.5000    -7.6000     0.3170 C.3   1 <1>  -0.0800 
 18 O       -8.5070    -6.4370    -0.2310 O.3   1 <1>  -0.6800 
 19 C       -5.4370    -8.4040    -0.4710 C.3   1 <1>   0.0210 
 20 C       -4.1170    -7.6910    -0.7450 C.2   1 <1>   0.1080 
 21 N       -4.0200    -6.5260    -1.3120 N.2   1 <1>  -0.7070 
 22 C       -2.8700    -8.2180    -0.4310 C.2   1 <1>  -0.1500 
 23 N       -2.6890    -6.3030    -1.4240 N.pl3 1 <1>   0.3000 
 24 C       -1.9790    -7.3050    -0.8710 C.2   1 <1>  -0.3320 
 25 C       -0.4620    -7.3410    -0.8190 C.3   1 <1>  -0.0600 
 26 H       -2.5000    -4.8300     1.0940 H     1 <1>   0.1500 
 27 H       -4.2770    -0.4780    -0.3840 H     1 <1>   0.1500 
 28 H       -1.3880     0.4180     0.2480 H     1 <1>   0.0800 
 29 H       -0.2100    -0.8700     0.0140 H     1 <1>   0.0800 
 30 H       -5.6990    -1.9740     0.9420 H     1 <1>   0.1500 
 31 H       -5.9540    -3.9850     2.2780 H     1 <1>   0.0800 
 32 H       -4.5170    -4.8990     2.7020 H     1 <1>   0.0800 
 33 H        0.2950     0.0050    -2.2460 H     1 <1>   0.0800 
 34 H       -0.8700     1.2890    -2.0140 H     1 <1>   0.0800 
 35 H       -4.6410    -5.7740     0.3580 H     1 <1>   0.4500 
 36 H        1.6530     0.8950    -0.3690 H     1 <1>   0.0800 
 37 H        0.4870     2.1810    -0.1360 H     1 <1>   0.0800 
 38 H        1.4230     2.1040    -1.6080 H     1 <1>   0.0800 
 39 H       -7.2220    -4.5020     0.3090 H     1 <1>   0.0800 
 40 H       -5.9870    -4.7140    -0.9320 H     1 <1>   0.0800 
 41 H       -5.0690    -7.3890     1.9370 H     1 <1>   0.0800 
 42 H       -6.6570    -6.6950     2.2600 H     1 <1>   0.0800 
 43 H       -7.0450    -6.6500    -1.5840 H     1 <1>   0.0800 
 44 H       -7.2440    -8.3010     0.6550 H     1 <1>   0.0800 
 45 H       -8.6980    -6.4620     0.7260 H     1 <1>   0.4000 
 46 H       -5.8530    -8.7140    -1.4150 H     1 <1>   0.0800 
 47 H       -5.2180    -9.3040     0.0760 H     1 <1>   0.0800 
 48 H       -2.6730    -9.1630     0.0480 H     1 <1>   0.1500 
 49 H       -2.2930    -5.4690    -1.8830 H     1 <1>   0.2700 
 50 H       -0.1260    -8.2600    -0.3700 H     1 <1>   0.0800 
 51 H       -0.0840    -6.5200    -0.2360 H     1 <1>   0.0800 
 52 H       -0.0530    -7.2800    -1.8120 H     1 <1>   0.0800 
@<TRIPOS>BOND
  1   1   2  1   
  2   2   3  ar  
  3   2   4  ar  
  4   3   5  1   
  5   3   6  ar  
  6   4   7  ar  
  7   4  26  1   
  8   5   8  1   
  9   6   9  ar  
 10   6  27  1   
 11   7   9  ar  
 12   7  10  1   
 13   8  11  1   
 14   8  28  1   
 15   8  29  1   
 16   9  30  1   
 17  10  12  1   
 18  10  31  1   
 19  10  32  1   
 20  11  13  1   
 21  11  33  1   
 22  11  34  1   
 23  12  14  1   
 24  12  15  1   
 25  12  35  1   
 26  13  36  1   
 27  13  37  1   
 28  13  38  1   
 29  14  16  1   
 30  14  39  1   
 31  14  40  1   
 32  15  17  1   
 33  15  41  1   
 34  15  42  1   
 35  16  17  1   
 36  16  18  1   
 37  16  43  1   
 38  17  19  1   
 39  17  44  1   
 40  18  45  1   
 41  19  20  1   
 42  19  46  1   
 43  19  47  1   
 44  20  21  2   
 45  20  22  1   
 46  21  23  1   
 47  22  24  2   
 48  22  48  1   
 49  23  24  1   
 50  23  49  1   
 51  24  25  1   
 52  25  50  1   
 53  25  51  1   
 54  25  52  1   
@<TRIPOS>SUBSTRUCTURE
  1 ****   4 GROUP 4 **** **** 0

# MOE 2024.06 (io_trps.svl 2023.06)
