@<TRIPOS>MOLECULE
NONAME
44 47 1 0 0 
SMALL
USER_CHARGES


@<TRIPOS>ATOM
  1 O        2.3640    -0.6210     1.1390 O.2   1 <1>  -0.5700 
  2 C        2.2320    -0.9760    -0.0060 C.2   1 <1>   0.5690 
  3 N        2.2970    -0.1080    -1.0540 N.am  1 <1>  -0.4940 
  4 C        1.9660    -2.4430    -0.3040 C.3   1 <1>  -0.0190 
  5 C        2.4460     1.2830    -1.0740 C.2   1 <1>   0.2500 
  6 C        0.6110    -2.8450     0.2860 C.3   1 <1>   0.2090 
  7 C        3.0880    -3.3600     0.2280 C.3   1 <1>  -0.1600 
  8 N        1.9220     1.9760    -2.0340 N.2   1 <1>  -0.3380 
  9 N        3.1150     2.0660    -0.1950 N.pl3 1 <1>   0.3340 
 10 N        0.3450    -4.2760    -0.0320 N.pl3 1 <1>  -0.8380 
 11 C        2.7400    -4.8400    -0.0110 C.3   1 <1>  -0.1600 
 12 N        2.2080     3.2570    -1.8090 N.2   1 <1>  -0.3380 
 13 C        2.9150     3.3100    -0.7190 C.2   1 <1>   0.3120 
 14 C        3.9480     1.9250     0.9100 C.2   1 <1>  -0.1810 
 15 C       -0.9670    -4.7120    -0.0230 C.ar  1 <1>   0.4100 
 16 C        1.3560    -5.1960     0.5450 C.3   1 <1>   0.2090 
 17 N        3.4270     4.4560    -0.1510 N.2   1 <1>  -0.5760 
 18 C        4.4690     3.0480     1.4630 C.2   1 <1>  -0.1360 
 19 N       -1.8020    -4.1210     0.8230 N.ar  1 <1>  -0.6200 
 20 C       -1.3520    -5.7400    -0.8800 C.ar  1 <1>  -0.1500 
 21 C        4.1660     4.3180     0.8950 C.2   1 <1>   0.3750 
 22 C       -3.0450    -4.5700     0.8170 C.ar  1 <1>   0.1600 
 23 C       -2.6490    -6.1980    -0.8760 C.ar  1 <1>  -0.1500 
 24 C        4.7450     5.5520     1.5500 C.3   1 <1>  -0.1790 
 25 C       -3.5160    -5.5870     0.0060 C.ar  1 <1>  -0.1500 
 26 H        2.0130    -0.4770    -1.9610 H     1 <1>   0.3700 
 27 H        1.9010    -2.5710    -1.3690 H     1 <1>   0.0800 
 28 H       -0.1690    -2.2320    -0.1320 H     1 <1>   0.0800 
 29 H        0.6110    -2.7090     1.3550 H     1 <1>   0.0800 
 30 H        3.2110    -3.1950     1.2860 H     1 <1>   0.0800 
 31 H        4.0200    -3.1220    -0.2550 H     1 <1>   0.0800 
 32 H        3.4800    -5.4660     0.4560 H     1 <1>   0.0800 
 33 H        2.7490    -5.0510    -1.0660 H     1 <1>   0.0800 
 34 H        4.1410     0.9330     1.2740 H     1 <1>   0.1500 
 35 H        1.1130    -6.2150     0.3000 H     1 <1>   0.0800 
 36 H        1.3510    -5.0960     1.6180 H     1 <1>   0.0800 
 37 H        5.1120     3.0150     2.3230 H     1 <1>   0.1500 
 38 H       -0.6200    -6.1610    -1.5420 H     1 <1>   0.1500 
 39 H       -3.7300    -4.0990     1.5010 H     1 <1>   0.1500 
 40 H       -2.9720    -6.9910    -1.5280 H     1 <1>   0.1500 
 41 H        4.4060     5.6200     2.5670 H     1 <1>   0.0800 
 42 H        4.4300     6.4350     1.0220 H     1 <1>   0.0800 
 43 H        5.8180     5.5060     1.5330 H     1 <1>   0.0800 
 44 H       -4.5440    -5.8940     0.0630 H     1 <1>   0.1500 
@<TRIPOS>BOND
  1   1   2  2   
  2   2   3  am  
  3   2   4  1   
  4   3   5  1   
  5   3  26  1   
  6   4   6  1   
  7   4   7  1   
  8   4  27  1   
  9   5   8  2   
 10   5   9  1   
 11   6  10  1   
 12   6  28  1   
 13   6  29  1   
 14   7  11  1   
 15   7  30  1   
 16   7  31  1   
 17   8  12  1   
 18   9  13  1   
 19   9  14  1   
 20  10  15  1   
 21  10  16  1   
 22  11  16  1   
 23  11  32  1   
 24  11  33  1   
 25  12  13  2   
 26  13  17  1   
 27  14  18  2   
 28  14  34  1   
 29  15  19  ar  
 30  15  20  ar  
 31  16  35  1   
 32  16  36  1   
 33  17  21  2   
 34  18  21  1   
 35  18  37  1   
 36  19  22  ar  
 37  20  23  ar  
 38  20  38  1   
 39  21  24  1   
 40  22  25  ar  
 41  22  39  1   
 42  23  25  ar  
 43  23  40  1   
 44  24  41  1   
 45  24  42  1   
 46  24  43  1   
 47  25  44  1   
@<TRIPOS>SUBSTRUCTURE
  1 ****   2 GROUP 4 **** **** 0

# MOE 2024.06 (io_trps.svl 2023.06)
