@<TRIPOS>MOLECULE
NONAME
51 54 1 0 0 
SMALL
USER_CHARGES


@<TRIPOS>ATOM
  1 O        1.5510     0.8140    -2.2960 O.2   1 <1>  -0.5700 
  2 C        1.7110     0.7940    -1.0880 C.2   1 <1>   0.5440 
  3 N        0.6860     1.2290    -0.2830 N.am  1 <1>  -0.6600 
  4 C        2.9730     0.3740    -0.5370 C.ar  1 <1>   0.0860 
  5 C       -0.6270     1.6660    -0.7950 C.3   1 <1>   0.1400 
  6 C        0.7240     1.2430     1.1950 C.3   1 <1>   0.1400 
  7 C        3.1600    -0.8860     0.0730 C.ar  1 <1>   0.4100 
  8 C        4.0510     1.2460    -0.5830 C.ar  1 <1>  -0.1500 
  9 C       -1.5260     1.7090     0.4350 C.3   1 <1>  -0.1600 
 10 C       -0.5740     1.9290     1.6080 C.3   1 <1>  -0.1600 
 11 N        4.3070    -1.2470     0.6520 N.ar  1 <1>  -0.6200 
 12 N        2.1650    -1.8540     0.1110 N.pl3 1 <1>  -0.8380 
 13 C        5.2350     0.8540    -0.0050 C.ar  1 <1>  -0.1500 
 14 C        5.3050    -0.3880     0.5980 C.ar  1 <1>   0.1600 
 15 C        1.5620    -2.3350    -1.1550 C.3   1 <1>   0.2090 
 16 C        2.0880    -2.8050     1.2580 C.3   1 <1>   0.2090 
 17 C        0.0610    -2.5290    -0.9370 C.3   1 <1>  -0.1600 
 18 C        0.9660    -3.8330     1.0510 C.3   1 <1>  -0.1600 
 19 C       -0.2990    -3.2050     0.4170 C.3   1 <1>   0.3430 
 20 C       -0.8330    -2.1890     1.3930 C.1   1 <1>   0.3570 
 21 C       -1.4220    -4.2370     0.1590 C.ar  1 <1>  -0.1430 
 22 N       -1.2450    -1.4510     2.1580 N.1   1 <1>  -0.5570 
 23 C       -1.2760    -5.6060     0.3770 C.ar  1 <1>  -0.1500 
 24 C       -2.6490    -3.7840    -0.3210 C.ar  1 <1>  -0.1500 
 25 C       -2.3150    -6.4840     0.1230 C.ar  1 <1>  -0.1500 
 26 C       -3.6890    -4.6600    -0.5760 C.ar  1 <1>  -0.1500 
 27 C       -3.5230    -6.0130    -0.3550 C.ar  1 <1>  -0.1500 
 28 H       -0.9970     0.9810    -1.5390 H     1 <1>   0.0800 
 29 H       -0.5230     2.6470    -1.2260 H     1 <1>   0.0800 
 30 H        1.5850     1.7790     1.5550 H     1 <1>   0.0800 
 31 H        0.7510     0.2310     1.5580 H     1 <1>   0.0800 
 32 H        3.9490     2.2060    -1.0600 H     1 <1>   0.1500 
 33 H       -2.0180     0.7580     0.5410 H     1 <1>   0.0800 
 34 H       -2.2720     2.4800     0.3600 H     1 <1>   0.0800 
 35 H       -0.3880     2.9810     1.7380 H     1 <1>   0.0800 
 36 H       -0.9590     1.5230     2.5260 H     1 <1>   0.0800 
 37 H        6.0950     1.5000    -0.0170 H     1 <1>   0.1500 
 38 H        6.2320    -0.6870     1.0570 H     1 <1>   0.1500 
 39 H        2.0210    -3.2720    -1.4230 H     1 <1>   0.0800 
 40 H        1.7410    -1.6530    -1.9670 H     1 <1>   0.0800 
 41 H        1.9080    -2.2370     2.1560 H     1 <1>   0.0800 
 42 H        3.0270    -3.3200     1.3740 H     1 <1>   0.0800 
 43 H       -0.3010    -3.1250    -1.7540 H     1 <1>   0.0800 
 44 H       -0.4200    -1.5700    -1.0140 H     1 <1>   0.0800 
 45 H        0.7260    -4.2780     2.0000 H     1 <1>   0.0800 
 46 H        1.3460    -4.6100     0.4130 H     1 <1>   0.0800 
 47 H       -0.3610    -6.0280     0.7480 H     1 <1>   0.1500 
 48 H       -2.8110    -2.7350    -0.5030 H     1 <1>   0.1500 
 49 H       -2.1850    -7.5380     0.2970 H     1 <1>   0.1500 
 50 H       -4.6290    -4.2870    -0.9460 H     1 <1>   0.1500 
 51 H       -4.3310    -6.6960    -0.5510 H     1 <1>   0.1500 
@<TRIPOS>BOND
  1   1   2  2   
  2   2   3  am  
  3   2   4  1   
  4   3   5  1   
  5   3   6  1   
  6   4   7  ar  
  7   4   8  ar  
  8   5   9  1   
  9   5  28  1   
 10   5  29  1   
 11   6  10  1   
 12   6  30  1   
 13   6  31  1   
 14   7  11  ar  
 15   7  12  1   
 16   8  13  ar  
 17   8  32  1   
 18   9  10  1   
 19   9  33  1   
 20   9  34  1   
 21  10  35  1   
 22  10  36  1   
 23  11  14  ar  
 24  12  15  1   
 25  12  16  1   
 26  13  14  ar  
 27  13  37  1   
 28  14  38  1   
 29  15  17  1   
 30  15  39  1   
 31  15  40  1   
 32  16  18  1   
 33  16  41  1   
 34  16  42  1   
 35  17  19  1   
 36  17  43  1   
 37  17  44  1   
 38  18  19  1   
 39  18  45  1   
 40  18  46  1   
 41  19  20  1   
 42  19  21  1   
 43  20  22  3   
 44  21  23  ar  
 45  21  24  ar  
 46  23  25  ar  
 47  23  47  1   
 48  24  26  ar  
 49  24  48  1   
 50  25  27  ar  
 51  25  49  1   
 52  26  27  ar  
 53  26  50  1   
 54  27  51  1   
@<TRIPOS>SUBSTRUCTURE
  1 ****  17 GROUP 4 **** **** 0

# MOE 2024.06 (io_trps.svl 2023.06)
