@<TRIPOS>MOLECULE
NONAME
42 44 1 0 0 
SMALL
USER_CHARGES


@<TRIPOS>ATOM
  1 O       -0.1910     1.5610     0.6940 O.co2 1 <1>  -0.9000 
  2 C        0.8540     1.5230     1.3580 C.2   1 <1>   0.9470 
  3 O        0.8840     1.9410     2.5230 O.co2 1 <1>  -0.9000 
  4 C        2.1780     1.1910     0.6640 C.3   1 <1>  -0.2420 
  5 C        2.9670    -0.0840     0.4790 C.3   1 <1>  -0.2420 
  6 C        3.1730     2.3080     0.8990 C.3   1 <1>   0.2350 
  7 C        2.1280     0.4530    -0.6520 C.3   1 <1>  -0.2000 
  8 C        2.7070    -1.4960     1.0080 C.2   1 <1>   0.9470 
  9 C        4.4460     0.2620     0.5570 C.3   1 <1>   0.2350 
 10 N        4.4990     1.7510     0.5080 N.am  1 <1>  -0.6600 
 11 O        3.1360    -1.8010     2.1290 O.co2 1 <1>  -0.9000 
 12 O        2.2130    -2.3480     0.2570 O.co2 1 <1>  -0.9000 
 13 C        5.5530     2.4560     0.0040 C.2   1 <1>   0.5690 
 14 O        6.5440     1.9020    -0.4220 O.2   1 <1>  -0.5700 
 15 C        5.4590     3.9830    -0.0500 C.3   1 <1>   0.1810 
 16 O        6.7260     4.6250     0.0060 O.3   1 <1>  -0.3630 
 17 C        6.8210     5.9780    -0.0320 C.ar  1 <1>   0.0820 
 18 C        8.1000     6.5100    -0.0340 C.ar  1 <1>  -0.1500 
 19 C        5.7230     6.8350    -0.0680 C.ar  1 <1>  -0.1500 
 20 C        8.2970     7.8790    -0.0700 C.ar  1 <1>  -0.1500 
 21 C        5.9200     8.2050    -0.1050 C.ar  1 <1>  -0.1500 
 22 C        7.2000     8.7360    -0.1060 C.ar  1 <1>   0.0820 
 23 O        7.2960    10.0910    -0.1440 O.3   1 <1>  -0.3630 
 24 C        8.5510    10.7300    -0.1530 C.3   1 <1>   0.1200 
 25 C        8.3130    12.2360    -0.1990 C.3   1 <1>  -0.2400 
 26 H        3.1930     2.5700     1.9440 H     1 <1>   0.0800 
 27 H        2.9040     3.1650     0.3090 H     1 <1>   0.0800 
 28 H        2.6070     0.8710    -1.5160 H     1 <1>   0.1000 
 29 H        1.2250    -0.0810    -0.8970 H     1 <1>   0.1000 
 30 H        4.9880    -0.1780    -0.2610 H     1 <1>   0.0800 
 31 H        4.8600    -0.0780     1.4910 H     1 <1>   0.0800 
 32 H        4.8870     4.3330     0.7880 H     1 <1>   0.0800 
 33 H        4.9810     4.2670    -0.9690 H     1 <1>   0.0800 
 34 H        8.9400     5.8380    -0.0060 H     1 <1>   0.1500 
 35 H        4.7170     6.4640    -0.0670 H     1 <1>   0.1500 
 36 H        9.3020     8.2540    -0.0710 H     1 <1>   0.1500 
 37 H        5.0800     8.8750    -0.1320 H     1 <1>   0.1500 
 38 H        9.0800    10.4560     0.7440 H     1 <1>   0.0800 
 39 H        9.0940    10.4040    -1.0230 H     1 <1>   0.0800 
 40 H        7.7550    12.5480     0.6650 H     1 <1>   0.0800 
 41 H        7.7700    12.4960    -1.0900 H     1 <1>   0.0800 
 42 H        9.2550    12.7540    -0.2070 H     1 <1>   0.0800 
@<TRIPOS>BOND
  1   1   2  ar  
  2   2   3  ar  
  3   2   4  1   
  4   4   5  1   
  5   4   6  1   
  6   4   7  1   
  7   5   7  1   
  8   5   8  1   
  9   5   9  1   
 10   6  10  1   
 11   6  26  1   
 12   6  27  1   
 13   7  28  1   
 14   7  29  1   
 15   8  11  ar  
 16   8  12  ar  
 17   9  10  1   
 18   9  30  1   
 19   9  31  1   
 20  10  13  am  
 21  13  14  2   
 22  13  15  1   
 23  15  16  1   
 24  15  32  1   
 25  15  33  1   
 26  16  17  1   
 27  17  18  ar  
 28  17  19  ar  
 29  18  20  ar  
 30  18  34  1   
 31  19  21  ar  
 32  19  35  1   
 33  20  22  ar  
 34  20  36  1   
 35  21  22  ar  
 36  21  37  1   
 37  22  23  1   
 38  23  24  1   
 39  24  25  1   
 40  24  38  1   
 41  24  39  1   
 42  25  40  1   
 43  25  41  1   
 44  25  42  1   
@<TRIPOS>SUBSTRUCTURE
  1 ****  15 GROUP 4 **** **** 0

# MOE 2024.06 (io_trps.svl 2023.06)
