@<TRIPOS>MOLECULE
NONAME
51 53 1 0 0 
SMALL
USER_CHARGES


@<TRIPOS>ATOM
  1 O       -0.8110    -1.3770    -0.3400 O.3   1 <1>  -0.6800 
  2 C        0.4070    -1.7200    -0.9040 C.3   1 <1>   0.1200 
  3 C        1.4640    -2.0120     0.2000 C.3   1 <1>   0.0000 
  4 C        2.8500    -2.3180    -0.4380 C.3   1 <1>   0.4230 
  5 C        1.6320    -0.7700     1.1180 C.3   1 <1>  -0.1600 
  6 C        1.0280    -3.2180     1.0890 C.3   1 <1>  -0.1600 
  7 N        2.8890    -3.6060    -1.2600 N.4   1 <1>  -0.9590 
  8 C        3.4430    -1.0840    -1.1620 C.3   1 <1>   0.2090 
  9 C        2.2280     0.4530     0.4100 C.3   1 <1>   0.2090 
 10 C        1.7080    -4.5480     0.7190 C.3   1 <1>  -0.1600 
 11 C        1.9370    -4.6610    -0.7850 C.3   1 <1>   0.3430 
 12 C        2.7640    -3.4340    -2.7430 C.3   1 <1>   0.2630 
 13 N        3.5120     0.0790    -0.2410 N.pl3 1 <1>  -0.8380 
 14 C        4.6690     0.2440     0.4930 C.ar  1 <1>   0.4100 
 15 N        5.1290    -0.8360     1.0970 N.ar  1 <1>  -0.6200 
 16 C        5.3180     1.4680     0.5970 C.ar  1 <1>  -0.1430 
 17 C        6.2170    -0.6670     1.8220 C.ar  1 <1>   0.4770 
 18 C        6.4460     1.5020     1.3750 C.ar  1 <1>   0.1600 
 19 C        4.8430     2.7290    -0.1180 C.3   1 <1>  -0.0170 
 20 N        6.9100     0.4400     2.0010 N.ar  1 <1>  -0.6200 
 21 C        6.7400    -1.8920     2.5320 C.3   1 <1>  -0.0970 
 22 C        5.3660     2.7630    -1.5560 C.3   1 <1>  -0.2400 
 23 H       -1.4800    -1.1490    -1.0180 H     1 <1>   0.4000 
 24 H        0.2400    -2.5840    -1.5210 H     1 <1>   0.0800 
 25 H        0.7090    -0.8990    -1.5310 H     1 <1>   0.0800 
 26 H        3.5050    -2.4830     0.4010 H     1 <1>   0.0800 
 27 H        2.2860    -1.0080     1.9390 H     1 <1>   0.0800 
 28 H        0.6850    -0.4930     1.5490 H     1 <1>   0.0800 
 29 H        1.2470    -3.0240     2.1250 H     1 <1>   0.0800 
 30 H       -0.0400    -3.3450     1.0350 H     1 <1>   0.0800 
 31 H        3.8320    -3.9800    -1.0800 H     1 <1>   0.4500 
 32 H        2.8500    -0.8070    -2.0140 H     1 <1>   0.0800 
 33 H        4.4390    -1.3120    -1.4990 H     1 <1>   0.0800 
 34 H        2.4020     1.2310     1.1360 H     1 <1>   0.0800 
 35 H        1.5460     0.8380    -0.3280 H     1 <1>   0.0800 
 36 H        1.0860    -5.3620     1.0480 H     1 <1>   0.0800 
 37 H        2.6500    -4.6400     1.2310 H     1 <1>   0.0800 
 38 H        0.9870    -4.5490    -1.2820 H     1 <1>   0.0800 
 39 H        2.3250    -5.6390    -1.0230 H     1 <1>   0.0800 
 40 H        1.8100    -3.0000    -2.9930 H     1 <1>   0.0800 
 41 H        2.8470    -4.3890    -3.2370 H     1 <1>   0.0800 
 42 H        3.5450    -2.7920    -3.1170 H     1 <1>   0.0800 
 43 H        6.9940     2.4210     1.4930 H     1 <1>   0.1500 
 44 H        3.7700     2.7730    -0.1260 H     1 <1>   0.0800 
 45 H        5.1950     3.6000     0.4070 H     1 <1>   0.0800 
 46 H        7.3350    -1.6030     3.3800 H     1 <1>   0.0800 
 47 H        7.3490    -2.4610     1.8570 H     1 <1>   0.0800 
 48 H        5.9230    -2.4970     2.8750 H     1 <1>   0.0800 
 49 H        4.9980     1.9130    -2.1030 H     1 <1>   0.0800 
 50 H        6.4410     2.7390    -1.5640 H     1 <1>   0.0800 
 51 H        5.0360     3.6600    -2.0490 H     1 <1>   0.0800 
@<TRIPOS>BOND
  1   1   2  1   
  2   1  23  1   
  3   2   3  1   
  4   2  24  1   
  5   2  25  1   
  6   3   4  1   
  7   3   5  1   
  8   3   6  1   
  9   4   7  1   
 10   4   8  1   
 11   4  26  1   
 12   5   9  1   
 13   5  27  1   
 14   5  28  1   
 15   6  10  1   
 16   6  29  1   
 17   6  30  1   
 18   7  11  1   
 19   7  12  1   
 20   7  31  1   
 21   8  13  1   
 22   8  32  1   
 23   8  33  1   
 24   9  13  1   
 25   9  34  1   
 26   9  35  1   
 27  10  11  1   
 28  10  36  1   
 29  10  37  1   
 30  11  38  1   
 31  11  39  1   
 32  12  40  1   
 33  12  41  1   
 34  12  42  1   
 35  13  14  1   
 36  14  15  ar  
 37  14  16  ar  
 38  15  17  ar  
 39  16  18  ar  
 40  16  19  1   
 41  17  20  ar  
 42  17  21  1   
 43  18  20  ar  
 44  18  43  1   
 45  19  22  1   
 46  19  44  1   
 47  19  45  1   
 48  21  46  1   
 49  21  47  1   
 50  21  48  1   
 51  22  49  1   
 52  22  50  1   
 53  22  51  1   
@<TRIPOS>SUBSTRUCTURE
  1 ****  13 GROUP 4 **** **** 0

# MOE 2024.06 (io_trps.svl 2023.06)
