@<TRIPOS>MOLECULE
F1913-1447
22 22 1 0 0 
SMALL
USER_CHARGES


@<TRIPOS>ATOM
  1 F        1.1130    -1.0250     0.1150 F     1 <1>  -0.3400 
  2 C        2.2640    -0.3720     0.1750 C.3   1 <1>   1.0200 
  3 F        2.9650    -0.7440    -0.8900 F     1 <1>  -0.3400 
  4 F        2.9170    -0.8420     1.2300 F     1 <1>  -0.3400 
  5 C        2.0600     1.1620     0.2380 C.3   1 <1>   0.1200 
  6 O        3.2270     1.9340     0.4750 O.3   1 <1>  -0.5380 
  7 C        4.1340     2.0100    -0.5820 C.3   1 <1>   0.2580 
  8 C        5.4250     1.2050    -0.2670 C.3   1 <1>   0.0000 
  9 C        5.0040     3.2880    -0.4360 C.3   1 <1>   0.0000 
 10 C        5.8810     2.4530     0.5300 C.3   1 <1>   0.4720 
 11 N        7.3250     2.7330     0.4210 N.4   1 <1>  -0.8220 
 12 H        1.3850     1.3670     1.0480 H     1 <1>   0.0800 
 13 H        1.6000     1.5000    -0.6720 H     1 <1>   0.0800 
 14 H        3.6800     1.8650    -1.5470 H     1 <1>   0.0000 
 15 H        6.0160     1.0210    -1.1490 H     1 <1>   0.0000 
 16 H        5.2640     0.3310     0.3370 H     1 <1>   0.0000 
 17 H        4.4890     4.1120     0.0250 H     1 <1>   0.0000 
 18 H        5.5050     3.5470    -1.3540 H     1 <1>   0.0000 
 19 H        5.5220     2.4620     1.5440 H     1 <1>   0.0000 
 20 H        7.6270     2.7130    -0.5570 H     1 <1>   0.4500 
 21 H        7.8570     2.0300     0.9460 H     1 <1>   0.4500 
 22 H        7.5330     3.6570     0.8140 H     1 <1>   0.4500 
@<TRIPOS>BOND
  1   1   2  1   
  2   2   3  1   
  3   2   4  1   
  4   2   5  1   
  5   5   6  1   
  6   5  12  1   
  7   5  13  1   
  8   6   7  1   
  9   7   8  1   
 10   7   9  1   
 11   7  14  1   
 12   8  10  1   
 13   8  15  1   
 14   8  16  1   
 15   9  10  1   
 16   9  17  1   
 17   9  18  1   
 18  10  11  1   
 19  10  19  1   
 20  11  20  1   
 21  11  21  1   
 22  11  22  1   
@<TRIPOS>SUBSTRUCTURE
  1 ****   6 GROUP 4 **** **** 0

# MOE 2024.06 (io_trps.svl 2023.06)
