@<TRIPOS>MOLECULE
NONAME
50 53 1 0 0 
SMALL
USER_CHARGES


@<TRIPOS>ATOM
  1 O       -0.3450    -0.0210     1.2330 O.2   1 <1>  -0.5700 
  2 C       -1.2750     0.6570     0.8400 C.2   1 <1>   0.5440 
  3 N       -2.4000     0.0190     0.3690 N.am  1 <1>  -0.6600 
  4 C       -1.1790     2.1010     0.8610 C.ar  1 <1>   0.0860 
  5 C       -3.4830     0.6620    -0.4200 C.3   1 <1>   0.1400 
  6 C       -2.4950    -1.4590     0.2500 C.3   1 <1>   0.1400 
  7 C       -0.1730     2.7580     0.1730 C.ar  1 <1>  -0.1500 
  8 C       -2.1120     2.8770     1.5820 C.ar  1 <1>  -0.1500 
  9 C       -4.5310    -0.4360    -0.5810 C.3   1 <1>   0.2000 
 10 C       -3.6920    -1.7130    -0.6750 C.3   1 <1>  -0.0800 
 11 C       -0.1000     4.1510     0.1710 C.ar  1 <1>   0.0000 
 12 C       -2.0580     4.2490     1.5940 C.ar  1 <1>  -0.1500 
 13 O       -5.2920    -0.4670     0.5790 O.3   1 <1>  -0.6800 
 14 C       -4.4410    -3.0240    -0.3780 C.3   1 <1>   0.0210 
 15 C       -1.0440     4.8880     0.8770 C.ar  1 <1>  -0.1520 
 16 C        0.7740     5.0890    -0.4260 C.2   1 <1>  -0.1810 
 17 C       -3.5130    -4.2150    -0.5110 C.2   1 <1>   0.1080 
 18 N       -0.7590     6.2150     0.7150 N.pl3 1 <1>   0.0330 
 19 C        0.3490     6.3290    -0.0790 C.2   1 <1>  -0.3320 
 20 C        1.9550     4.6760    -1.2850 C.3   1 <1>  -0.0590 
 21 N       -2.9660    -4.5580    -1.6360 N.2   1 <1>  -0.7070 
 22 C       -3.1370    -5.0530     0.5330 C.2   1 <1>  -0.1500 
 23 C        0.9100     7.6940    -0.4360 C.3   1 <1>  -0.0600 
 24 N       -2.2190    -5.6360    -1.3360 N.pl3 1 <1>   0.3000 
 25 C       -2.3040    -5.9550    -0.0280 C.2   1 <1>  -0.3320 
 26 C       -1.5740    -7.1190     0.6160 C.3   1 <1>  -0.0600 
 27 H       -3.8920     1.5280     0.0700 H     1 <1>   0.0800 
 28 H       -3.0930     0.9430    -1.3830 H     1 <1>   0.0800 
 29 H       -1.5890    -1.8720    -0.1640 H     1 <1>   0.0800 
 30 H       -2.6610    -1.8800     1.2260 H     1 <1>   0.0800 
 31 H        0.5640     2.1930    -0.3670 H     1 <1>   0.1500 
 32 H       -2.8790     2.3630     2.1350 H     1 <1>   0.1500 
 33 H       -5.1850    -0.2860    -1.4220 H     1 <1>   0.0800 
 34 H       -3.3060    -1.7750    -1.6780 H     1 <1>   0.0800 
 35 H       -2.7740     4.8330     2.1460 H     1 <1>   0.1500 
 36 H       -4.6810    -0.4680     1.3430 H     1 <1>   0.4000 
 37 H       -5.2520    -3.1410    -1.0730 H     1 <1>   0.0800 
 38 H       -4.8540    -3.0100     0.6150 H     1 <1>   0.0800 
 39 H       -1.2880     6.9880     1.1290 H     1 <1>   0.2700 
 40 H        2.6260     4.0660    -0.7070 H     1 <1>   0.0800 
 41 H        2.4920     5.5330    -1.6430 H     1 <1>   0.0800 
 42 H        1.6080     4.1090    -2.1300 H     1 <1>   0.0800 
 43 H       -3.4550    -4.9740     1.5570 H     1 <1>   0.1500 
 44 H        1.7760     7.6030    -1.0640 H     1 <1>   0.0800 
 45 H        1.1940     8.2210     0.4570 H     1 <1>   0.0800 
 46 H        0.1700     8.2700    -0.9620 H     1 <1>   0.0800 
 47 H       -1.6640    -6.1300    -2.0450 H     1 <1>   0.2700 
 48 H       -1.8030    -7.1640     1.6660 H     1 <1>   0.0800 
 49 H       -0.5110    -6.9990     0.5030 H     1 <1>   0.0800 
 50 H       -1.8740    -8.0450     0.1600 H     1 <1>   0.0800 
@<TRIPOS>BOND
  1   1   2  2   
  2   2   3  am  
  3   2   4  1   
  4   3   5  1   
  5   3   6  1   
  6   4   7  ar  
  7   4   8  ar  
  8   5   9  1   
  9   5  27  1   
 10   5  28  1   
 11   6  10  1   
 12   6  29  1   
 13   6  30  1   
 14   7  11  ar  
 15   7  31  1   
 16   8  12  ar  
 17   8  32  1   
 18   9  10  1   
 19   9  13  1   
 20   9  33  1   
 21  10  14  1   
 22  10  34  1   
 23  11  15  ar  
 24  11  16  1   
 25  12  15  ar  
 26  12  35  1   
 27  13  36  1   
 28  14  17  1   
 29  14  37  1   
 30  14  38  1   
 31  15  18  1   
 32  16  19  2   
 33  16  20  1   
 34  17  21  2   
 35  17  22  1   
 36  18  19  1   
 37  18  39  1   
 38  19  23  1   
 39  20  40  1   
 40  20  41  1   
 41  20  42  1   
 42  21  24  1   
 43  22  25  2   
 44  22  43  1   
 45  23  44  1   
 46  23  45  1   
 47  23  46  1   
 48  24  25  1   
 49  24  47  1   
 50  25  26  1   
 51  26  48  1   
 52  26  49  1   
 53  26  50  1   
@<TRIPOS>SUBSTRUCTURE
  1 ****   3 GROUP 4 **** **** 0

# MOE 2024.06 (io_trps.svl 2023.06)
