@<TRIPOS>MOLECULE
NONAME
42 44 1 0 0 
SMALL
USER_CHARGES


@<TRIPOS>ATOM
  1 O       -1.6270    -0.2860    -0.2170 O.2   1 <1>  -0.5700 
  2 C       -1.4600    -1.4230     0.1660 C.2   1 <1>   0.7800 
  3 O       -0.6070    -1.7240     1.1320 O.3   1 <1>  -0.4300 
  4 N       -2.1110    -2.5160    -0.2840 N.am  1 <1>  -0.6600 
  5 C       -0.6450    -3.1090     1.4260 C.3   1 <1>   0.1200 
  6 C       -1.7070    -3.6930     0.4860 C.3   1 <1>   0.1400 
  7 C       -3.2830    -2.5330    -1.2110 C.3   1 <1>   0.2010 
  8 C       -4.5800    -2.9830    -0.5310 C.2   1 <1>   0.5690 
  9 O       -4.9080    -4.1370    -0.6950 O.2   1 <1>  -0.5700 
 10 N       -5.3310    -2.1270     0.2410 N.am  1 <1>  -0.6600 
 11 C       -6.5980    -2.5740     0.8920 C.3   1 <1>   0.1400 
 12 C       -5.0190    -0.6920     0.4940 C.3   1 <1>   0.1400 
 13 C       -7.7950    -1.7750     0.3420 C.3   1 <1>   0.0000 
 14 C       -6.1620     0.1830    -0.0320 C.3   1 <1>  -0.1600 
 15 C       -9.1050    -2.2530     0.9970 C.3   1 <1>   0.2000 
 16 C       -7.5290    -0.2540     0.5310 C.3   1 <1>  -0.1600 
 17 C       -8.0710    -2.1040    -1.1370 C.3   1 <1>  -0.1600 
 18 O       -9.3460    -1.6630     2.2240 O.3   1 <1>  -0.6800 
 19 C      -10.2270    -1.9150     0.0160 C.3   1 <1>  -0.1600 
 20 C       -9.5580    -1.8080    -1.3610 C.3   1 <1>  -0.1600 
 21 H        0.3270    -3.5290     1.2380 H     1 <1>   0.0800 
 22 H       -0.9140    -3.2370     2.4600 H     1 <1>   0.0800 
 23 H       -2.5380    -4.0960     1.0410 H     1 <1>   0.0800 
 24 H       -1.2920    -4.4500    -0.1570 H     1 <1>   0.0800 
 25 H       -3.4220    -1.5600    -1.6440 H     1 <1>   0.0800 
 26 H       -3.0710    -3.2140    -2.0150 H     1 <1>   0.0800 
 27 H       -6.7560    -3.6270     0.7310 H     1 <1>   0.0800 
 28 H       -6.5210    -2.4170     1.9540 H     1 <1>   0.0800 
 29 H       -4.9050    -0.5430     1.5540 H     1 <1>   0.0800 
 30 H       -4.1020    -0.3950     0.0230 H     1 <1>   0.0800 
 31 H       -5.9730     1.2050     0.2450 H     1 <1>   0.0800 
 32 H       -6.1670     0.1420    -1.1060 H     1 <1>   0.0800 
 33 H       -9.0730    -3.3200     1.1450 H     1 <1>   0.0800 
 34 H       -8.3080     0.3280     0.0710 H     1 <1>   0.0800 
 35 H       -7.5250    -0.0220     1.5810 H     1 <1>   0.0800 
 36 H       -7.4470    -1.5610    -1.8220 H     1 <1>   0.0800 
 37 H       -7.9020    -3.1560    -1.3030 H     1 <1>   0.0800 
 38 H       -9.4410    -0.7000     2.1060 H     1 <1>   0.4000 
 39 H      -10.9690    -2.6930     0.0220 H     1 <1>   0.0800 
 40 H      -10.6900    -0.9760     0.2650 H     1 <1>   0.0800 
 41 H       -9.9860    -2.5030    -2.0630 H     1 <1>   0.0800 
 42 H       -9.6780    -0.8100    -1.7460 H     1 <1>   0.0800 
@<TRIPOS>BOND
  1   1   2  2   
  2   2   3  1   
  3   2   4  am  
  4   3   5  1   
  5   4   6  1   
  6   4   7  1   
  7   5   6  1   
  8   5  21  1   
  9   5  22  1   
 10   6  23  1   
 11   6  24  1   
 12   7   8  1   
 13   7  25  1   
 14   7  26  1   
 15   8   9  2   
 16   8  10  am  
 17  10  11  1   
 18  10  12  1   
 19  11  13  1   
 20  11  27  1   
 21  11  28  1   
 22  12  14  1   
 23  12  29  1   
 24  12  30  1   
 25  13  15  1   
 26  13  16  1   
 27  13  17  1   
 28  14  16  1   
 29  14  31  1   
 30  14  32  1   
 31  15  18  1   
 32  15  19  1   
 33  15  33  1   
 34  16  34  1   
 35  16  35  1   
 36  17  20  1   
 37  17  36  1   
 38  17  37  1   
 39  18  38  1   
 40  19  20  1   
 41  19  39  1   
 42  19  40  1   
 43  20  41  1   
 44  20  42  1   
@<TRIPOS>SUBSTRUCTURE
  1 ****  10 GROUP 4 **** **** 0

# MOE 2024.06 (io_trps.svl 2023.06)
