@<TRIPOS>MOLECULE
NONAME
50 51 1 0 0 
SMALL
USER_CHARGES


@<TRIPOS>ATOM
  1 O       -4.4820     2.1090    -0.7180 O.2   1 <1>  -0.5700 
  2 C       -3.6240     1.3850    -0.2700 C.2   1 <1>   0.5690 
  3 N       -3.6230     0.0390    -0.5490 N.am  1 <1>  -0.6600 
  4 C       -2.5780     2.0520     0.6170 C.3   1 <1>  -0.0990 
  5 C       -2.6230    -0.9380     0.0190 C.3   1 <1>   0.3640 
  6 C       -4.7530    -0.5040    -1.3660 C.3   1 <1>   0.1400 
  7 C       -1.4960     2.7770    -0.2010 C.3   1 <1>  -0.1600 
  8 C       -1.2360    -0.6490    -0.5610 C.ar  1 <1>  -0.1440 
  9 C       -2.9410    -2.4550    -0.1760 C.3   1 <1>   0.2000 
 10 C       -4.5570    -1.9590    -1.7910 C.3   1 <1>   0.1200 
 11 C       -0.3820     3.3250     0.7000 C.3   1 <1>  -0.1600 
 12 C       -1.0490    -0.4660    -1.9250 C.ar  1 <1>  -0.1500 
 13 C       -0.1360    -0.5640     0.2830 C.ar  1 <1>  -0.1500 
 14 O       -4.2250    -2.7150    -0.6740 O.3   1 <1>  -0.5600 
 15 C       -2.8160    -3.2460     1.1340 C.3   1 <1>   0.1200 
 16 C        0.7300     3.9750    -0.1350 C.3   1 <1>  -0.1600 
 17 C        0.2090    -0.1990    -2.4350 C.ar  1 <1>  -0.1500 
 18 C        1.1230    -0.2950    -0.2240 C.ar  1 <1>  -0.1500 
 19 O       -1.5450    -3.1040     1.6860 O.3   1 <1>  -0.6800 
 20 C        1.8490     4.5130     0.7550 C.3   1 <1>   0.1200 
 21 C        1.2960    -0.1120    -1.5840 C.ar  1 <1>  -0.1500 
 22 O        2.8200     5.0710    -0.0670 O.3   1 <1>  -0.5600 
 23 C        3.9020     5.6090     0.6200 C.3   1 <1>   0.0400 
 24 H       -3.0850     2.7730     1.2330 H     1 <1>   0.0800 
 25 H       -2.1250     1.3430     1.2790 H     1 <1>   0.0800 
 26 H       -2.5830    -0.7640     1.0800 H     1 <1>   0.0800 
 27 H       -5.6590    -0.4320    -0.7880 H     1 <1>   0.0800 
 28 H       -4.8810     0.1050    -2.2440 H     1 <1>   0.0800 
 29 H       -1.0680     2.0950    -0.9140 H     1 <1>   0.0800 
 30 H       -1.9500     3.5820    -0.7540 H     1 <1>   0.0800 
 31 H       -2.2500    -2.8740    -0.8870 H     1 <1>   0.0800 
 32 H       -3.7810    -2.0520    -2.5310 H     1 <1>   0.0800 
 33 H       -5.4720    -2.3510    -2.1970 H     1 <1>   0.0800 
 34 H        0.0380     2.5190     1.2770 H     1 <1>   0.0800 
 35 H       -0.7950     4.0500     1.3800 H     1 <1>   0.0800 
 36 H       -1.8870    -0.5200    -2.5980 H     1 <1>   0.1500 
 37 H       -0.2540    -0.7060     1.3440 H     1 <1>   0.1500 
 38 H       -2.9920    -4.2940     0.9610 H     1 <1>   0.0800 
 39 H       -3.5270    -2.8790     1.8540 H     1 <1>   0.0800 
 40 H        0.3200     4.7860    -0.7120 H     1 <1>   0.0800 
 41 H        1.1420     3.2460    -0.8110 H     1 <1>   0.0800 
 42 H        0.3420    -0.0540    -3.4930 H     1 <1>   0.1500 
 43 H        1.9680    -0.2280     0.4380 H     1 <1>   0.1500 
 44 H       -0.8760    -3.5680     1.1420 H     1 <1>   0.4000 
 45 H        2.2960     3.7160     1.3250 H     1 <1>   0.0800 
 46 H        1.4740     5.2760     1.4150 H     1 <1>   0.0800 
 47 H        2.2750     0.1010    -1.9790 H     1 <1>   0.1500 
 48 H        4.5890     6.0120    -0.1020 H     1 <1>   0.0800 
 49 H        4.3850     4.8320     1.1870 H     1 <1>   0.0800 
 50 H        3.5560     6.3950     1.2690 H     1 <1>   0.0800 
@<TRIPOS>BOND
  1   1   2  2   
  2   2   3  am  
  3   2   4  1   
  4   3   5  1   
  5   3   6  1   
  6   4   7  1   
  7   4  24  1   
  8   4  25  1   
  9   5   8  1   
 10   5   9  1   
 11   5  26  1   
 12   6  10  1   
 13   6  27  1   
 14   6  28  1   
 15   7  11  1   
 16   7  29  1   
 17   7  30  1   
 18   8  12  ar  
 19   8  13  ar  
 20   9  14  1   
 21   9  15  1   
 22   9  31  1   
 23  10  14  1   
 24  10  32  1   
 25  10  33  1   
 26  11  16  1   
 27  11  34  1   
 28  11  35  1   
 29  12  17  ar  
 30  12  36  1   
 31  13  18  ar  
 32  13  37  1   
 33  15  19  1   
 34  15  38  1   
 35  15  39  1   
 36  16  20  1   
 37  16  40  1   
 38  16  41  1   
 39  17  21  ar  
 40  17  42  1   
 41  18  21  ar  
 42  18  43  1   
 43  19  44  1   
 44  20  22  1   
 45  20  45  1   
 46  20  46  1   
 47  21  47  1   
 48  22  23  1   
 49  23  48  1   
 50  23  49  1   
 51  23  50  1   
@<TRIPOS>SUBSTRUCTURE
  1 ****   8 GROUP 4 **** **** 0

# MOE 2024.06 (io_trps.svl 2023.06)
