@<TRIPOS>MOLECULE
NONAME
46 49 1 0 0 
SMALL
USER_CHARGES


@<TRIPOS>ATOM
  1 O        0.2850     1.4380     0.4420 O.2   1 <1>  -0.5700 
  2 C       -0.4870     2.0430    -0.2800 C.2   1 <1>   0.7160 
  3 N       -1.8320     1.7400    -0.2180 N.am  1 <1>  -0.6600 
  4 C        0.0270     3.0710    -1.1530 C.2   1 <1>  -0.0860 
  5 C       -2.9100     2.7120    -0.5830 C.3   1 <1>   0.1400 
  6 C       -2.3320     0.4930     0.4280 C.3   1 <1>   0.1400 
  7 C        1.1400     3.8660    -0.8690 C.2   1 <1>   0.1390 
  8 C       -0.3660     3.5210    -2.3800 C.2   1 <1>  -0.3020 
  9 C       -3.7500     3.0990     0.6480 C.3   1 <1>   0.1440 
 10 C       -3.1780     0.8350     1.6610 C.3   1 <1>  -0.1600 
 11 N        1.3990     4.7320    -1.7990 N.2   1 <1>  -0.7070 
 12 N        0.4650     4.5100    -2.7390 N.pl3 1 <1>   0.3000 
 13 C       -4.8390     4.0440     0.1810 C.ar  1 <1>   0.1660 
 14 C       -4.3060     1.8270     1.3230 C.3   1 <1>  -0.1600 
 15 C       -2.9450     3.9810     1.6420 C.3   1 <1>  -0.1600 
 16 N       -5.8850     3.7010    -0.5280 N.ar  1 <1>  -0.6200 
 17 C       -4.5870     5.3280     0.5590 C.ar  1 <1>  -0.1430 
 18 C       -3.3000     5.4460     1.3370 C.3   1 <1>  -0.0170 
 19 C       -6.7090     4.7020    -0.8500 C.ar  1 <1>   0.7200 
 20 C       -5.4880     6.2910     0.1850 C.ar  1 <1>   0.1600 
 21 N       -6.5530     5.9890    -0.5190 N.ar  1 <1>  -0.6200 
 22 N       -7.8230     4.3790    -1.6000 N.pl3 1 <1>  -0.8380 
 23 C       -8.9470     5.3360    -1.7930 C.3   1 <1>   0.1290 
 24 C       -8.0010     3.0390    -2.2250 C.3   1 <1>   0.1290 
 25 H       -3.5500     2.2600    -1.3210 H     1 <1>   0.0800 
 26 H       -2.5000     3.6090    -1.0070 H     1 <1>   0.0800 
 27 H       -1.5110    -0.1430     0.7160 H     1 <1>   0.0800 
 28 H       -2.9320    -0.0480    -0.2840 H     1 <1>   0.0800 
 29 H        1.7220     3.7690     0.0340 H     1 <1>   0.1500 
 30 H       -1.1790     3.1810    -2.9950 H     1 <1>   0.1500 
 31 H       -2.5340     1.2480     2.4180 H     1 <1>   0.0800 
 32 H       -3.6030    -0.0700     2.0570 H     1 <1>   0.0800 
 33 H        0.4340     5.0510    -3.6130 H     1 <1>   0.2700 
 34 H       -4.9970     1.3500     0.6490 H     1 <1>   0.0800 
 35 H       -4.8530     2.0880     2.2110 H     1 <1>   0.0800 
 36 H       -1.8850     3.8100     1.5850 H     1 <1>   0.0800 
 37 H       -3.2630     3.7660     2.6480 H     1 <1>   0.0800 
 38 H       -2.5430     5.9000     0.7210 H     1 <1>   0.0800 
 39 H       -3.4310     6.0180     2.2400 H     1 <1>   0.0800 
 40 H       -5.3340     7.3190     0.4630 H     1 <1>   0.1500 
 41 H       -9.0410     5.9850    -0.9380 H     1 <1>   0.0800 
 42 H       -9.8730     4.8040    -1.9150 H     1 <1>   0.0800 
 43 H       -8.7620     5.9360    -2.6670 H     1 <1>   0.0800 
 44 H       -7.0470     2.6120    -2.4820 H     1 <1>   0.0800 
 45 H       -8.5860     3.1240    -3.1240 H     1 <1>   0.0800 
 46 H       -8.5020     2.3850    -1.5340 H     1 <1>   0.0800 
@<TRIPOS>BOND
  1   1   2  2   
  2   2   3  am  
  3   2   4  1   
  4   3   5  1   
  5   3   6  1   
  6   4   7  1   
  7   4   8  2   
  8   5   9  1   
  9   5  25  1   
 10   5  26  1   
 11   6  10  1   
 12   6  27  1   
 13   6  28  1   
 14   7  11  2   
 15   7  29  1   
 16   8  12  1   
 17   8  30  1   
 18   9  13  1   
 19   9  14  1   
 20   9  15  1   
 21  10  14  1   
 22  10  31  1   
 23  10  32  1   
 24  11  12  1   
 25  12  33  1   
 26  13  16  ar  
 27  13  17  ar  
 28  14  34  1   
 29  14  35  1   
 30  15  18  1   
 31  15  36  1   
 32  15  37  1   
 33  16  19  ar  
 34  17  18  1   
 35  17  20  ar  
 36  18  38  1   
 37  18  39  1   
 38  19  21  ar  
 39  19  22  1   
 40  20  21  ar  
 41  20  40  1   
 42  22  23  1   
 43  22  24  1   
 44  23  41  1   
 45  23  42  1   
 46  23  43  1   
 47  24  44  1   
 48  24  45  1   
 49  24  46  1   
@<TRIPOS>SUBSTRUCTURE
  1 ****   5 GROUP 4 **** **** 0

# MOE 2024.06 (io_trps.svl 2023.06)
