@<TRIPOS>MOLECULE
NONAME
51 53 1 0 0 
SMALL
USER_CHARGES


@<TRIPOS>ATOM
  1 O        1.7140    -0.2190    -0.7480 O.3   1 <1>  -0.6800 
  2 C        1.0750    -0.7880     0.3420 C.3   1 <1>   0.1200 
  3 C        1.8870    -1.9730     0.9560 C.3   1 <1>   0.0000 
  4 C        2.5900    -2.9200    -0.0620 C.3   1 <1>   0.4230 
  5 C        2.9760    -1.4230     1.9190 C.3   1 <1>  -0.1600 
  6 C        0.8960    -2.8430     1.7770 C.3   1 <1>  -0.1600 
  7 N        1.6360    -3.5290    -1.0900 N.4   1 <1>  -0.9590 
  8 C        3.9620    -2.3800    -0.5950 C.3   1 <1>   0.3430 
  9 C        4.1310    -0.6470     1.2640 C.3   1 <1>   0.3430 
 10 C        0.2920    -4.0190     0.9740 C.3   1 <1>  -0.1600 
 11 C        0.2580    -3.7770    -0.5400 C.3   1 <1>   0.3430 
 12 C        1.5060    -2.7710    -2.3810 C.3   1 <1>   0.2630 
 13 N        4.2830    -0.9740    -0.1820 N.4   1 <1>  -0.9590 
 14 C        5.5410    -0.4060    -0.7540 C.3   1 <1>   0.5240 
 15 C        5.3700     1.1050    -0.8620 C.2   1 <1>   0.1080 
 16 N        4.2060     1.6740    -1.0060 N.2   1 <1>  -0.7070 
 17 C        6.4050     2.0310    -0.8140 C.2   1 <1>  -0.1500 
 18 N        4.4740     2.9980    -1.0630 N.pl3 1 <1>   0.3140 
 19 C        5.7960     3.2270    -0.9440 C.2   1 <1>  -0.3020 
 20 C        3.4210     4.0210    -1.2400 C.3   1 <1>   0.0960 
 21 C        2.8180     4.4310     0.1090 C.3   1 <1>  -0.2400 
 22 H        1.3420     0.6740    -0.9450 H     1 <1>   0.4000 
 23 H        0.9260    -0.0170     1.0810 H     1 <1>   0.0800 
 24 H        0.1040    -1.1080     0.0070 H     1 <1>   0.0800 
 25 H        2.8890    -3.7560     0.5490 H     1 <1>   0.0800 
 26 H        3.4200    -2.2420     2.4580 H     1 <1>   0.0800 
 27 H        2.5240    -0.7900     2.6640 H     1 <1>   0.0800 
 28 H        1.3820    -3.2660     2.6420 H     1 <1>   0.0800 
 29 H        0.0990    -2.2260     2.1610 H     1 <1>   0.0800 
 30 H        2.0070    -4.4610    -1.3260 H     1 <1>   0.4500 
 31 H        3.9730    -2.4410    -1.6690 H     1 <1>   0.0800 
 32 H        4.7380    -3.0270    -0.2210 H     1 <1>   0.0800 
 33 H        5.0460    -0.8590     1.7940 H     1 <1>   0.0800 
 34 H        3.9400     0.4130     1.3550 H     1 <1>   0.0800 
 35 H       -0.7110    -4.2010     1.3210 H     1 <1>   0.0800 
 36 H        0.8510    -4.9190     1.1660 H     1 <1>   0.0800 
 37 H       -0.3700    -2.9230    -0.7350 H     1 <1>   0.0800 
 38 H       -0.1870    -4.6270    -1.0340 H     1 <1>   0.0800 
 39 H        1.0320    -1.8180    -2.2170 H     1 <1>   0.0800 
 40 H        0.9010    -3.3280    -3.0790 H     1 <1>   0.0800 
 41 H        2.4690    -2.6030    -2.8310 H     1 <1>   0.0800 
 42 H        3.5590    -0.3550    -0.6240 H     1 <1>   0.4500 
 43 H        6.3870    -0.6430    -0.1310 H     1 <1>   0.0800 
 44 H        5.7110    -0.7970    -1.7420 H     1 <1>   0.0800 
 45 H        7.4580     1.8350    -0.7000 H     1 <1>   0.1500 
 46 H        6.2230     4.2140    -0.9610 H     1 <1>   0.1500 
 47 H        3.8530     4.8760    -1.7270 H     1 <1>   0.0800 
 48 H        2.6580     3.6150    -1.8780 H     1 <1>   0.0800 
 49 H        3.5760     4.8540     0.7460 H     1 <1>   0.0800 
 50 H        2.3770     3.5810     0.5970 H     1 <1>   0.0800 
 51 H        2.0530     5.1710    -0.0450 H     1 <1>   0.0800 
@<TRIPOS>BOND
  1   1   2  1   
  2   1  22  1   
  3   2   3  1   
  4   2  23  1   
  5   2  24  1   
  6   3   4  1   
  7   3   5  1   
  8   3   6  1   
  9   4   7  1   
 10   4   8  1   
 11   4  25  1   
 12   5   9  1   
 13   5  26  1   
 14   5  27  1   
 15   6  10  1   
 16   6  28  1   
 17   6  29  1   
 18   7  11  1   
 19   7  12  1   
 20   7  30  1   
 21   8  13  1   
 22   8  31  1   
 23   8  32  1   
 24   9  13  1   
 25   9  33  1   
 26   9  34  1   
 27  10  11  1   
 28  10  35  1   
 29  10  36  1   
 30  11  37  1   
 31  11  38  1   
 32  12  39  1   
 33  12  40  1   
 34  12  41  1   
 35  13  14  1   
 36  13  42  1   
 37  14  15  1   
 38  14  43  1   
 39  14  44  1   
 40  15  16  2   
 41  15  17  1   
 42  16  18  1   
 43  17  19  2   
 44  17  45  1   
 45  18  19  1   
 46  18  20  1   
 47  19  46  1   
 48  20  21  1   
 49  20  47  1   
 50  20  48  1   
 51  21  49  1   
 52  21  50  1   
 53  21  51  1   
@<TRIPOS>SUBSTRUCTURE
  1 ****  13 GROUP 4 **** **** 0

# MOE 2024.06 (io_trps.svl 2023.06)
