@<TRIPOS>MOLECULE
NONAME
55 58 1 0 0 
SMALL
USER_CHARGES


@<TRIPOS>ATOM
  1 O        2.3400     0.2710    -1.7370 O.2   1 <1>  -0.5700 
  2 C        2.9700    -0.1020    -0.7620 C.2   1 <1>   0.7150 
  3 N        2.6380     0.4260     0.4740 N.am  1 <1>  -0.6600 
  4 C        4.0230    -1.0780    -0.9360 C.2   1 <1>   0.0550 
  5 C        3.0230    -0.2260     1.7720 C.3   1 <1>   0.1400 
  6 C        1.9510     1.7410     0.5700 C.3   1 <1>   0.1400 
  7 O        5.1910    -0.9270    -0.3300 O.3   1 <1>  -0.2800 
  8 C        4.0630    -2.2110    -1.6680 C.2   1 <1>   0.0460 
  9 C        3.6360     0.7390     2.8020 C.3   1 <1>   0.1400 
 10 C        2.9880     2.8720     0.5200 C.3   1 <1>  -0.1600 
 11 C        5.8440    -2.0010    -0.7180 C.2   1 <1>   0.2980 
 12 N        5.2400    -2.8050    -1.5110 N.2   1 <1>  -0.5650 
 13 C        3.0110    -2.8320    -2.5640 C.3   1 <1>  -0.0590 
 14 N        4.5230     1.7490     2.1580 N.am  1 <1>  -0.6600 
 15 C        3.8410     3.0210     1.7880 C.3   1 <1>   0.1400 
 16 C        7.2450    -2.1920    -0.1900 C.3   1 <1>  -0.0600 
 17 C        5.8290     1.4350     1.8790 C.2   1 <1>   0.5690 
 18 O        6.3310     0.4130     2.2890 O.2   1 <1>  -0.5700 
 19 C        6.6790     2.3830     1.0460 C.3   1 <1>  -0.0990 
 20 C        7.9820     1.7520     0.5370 C.3   1 <1>   0.0210 
 21 C        8.8170     2.7150    -0.2920 C.2   1 <1>  -0.1810 
 22 C       10.0710     2.3640    -0.8430 C.ar  1 <1>   0.0000 
 23 C        8.5630     3.9980    -0.6490 C.2   1 <1>  -0.3020 
 24 C       10.5320     3.4840    -1.5270 C.ar  1 <1>  -0.1520 
 25 C       10.8520     1.2030    -0.8200 C.ar  1 <1>  -0.1500 
 26 N        9.5980     4.4780    -1.4000 N.pl3 1 <1>   0.0330 
 27 C       11.7610     3.4670    -2.1910 C.ar  1 <1>  -0.1500 
 28 C       12.0620     1.1850    -1.4740 C.ar  1 <1>  -0.1500 
 29 C       12.5180     2.3180    -2.1600 C.ar  1 <1>  -0.1500 
 30 H        3.7290    -1.0180     1.6030 H     1 <1>   0.0800 
 31 H        2.1490    -0.6800     2.2030 H     1 <1>   0.0800 
 32 H        1.3720     1.7940     1.4750 H     1 <1>   0.0800 
 33 H        1.2690     1.8510    -0.2570 H     1 <1>   0.0800 
 34 H        4.1970     0.1700     3.5240 H     1 <1>   0.0800 
 35 H        2.8490     1.2370     3.3380 H     1 <1>   0.0800 
 36 H        2.4640     3.7970     0.3680 H     1 <1>   0.0800 
 37 H        3.6270     2.7320    -0.3340 H     1 <1>   0.0800 
 38 H        2.1130    -2.2420    -2.5660 H     1 <1>   0.0800 
 39 H        2.7800    -3.8220    -2.2170 H     1 <1>   0.0800 
 40 H        3.3880    -2.8940    -3.5680 H     1 <1>   0.0800 
 41 H        3.2130     3.3290     2.6060 H     1 <1>   0.0800 
 42 H        4.5670     3.8010     1.6400 H     1 <1>   0.0800 
 43 H        7.2480    -2.0690     0.8770 H     1 <1>   0.0800 
 44 H        7.8980    -1.4640    -0.6320 H     1 <1>   0.0800 
 45 H        7.5980    -3.1770    -0.4360 H     1 <1>   0.0800 
 46 H        6.9170     3.2410     1.6470 H     1 <1>   0.0800 
 47 H        6.1080     2.7010     0.1950 H     1 <1>   0.0800 
 48 H        7.7430     0.8940    -0.0650 H     1 <1>   0.0800 
 49 H        8.5700     1.4190     1.3750 H     1 <1>   0.0800 
 50 H        7.7090     4.6090    -0.4170 H     1 <1>   0.1500 
 51 H       10.4920     0.3410    -0.2890 H     1 <1>   0.1500 
 52 H        9.6780     5.4170    -1.8030 H     1 <1>   0.2700 
 53 H       12.1030     4.3410    -2.7150 H     1 <1>   0.1500 
 54 H       12.6710     0.2990    -1.4650 H     1 <1>   0.1500 
 55 H       13.4680     2.2790    -2.6640 H     1 <1>   0.1500 
@<TRIPOS>BOND
  1   1   2  2   
  2   2   3  am  
  3   2   4  1   
  4   3   5  1   
  5   3   6  1   
  6   4   7  1   
  7   4   8  2   
  8   5   9  1   
  9   5  30  1   
 10   5  31  1   
 11   6  10  1   
 12   6  32  1   
 13   6  33  1   
 14   7  11  1   
 15   8  12  1   
 16   8  13  1   
 17   9  14  1   
 18   9  34  1   
 19   9  35  1   
 20  10  15  1   
 21  10  36  1   
 22  10  37  1   
 23  11  12  2   
 24  11  16  1   
 25  13  38  1   
 26  13  39  1   
 27  13  40  1   
 28  14  15  1   
 29  14  17  am  
 30  15  41  1   
 31  15  42  1   
 32  16  43  1   
 33  16  44  1   
 34  16  45  1   
 35  17  18  2   
 36  17  19  1   
 37  19  20  1   
 38  19  46  1   
 39  19  47  1   
 40  20  21  1   
 41  20  48  1   
 42  20  49  1   
 43  21  22  1   
 44  21  23  2   
 45  22  24  ar  
 46  22  25  ar  
 47  23  26  1   
 48  23  50  1   
 49  24  26  1   
 50  24  27  ar  
 51  25  28  ar  
 52  25  51  1   
 53  26  52  1   
 54  27  29  ar  
 55  27  53  1   
 56  28  29  ar  
 57  28  54  1   
 58  29  55  1   
@<TRIPOS>SUBSTRUCTURE
  1 ****  19 GROUP 4 **** **** 0

# MOE 2024.06 (io_trps.svl 2023.06)
