@<TRIPOS>MOLECULE
NONAME
52 54 1 0 0 
SMALL
USER_CHARGES


@<TRIPOS>ATOM
  1 O       -1.3880     0.7290    -1.7610 O.2   1 <1>  -0.5700 
  2 C       -0.8480     1.5940    -1.1100 C.2   1 <1>   0.5690 
  3 N       -1.5540     2.4980    -0.3560 N.am  1 <1>  -0.6600 
  4 C        0.6810     1.6550    -1.1680 C.3   1 <1>   0.1810 
  5 C       -0.8250     3.6140     0.3580 C.3   1 <1>   0.3640 
  6 C       -2.9920     2.2220    -0.0430 C.3   1 <1>   0.2200 
  7 O        1.2480     2.3980    -0.1190 O.3   1 <1>  -0.5600 
  8 C       -1.4440     4.9780     0.0400 C.ar  1 <1>  -0.1440 
  9 C        0.6840     3.6850     0.0110 C.3   1 <1>   0.2610 
 10 C       -3.9190     3.0830    -0.8990 C.3   1 <1>  -0.2400 
 11 C       -3.3040     2.3730     1.4470 C.3   1 <1>  -0.2400 
 12 C       -1.6120     5.4040    -1.2720 C.ar  1 <1>  -0.1500 
 13 C       -1.8270     5.8220     1.0740 C.ar  1 <1>  -0.1500 
 14 C        1.4620     4.5410     1.0260 C.2   1 <1>   0.5690 
 15 C       -2.1530     6.6470    -1.5440 C.ar  1 <1>  -0.1500 
 16 C       -2.3730     7.0650     0.8030 C.ar  1 <1>  -0.1500 
 17 O        1.0130     4.6870     2.1430 O.2   1 <1>  -0.5700 
 18 N        2.6220     5.1760     0.6550 N.am  1 <1>  -0.6600 
 19 C       -2.5360     7.4790    -0.5070 C.ar  1 <1>  -0.1500 
 20 C        3.1490     6.3080     1.4720 C.3   1 <1>   0.3210 
 21 C        3.3320     4.9670    -0.6390 C.3   1 <1>   0.0600 
 22 C        2.6660     7.6230     0.8840 C.2   1 <1>   0.1080 
 23 N        3.4210     8.4930     0.3080 N.2   1 <1>  -0.4100 
 24 C        1.3370     8.0410     0.8750 C.2   1 <1>  -0.1500 
 25 O        2.6330     9.4580    -0.0720 O.3   1 <1>  -0.0190 
 26 C        1.3870     9.2230     0.2450 C.2   1 <1>  -0.0400 
 27 C        0.3080    10.2200    -0.1150 C.3   1 <1>  -0.0600 
 28 H        0.9870     2.0900    -2.1020 H     1 <1>   0.0800 
 29 H        1.0740     0.6570    -1.1080 H     1 <1>   0.0800 
 30 H       -0.9050     3.4270     1.4140 H     1 <1>   0.0800 
 31 H       -3.2000     1.1940    -0.2950 H     1 <1>   0.0800 
 32 H        0.7800     4.1670    -0.9430 H     1 <1>   0.0800 
 33 H       -3.9060     4.1080    -0.5820 H     1 <1>   0.0800 
 34 H       -4.9280     2.7240    -0.8070 H     1 <1>   0.0800 
 35 H       -3.6320     3.0180    -1.9330 H     1 <1>   0.0800 
 36 H       -3.2490     3.4000     1.7560 H     1 <1>   0.0800 
 37 H       -2.6250     1.7770     2.0300 H     1 <1>   0.0800 
 38 H       -4.3030     2.0250     1.6390 H     1 <1>   0.0800 
 39 H       -1.3310     4.7610    -2.0890 H     1 <1>   0.1500 
 40 H       -1.6970     5.5170     2.0990 H     1 <1>   0.1500 
 41 H       -2.2820     6.9660    -2.5640 H     1 <1>   0.1500 
 42 H       -2.6700     7.7090     1.6130 H     1 <1>   0.1500 
 43 H       -2.9620     8.4430    -0.7190 H     1 <1>   0.1500 
 44 H        2.8150     6.2310     2.4920 H     1 <1>   0.0800 
 45 H        4.2240     6.2850     1.4750 H     1 <1>   0.0800 
 46 H        4.3960     5.0280    -0.4860 H     1 <1>   0.0800 
 47 H        3.0400     5.7300    -1.3420 H     1 <1>   0.0800 
 48 H        3.1100     3.9980    -1.0490 H     1 <1>   0.0800 
 49 H        0.5000     7.5060     1.2830 H     1 <1>   0.1500 
 50 H       -0.6480     9.8680     0.2250 H     1 <1>   0.0800 
 51 H        0.2750    10.3500    -1.1820 H     1 <1>   0.0800 
 52 H        0.5190    11.1670     0.3480 H     1 <1>   0.0800 
@<TRIPOS>BOND
  1   1   2  2   
  2   2   3  am  
  3   2   4  1   
  4   3   5  1   
  5   3   6  1   
  6   4   7  1   
  7   4  28  1   
  8   4  29  1   
  9   5   8  1   
 10   5   9  1   
 11   5  30  1   
 12   6  10  1   
 13   6  11  1   
 14   6  31  1   
 15   7   9  1   
 16   8  12  ar  
 17   8  13  ar  
 18   9  14  1   
 19   9  32  1   
 20  10  33  1   
 21  10  34  1   
 22  10  35  1   
 23  11  36  1   
 24  11  37  1   
 25  11  38  1   
 26  12  15  ar  
 27  12  39  1   
 28  13  16  ar  
 29  13  40  1   
 30  14  17  2   
 31  14  18  am  
 32  15  19  ar  
 33  15  41  1   
 34  16  19  ar  
 35  16  42  1   
 36  18  20  1   
 37  18  21  1   
 38  19  43  1   
 39  20  22  1   
 40  20  44  1   
 41  20  45  1   
 42  21  46  1   
 43  21  47  1   
 44  21  48  1   
 45  22  23  2   
 46  22  24  1   
 47  23  25  1   
 48  24  26  2   
 49  24  49  1   
 50  25  26  1   
 51  26  27  1   
 52  27  50  1   
 53  27  51  1   
 54  27  52  1   
@<TRIPOS>SUBSTRUCTURE
  1 ****   8 GROUP 4 **** **** 0

# MOE 2024.06 (io_trps.svl 2023.06)
