@<TRIPOS>MOLECULE
NONAME
55 59 1 0 0 
SMALL
USER_CHARGES


@<TRIPOS>ATOM
  1 CL      -0.8850    -2.9260     2.5510 Cl    1 <1>  -0.1770 
  2 C       -2.4440    -2.9390     1.7690 C.ar  1 <1>   0.1770 
  3 C       -2.5780    -2.3830     0.5120 C.ar  1 <1>  -0.1500 
  4 C       -3.5240    -3.5060     2.4180 C.ar  1 <1>  -0.1500 
  5 C       -3.8170    -2.3950    -0.1050 C.ar  1 <1>  -0.1500 
  6 C       -4.7610    -3.5140     1.7960 C.ar  1 <1>  -0.1500 
  7 C       -4.9190    -2.9550     0.5310 C.ar  1 <1>  -0.1080 
  8 C       -6.2780    -2.9750    -0.1820 C.3   1 <1>   0.1610 
  9 C       -6.4260    -4.1900    -1.1140 C.2   1 <1>   0.5770 
 10 C       -6.6800    -1.5990    -0.8020 C.3   1 <1>   0.0000 
 11 C       -7.5080    -2.8000     0.7630 C.3   1 <1>   0.0000 
 12 O       -7.0150    -4.1030    -2.1660 O.2   1 <1>  -0.5700 
 13 N       -5.9040    -5.3790    -0.7150 N.am  1 <1>  -0.7300 
 14 C       -8.1250    -1.8550    -0.2990 C.3   1 <1>   0.0000 
 15 C       -5.9740    -6.6530    -1.4660 C.3   1 <1>   0.2200 
 16 C       -7.0680    -7.5610    -0.9160 C.3   1 <1>  -0.0800 
 17 C       -4.7380    -7.4760    -1.1340 C.3   1 <1>   0.1200 
 18 C       -6.3790    -8.2150     0.2890 C.3   1 <1>   0.1200 
 19 C       -8.4000    -6.8540    -0.5910 C.3   1 <1>  -0.0160 
 20 O       -5.0020    -8.0350     0.1170 O.3   1 <1>  -0.5600 
 21 C       -9.5610    -7.7390    -0.1250 C.ar  1 <1>  -0.1430 
 22 C      -10.7440    -7.1330     0.3660 C.ar  1 <1>   0.0000 
 23 C       -9.5330    -9.1060    -0.1570 C.ar  1 <1>  -0.1500 
 24 C      -11.7850    -7.9780     0.8230 C.ar  1 <1>   0.3100 
 25 C      -10.9590    -5.7350     0.4250 C.ar  1 <1>  -0.1500 
 26 C      -10.6240    -9.8490     0.3080 C.ar  1 <1>   0.1600 
 27 N      -11.7090    -9.3320     0.7870 N.ar  1 <1>  -0.6200 
 28 C      -12.9590    -7.4010     1.3330 C.ar  1 <1>  -0.1500 
 29 C      -12.1170    -5.2040     0.9250 C.ar  1 <1>  -0.1500 
 30 C      -13.1310    -6.0450     1.3890 C.ar  1 <1>  -0.1500 
 31 H       -1.7220    -1.9500     0.0260 H     1 <1>   0.1500 
 32 H       -3.3930    -3.9340     3.3960 H     1 <1>   0.1500 
 33 H       -3.9170    -1.9680    -1.0890 H     1 <1>   0.1500 
 34 H       -5.5950    -3.9620     2.3090 H     1 <1>   0.1500 
 35 H       -6.2260    -0.7630    -0.2980 H     1 <1>   0.0000 
 36 H       -6.5930    -1.5390    -1.8720 H     1 <1>   0.0000 
 37 H       -8.0770    -3.6980     0.9250 H     1 <1>   0.0000 
 38 H       -7.2780    -2.2740     1.6740 H     1 <1>   0.0000 
 39 H       -5.3720    -5.4380     0.1590 H     1 <1>   0.3700 
 40 H       -8.7370    -2.3730    -1.0160 H     1 <1>   0.0000 
 41 H       -8.5980    -0.9850     0.1190 H     1 <1>   0.0000 
 42 H       -6.0750    -6.4670    -2.5230 H     1 <1>   0.0800 
 43 H       -7.2520    -8.3210    -1.6550 H     1 <1>   0.0800 
 44 H       -3.8400    -6.8850    -1.0870 H     1 <1>   0.0800 
 45 H       -4.6130    -8.2810    -1.8370 H     1 <1>   0.0800 
 46 H       -6.5840    -9.2700     0.3530 H     1 <1>   0.0800 
 47 H       -6.6570    -7.7360     1.2120 H     1 <1>   0.0800 
 48 H       -8.7200    -6.3140    -1.4660 H     1 <1>   0.0800 
 49 H       -8.2140    -6.1340     0.1860 H     1 <1>   0.0800 
 50 H       -8.6960    -9.6620    -0.5310 H     1 <1>   0.1500 
 51 H      -10.2010    -5.0640     0.0650 H     1 <1>   0.1500 
 52 H      -10.5550   -10.9230     0.2660 H     1 <1>   0.1500 
 53 H      -13.7260    -8.0690     1.6790 H     1 <1>   0.1500 
 54 H      -12.2640    -4.1380     0.9650 H     1 <1>   0.1500 
 55 H      -14.0370    -5.6170     1.7820 H     1 <1>   0.1500 
@<TRIPOS>BOND
  1   1   2  1   
  2   2   3  ar  
  3   2   4  ar  
  4   3   5  ar  
  5   3  31  1   
  6   4   6  ar  
  7   4  32  1   
  8   5   7  ar  
  9   5  33  1   
 10   6   7  ar  
 11   6  34  1   
 12   7   8  1   
 13   8   9  1   
 14   8  10  1   
 15   8  11  1   
 16   9  12  2   
 17   9  13  am  
 18  10  14  1   
 19  10  35  1   
 20  10  36  1   
 21  11  14  1   
 22  11  37  1   
 23  11  38  1   
 24  13  15  1   
 25  13  39  1   
 26  14  40  1   
 27  14  41  1   
 28  15  16  1   
 29  15  17  1   
 30  15  42  1   
 31  16  18  1   
 32  16  19  1   
 33  16  43  1   
 34  17  20  1   
 35  17  44  1   
 36  17  45  1   
 37  18  20  1   
 38  18  46  1   
 39  18  47  1   
 40  19  21  1   
 41  19  48  1   
 42  19  49  1   
 43  21  22  ar  
 44  21  23  ar  
 45  22  24  ar  
 46  22  25  ar  
 47  23  26  ar  
 48  23  50  1   
 49  24  27  ar  
 50  24  28  ar  
 51  25  29  ar  
 52  25  51  1   
 53  26  27  ar  
 54  26  52  1   
 55  28  30  ar  
 56  28  53  1   
 57  29  30  ar  
 58  29  54  1   
 59  30  55  1   
@<TRIPOS>SUBSTRUCTURE
  1 ****  13 GROUP 4 **** **** 0

# MOE 2024.06 (io_trps.svl 2023.06)
