@<TRIPOS>MOLECULE
NONAME
58 60 1 0 0 
SMALL
USER_CHARGES


@<TRIPOS>ATOM
  1 O        2.0670     2.1670     0.8740 O.3   1 <1>  -0.0190 
  2 N        2.6980     1.0330     0.8600 N.2   1 <1>  -0.4100 
  3 C        1.1100     2.2060    -0.0140 C.2   1 <1>  -0.0400 
  4 C        2.1240     0.3170    -0.0400 C.2   1 <1>   0.1080 
  5 C        1.0860     1.0220    -0.6440 C.2   1 <1>  -0.1500 
  6 C        0.2750     3.4630    -0.1660 C.3   1 <1>   0.0200 
  7 C        2.5310    -1.0980    -0.3890 C.3   1 <1>  -0.0590 
  8 C        1.1290     4.6230    -0.7150 C.3   1 <1>  -0.0800 
  9 C        0.4010     5.9520    -0.9180 C.3   1 <1>   0.2000 
 10 C        2.3230     4.9800     0.1810 C.3   1 <1>   0.3430 
 11 O       -0.3880     6.2340     0.1950 O.3   1 <1>  -0.6800 
 12 C        1.5590     6.9530    -0.9550 C.3   1 <1>   0.3430 
 13 N        2.5580     6.4490     0.0410 N.4   1 <1>  -0.9590 
 14 C        2.3880     7.1340     1.3520 C.3   1 <1>   0.4860 
 15 C        2.7620     8.5920     1.1810 C.ar  1 <1>  -0.1440 
 16 C        4.0870     8.9570     0.9880 C.ar  1 <1>  -0.1500 
 17 C        1.7800     9.5710     1.2100 C.ar  1 <1>  -0.1500 
 18 C        4.4430    10.2830     0.8020 C.ar  1 <1>  -0.1440 
 19 C        2.1240    10.8970     1.0270 C.ar  1 <1>  -0.1500 
 20 C        3.4440    11.2540     0.8050 C.ar  1 <1>   0.0820 
 21 C        5.9180    10.6240     0.6200 C.3   1 <1>   0.1220 
 22 O        3.7270    12.5610     0.6230 O.3   1 <1>  -0.3620 
 23 C        6.4450    10.0080    -0.6660 C.2   1 <1>  -0.2880 
 24 C        3.8790    13.0250    -0.7010 C.3   1 <1>   0.2000 
 25 C        7.4320     9.1100    -0.7460 C.2   1 <1>  -0.3000 
 26 C        4.7490    14.2780    -0.6460 C.3   1 <1>  -0.2400 
 27 C        2.5000    13.3330    -1.2860 C.3   1 <1>  -0.2400 
 28 H        0.4460     0.6620    -1.4280 H     1 <1>   0.1500 
 29 H       -0.5390     3.2610    -0.8400 H     1 <1>   0.0800 
 30 H       -0.1410     3.7110     0.7960 H     1 <1>   0.0800 
 31 H        1.7050    -1.7660    -0.2260 H     1 <1>   0.0800 
 32 H        3.3540    -1.4080     0.2300 H     1 <1>   0.0800 
 33 H        2.8310    -1.1510    -1.4190 H     1 <1>   0.0800 
 34 H        1.5290     4.3150    -1.6660 H     1 <1>   0.0800 
 35 H       -0.2090     5.9920    -1.8050 H     1 <1>   0.0800 
 36 H        3.1940     4.4120    -0.1070 H     1 <1>   0.0800 
 37 H        2.0830     4.7410     1.2050 H     1 <1>   0.0800 
 38 H       -1.2800     5.8350     0.1100 H     1 <1>   0.4000 
 39 H        1.2210     7.9520    -0.7330 H     1 <1>   0.0800 
 40 H        1.9990     6.9440    -1.9380 H     1 <1>   0.0800 
 41 H        3.5100     6.6550    -0.2890 H     1 <1>   0.4500 
 42 H        1.3670     7.0500     1.6870 H     1 <1>   0.0800 
 43 H        3.0310     6.6860     2.0930 H     1 <1>   0.0800 
 44 H        4.8640     8.2110     0.9860 H     1 <1>   0.1500 
 45 H        0.7470     9.3150     1.3770 H     1 <1>   0.1500 
 46 H        1.3730    11.6670     1.0550 H     1 <1>   0.1500 
 47 H        6.0750    11.6860     0.5980 H     1 <1>   0.0800 
 48 H        6.4700    10.2430     1.4610 H     1 <1>   0.0800 
 49 H        5.9320    10.3800    -1.5370 H     1 <1>   0.1500 
 50 H        4.3710    12.2620    -1.2790 H     1 <1>   0.0800 
 51 H        7.7900     8.6930    -1.6720 H     1 <1>   0.1500 
 52 H        7.9710     8.7200     0.1010 H     1 <1>   0.1500 
 53 H        4.2760    15.0360    -0.0490 H     1 <1>   0.0800 
 54 H        4.9000    14.6650    -1.6380 H     1 <1>   0.0800 
 55 H        5.7100    14.0420    -0.2260 H     1 <1>   0.0800 
 56 H        1.9800    14.0410    -0.6650 H     1 <1>   0.0800 
 57 H        1.9190    12.4330    -1.3690 H     1 <1>   0.0800 
 58 H        2.6060    13.7520    -2.2700 H     1 <1>   0.0800 
@<TRIPOS>BOND
  1   1   2  1   
  2   1   3  1   
  3   2   4  2   
  4   3   5  2   
  5   3   6  1   
  6   4   5  1   
  7   4   7  1   
  8   5  28  1   
  9   6   8  1   
 10   6  29  1   
 11   6  30  1   
 12   7  31  1   
 13   7  32  1   
 14   7  33  1   
 15   8   9  1   
 16   8  10  1   
 17   8  34  1   
 18   9  11  1   
 19   9  12  1   
 20   9  35  1   
 21  10  13  1   
 22  10  36  1   
 23  10  37  1   
 24  11  38  1   
 25  12  13  1   
 26  12  39  1   
 27  12  40  1   
 28  13  14  1   
 29  13  41  1   
 30  14  15  1   
 31  14  42  1   
 32  14  43  1   
 33  15  16  ar  
 34  15  17  ar  
 35  16  18  ar  
 36  16  44  1   
 37  17  19  ar  
 38  17  45  1   
 39  18  20  ar  
 40  18  21  1   
 41  19  20  ar  
 42  19  46  1   
 43  20  22  1   
 44  21  23  1   
 45  21  47  1   
 46  21  48  1   
 47  22  24  1   
 48  23  25  2   
 49  23  49  1   
 50  24  26  1   
 51  24  27  1   
 52  24  50  1   
 53  25  51  1   
 54  25  52  1   
 55  26  53  1   
 56  26  54  1   
 57  26  55  1   
 58  27  56  1   
 59  27  57  1   
 60  27  58  1   
@<TRIPOS>SUBSTRUCTURE
  1 ****  13 GROUP 4 **** **** 0

# MOE 2024.06 (io_trps.svl 2023.06)
