@<TRIPOS>MOLECULE
NONAME
43 45 1 0 0 
SMALL
USER_CHARGES


@<TRIPOS>ATOM
  1 S       -0.2550    -0.2850    -1.6340 S.3   1 <1>  -0.0800 
  2 C        1.3710    -0.4780    -1.0230 C.2   1 <1>  -0.1400 
  3 C       -0.5760    -1.9860    -1.3820 C.2   1 <1>  -0.1100 
  4 C        1.6050    -1.7460    -0.6540 C.2   1 <1>  -0.1810 
  5 C        2.3170     0.7010    -0.9630 C.3   1 <1>   0.0200 
  6 C        0.4890    -2.6410    -0.8520 C.2   1 <1>  -0.0860 
  7 C        2.9530    -2.1690    -0.0880 C.3   1 <1>   0.0210 
  8 C        3.7470     0.1870    -0.7130 C.3   1 <1>  -0.1600 
  9 C        0.5380    -4.0510    -0.5160 C.2   1 <1>   0.7160 
 10 C        3.7820    -0.9400     0.3400 C.3   1 <1>  -0.1600 
 11 O        1.4490    -4.7370    -0.9410 O.2   1 <1>  -0.5700 
 12 N       -0.4150    -4.6320     0.2950 N.am  1 <1>  -0.6600 
 13 C       -0.4540    -6.1090     0.4760 C.3   1 <1>   0.3200 
 14 C       -1.2710    -3.8320     1.2280 C.3   1 <1>   0.1400 
 15 C       -1.6100    -6.7000    -0.3060 C.2   1 <1>  -0.3320 
 16 C       -2.7490    -3.8440     0.8140 C.3   1 <1>   0.1200 
 17 N       -2.2010    -7.8700     0.0000 N.pl3 1 <1>   0.0330 
 18 C       -2.2500    -6.2360    -1.4030 C.2   1 <1>   0.0770 
 19 O       -3.4700    -3.0320     1.6780 O.3   1 <1>  -0.6800 
 20 C       -3.1750    -8.0320    -0.9210 C.2   1 <1>   0.0060 
 21 N       -3.2380    -7.0690    -1.7780 N.2   1 <1>  -0.5650 
 22 C       -4.0960    -9.2320    -0.9420 C.3   1 <1>  -0.0600 
 23 H       -1.5490    -2.3440    -1.6640 H     1 <1>   0.1500 
 24 H        2.0100     1.3510    -0.1620 H     1 <1>   0.0800 
 25 H        2.2810     1.2520    -1.8860 H     1 <1>   0.0800 
 26 H        3.4820    -2.7220    -0.8440 H     1 <1>   0.0800 
 27 H        2.8110    -2.8150     0.7600 H     1 <1>   0.0800 
 28 H        4.3720     1.0050    -0.3990 H     1 <1>   0.0800 
 29 H        4.1430    -0.1950    -1.6380 H     1 <1>   0.0800 
 30 H        4.7990    -1.2440     0.5160 H     1 <1>   0.0800 
 31 H        3.3860    -0.5610     1.2660 H     1 <1>   0.0800 
 32 H       -0.5690    -6.3300     1.5230 H     1 <1>   0.0800 
 33 H        0.4640    -6.5670     0.1490 H     1 <1>   0.0800 
 34 H       -0.9300    -2.8120     1.2560 H     1 <1>   0.0800 
 35 H       -1.1770    -4.2350     2.2200 H     1 <1>   0.0800 
 36 H       -3.1670    -4.8340     0.8580 H     1 <1>   0.0800 
 37 H       -2.8670    -3.4480    -0.1790 H     1 <1>   0.0800 
 38 H       -1.9720    -8.5180     0.7590 H     1 <1>   0.2700 
 39 H       -2.0470    -5.3300    -1.9510 H     1 <1>   0.1500 
 40 H       -3.5950    -3.4620     2.5460 H     1 <1>   0.4000 
 41 H       -4.6550    -9.2870    -0.0250 H     1 <1>   0.0800 
 42 H       -3.5260   -10.1340    -1.0700 H     1 <1>   0.0800 
 43 H       -4.7870    -9.1440    -1.7610 H     1 <1>   0.0800 
@<TRIPOS>BOND
  1   1   2  1   
  2   1   3  1   
  3   2   4  2   
  4   2   5  1   
  5   3   6  2   
  6   3  23  1   
  7   4   6  1   
  8   4   7  1   
  9   5   8  1   
 10   5  24  1   
 11   5  25  1   
 12   6   9  1   
 13   7  10  1   
 14   7  26  1   
 15   7  27  1   
 16   8  10  1   
 17   8  28  1   
 18   8  29  1   
 19   9  11  2   
 20   9  12  am  
 21  10  30  1   
 22  10  31  1   
 23  12  13  1   
 24  12  14  1   
 25  13  15  1   
 26  13  32  1   
 27  13  33  1   
 28  14  16  1   
 29  14  34  1   
 30  14  35  1   
 31  15  17  1   
 32  15  18  2   
 33  16  19  1   
 34  16  36  1   
 35  16  37  1   
 36  17  20  1   
 37  17  38  1   
 38  18  21  1   
 39  18  39  1   
 40  19  40  1   
 41  20  21  2   
 42  20  22  1   
 43  22  41  1   
 44  22  42  1   
 45  22  43  1   
@<TRIPOS>SUBSTRUCTURE
  1 ****   9 GROUP 4 **** **** 0

# MOE 2024.06 (io_trps.svl 2023.06)
