@<TRIPOS>MOLECULE
NONAME
60 63 1 0 0 
SMALL
USER_CHARGES


@<TRIPOS>ATOM
  1 O        1.4850    -0.4660     0.5010 O.3   1 <1>  -0.3630 
  2 C        1.1170    -1.7700     0.5420 C.ar  1 <1>   0.0830 
  3 C        0.9170     0.3590    -0.4980 C.3   1 <1>   0.2640 
  4 C        1.1250    -2.6180    -0.5710 C.ar  1 <1>   0.0820 
  5 C        0.7050    -2.2640     1.7670 C.ar  1 <1>  -0.1500 
  6 C        0.8600     1.7920     0.0100 C.ar  1 <1>  -0.1440 
  7 O        1.5670    -2.2250    -1.7870 O.3   1 <1>  -0.3630 
  8 C        0.6690    -3.9190    -0.4500 C.ar  1 <1>  -0.1500 
  9 C        0.2600    -3.5700     1.8870 C.ar  1 <1>  -0.1500 
 10 C        2.0020     2.4100     0.4980 C.ar  1 <1>  -0.1500 
 11 C       -0.3330     2.4990    -0.0170 C.ar  1 <1>  -0.1500 
 12 C        2.9650    -2.0730    -1.9140 C.3   1 <1>   0.0400 
 13 C        0.2230    -4.3990     0.7740 C.ar  1 <1>  -0.1430 
 14 C        1.9540     3.7170     0.9520 C.ar  1 <1>  -0.1500 
 15 C       -0.3830     3.8060     0.4370 C.ar  1 <1>  -0.1500 
 16 C       -0.3110    -5.8120     0.8840 C.3   1 <1>   0.4860 
 17 C        0.7600     4.4160     0.9210 C.ar  1 <1>  -0.1500 
 18 N       -1.6680    -5.8910     0.2620 N.4   1 <1>  -0.9590 
 19 C       -2.6890    -5.1400     1.0730 C.3   1 <1>   0.4230 
 20 C       -1.9780    -7.3240    -0.0410 C.3   1 <1>   0.2630 
 21 C       -4.1040    -5.7320     1.0220 C.3   1 <1>  -0.1600 
 22 C       -2.9170    -3.7670     0.4330 C.3   1 <1>  -0.1600 
 23 C       -4.7010    -5.2690    -0.3160 C.3   1 <1>  -0.0800 
 24 C       -3.9300    -4.0000    -0.6970 C.3   1 <1>  -0.0800 
 25 C       -6.1870    -4.8870    -0.2790 C.3   1 <1>  -0.1600 
 26 C       -4.9680    -2.8870    -0.8860 C.3   1 <1>  -0.1600 
 27 C       -6.2740    -3.6300    -1.1360 C.3   1 <1>   0.2000 
 28 O       -7.3440    -2.8590    -0.7460 O.3   1 <1>  -0.6800 
 29 H        1.5310     0.3040    -1.3780 H     1 <1>   0.0800 
 30 H       -0.0700    -0.0040    -0.7240 H     1 <1>   0.0800 
 31 H        0.7290    -1.6130     2.6240 H     1 <1>   0.1500 
 32 H        0.6770    -4.5400    -1.3290 H     1 <1>   0.1500 
 33 H       -0.0570    -3.9210     2.8550 H     1 <1>   0.1500 
 34 H        2.9330     1.8700     0.5290 H     1 <1>   0.1500 
 35 H       -1.2300     2.0380    -0.3900 H     1 <1>   0.1500 
 36 H        3.1800    -1.7460    -2.9160 H     1 <1>   0.0800 
 37 H        3.4370    -3.0210    -1.7260 H     1 <1>   0.0800 
 38 H        3.3100    -1.3390    -1.2060 H     1 <1>   0.0800 
 39 H        2.8440     4.1870     1.3300 H     1 <1>   0.1500 
 40 H       -1.3120     4.3480     0.4140 H     1 <1>   0.1500 
 41 H       -0.3570    -6.1110     1.9180 H     1 <1>   0.0800 
 42 H        0.3680    -6.4750     0.3720 H     1 <1>   0.0800 
 43 H        0.7220     5.4320     1.2740 H     1 <1>   0.1500 
 44 H       -1.6040    -5.3770    -0.6270 H     1 <1>   0.4500 
 45 H       -2.3560    -5.0430     2.0950 H     1 <1>   0.0800 
 46 H       -2.0800    -7.8870     0.8720 H     1 <1>   0.0800 
 47 H       -1.1920    -7.7630    -0.6330 H     1 <1>   0.0800 
 48 H       -2.8990    -7.4000    -0.5960 H     1 <1>   0.0800 
 49 H       -4.1640    -6.7940     1.1710 H     1 <1>   0.0800 
 50 H       -4.6570    -5.2790     1.8270 H     1 <1>   0.0800 
 51 H       -3.3510    -3.1300     1.1840 H     1 <1>   0.0800 
 52 H       -2.0280    -3.2820     0.0760 H     1 <1>   0.0800 
 53 H       -4.5430    -6.0120    -1.0790 H     1 <1>   0.0800 
 54 H       -3.4170    -4.1730    -1.6290 H     1 <1>   0.0800 
 55 H       -6.5000    -4.6620     0.7260 H     1 <1>   0.0800 
 56 H       -6.8070    -5.6700    -0.6790 H     1 <1>   0.0800 
 57 H       -4.7200    -2.2530    -1.7190 H     1 <1>   0.0800 
 58 H       -5.0560    -2.2900     0.0040 H     1 <1>   0.0800 
 59 H       -6.3850    -3.8790    -2.1790 H     1 <1>   0.0800 
 60 H       -7.2800    -2.6340     0.2000 H     1 <1>   0.4000 
@<TRIPOS>BOND
  1   1   2  1   
  2   1   3  1   
  3   2   4  ar  
  4   2   5  ar  
  5   3   6  1   
  6   3  29  1   
  7   3  30  1   
  8   4   7  1   
  9   4   8  ar  
 10   5   9  ar  
 11   5  31  1   
 12   6  10  ar  
 13   6  11  ar  
 14   7  12  1   
 15   8  13  ar  
 16   8  32  1   
 17   9  13  ar  
 18   9  33  1   
 19  10  14  ar  
 20  10  34  1   
 21  11  15  ar  
 22  11  35  1   
 23  12  36  1   
 24  12  37  1   
 25  12  38  1   
 26  13  16  1   
 27  14  17  ar  
 28  14  39  1   
 29  15  17  ar  
 30  15  40  1   
 31  16  18  1   
 32  16  41  1   
 33  16  42  1   
 34  17  43  1   
 35  18  19  1   
 36  18  20  1   
 37  18  44  1   
 38  19  21  1   
 39  19  22  1   
 40  19  45  1   
 41  20  46  1   
 42  20  47  1   
 43  20  48  1   
 44  21  23  1   
 45  21  49  1   
 46  21  50  1   
 47  22  24  1   
 48  22  51  1   
 49  22  52  1   
 50  23  24  1   
 51  23  25  1   
 52  23  53  1   
 53  24  26  1   
 54  24  54  1   
 55  25  27  1   
 56  25  55  1   
 57  25  56  1   
 58  26  27  1   
 59  26  57  1   
 60  26  58  1   
 61  27  28  1   
 62  27  59  1   
 63  28  60  1   
@<TRIPOS>SUBSTRUCTURE
  1 ****   2 GROUP 4 **** **** 0

# MOE 2024.06 (io_trps.svl 2023.06)
