@<TRIPOS>MOLECULE
NONAME
40 42 1 0 0 
SMALL
USER_CHARGES


@<TRIPOS>ATOM
  1 S       -0.5920     0.7210    -1.8730 S.3   1 <1>  -0.0800 
  2 C       -1.5300     1.3830    -0.5250 C.2   1 <1>  -0.0450 
  3 C       -1.2600    -0.8770    -1.6550 C.2   1 <1>  -0.1100 
  4 C       -2.2850     0.3820     0.0090 C.2   1 <1>  -0.1810 
  5 C       -1.3840     2.7880    -0.2200 C.2   1 <1>   0.7150 
  6 C       -2.1240    -0.8920    -0.6250 C.2   1 <1>  -0.1810 
  7 C       -3.2680     0.5660     1.1620 C.3   1 <1>   0.0210 
  8 O       -2.0480     3.3140     0.6560 O.2   1 <1>  -0.5700 
  9 N       -0.4860     3.5410    -0.9270 N.am  1 <1>  -0.4930 
 10 C       -2.8580    -2.1330    -0.1440 C.3   1 <1>   0.0210 
 11 C       -3.7190    -0.7630     1.7820 C.3   1 <1>  -0.1600 
 12 C       -0.1640     4.9170    -0.8180 C.2   1 <1>   0.0630 
 13 C       -4.0910    -1.7790     0.6950 C.3   1 <1>  -0.1600 
 14 C       -0.6910     5.8940     0.0280 C.2   1 <1>   0.1390 
 15 C        0.7620     5.5700    -1.5500 C.2   1 <1>  -0.3020 
 16 N       -0.1400     7.0580    -0.1560 N.2   1 <1>  -0.7070 
 17 N        0.7610     6.8570    -1.1380 N.pl3 1 <1>   0.3140 
 18 C        1.6110     7.9460    -1.6430 C.3   1 <1>   0.1570 
 19 C        2.7660     8.1850    -0.6960 C.2   1 <1>   0.5690 
 20 O        3.8680     8.3350    -1.1670 O.2   1 <1>  -0.5700 
 21 N        2.5370     8.2390     0.6440 N.am  1 <1>  -0.7300 
 22 C        3.5550     8.4680     1.6970 C.3   1 <1>   0.0600 
 23 H       -0.9270    -1.6510    -2.3220 H     1 <1>   0.1500 
 24 H       -4.1320     1.0840     0.7820 H     1 <1>   0.0800 
 25 H       -2.8290     1.1820     1.9260 H     1 <1>   0.0800 
 26 H        0.0310     3.0240    -1.6360 H     1 <1>   0.3700 
 27 H       -2.1810    -2.7110     0.4600 H     1 <1>   0.0800 
 28 H       -3.1490    -2.7370    -0.9860 H     1 <1>   0.0800 
 29 H       -4.5640    -0.5860     2.4250 H     1 <1>   0.0800 
 30 H       -2.9200    -1.1600     2.3850 H     1 <1>   0.0800 
 31 H       -4.4860    -2.6720     1.1470 H     1 <1>   0.0800 
 32 H       -4.8510    -1.3610     0.0560 H     1 <1>   0.0800 
 33 H       -1.4660     5.7110     0.7540 H     1 <1>   0.1500 
 34 H        1.4120     5.2000    -2.3210 H     1 <1>   0.1500 
 35 H        1.0220     8.8390    -1.7180 H     1 <1>   0.0800 
 36 H        1.9850     7.6830    -2.6130 H     1 <1>   0.0800 
 37 H        1.5820     8.0140     0.9660 H     1 <1>   0.3700 
 38 H        4.5160     8.6620     1.2520 H     1 <1>   0.0800 
 39 H        3.6310     7.5960     2.3240 H     1 <1>   0.0800 
 40 H        3.2720     9.3140     2.2980 H     1 <1>   0.0800 
@<TRIPOS>BOND
  1   1   2  1   
  2   1   3  1   
  3   2   4  2   
  4   2   5  1   
  5   3   6  2   
  6   3  23  1   
  7   4   6  1   
  8   4   7  1   
  9   5   8  2   
 10   5   9  am  
 11   6  10  1   
 12   7  11  1   
 13   7  24  1   
 14   7  25  1   
 15   9  12  1   
 16   9  26  1   
 17  10  13  1   
 18  10  27  1   
 19  10  28  1   
 20  11  13  1   
 21  11  29  1   
 22  11  30  1   
 23  12  14  1   
 24  12  15  2   
 25  13  31  1   
 26  13  32  1   
 27  14  16  2   
 28  14  33  1   
 29  15  17  1   
 30  15  34  1   
 31  16  17  1   
 32  17  18  1   
 33  18  19  1   
 34  18  35  1   
 35  18  36  1   
 36  19  20  2   
 37  19  21  am  
 38  21  22  1   
 39  21  37  1   
 40  22  38  1   
 41  22  39  1   
 42  22  40  1   
@<TRIPOS>SUBSTRUCTURE
  1 ****   9 GROUP 4 **** **** 0

# MOE 2024.06 (io_trps.svl 2023.06)
