@<TRIPOS>MOLECULE
NONAME
49 51 1 0 0 
SMALL
USER_CHARGES


@<TRIPOS>ATOM
  1 S        0.2530     0.0730     1.4630 S.o2  1 <1>   1.4470 
  2 O       -0.3290    -0.9370     2.3220 O.2   1 <1>  -0.6500 
  3 O        0.6220     1.3310     2.0780 O.2   1 <1>  -0.6500 
  4 N       -0.9170     0.4240     0.2850 N.am  1 <1>  -0.8490 
  5 C        1.6140    -0.6940     0.5400 C.ar  1 <1>  -0.0090 
  6 C       -2.2160     0.7190     0.9130 C.3   1 <1>   0.1960 
  7 C       -0.5130     1.5270    -0.5920 C.3   1 <1>   0.1960 
  8 C        2.6500     0.0440    -0.0300 C.ar  1 <1>   0.0820 
  9 C        1.6370    -2.0720     0.3580 C.ar  1 <1>  -0.1500 
 10 C       -3.3450     0.8790    -0.1360 C.3   1 <1>   0.0000 
 11 C       -1.5480     1.7400    -1.7030 C.3   1 <1>  -0.1600 
 12 O        2.6780     1.3890     0.0710 O.3   1 <1>  -0.3630 
 13 C        3.6660    -0.5740    -0.7450 C.ar  1 <1>  -0.1500 
 14 C        2.6470    -2.7040    -0.3500 C.ar  1 <1>   0.0820 
 15 C       -4.7120     1.1660     0.5170 C.3   1 <1>   0.2000 
 16 C       -2.9520     1.9890    -1.1310 C.3   1 <1>  -0.1600 
 17 C       -3.6150    -0.4650    -0.8380 C.3   1 <1>  -0.1600 
 18 C        3.5560     1.9260     1.0350 C.3   1 <1>   0.0400 
 19 C        3.6710    -1.9460    -0.9050 C.ar  1 <1>  -0.1500 
 20 O        2.5630    -4.0540    -0.4560 O.3   1 <1>  -0.3630 
 21 O       -4.6240     1.9870     1.6280 O.3   1 <1>  -0.6800 
 22 C       -5.3110    -0.1870     0.9070 C.3   1 <1>  -0.1600 
 23 C       -4.5370    -1.2420     0.1050 C.3   1 <1>  -0.1600 
 24 C        3.5330    -4.7940    -1.1640 C.3   1 <1>   0.0400 
 25 H       -2.4810    -0.0760     1.5880 H     1 <1>   0.0800 
 26 H       -2.1220     1.6240     1.4920 H     1 <1>   0.0800 
 27 H       -0.3990     2.4330    -0.0190 H     1 <1>   0.0800 
 28 H        0.4310     1.2990    -1.0540 H     1 <1>   0.0800 
 29 H        0.8510    -2.6770     0.7760 H     1 <1>   0.1500 
 30 H       -1.2510     2.5800    -2.3040 H     1 <1>   0.0800 
 31 H       -1.5570     0.8720    -2.3390 H     1 <1>   0.0800 
 32 H        4.4460     0.0250    -1.1800 H     1 <1>   0.1500 
 33 H       -5.3580     1.6490    -0.1970 H     1 <1>   0.0800 
 34 H       -3.6670     2.0500    -1.9320 H     1 <1>   0.0800 
 35 H       -2.9550     2.9340    -0.6150 H     1 <1>   0.0800 
 36 H       -4.1350    -0.2920    -1.7640 H     1 <1>   0.0800 
 37 H       -2.7130    -1.0130    -1.0520 H     1 <1>   0.0800 
 38 H        3.4370     2.9950     1.0390 H     1 <1>   0.0800 
 39 H        4.5670     1.6660     0.7770 H     1 <1>   0.0800 
 40 H        3.3000     1.5280     2.0020 H     1 <1>   0.0800 
 41 H        4.4680    -2.4010    -1.4620 H     1 <1>   0.1500 
 42 H       -4.2380     1.4990     2.3790 H     1 <1>   0.4000 
 43 H       -5.2040    -0.3820     1.9600 H     1 <1>   0.0800 
 44 H       -6.3540    -0.2090     0.6460 H     1 <1>   0.0800 
 45 H       -3.9420    -1.8400     0.7760 H     1 <1>   0.0800 
 46 H       -5.1970    -1.8920    -0.4430 H     1 <1>   0.0800 
 47 H        3.2590    -5.8320    -1.1170 H     1 <1>   0.0800 
 48 H        4.4920    -4.6470    -0.7000 H     1 <1>   0.0800 
 49 H        3.5430    -4.4660    -2.1890 H     1 <1>   0.0800 
@<TRIPOS>BOND
  1   1   2  2   
  2   1   3  2   
  3   1   4  am  
  4   1   5  1   
  5   4   6  1   
  6   4   7  1   
  7   5   8  ar  
  8   5   9  ar  
  9   6  10  1   
 10   6  25  1   
 11   6  26  1   
 12   7  11  1   
 13   7  27  1   
 14   7  28  1   
 15   8  12  1   
 16   8  13  ar  
 17   9  14  ar  
 18   9  29  1   
 19  10  15  1   
 20  10  16  1   
 21  10  17  1   
 22  11  16  1   
 23  11  30  1   
 24  11  31  1   
 25  12  18  1   
 26  13  19  ar  
 27  13  32  1   
 28  14  19  ar  
 29  14  20  1   
 30  15  21  1   
 31  15  22  1   
 32  15  33  1   
 33  16  34  1   
 34  16  35  1   
 35  17  23  1   
 36  17  36  1   
 37  17  37  1   
 38  18  38  1   
 39  18  39  1   
 40  18  40  1   
 41  19  41  1   
 42  20  24  1   
 43  21  42  1   
 44  22  23  1   
 45  22  43  1   
 46  22  44  1   
 47  23  45  1   
 48  23  46  1   
 49  24  47  1   
 50  24  48  1   
 51  24  49  1   
@<TRIPOS>SUBSTRUCTURE
  1 ****   4 GROUP 4 **** **** 0

# MOE 2024.06 (io_trps.svl 2023.06)
