@<TRIPOS>MOLECULE
NONAME
40 41 1 0 0 
SMALL
USER_CHARGES


@<TRIPOS>ATOM
  1 O       -0.1840    -0.9580    -0.3610 O.2   1 <1>  -0.5700 
  2 C       -1.3370    -1.3310    -0.3970 C.2   1 <1>   0.7800 
  3 O       -2.3640    -0.5030    -0.2110 O.3   1 <1>  -0.4300 
  4 N       -1.6430    -2.6400    -0.6020 N.am  1 <1>  -0.5100 
  5 C       -2.3020     0.8900     0.0120 C.3   1 <1>   0.2800 
  6 C       -0.8610    -3.5380    -1.5080 C.3   1 <1>   0.2250 
  7 C       -2.9110    -3.1500    -1.2140 C.3   1 <1>   0.2250 
  8 C       -1.6580     1.5900    -1.1910 C.3   1 <1>  -0.2400 
  9 C       -1.5650     1.1850     1.3230 C.3   1 <1>  -0.2400 
 10 C       -3.7570     1.3410     0.1370 C.3   1 <1>  -0.2400 
 11 C       -2.1210    -4.4340    -1.5610 C.3   1 <1>   0.0000 
 12 C       -2.1830    -5.5620    -0.5060 C.3   1 <1>   0.4230 
 13 N       -1.9190    -5.0860     0.8990 N.4   1 <1>  -0.9060 
 14 C       -1.2080    -6.7000    -0.8870 C.3   1 <1>   0.1200 
 15 C       -1.7840    -6.2080     1.8840 C.3   1 <1>   0.3430 
 16 O       -1.2230    -7.7040     0.0860 O.3   1 <1>  -0.5600 
 17 C       -0.8290    -7.2980     1.3630 C.3   1 <1>   0.1200 
 18 H       -0.0160    -3.9800    -1.0120 H     1 <1>   0.0000 
 19 H       -0.6280    -3.0520    -2.4400 H     1 <1>   0.0000 
 20 H       -3.1990    -2.5660    -2.0710 H     1 <1>   0.0000 
 21 H       -3.6900    -3.2910    -0.4860 H     1 <1>   0.0000 
 22 H       -0.6130     1.3500    -1.2690 H     1 <1>   0.0800 
 23 H       -1.7350     2.6560    -1.0770 H     1 <1>   0.0800 
 24 H       -2.1560     1.3100    -2.1010 H     1 <1>   0.0800 
 25 H       -0.5210     0.9450     1.2480 H     1 <1>   0.0800 
 26 H       -2.0010     0.6300     2.1340 H     1 <1>   0.0800 
 27 H       -1.6370     2.2330     1.5540 H     1 <1>   0.0800 
 28 H       -4.2970     1.1220    -0.7660 H     1 <1>   0.0800 
 29 H       -3.8060     2.4010     0.3100 H     1 <1>   0.0800 
 30 H       -4.2350     0.8430     0.9620 H     1 <1>   0.0800 
 31 H       -2.3350    -4.7910    -2.5530 H     1 <1>   0.0000 
 32 H       -3.1760    -5.9810    -0.5410 H     1 <1>   0.0800 
 33 H       -2.6630    -4.4410     1.1910 H     1 <1>   0.4500 
 34 H       -1.0580    -4.5210     0.8910 H     1 <1>   0.4500 
 35 H       -0.1980    -6.3410    -0.9930 H     1 <1>   0.0800 
 36 H       -1.5080    -7.1490    -1.8180 H     1 <1>   0.0800 
 37 H       -2.7470    -6.6600     2.0540 H     1 <1>   0.0800 
 38 H       -1.4230    -5.8340     2.8280 H     1 <1>   0.0800 
 39 H       -0.8630    -8.1600     2.0060 H     1 <1>   0.0800 
 40 H        0.1870    -6.9440     1.3200 H     1 <1>   0.0800 
@<TRIPOS>BOND
  1   1   2  2   
  2   2   3  1   
  3   2   4  am  
  4   3   5  1   
  5   4   6  1   
  6   4   7  1   
  7   5   8  1   
  8   5   9  1   
  9   5  10  1   
 10   6  11  1   
 11   6  18  1   
 12   6  19  1   
 13   7  11  1   
 14   7  20  1   
 15   7  21  1   
 16   8  22  1   
 17   8  23  1   
 18   8  24  1   
 19   9  25  1   
 20   9  26  1   
 21   9  27  1   
 22  10  28  1   
 23  10  29  1   
 24  10  30  1   
 25  11  12  1   
 26  11  31  1   
 27  12  13  1   
 28  12  14  1   
 29  12  32  1   
 30  13  15  1   
 31  13  33  1   
 32  13  34  1   
 33  14  16  1   
 34  14  35  1   
 35  14  36  1   
 36  15  17  1   
 37  15  37  1   
 38  15  38  1   
 39  16  17  1   
 40  17  39  1   
 41  17  40  1   
@<TRIPOS>SUBSTRUCTURE
  1 ****   4 GROUP 4 **** **** 0

# MOE 2024.06 (io_trps.svl 2023.06)
