@<TRIPOS>MOLECULE
NONAME
48 49 1 0 0 
SMALL
USER_CHARGES


@<TRIPOS>ATOM
  1 O       -0.2570     0.3440    -0.2240 O.2   1 <1>  -0.5700 
  2 C       -0.6900     1.4230     0.1170 C.2   1 <1>   0.5690 
  3 N       -1.8150     1.9510    -0.4580 N.am  1 <1>  -0.6600 
  4 C        0.0950     2.2190     1.1980 C.3   1 <1>   0.4840 
  5 C       -2.4210     3.2770    -0.1740 C.3   1 <1>   0.1400 
  6 C       -2.5530     1.2580    -1.5400 C.3   1 <1>   0.1400 
  7 N        1.6030     2.0410     1.1750 N.4   1 <1>  -0.9590 
  8 C       -0.4300     1.9330     2.6090 C.3   1 <1>  -0.2400 
  9 C       -3.6740     3.3330    -1.0420 C.3   1 <1>  -0.1600 
 10 C       -3.4130     2.3430    -2.1730 C.3   1 <1>  -0.1600 
 11 C        2.1570     2.3950    -0.1660 C.3   1 <1>   0.4860 
 12 C        2.0420     0.6670     1.5300 C.3   1 <1>   0.4810 
 13 C        1.6980     3.7890    -0.5510 C.ar  1 <1>  -0.1440 
 14 C        3.5410     0.7060     1.7350 C.2   1 <1>  -0.2880 
 15 C        0.8120     3.9540    -1.6060 C.ar  1 <1>  -0.1500 
 16 C        2.1420     4.9040     0.1450 C.ar  1 <1>  -0.1500 
 17 C        4.4440     0.1130     0.9460 C.2   1 <1>  -0.3000 
 18 C        0.3620     5.2160    -1.9480 C.ar  1 <1>  -0.1500 
 19 C        1.6880     6.1640    -0.1990 C.ar  1 <1>  -0.1500 
 20 C        0.7920     6.3260    -1.2420 C.ar  1 <1>  -0.1440 
 21 C        0.3010     7.7130    -1.6200 C.3   1 <1>  -0.0970 
 22 H       -0.1070     3.2580     1.0000 H     1 <1>   0.0800 
 23 H       -1.7400     4.0590    -0.4640 H     1 <1>   0.0800 
 24 H       -2.6750     3.3790     0.8670 H     1 <1>   0.0800 
 25 H       -3.1730     0.4910    -1.1070 H     1 <1>   0.0800 
 26 H       -1.8790     0.8160    -2.2540 H     1 <1>   0.0800 
 27 H        2.0080     2.6900     1.8510 H     1 <1>   0.4500 
 28 H       -0.4000     0.8810     2.8320 H     1 <1>   0.0800 
 29 H       -1.4590     2.2410     2.6720 H     1 <1>   0.0800 
 30 H        0.1250     2.4820     3.3470 H     1 <1>   0.0800 
 31 H       -3.8670     4.3270    -1.4050 H     1 <1>   0.0800 
 32 H       -4.5190     3.0060    -0.4610 H     1 <1>   0.0800 
 33 H       -4.3220     1.9420    -2.5870 H     1 <1>   0.0800 
 34 H       -2.8530     2.8210    -2.9590 H     1 <1>   0.0800 
 35 H        1.8170     1.6850    -0.9030 H     1 <1>   0.0800 
 36 H        3.2340     2.3670    -0.1440 H     1 <1>   0.0800 
 37 H        1.7940    -0.0230     0.7380 H     1 <1>   0.0800 
 38 H        1.5670     0.3300     2.4360 H     1 <1>   0.0800 
 39 H        3.8280     1.2660     2.6090 H     1 <1>   0.1500 
 40 H        0.4610     3.1070    -2.1730 H     1 <1>   0.1500 
 41 H        2.8470     4.8110     0.9540 H     1 <1>   0.1500 
 42 H        5.5080     0.1500     1.1180 H     1 <1>   0.1500 
 43 H        4.2110    -0.4670     0.0660 H     1 <1>   0.1500 
 44 H       -0.3230     5.3330    -2.7710 H     1 <1>   0.1500 
 45 H        2.0380     7.0260     0.3450 H     1 <1>   0.1500 
 46 H       -0.6790     7.6610    -2.0610 H     1 <1>   0.0800 
 47 H        0.9760     8.1570    -2.3300 H     1 <1>   0.0800 
 48 H        0.2480     8.3450    -0.7520 H     1 <1>   0.0800 
@<TRIPOS>BOND
  1   1   2  2   
  2   2   3  am  
  3   2   4  1   
  4   3   5  1   
  5   3   6  1   
  6   4   7  1   
  7   4   8  1   
  8   4  22  1   
  9   5   9  1   
 10   5  23  1   
 11   5  24  1   
 12   6  10  1   
 13   6  25  1   
 14   6  26  1   
 15   7  11  1   
 16   7  12  1   
 17   7  27  1   
 18   8  28  1   
 19   8  29  1   
 20   8  30  1   
 21   9  10  1   
 22   9  31  1   
 23   9  32  1   
 24  10  33  1   
 25  10  34  1   
 26  11  13  1   
 27  11  35  1   
 28  11  36  1   
 29  12  14  1   
 30  12  37  1   
 31  12  38  1   
 32  13  15  ar  
 33  13  16  ar  
 34  14  17  2   
 35  14  39  1   
 36  15  18  ar  
 37  15  40  1   
 38  16  19  ar  
 39  16  41  1   
 40  17  42  1   
 41  17  43  1   
 42  18  20  ar  
 43  18  44  1   
 44  19  20  ar  
 45  19  45  1   
 46  20  21  1   
 47  21  46  1   
 48  21  47  1   
 49  21  48  1   
@<TRIPOS>SUBSTRUCTURE
  1 ****   4 GROUP 4 **** **** 0

# MOE 2024.06 (io_trps.svl 2023.06)
