@<TRIPOS>MOLECULE
NONAME
43 45 1 0 0 
SMALL
USER_CHARGES


@<TRIPOS>ATOM
  1 S       -0.5280     0.0960     0.5630 S.o2  1 <1>   1.5010 
  2 O       -0.5210    -1.1170     1.3490 O.2   1 <1>  -0.6500 
  3 O       -1.0520     1.3030     1.1570 O.2   1 <1>  -0.6500 
  4 N       -1.5650    -0.1540    -0.7380 N.am  1 <1>  -0.9140 
  5 C        1.0720     0.4260    -0.2110 C.2   1 <1>  -0.0630 
  6 C       -1.7340    -1.4910    -1.3190 C.3   1 <1>   0.2760 
  7 C        2.2730    -0.2210     0.0890 C.2   1 <1>   0.1080 
  8 C        1.4210     1.3140    -1.1820 C.2   1 <1>  -0.3320 
  9 C       -2.5260    -2.4640    -0.4390 C.3   1 <1>  -0.0800 
 10 C       -0.4480    -2.2510    -1.6720 C.3   1 <1>   0.1200 
 11 N        3.2640     0.2060    -0.6270 N.2   1 <1>  -0.7070 
 12 C        2.4790    -1.3100     1.1230 C.3   1 <1>  -0.0590 
 13 N        2.7380     1.1580    -1.4100 N.pl3 1 <1>   0.3000 
 14 C        0.5660     2.3320    -1.9200 C.3   1 <1>  -0.0600 
 15 C       -1.5740    -3.6580    -0.3140 C.3   1 <1>   0.1200 
 16 C       -3.8620    -2.8560    -1.0960 C.3   1 <1>  -0.0170 
 17 O       -0.7460    -3.5860    -1.4280 O.3   1 <1>  -0.5600 
 18 C       -4.6510    -3.8350    -0.2400 C.ar  1 <1>  -0.1430 
 19 C       -4.7910    -5.1630    -0.5910 C.ar  1 <1>  -0.1500 
 20 C       -5.2690    -3.4470     0.9320 C.ar  1 <1>  -0.1500 
 21 C       -5.5190    -6.0140     0.2240 C.ar  1 <1>   0.1600 
 22 C       -5.9740    -4.3800     1.6760 C.ar  1 <1>   0.1600 
 23 N       -6.1140    -5.6540     1.3500 N.ar  1 <1>  -0.6200 
 24 H       -2.4630     0.1710    -0.3900 H     1 <1>   0.4200 
 25 H       -2.2670    -1.3580    -2.2460 H     1 <1>   0.0800 
 26 H       -2.7230    -2.0640     0.5390 H     1 <1>   0.0800 
 27 H        0.3830    -1.9910    -1.0460 H     1 <1>   0.0800 
 28 H       -0.1820    -2.1390    -2.7080 H     1 <1>   0.0800 
 29 H        2.1220    -0.9830     2.0820 H     1 <1>   0.0800 
 30 H        3.5250    -1.5400     1.2080 H     1 <1>   0.0800 
 31 H        1.9540    -2.2010     0.8330 H     1 <1>   0.0800 
 32 H        3.3080     1.6850    -2.0840 H     1 <1>   0.2700 
 33 H       -0.4410     2.3310    -1.5420 H     1 <1>   0.0800 
 34 H        0.5360     2.1010    -2.9710 H     1 <1>   0.0800 
 35 H        0.9710     3.3200    -1.7910 H     1 <1>   0.0800 
 36 H       -2.0730    -4.6110    -0.3040 H     1 <1>   0.0800 
 37 H       -0.9570    -3.5670     0.5640 H     1 <1>   0.0800 
 38 H       -3.6760    -3.2930    -2.0630 H     1 <1>   0.0800 
 39 H       -4.4610    -1.9740    -1.2490 H     1 <1>   0.0800 
 40 H       -4.3410    -5.5460    -1.4880 H     1 <1>   0.1500 
 41 H       -5.2100    -2.4310     1.2760 H     1 <1>   0.1500 
 42 H       -5.6170    -7.0470    -0.0660 H     1 <1>   0.1500 
 43 H       -6.4490    -4.0590     2.5870 H     1 <1>   0.1500 
@<TRIPOS>BOND
  1   1   2  2   
  2   1   3  2   
  3   1   4  am  
  4   1   5  1   
  5   4   6  1   
  6   4  24  1   
  7   5   7  1   
  8   5   8  2   
  9   6   9  1   
 10   6  10  1   
 11   6  25  1   
 12   7  11  2   
 13   7  12  1   
 14   8  13  1   
 15   8  14  1   
 16   9  15  1   
 17   9  16  1   
 18   9  26  1   
 19  10  17  1   
 20  10  27  1   
 21  10  28  1   
 22  11  13  1   
 23  12  29  1   
 24  12  30  1   
 25  12  31  1   
 26  13  32  1   
 27  14  33  1   
 28  14  34  1   
 29  14  35  1   
 30  15  17  1   
 31  15  36  1   
 32  15  37  1   
 33  16  18  1   
 34  16  38  1   
 35  16  39  1   
 36  18  19  ar  
 37  18  20  ar  
 38  19  21  ar  
 39  19  40  1   
 40  20  22  ar  
 41  20  41  1   
 42  21  23  ar  
 43  21  42  1   
 44  22  23  ar  
 45  22  43  1   
@<TRIPOS>SUBSTRUCTURE
  1 ****   6 GROUP 4 **** **** 0

# MOE 2024.06 (io_trps.svl 2023.06)
