@<TRIPOS>MOLECULE
NONAME
59 61 1 0 0 
SMALL
USER_CHARGES


@<TRIPOS>ATOM
  1 O        1.7360     5.0010    -1.5260 O.2   1 <1>  -0.5700 
  2 C        0.5430     5.1420    -1.4000 C.2   1 <1>   0.5690 
  3 N       -0.1570     4.5240    -0.4030 N.am  1 <1>  -0.6600 
  4 C       -0.1650     6.1240    -2.3430 C.3   1 <1>   0.1810 
  5 C       -1.4730     5.0680     0.0420 C.3   1 <1>   0.3640 
  6 C        0.3610     3.3460     0.3480 C.3   1 <1>   0.0600 
  7 O       -1.4480     6.5610    -1.9220 O.3   1 <1>  -0.5600 
  8 C       -2.6530     4.0940    -0.1340 C.ar  1 <1>  -0.1430 
  9 C       -1.7380     6.4850    -0.5300 C.3   1 <1>   0.2610 
 10 C       -2.9800     3.3690    -1.2870 C.ar  1 <1>  -0.1430 
 11 C       -3.4650     3.9460     0.9880 C.ar  1 <1>  -0.1500 
 12 C       -0.9520     7.5490     0.2570 C.2   1 <1>   0.5690 
 13 C       -4.0880     2.5320    -1.2780 C.ar  1 <1>  -0.1500 
 14 C       -2.1970     3.4320    -2.5900 C.3   1 <1>  -0.0960 
 15 C       -4.5650     3.1100     0.9840 C.ar  1 <1>  -0.1500 
 16 O       -0.8460     7.4620     1.4600 O.2   1 <1>  -0.5700 
 17 N       -0.3510     8.5680    -0.4200 N.am  1 <1>  -0.5790 
 18 C       -4.8780     2.3990    -0.1540 C.ar  1 <1>  -0.1500 
 19 C        0.3610     9.7310     0.1580 C.3   1 <1>   0.0540 
 20 C        0.6050    10.8630    -0.7930 C.3   1 <1>  -0.2000 
 21 C       -0.4730    10.9700     0.2410 C.3   1 <1>  -0.2000 
 22 C        1.3480     9.4250     1.3250 C.3   1 <1>   0.4380 
 23 N        2.5380     8.5590     0.9810 N.4   1 <1>  -0.9590 
 24 C        3.2700     9.0010    -0.2340 C.3   1 <1>   0.3430 
 25 C        2.1520     7.1270     0.8960 C.3   1 <1>   0.3430 
 26 C        4.1220    10.2160     0.1110 C.3   1 <1>  -0.2400 
 27 C        3.3720     6.2470     1.1350 C.3   1 <1>  -0.2400 
 28 H       -0.2810     5.6590    -3.3050 H     1 <1>   0.0800 
 29 H        0.4560     6.9900    -2.4710 H     1 <1>   0.0800 
 30 H       -1.3790     5.1880     1.1060 H     1 <1>   0.0800 
 31 H       -0.3470     2.5370     0.2860 H     1 <1>   0.0800 
 32 H        0.5100     3.6040     1.3820 H     1 <1>   0.0800 
 33 H        1.2960     3.0140    -0.0680 H     1 <1>   0.0800 
 34 H       -2.7830     6.7080    -0.4140 H     1 <1>   0.0800 
 35 H       -3.2550     4.4850     1.8960 H     1 <1>   0.1500 
 36 H       -4.3520     1.9700    -2.1570 H     1 <1>   0.1500 
 37 H       -2.5740     2.7190    -3.3010 H     1 <1>   0.0800 
 38 H       -1.1630     3.1970    -2.4270 H     1 <1>   0.0800 
 39 H       -2.2950     4.4050    -3.0290 H     1 <1>   0.0800 
 40 H       -5.1760     3.0120     1.8650 H     1 <1>   0.1500 
 41 H       -0.6130     8.6640    -1.4080 H     1 <1>   0.3700 
 42 H       -5.7320     1.7450    -0.1670 H     1 <1>   0.1500 
 43 H        1.4460    11.5240    -0.6740 H     1 <1>   0.1000 
 44 H        0.3060    10.7750    -1.8240 H     1 <1>   0.1000 
 45 H       -1.5020    10.9300    -0.0750 H     1 <1>   0.1000 
 46 H       -0.3240    11.6680     1.0470 H     1 <1>   0.1000 
 47 H        0.7940     8.9730     2.1320 H     1 <1>   0.0800 
 48 H        1.7120    10.3710     1.6910 H     1 <1>   0.0800 
 49 H        3.1900     8.6230     1.7700 H     1 <1>   0.4500 
 50 H        3.9190     8.2130    -0.5820 H     1 <1>   0.0800 
 51 H        2.5790     9.2330    -1.0270 H     1 <1>   0.0800 
 52 H        1.4130     6.9030     1.6490 H     1 <1>   0.0800 
 53 H        1.7250     6.9170    -0.0690 H     1 <1>   0.0800 
 54 H        4.8490     9.9680     0.8640 H     1 <1>   0.0800 
 55 H        3.5210    11.0410     0.4480 H     1 <1>   0.0800 
 56 H        4.6540    10.5330    -0.7680 H     1 <1>   0.0800 
 57 H        3.8100     6.4440     2.0970 H     1 <1>   0.0800 
 58 H        4.1080     6.3710     0.3620 H     1 <1>   0.0800 
 59 H        3.0610     5.2170     1.1160 H     1 <1>   0.0800 
@<TRIPOS>BOND
  1   1   2  2   
  2   2   3  am  
  3   2   4  1   
  4   3   5  1   
  5   3   6  1   
  6   4   7  1   
  7   4  28  1   
  8   4  29  1   
  9   5   8  1   
 10   5   9  1   
 11   5  30  1   
 12   6  31  1   
 13   6  32  1   
 14   6  33  1   
 15   7   9  1   
 16   8  10  ar  
 17   8  11  ar  
 18   9  12  1   
 19   9  34  1   
 20  10  13  ar  
 21  10  14  1   
 22  11  15  ar  
 23  11  35  1   
 24  12  16  2   
 25  12  17  am  
 26  13  18  ar  
 27  13  36  1   
 28  14  37  1   
 29  14  38  1   
 30  14  39  1   
 31  15  18  ar  
 32  15  40  1   
 33  17  19  1   
 34  17  41  1   
 35  18  42  1   
 36  19  20  1   
 37  19  21  1   
 38  19  22  1   
 39  20  21  1   
 40  20  43  1   
 41  20  44  1   
 42  21  45  1   
 43  21  46  1   
 44  22  23  1   
 45  22  47  1   
 46  22  48  1   
 47  23  24  1   
 48  23  25  1   
 49  23  49  1   
 50  24  26  1   
 51  24  50  1   
 52  24  51  1   
 53  25  27  1   
 54  25  52  1   
 55  25  53  1   
 56  26  54  1   
 57  26  55  1   
 58  26  56  1   
 59  27  57  1   
 60  27  58  1   
 61  27  59  1   
@<TRIPOS>SUBSTRUCTURE
  1 ****   9 GROUP 4 **** **** 0

# MOE 2024.06 (io_trps.svl 2023.06)
