@<TRIPOS>MOLECULE
NONAME
55 58 1 0 0 
SMALL
USER_CHARGES


@<TRIPOS>ATOM
  1 O        5.5580     1.3080    -3.5650 O.2   1 <1>  -0.5700 
  2 C        5.4330     0.8760    -2.4490 C.2   1 <1>   0.5690 
  3 N        5.4990     1.6320    -1.3430 N.am  1 <1>  -0.7300 
  4 C        5.1950    -0.5650    -2.0940 C.3   1 <1>  -0.0990 
  5 C        5.3910     0.8570    -0.1040 C.3   1 <1>   0.3000 
  6 C        4.7860    -0.4650    -0.6060 C.3   1 <1>  -0.1860 
  7 C        6.8110     0.7060     0.4680 C.3   1 <1>  -0.1600 
  8 C        4.4700     1.5720     0.8920 C.3   1 <1>  -0.1600 
  9 C        5.1690    -1.6090     0.3010 C.2   1 <1>   0.9060 
 10 C        7.3490     2.0360     0.9530 C.3   1 <1>   0.3430 
 11 C        5.0900     2.8530     1.4360 C.3   1 <1>   0.3430 
 12 O        5.9690    -2.4590    -0.0890 O.co2 1 <1>  -0.9000 
 13 O        4.7480    -1.5670     1.4620 O.co2 1 <1>  -0.9000 
 14 N        6.4420     2.5730     2.0010 N.4   1 <1>  -0.9590 
 15 C        7.0670     3.7660     2.6550 C.3   1 <1>   0.4860 
 16 C        6.8780     5.0320     1.8340 C.ar  1 <1>  -0.1440 
 17 C        7.7660     5.3590     0.8120 C.ar  1 <1>   0.0820 
 18 C        5.8120     5.8760     2.1160 C.ar  1 <1>  -0.1500 
 19 O        8.8060     4.5110     0.5890 O.3   1 <1>  -0.3620 
 20 C        7.5600     6.5210     0.0720 C.ar  1 <1>  -0.1500 
 21 C        5.6150     7.0270     1.3760 C.ar  1 <1>  -0.1500 
 22 C        9.7490     4.7140    -0.4490 C.3   1 <1>   0.2000 
 23 C        6.4880     7.3470     0.3530 C.ar  1 <1>  -0.1500 
 24 C        9.1500     4.2760    -1.7880 C.3   1 <1>  -0.1600 
 25 C       10.9060     3.7450    -0.2330 C.3   1 <1>  -0.1600 
 26 C        9.4190     2.7710    -1.9190 C.3   1 <1>  -0.1600 
 27 C       10.4640     2.4180    -0.8550 C.3   1 <1>  -0.1600 
 28 H        5.6640     2.6340    -1.4030 H     1 <1>   0.3700 
 29 H        6.1110    -1.1130    -2.2210 H     1 <1>   0.0800 
 30 H        4.4190    -1.0000    -2.6960 H     1 <1>   0.0800 
 31 H        3.7150    -0.3960    -0.5670 H     1 <1>   0.0800 
 32 H        7.4660     0.2930    -0.2800 H     1 <1>   0.0800 
 33 H        6.8230     0.0260     1.3010 H     1 <1>   0.0800 
 34 H        4.2590     0.9160     1.7180 H     1 <1>   0.0800 
 35 H        3.5310     1.7970     0.4200 H     1 <1>   0.0800 
 36 H        7.4070     2.7240     0.1260 H     1 <1>   0.0800 
 37 H        8.3410     1.8990     1.3520 H     1 <1>   0.0800 
 38 H        4.4490     3.2640     2.1970 H     1 <1>   0.0800 
 39 H        5.1740     3.5740     0.6380 H     1 <1>   0.0800 
 40 H        6.3360     1.8240     2.6990 H     1 <1>   0.4500 
 41 H        8.1210     3.5920     2.8040 H     1 <1>   0.0800 
 42 H        6.6200     3.9170     3.6230 H     1 <1>   0.0800 
 43 H        5.1250     5.6510     2.9150 H     1 <1>   0.1500 
 44 H        8.2190     6.8080    -0.7260 H     1 <1>   0.1500 
 45 H        4.7860     7.6790     1.5960 H     1 <1>   0.1500 
 46 H       10.0850     5.7370    -0.4320 H     1 <1>   0.0800 
 47 H        6.3330     8.2450    -0.2230 H     1 <1>   0.1500 
 48 H        9.6780     4.7850    -2.5760 H     1 <1>   0.0800 
 49 H        8.1040     4.5100    -1.8760 H     1 <1>   0.0800 
 50 H       11.1720     3.6520     0.8050 H     1 <1>   0.0800 
 51 H       11.7610     4.1110    -0.7750 H     1 <1>   0.0800 
 52 H        9.7880     2.5460    -2.9060 H     1 <1>   0.0800 
 53 H        8.5160     2.2070    -1.7650 H     1 <1>   0.0800 
 54 H       10.0220     1.7900    -0.1030 H     1 <1>   0.0800 
 55 H       11.3010     1.8940    -1.2860 H     1 <1>   0.0800 
@<TRIPOS>BOND
  1   1   2  2   
  2   2   3  am  
  3   2   4  1   
  4   3   5  1   
  5   3  28  1   
  6   4   6  1   
  7   4  29  1   
  8   4  30  1   
  9   5   6  1   
 10   5   7  1   
 11   5   8  1   
 12   6   9  1   
 13   6  31  1   
 14   7  10  1   
 15   7  32  1   
 16   7  33  1   
 17   8  11  1   
 18   8  34  1   
 19   8  35  1   
 20   9  12  ar  
 21   9  13  ar  
 22  10  14  1   
 23  10  36  1   
 24  10  37  1   
 25  11  14  1   
 26  11  38  1   
 27  11  39  1   
 28  14  15  1   
 29  14  40  1   
 30  15  16  1   
 31  15  41  1   
 32  15  42  1   
 33  16  17  ar  
 34  16  18  ar  
 35  17  19  1   
 36  17  20  ar  
 37  18  21  ar  
 38  18  43  1   
 39  19  22  1   
 40  20  23  ar  
 41  20  44  1   
 42  21  23  ar  
 43  21  45  1   
 44  22  24  1   
 45  22  25  1   
 46  22  46  1   
 47  23  47  1   
 48  24  26  1   
 49  24  48  1   
 50  24  49  1   
 51  25  27  1   
 52  25  50  1   
 53  25  51  1   
 54  26  27  1   
 55  26  52  1   
 56  26  53  1   
 57  27  54  1   
 58  27  55  1   
@<TRIPOS>SUBSTRUCTURE
  1 ****  10 GROUP 4 **** **** 0

# MOE 2024.06 (io_trps.svl 2023.06)
