@<TRIPOS>MOLECULE
NONAME
52 54 1 0 0 
SMALL
USER_CHARGES


@<TRIPOS>ATOM
  1 O       -1.4430    -2.6840     1.1320 O.2   1 <1>  -0.5700 
  2 C       -0.2860    -3.0060     1.1800 C.2   1 <1>   0.5690 
  3 N        0.1760    -3.8600     2.1160 N.am  1 <1>  -0.7300 
  4 C        0.7150    -2.4520     0.1890 C.3   1 <1>  -0.0990 
  5 C        1.5910    -4.2620     2.2280 C.3   1 <1>   0.1400 
  6 C        1.6600    -3.5680    -0.3020 C.3   1 <1>  -0.0800 
  7 C        2.1740    -4.5080     0.8190 C.3   1 <1>  -0.0800 
  8 C        2.9010    -3.0310    -1.0310 C.3   1 <1>  -0.1600 
  9 C        3.7060    -4.4160     0.7730 C.3   1 <1>  -0.1600 
 10 C        4.0100    -4.0140    -0.6700 C.3   1 <1>   0.4230 
 11 N        5.3790    -3.4580    -0.8940 N.4   1 <1>  -0.9590 
 12 C        5.7550    -2.3250     0.0090 C.3   1 <1>   0.3430 
 13 C        6.3930    -4.5590    -0.8340 C.3   1 <1>   0.2630 
 14 C        6.9200    -1.5280    -0.5830 C.3   1 <1>  -0.1600 
 15 C        7.2390    -0.3160     0.3040 C.3   1 <1>  -0.1600 
 16 C        8.3940     0.5160    -0.2560 C.3   1 <1>   0.1200 
 17 O        8.6050     1.5890     0.6270 O.3   1 <1>  -0.3630 
 18 C        9.5730     2.5120     0.4000 C.ar  1 <1>   0.0820 
 19 C        9.6980     3.5270     1.3360 C.ar  1 <1>  -0.1500 
 20 C       10.4260     2.4890    -0.7010 C.ar  1 <1>  -0.1500 
 21 C       10.6590     4.5100     1.1830 C.ar  1 <1>  -0.1500 
 22 C       11.3870     3.4740    -0.8530 C.ar  1 <1>  -0.1500 
 23 C       11.5040     4.4840     0.0870 C.ar  1 <1>  -0.1500 
 24 H       -0.4950    -4.2020     2.8090 H     1 <1>   0.3700 
 25 H        0.1880    -2.0170    -0.6410 H     1 <1>   0.0800 
 26 H        1.2630    -1.6750     0.6870 H     1 <1>   0.0800 
 27 H        2.1240    -3.4710     2.7280 H     1 <1>   0.0800 
 28 H        1.6690    -5.1560     2.8230 H     1 <1>   0.0800 
 29 H        1.0970    -4.1780    -0.9900 H     1 <1>   0.0800 
 30 H        1.8970    -5.5120     0.5400 H     1 <1>   0.0800 
 31 H        3.1260    -2.0440    -0.6740 H     1 <1>   0.0800 
 32 H        2.7350    -2.9970    -2.0930 H     1 <1>   0.0800 
 33 H        4.1560    -5.3590     1.0300 H     1 <1>   0.0800 
 34 H        4.0310    -3.6590     1.4610 H     1 <1>   0.0800 
 35 H        3.8780    -4.8880    -1.2900 H     1 <1>   0.0800 
 36 H        5.3780    -3.0850    -1.8530 H     1 <1>   0.4500 
 37 H        4.9180    -1.6590     0.1340 H     1 <1>   0.0800 
 38 H        6.0270    -2.7010     0.9820 H     1 <1>   0.0800 
 39 H        6.4480    -4.9640     0.1630 H     1 <1>   0.0800 
 40 H        7.3680    -4.1930    -1.1110 H     1 <1>   0.0800 
 41 H        6.1240    -5.3530    -1.5130 H     1 <1>   0.0800 
 42 H        7.7990    -2.1440    -0.6520 H     1 <1>   0.0800 
 43 H        6.6570    -1.1780    -1.5670 H     1 <1>   0.0800 
 44 H        7.5090    -0.6490     1.2930 H     1 <1>   0.0800 
 45 H        6.3710     0.3180     0.3820 H     1 <1>   0.0800 
 46 H        8.1490     0.9190    -1.2240 H     1 <1>   0.0800 
 47 H        9.3010    -0.0620    -0.3070 H     1 <1>   0.0800 
 48 H        9.0380     3.5400     2.1840 H     1 <1>   0.1500 
 49 H       10.3590     1.7210    -1.4460 H     1 <1>   0.1500 
 50 H       10.7480     5.2940     1.9140 H     1 <1>   0.1500 
 51 H       12.0460     3.4570    -1.7040 H     1 <1>   0.1500 
 52 H       12.2520     5.2480    -0.0340 H     1 <1>   0.1500 
@<TRIPOS>BOND
  1   1   2  2   
  2   2   3  am  
  3   2   4  1   
  4   3   5  1   
  5   3  24  1   
  6   4   6  1   
  7   4  25  1   
  8   4  26  1   
  9   5   7  1   
 10   5  27  1   
 11   5  28  1   
 12   6   7  1   
 13   6   8  1   
 14   6  29  1   
 15   7   9  1   
 16   7  30  1   
 17   8  10  1   
 18   8  31  1   
 19   8  32  1   
 20   9  10  1   
 21   9  33  1   
 22   9  34  1   
 23  10  11  1   
 24  10  35  1   
 25  11  12  1   
 26  11  13  1   
 27  11  36  1   
 28  12  14  1   
 29  12  37  1   
 30  12  38  1   
 31  13  39  1   
 32  13  40  1   
 33  13  41  1   
 34  14  15  1   
 35  14  42  1   
 36  14  43  1   
 37  15  16  1   
 38  15  44  1   
 39  15  45  1   
 40  16  17  1   
 41  16  46  1   
 42  16  47  1   
 43  17  18  1   
 44  18  19  ar  
 45  18  20  ar  
 46  19  21  ar  
 47  19  48  1   
 48  20  22  ar  
 49  20  49  1   
 50  21  23  ar  
 51  21  50  1   
 52  22  23  ar  
 53  22  51  1   
 54  23  52  1   
@<TRIPOS>SUBSTRUCTURE
  1 ****  12 GROUP 4 **** **** 0

# MOE 2024.06 (io_trps.svl 2023.06)
