@<TRIPOS>MOLECULE
NONAME
42 43 1 0 0 
SMALL
USER_CHARGES


@<TRIPOS>ATOM
  1 O        0.6510     1.2110     2.5180 O.co2 1 <1>  -0.9000 
  2 C        0.4370     1.9450     1.5380 C.2   1 <1>   0.9790 
  3 O       -0.7370     2.1050     1.1640 O.co2 1 <1>  -0.9000 
  4 C        1.5480     2.6180     0.8930 C.ar  1 <1>  -0.1790 
  5 C        1.6070     2.9020    -0.4740 C.ar  1 <1>   0.1660 
  6 C        2.6360     3.0120     1.6610 C.ar  1 <1>  -0.1500 
  7 N        2.6040     3.5360    -1.0650 N.ar  1 <1>  -0.6200 
  8 C        0.4920     2.4790    -1.4140 C.3   1 <1>  -0.0960 
  9 C        3.6890     3.6720     1.0680 C.ar  1 <1>   0.0730 
 10 C        3.6260     3.9280    -0.3090 C.ar  1 <1>   0.4100 
 11 C        4.8110     4.0800     1.8550 C.1   1 <1>   0.4840 
 12 N        4.6260     4.6240    -0.9760 N.pl3 1 <1>  -0.8380 
 13 N        5.6810     4.4290     2.5090 N.1   1 <1>  -0.5570 
 14 C        4.7990     6.0670    -0.6640 C.3   1 <1>   0.2090 
 15 C        4.9420     4.2580    -2.3850 C.3   1 <1>   0.1290 
 16 C        6.2770     6.3670    -0.4120 C.3   1 <1>  -0.1600 
 17 C        6.4500     7.6560     0.3920 C.3   1 <1>   0.2000 
 18 O        5.7870     8.6810    -0.2840 O.3   1 <1>  -0.5600 
 19 C        7.9290     8.0340     0.5620 C.3   1 <1>  -0.1600 
 20 C        5.7580     9.9030     0.3890 C.3   1 <1>   0.1200 
 21 C        8.0690     9.3890     1.2670 C.3   1 <1>  -0.1600 
 22 C        7.1890    10.4270     0.5620 C.3   1 <1>  -0.1600 
 23 H        2.6380     2.7920     2.7170 H     1 <1>   0.1500 
 24 H        0.2060     1.4620    -1.2160 H     1 <1>   0.0800 
 25 H        0.8070     2.5530    -2.4390 H     1 <1>   0.0800 
 26 H       -0.3610     3.1150    -1.2640 H     1 <1>   0.0800 
 27 H        4.2230     6.3170     0.2110 H     1 <1>   0.0800 
 28 H        4.4320     6.6710    -1.4760 H     1 <1>   0.0800 
 29 H        4.8060     3.1990    -2.5270 H     1 <1>   0.0800 
 30 H        5.9620     4.5090    -2.6130 H     1 <1>   0.0800 
 31 H        4.2820     4.7830    -3.0540 H     1 <1>   0.0800 
 32 H        6.7930     6.4540    -1.3500 H     1 <1>   0.0800 
 33 H        6.7190     5.5610     0.1450 H     1 <1>   0.0800 
 34 H        5.9860     7.5370     1.3580 H     1 <1>   0.0800 
 35 H        8.3940     8.0810    -0.4070 H     1 <1>   0.0800 
 36 H        8.4310     7.2740     1.1340 H     1 <1>   0.0800 
 37 H        5.2770     9.7600     1.3420 H     1 <1>   0.0800 
 38 H        5.1740    10.5880    -0.2000 H     1 <1>   0.0800 
 39 H        9.0980     9.7060     1.2610 H     1 <1>   0.0800 
 40 H        7.7530     9.2890     2.2910 H     1 <1>   0.0800 
 41 H        7.1730    11.3400     1.1300 H     1 <1>   0.0800 
 42 H        7.5940    10.6500    -0.4100 H     1 <1>   0.0800 
@<TRIPOS>BOND
  1   1   2  ar  
  2   2   3  ar  
  3   2   4  1   
  4   4   5  ar  
  5   4   6  ar  
  6   5   7  ar  
  7   5   8  1   
  8   6   9  ar  
  9   6  23  1   
 10   7  10  ar  
 11   8  24  1   
 12   8  25  1   
 13   8  26  1   
 14   9  10  ar  
 15   9  11  1   
 16  10  12  1   
 17  11  13  3   
 18  12  14  1   
 19  12  15  1   
 20  14  16  1   
 21  14  27  1   
 22  14  28  1   
 23  15  29  1   
 24  15  30  1   
 25  15  31  1   
 26  16  17  1   
 27  16  32  1   
 28  16  33  1   
 29  17  18  1   
 30  17  19  1   
 31  17  34  1   
 32  18  20  1   
 33  19  21  1   
 34  19  35  1   
 35  19  36  1   
 36  20  22  1   
 37  20  37  1   
 38  20  38  1   
 39  21  22  1   
 40  21  39  1   
 41  21  40  1   
 42  22  41  1   
 43  22  42  1   
@<TRIPOS>SUBSTRUCTURE
  1 ****  10 GROUP 4 **** **** 0

# MOE 2024.06 (io_trps.svl 2023.06)
