@<TRIPOS>MOLECULE
NONAME
42 44 1 0 0 
SMALL
USER_CHARGES


@<TRIPOS>ATOM
  1 O       -1.6040     0.2490     1.7530 O.2   1 <1>  -0.5700 
  2 C       -2.4470     1.0270     1.3400 C.2   1 <1>   0.5440 
  3 N       -3.7760     0.6680     1.4110 N.am  1 <1>  -0.6600 
  4 C       -2.0310     2.2840     0.7530 C.ar  1 <1>   0.0860 
  5 C       -4.1700    -0.6690     1.9420 C.3   1 <1>   0.3200 
  6 C       -4.9000     1.5490     0.9510 C.3   1 <1>   0.1400 
  7 C       -1.6000     2.3740    -0.5780 C.ar  1 <1>  -0.1440 
  8 C       -2.0700     3.4500     1.5180 C.ar  1 <1>  -0.1500 
  9 C       -3.9100    -1.7400     0.8930 C.2   1 <1>   0.0060 
 10 C       -5.5110     1.1080    -0.3880 C.3   1 <1>   0.1200 
 11 C       -1.2340     3.5980    -1.1150 C.ar  1 <1>  -0.1500 
 12 C       -1.5150     1.1260    -1.4490 C.3   1 <1>  -0.0960 
 13 C       -1.7130     4.6690     0.9800 C.ar  1 <1>   0.0830 
 14 N       -4.8220    -2.4030     0.2540 N.2   1 <1>  -0.5650 
 15 N       -2.6520    -2.0740     0.5350 N.pl3 1 <1>   0.0330 
 16 O       -6.3050    -0.0180    -0.2270 O.3   1 <1>  -0.6800 
 17 C       -1.2840     4.7460    -0.3450 C.ar  1 <1>   0.0830 
 18 O       -1.7960     5.7790     1.7570 O.3   1 <1>  -0.3630 
 19 C       -4.1190    -3.2150    -0.5600 C.2   1 <1>   0.0770 
 20 C       -2.7900    -3.0260    -0.4040 C.2   1 <1>  -0.3020 
 21 O       -0.9050     5.9240    -0.8910 O.3   1 <1>  -0.3630 
 22 C       -1.7230     7.0320     1.1000 C.3   1 <1>   0.1200 
 23 C       -0.6570     6.9980    -0.0040 C.3   1 <1>   0.1200 
 24 H       -5.2140    -0.6700     2.2060 H     1 <1>   0.0800 
 25 H       -3.6040    -0.8890     2.8300 H     1 <1>   0.0800 
 26 H       -4.5460     2.5570     0.8340 H     1 <1>   0.0800 
 27 H       -5.6720     1.5760     1.7010 H     1 <1>   0.0800 
 28 H       -2.3870     3.4020     2.5440 H     1 <1>   0.1500 
 29 H       -4.7490     0.8950    -1.1170 H     1 <1>   0.0800 
 30 H       -6.1480     1.8880    -0.7670 H     1 <1>   0.0800 
 31 H       -0.8990     3.6800    -2.1340 H     1 <1>   0.1500 
 32 H       -2.4530     0.6010    -1.4530 H     1 <1>   0.0800 
 33 H       -0.7540     0.4680    -1.0680 H     1 <1>   0.0800 
 34 H       -1.2660     1.3790    -2.4640 H     1 <1>   0.0800 
 35 H       -1.8030    -1.6260     0.9100 H     1 <1>   0.2700 
 36 H       -5.7500    -0.8340    -0.0990 H     1 <1>   0.4000 
 37 H       -4.6140    -3.9030    -1.2260 H     1 <1>   0.1500 
 38 H       -1.9610    -3.5030    -0.8930 H     1 <1>   0.1500 
 39 H       -1.4870     7.7790     1.8360 H     1 <1>   0.0800 
 40 H       -2.6890     7.2460     0.6790 H     1 <1>   0.0800 
 41 H       -0.6660     7.9090    -0.5750 H     1 <1>   0.0800 
 42 H        0.3200     6.8590     0.4240 H     1 <1>   0.0800 
@<TRIPOS>BOND
  1   1   2  2   
  2   2   3  am  
  3   2   4  1   
  4   3   5  1   
  5   3   6  1   
  6   4   7  ar  
  7   4   8  ar  
  8   5   9  1   
  9   5  24  1   
 10   5  25  1   
 11   6  10  1   
 12   6  26  1   
 13   6  27  1   
 14   7  11  ar  
 15   7  12  1   
 16   8  13  ar  
 17   8  28  1   
 18   9  14  2   
 19   9  15  1   
 20  10  16  1   
 21  10  29  1   
 22  10  30  1   
 23  11  17  ar  
 24  11  31  1   
 25  12  32  1   
 26  12  33  1   
 27  12  34  1   
 28  13  17  ar  
 29  13  18  1   
 30  14  19  1   
 31  15  20  1   
 32  15  35  1   
 33  16  36  1   
 34  17  21  1   
 35  18  22  1   
 36  19  20  2   
 37  19  37  1   
 38  20  38  1   
 39  21  23  1   
 40  22  23  1   
 41  22  39  1   
 42  22  40  1   
 43  23  41  1   
 44  23  42  1   
@<TRIPOS>SUBSTRUCTURE
  1 ****   4 GROUP 4 **** **** 0

# MOE 2024.06 (io_trps.svl 2023.06)
