@<TRIPOS>MOLECULE
NONAME
52 54 1 0 0 
SMALL
USER_CHARGES


@<TRIPOS>ATOM
  1 F        3.0090     8.1310    -4.2000 F     1 <1>  -0.1900 
  2 C        2.4760     7.9180    -3.0260 C.ar  1 <1>   0.1900 
  3 C        1.7140     8.9140    -2.4500 C.ar  1 <1>  -0.1500 
  4 C        2.7010     6.7070    -2.4030 C.ar  1 <1>  -0.1500 
  5 C        1.1610     8.7050    -1.1960 C.ar  1 <1>  -0.1440 
  6 C        2.1490     6.5020    -1.1520 C.ar  1 <1>  -0.1500 
  7 C        1.3910     7.4940    -0.5320 C.ar  1 <1>   0.1170 
  8 C        0.3140     9.8160    -0.5830 C.3   1 <1>  -0.0960 
  9 N        0.8960     7.2950     0.7630 N.am  1 <1>  -0.5470 
 10 C        1.6340     6.9600     1.8580 C.2   1 <1>   0.5690 
 11 O        2.7390     6.4720     1.7760 O.2   1 <1>  -0.5700 
 12 C        1.1830     7.4220     3.2190 C.3   1 <1>  -0.0990 
 13 C        2.2290     8.3910     3.7900 C.3   1 <1>   0.2090 
 14 N        2.3890     9.5910     2.9170 N.pl3 1 <1>  -0.8690 
 15 C        3.1300     9.8370     1.8220 C.ar  1 <1>   0.7710 
 16 N        3.0530    11.0670     1.3560 N.ar  1 <1>  -0.6200 
 17 N        3.8640     8.8780     1.2280 N.ar  1 <1>  -0.1790 
 18 C        3.7150    11.3550     0.2490 C.ar  1 <1>   0.4100 
 19 C        4.5340     9.1220     0.0800 C.ar  1 <1>   0.2110 
 20 N        3.6320    12.6280    -0.2220 N.pl3 1 <1>  -0.8380 
 21 C        4.4680    10.3740    -0.4290 C.ar  1 <1>  -0.1500 
 22 C        4.7060    13.3140    -1.0150 C.3   1 <1>   0.2090 
 23 C        2.4730    13.5260     0.0700 C.3   1 <1>   0.2090 
 24 C        4.1370    13.8250    -2.3500 C.3   1 <1>   0.2000 
 25 C        1.8740    14.0300    -1.2500 C.3   1 <1>  -0.1600 
 26 O        5.1060    14.5470    -3.0240 O.3   1 <1>  -0.6800 
 27 C        2.9190    14.7310    -2.1370 C.3   1 <1>  -0.1600 
 28 H        1.5590     9.8330    -2.9880 H     1 <1>   0.1500 
 29 H        3.2870     5.9480    -2.8910 H     1 <1>   0.1500 
 30 H        2.3060     5.5620    -0.6500 H     1 <1>   0.1500 
 31 H        0.4870    10.7490    -1.0900 H     1 <1>   0.0800 
 32 H        0.5490     9.9600     0.4550 H     1 <1>   0.0800 
 33 H       -0.7300     9.5710    -0.6750 H     1 <1>   0.0800 
 34 H       -0.0340     7.6820     0.9310 H     1 <1>   0.3700 
 35 H        1.0970     6.5660     3.8640 H     1 <1>   0.0800 
 36 H        0.2230     7.9030     3.1680 H     1 <1>   0.0800 
 37 H        3.1760     7.8880     3.9000 H     1 <1>   0.0800 
 38 H        1.9200     8.7110     4.7720 H     1 <1>   0.0800 
 39 H        1.8990    10.4260     3.2620 H     1 <1>   0.4000 
 40 H        3.7670     7.9230     1.5940 H     1 <1>   0.4570 
 41 H        5.0750     8.3180    -0.3940 H     1 <1>   0.1500 
 42 H        4.9590    10.6230    -1.3490 H     1 <1>   0.1500 
 43 H        5.5360    12.6590    -1.2020 H     1 <1>   0.0800 
 44 H        5.0670    14.1500    -0.4420 H     1 <1>   0.0800 
 45 H        2.8110    14.3580     0.6660 H     1 <1>   0.0800 
 46 H        1.7110    13.0080     0.6260 H     1 <1>   0.0800 
 47 H        3.8750    12.9830    -2.9670 H     1 <1>   0.0800 
 48 H        1.0720    14.7130    -1.0350 H     1 <1>   0.0800 
 49 H        1.4560    13.1930    -1.7790 H     1 <1>   0.0800 
 50 H        5.2180    15.4300    -2.6230 H     1 <1>   0.4000 
 51 H        2.4790    14.9730    -3.0880 H     1 <1>   0.0800 
 52 H        3.2240    15.6430    -1.6540 H     1 <1>   0.0800 
@<TRIPOS>BOND
  1   1   2  1   
  2   2   3  ar  
  3   2   4  ar  
  4   3   5  ar  
  5   3  28  1   
  6   4   6  ar  
  7   4  29  1   
  8   5   7  ar  
  9   5   8  1   
 10   6   7  ar  
 11   6  30  1   
 12   7   9  1   
 13   8  31  1   
 14   8  32  1   
 15   8  33  1   
 16   9  10  am  
 17   9  34  1   
 18  10  11  2   
 19  10  12  1   
 20  12  13  1   
 21  12  35  1   
 22  12  36  1   
 23  13  14  1   
 24  13  37  1   
 25  13  38  1   
 26  14  15  1   
 27  14  39  1   
 28  15  16  ar  
 29  15  17  ar  
 30  16  18  ar  
 31  17  19  ar  
 32  17  40  1   
 33  18  20  1   
 34  18  21  ar  
 35  19  21  ar  
 36  19  41  1   
 37  20  22  1   
 38  20  23  1   
 39  21  42  1   
 40  22  24  1   
 41  22  43  1   
 42  22  44  1   
 43  23  25  1   
 44  23  45  1   
 45  23  46  1   
 46  24  26  1   
 47  24  27  1   
 48  24  47  1   
 49  25  27  1   
 50  25  48  1   
 51  25  49  1   
 52  26  50  1   
 53  27  51  1   
 54  27  52  1   
@<TRIPOS>SUBSTRUCTURE
  1 ****  21 GROUP 4 **** **** 0

# MOE 2024.06 (io_trps.svl 2023.06)
