@<TRIPOS>MOLECULE
NONAME
55 58 1 0 0 
SMALL
USER_CHARGES


@<TRIPOS>ATOM
  1 O       -2.3440     2.3140    -2.5030 O.2   1 <1>  -0.5700 
  2 C       -1.9390     2.2980    -1.3670 C.2   1 <1>   0.5690 
  3 N       -2.6870     2.1010    -0.2560 N.am  1 <1>  -0.6600 
  4 C       -0.4980     2.5260    -1.0150 C.3   1 <1>  -0.0990 
  5 C       -4.0750     1.5900    -0.2580 C.3   1 <1>   0.2200 
  6 C       -1.8660     2.2380     0.9690 C.3   1 <1>   0.1400 
  7 C       -0.5750     2.9050     0.4660 C.3   1 <1>   0.2200 
  8 C       -4.9460     2.4120     0.6890 C.3   1 <1>  -0.2400 
  9 C       -4.0710     0.1140     0.1340 C.3   1 <1>  -0.2400 
 10 N       -0.7030     4.3770     0.5530 N.am  1 <1>  -0.7300 
 11 C        0.3370     5.2520     0.5430 C.2   1 <1>   0.7160 
 12 O        1.4460     4.8080     0.7650 O.2   1 <1>  -0.5700 
 13 C        0.1190     6.6350     0.2380 C.2   1 <1>  -0.0860 
 14 C       -1.0830     7.2090    -0.2060 C.2   1 <1>   0.3720 
 15 C        0.9630     7.7040     0.3050 C.2   1 <1>   0.0870 
 16 N       -0.9580     8.4780    -0.3720 N.2   1 <1>  -0.4100 
 17 N       -2.2860     6.5250    -0.4520 N.pl3 1 <1>  -0.8210 
 18 O        0.2760     8.7560    -0.0570 O.3   1 <1>  -0.0190 
 19 C        2.3450     7.8740     0.6750 C.ar  1 <1>   0.0530 
 20 C       -2.4020     6.0220    -1.8600 C.3   1 <1>   0.2090 
 21 C       -3.5100     7.3210    -0.1070 C.3   1 <1>   0.2090 
 22 C        3.3560     7.0530     0.1770 C.ar  1 <1>  -0.1500 
 23 C        2.7190     8.8990     1.5430 C.ar  1 <1>  -0.1500 
 24 C       -3.7370     5.2840    -2.0810 C.3   1 <1>   0.1200 
 25 C       -4.7960     6.5310    -0.3980 C.3   1 <1>   0.1200 
 26 C        4.6780     7.2400     0.5350 C.ar  1 <1>  -0.1500 
 27 C        4.0400     9.0930     1.9050 C.ar  1 <1>  -0.1500 
 28 O       -4.8240     6.0940    -1.7280 O.3   1 <1>  -0.5600 
 29 C        5.0230     8.2610     1.4020 C.ar  1 <1>  -0.1500 
 30 H       -0.0490     3.2880    -1.6240 H     1 <1>   0.0800 
 31 H        0.0330     1.6020    -1.1390 H     1 <1>   0.0800 
 32 H       -4.4720     1.6800    -1.2570 H     1 <1>   0.0800 
 33 H       -1.6520     1.2610     1.3660 H     1 <1>   0.0800 
 34 H       -2.3530     2.8410     1.7150 H     1 <1>   0.0800 
 35 H        0.2890     2.5770     1.0200 H     1 <1>   0.0800 
 36 H       -4.6310     2.2950     1.7100 H     1 <1>   0.0800 
 37 H       -5.9670     2.0850     0.6130 H     1 <1>   0.0800 
 38 H       -4.9060     3.4480     0.4160 H     1 <1>   0.0800 
 39 H       -3.7180    -0.0180     1.1410 H     1 <1>   0.0800 
 40 H       -3.4460    -0.4420    -0.5420 H     1 <1>   0.0800 
 41 H       -5.0680    -0.2810     0.0700 H     1 <1>   0.0800 
 42 H       -1.6130     4.7810     0.2820 H     1 <1>   0.3700 
 43 H       -1.5890     5.3510    -2.0750 H     1 <1>   0.0800 
 44 H       -2.3400     6.8500    -2.5460 H     1 <1>   0.0800 
 45 H       -3.5300     8.2330    -0.6800 H     1 <1>   0.0800 
 46 H       -3.4800     7.5850     0.9360 H     1 <1>   0.0800 
 47 H        3.1030     6.2570    -0.5010 H     1 <1>   0.1500 
 48 H        1.9610     9.5520     1.9390 H     1 <1>   0.1500 
 49 H       -3.7740     4.3860    -1.4920 H     1 <1>   0.0800 
 50 H       -3.8450     5.0160    -3.1170 H     1 <1>   0.0800 
 51 H       -5.6570     7.1560    -0.2420 H     1 <1>   0.0800 
 52 H       -4.8660     5.6780     0.2500 H     1 <1>   0.0800 
 53 H        5.4390     6.5890     0.1410 H     1 <1>   0.1500 
 54 H        4.3030     9.8900     2.5780 H     1 <1>   0.1500 
 55 H        6.0520     8.4080     1.6820 H     1 <1>   0.1500 
@<TRIPOS>BOND
  1   1   2  2   
  2   2   3  am  
  3   2   4  1   
  4   3   5  1   
  5   3   6  1   
  6   4   7  1   
  7   4  30  1   
  8   4  31  1   
  9   5   8  1   
 10   5   9  1   
 11   5  32  1   
 12   6   7  1   
 13   6  33  1   
 14   6  34  1   
 15   7  10  1   
 16   7  35  1   
 17   8  36  1   
 18   8  37  1   
 19   8  38  1   
 20   9  39  1   
 21   9  40  1   
 22   9  41  1   
 23  10  11  am  
 24  10  42  1   
 25  11  12  2   
 26  11  13  1   
 27  13  14  1   
 28  13  15  2   
 29  14  16  2   
 30  14  17  1   
 31  15  18  1   
 32  15  19  1   
 33  16  18  1   
 34  17  20  1   
 35  17  21  1   
 36  19  22  ar  
 37  19  23  ar  
 38  20  24  1   
 39  20  43  1   
 40  20  44  1   
 41  21  25  1   
 42  21  45  1   
 43  21  46  1   
 44  22  26  ar  
 45  22  47  1   
 46  23  27  ar  
 47  23  48  1   
 48  24  28  1   
 49  24  49  1   
 50  24  50  1   
 51  25  28  1   
 52  25  51  1   
 53  25  52  1   
 54  26  29  ar  
 55  26  53  1   
 56  27  29  ar  
 57  27  54  1   
 58  29  55  1   
@<TRIPOS>SUBSTRUCTURE
  1 ****  10 GROUP 4 **** **** 0

# MOE 2024.06 (io_trps.svl 2023.06)
