@<TRIPOS>MOLECULE
NONAME
41 43 1 0 0 
SMALL
USER_CHARGES


@<TRIPOS>ATOM
  1 O       -0.8030     0.4180     0.4330 O.co2 1 <1>  -0.9000 
  2 C       -1.6600     1.3260     0.4230 C.2   1 <1>   0.9790 
  3 O       -2.8590     0.9740     0.4860 O.co2 1 <1>  -0.9000 
  4 C       -1.3170     2.7600     0.3510 C.ar  1 <1>   0.1310 
  5 N       -0.0670     3.2120     0.1980 N.ar  1 <1>  -0.6200 
  6 C       -2.3340     3.6980     0.4440 C.ar  1 <1>  -0.1500 
  7 C        0.1300     4.5220     0.1460 C.ar  1 <1>   0.7200 
  8 C       -2.0330     5.0340     0.3790 C.ar  1 <1>   0.1660 
  9 N       -0.8080     5.4630     0.2290 N.ar  1 <1>  -0.6200 
 10 N        1.4310     4.9560    -0.0160 N.pl3 1 <1>  -0.8380 
 11 C       -3.1190     6.0830     0.4780 C.3   1 <1>  -0.0970 
 12 C        1.7360     6.1500    -0.8530 C.3   1 <1>   0.2090 
 13 C        2.5730     4.0190     0.1700 C.3   1 <1>   0.2090 
 14 C        2.9090     6.9300    -0.2460 C.3   1 <1>  -0.0190 
 15 C        3.7740     4.7740     0.7520 C.3   1 <1>  -0.1600 
 16 C        3.2460     8.1550    -1.1010 C.2   1 <1>   0.4230 
 17 C        4.1380     6.0160    -0.0760 C.3   1 <1>  -0.1600 
 18 O        3.1210     8.0490    -2.3000 O.2   1 <1>  -0.5700 
 19 C        3.7050     9.3800    -0.4620 C.ar  1 <1>   0.3960 
 20 N        4.0150     9.3800     0.8460 N.ar  1 <1>  -0.6200 
 21 C        3.8230    10.5450    -1.2260 C.ar  1 <1>  -0.1500 
 22 C        4.4250    10.5180     1.3740 C.ar  1 <1>   0.1600 
 23 C        4.2530    11.7270    -0.6660 C.ar  1 <1>  -0.1500 
 24 C        4.5610    11.7040     0.6750 C.ar  1 <1>  -0.1500 
 25 H       -3.3480     3.3630     0.5670 H     1 <1>   0.1500 
 26 H       -4.0830     5.6270     0.6010 H     1 <1>   0.0800 
 27 H       -3.1230     6.6780    -0.4160 H     1 <1>   0.0800 
 28 H       -2.9230     6.7200     1.3210 H     1 <1>   0.0800 
 29 H        0.8800     6.7980    -0.9300 H     1 <1>   0.0800 
 30 H        1.9870     5.8170    -1.8460 H     1 <1>   0.0800 
 31 H        2.8280     3.5840    -0.7810 H     1 <1>   0.0800 
 32 H        2.3040     3.2210     0.8430 H     1 <1>   0.0800 
 33 H        2.5830     7.2610     0.7230 H     1 <1>   0.0800 
 34 H        4.6170     4.1090     0.8020 H     1 <1>   0.0800 
 35 H        3.5300     5.0690     1.7580 H     1 <1>   0.0800 
 36 H        4.9290     6.5570     0.4150 H     1 <1>   0.0800 
 37 H        4.4910     5.7090    -1.0450 H     1 <1>   0.0800 
 38 H        3.5720    10.5130    -2.2710 H     1 <1>   0.1500 
 39 H        4.6690    10.5100     2.4230 H     1 <1>   0.1500 
 40 H        4.3450    12.6280    -1.2510 H     1 <1>   0.1500 
 41 H        4.9020    12.5920     1.1760 H     1 <1>   0.1500 
@<TRIPOS>BOND
  1   1   2  ar  
  2   2   3  ar  
  3   2   4  1   
  4   4   5  ar  
  5   4   6  ar  
  6   5   7  ar  
  7   6   8  ar  
  8   6  25  1   
  9   7   9  ar  
 10   7  10  1   
 11   8   9  ar  
 12   8  11  1   
 13  10  12  1   
 14  10  13  1   
 15  11  26  1   
 16  11  27  1   
 17  11  28  1   
 18  12  14  1   
 19  12  29  1   
 20  12  30  1   
 21  13  15  1   
 22  13  31  1   
 23  13  32  1   
 24  14  16  1   
 25  14  17  1   
 26  14  33  1   
 27  15  17  1   
 28  15  34  1   
 29  15  35  1   
 30  16  18  2   
 31  16  19  1   
 32  17  36  1   
 33  17  37  1   
 34  19  20  ar  
 35  19  21  ar  
 36  20  22  ar  
 37  21  23  ar  
 38  21  38  1   
 39  22  24  ar  
 40  22  39  1   
 41  23  24  ar  
 42  23  40  1   
 43  24  41  1   
@<TRIPOS>SUBSTRUCTURE
  1 ****  12 GROUP 4 **** **** 0

# MOE 2024.06 (io_trps.svl 2023.06)
