@<TRIPOS>MOLECULE
Untitled Document
52 55 1 0 0 
SMALL
USER_CHARGES


@<TRIPOS>ATOM
  1 S       -0.1370    -0.0510    -0.2140 S.o2  1 <1>   1.3260 
  2 O       -0.2950     0.4460    -1.5640 O.2   1 <1>  -0.6500 
  3 O       -1.1210    -0.9610     0.3310 O.2   1 <1>  -0.6500 
  4 C        1.5120    -0.7710    -0.0210 C.ar  1 <1>  -0.0090 
  5 C       -0.0690     1.3720     0.8890 C.2   1 <1>  -0.1670 
  6 C        2.5660    -0.3800    -0.8380 C.ar  1 <1>  -0.1500 
  7 C        1.7810    -1.7040     0.9750 C.ar  1 <1>  -0.1500 
  8 C        0.9870     2.1090     1.2670 C.2   1 <1>  -0.3000 
  9 C        3.8390    -0.8890    -0.6600 C.ar  1 <1>  -0.1500 
 10 C        3.0530    -2.2160     1.1550 C.ar  1 <1>  -0.1500 
 11 C        4.1060    -1.8070     0.3480 C.ar  1 <1>   0.1000 
 12 N        5.3810    -2.3360     0.5620 N.pl3 1 <1>  -0.6000 
 13 C        6.6250    -1.7660     0.5000 C.ar  1 <1>   0.7200 
 14 N        6.7090    -0.4530     0.2260 N.ar  1 <1>  -0.6200 
 15 N        7.6190    -2.5920     0.7420 N.ar  1 <1>  -0.5670 
 16 C        7.9030     0.0760     0.1820 C.ar  1 <1>   0.3930 
 17 C        8.8220    -2.0230     0.6890 C.ar  1 <1>   0.1050 
 18 O        7.9240     1.3940    -0.1010 O.3   1 <1>  -0.3620 
 19 C        9.0570    -0.6970     0.4160 C.ar  1 <1>   0.2270 
 20 N       10.0250    -2.5970     0.8820 N.pl3 1 <1>   0.0330 
 21 C        9.1100     2.1570    -0.1130 C.3   1 <1>   0.1200 
 22 N       10.4130    -0.4580     0.4420 N.2   1 <1>  -0.5650 
 23 C       10.9350    -1.6030     0.7190 C.2   1 <1>   0.0360 
 24 C        8.7680     3.6260    -0.4010 C.3   1 <1>  -0.0800 
 25 C       10.0590     4.4600    -0.4880 C.3   1 <1>  -0.1600 
 26 C        7.8220     4.2100     0.6660 C.3   1 <1>  -0.1600 
 27 C        9.7570     5.9410    -0.7540 C.3   1 <1>  -0.1600 
 28 C        7.5220     5.6920     0.4040 C.3   1 <1>  -0.1600 
 29 C        8.8140     6.5140     0.3110 C.3   1 <1>  -0.1600 
 30 H       -1.0510     1.6200     1.2420 H     1 <1>   0.1500 
 31 H        2.3920     0.3340    -1.6260 H     1 <1>   0.1500 
 32 H        0.9820    -2.0330     1.6190 H     1 <1>   0.1500 
 33 H        0.9210     2.9560     1.9280 H     1 <1>   0.1500 
 34 H        2.0010     1.9310     0.9480 H     1 <1>   0.1500 
 35 H        4.6340    -0.5680    -1.3100 H     1 <1>   0.1500 
 36 H        3.2320    -2.9330     1.9360 H     1 <1>   0.1500 
 37 H        5.4340    -3.2810     0.9300 H     1 <1>   0.4000 
 38 H       10.1830    -3.5820     1.1020 H     1 <1>   0.2700 
 39 H        9.7550     1.7640    -0.8790 H     1 <1>   0.0800 
 40 H        9.5850     2.0620     0.8480 H     1 <1>   0.0800 
 41 H       11.9930    -1.7830     0.8190 H     1 <1>   0.1500 
 42 H        8.2770     3.6680    -1.3590 H     1 <1>   0.0800 
 43 H       10.6830     4.0790    -1.2780 H     1 <1>   0.0800 
 44 H       10.6050     4.3730     0.4360 H     1 <1>   0.0800 
 45 H        8.2700     4.1060     1.6390 H     1 <1>   0.0800 
 46 H        6.8960     3.6610     0.6710 H     1 <1>   0.0800 
 47 H        9.3020     6.0430    -1.7250 H     1 <1>   0.0800 
 48 H       10.6760     6.5010    -0.7600 H     1 <1>   0.0800 
 49 H        6.9030     6.0790     1.1950 H     1 <1>   0.0800 
 50 H        6.9740     5.7840    -0.5190 H     1 <1>   0.0800 
 51 H        8.5750     7.5350     0.0700 H     1 <1>   0.0800 
 52 H        9.3090     6.5070     1.2670 H     1 <1>   0.0800 
@<TRIPOS>BOND
  1   1   2  2   
  2   1   3  2   
  3   1   4  1   
  4   1   5  1   
  5   4   6  ar  
  6   4   7  ar  
  7   5   8  2   
  8   5  30  1   
  9   6   9  ar  
 10   6  31  1   
 11   7  10  ar  
 12   7  32  1   
 13   8  33  1   
 14   8  34  1   
 15   9  11  ar  
 16   9  35  1   
 17  10  11  ar  
 18  10  36  1   
 19  11  12  1   
 20  12  13  1   
 21  12  37  1   
 22  13  14  ar  
 23  13  15  ar  
 24  14  16  ar  
 25  15  17  ar  
 26  16  18  1   
 27  16  19  ar  
 28  17  19  ar  
 29  17  20  1   
 30  18  21  1   
 31  19  22  1   
 32  20  23  1   
 33  20  38  1   
 34  21  24  1   
 35  21  39  1   
 36  21  40  1   
 37  22  23  2   
 38  23  41  1   
 39  24  25  1   
 40  24  26  1   
 41  24  42  1   
 42  25  27  1   
 43  25  43  1   
 44  25  44  1   
 45  26  28  1   
 46  26  45  1   
 47  26  46  1   
 48  27  29  1   
 49  27  47  1   
 50  27  48  1   
 51  28  29  1   
 52  28  49  1   
 53  28  50  1   
 54  29  51  1   
 55  29  52  1   
@<TRIPOS>SUBSTRUCTURE
  1 ****  14 GROUP 4 **** **** 0

# MOE 2024.06 (io_trps.svl 2023.06)
