@<TRIPOS>MOLECULE
NONAME
37 39 1 0 0 
SMALL
USER_CHARGES


@<TRIPOS>ATOM
  1 CL       0.6600     0.9290    -0.6200 Cl    1 <1>  -0.1770 
  2 C       -0.1830     2.3920    -0.1710 C.ar  1 <1>   0.1770 
  3 C       -1.3100     2.7650    -0.8650 C.ar  1 <1>  -0.1500 
  4 C        0.3200     3.1480     0.8930 C.ar  1 <1>  -0.1500 
  5 C       -1.9580     3.9360    -0.4820 C.ar  1 <1>   0.2270 
  6 C       -0.3200     4.3070     1.2740 C.ar  1 <1>  -0.1500 
  7 N       -3.0750     4.5160    -1.0040 N.2   1 <1>  -0.5650 
  8 C       -1.4660     4.6890     0.5710 C.ar  1 <1>  -0.1520 
  9 C       -3.2470     5.5770    -0.2900 C.2   1 <1>   0.0060 
 10 N       -2.3130     5.7430     0.6780 N.pl3 1 <1>   0.0330 
 11 C       -4.3660     6.5920    -0.4730 C.3   1 <1>   0.3700 
 12 N       -3.9110     7.9590    -0.1820 N.3   1 <1>  -0.8100 
 13 C       -5.5270     6.3720     0.4930 C.3   1 <1>  -0.1600 
 14 C       -5.1360     8.7220     0.0540 C.3   1 <1>   0.1100 
 15 C       -3.1120     8.5150    -1.3200 C.3   1 <1>   0.1710 
 16 C       -6.0410     7.7720     0.8290 C.3   1 <1>  -0.1600 
 17 C       -2.4410     9.8630    -1.0380 C.2   1 <1>   0.5690 
 18 O       -2.1150    10.5640    -1.9660 O.2   1 <1>  -0.5700 
 19 N       -2.2300    10.2250     0.2550 N.am  1 <1>  -0.7300 
 20 C       -1.5930    11.4810     0.7220 C.3   1 <1>   0.0600 
 21 H       -1.6960     2.1860    -1.6810 H     1 <1>   0.1500 
 22 H        1.2050     2.8080     1.4000 H     1 <1>   0.1500 
 23 H        0.0460     4.9080     2.0890 H     1 <1>   0.1500 
 24 H       -2.2620     6.5440     1.3120 H     1 <1>   0.2700 
 25 H       -4.7370     6.5390    -1.4840 H     1 <1>   0.0800 
 26 H       -5.1830     5.8780     1.3840 H     1 <1>   0.0800 
 27 H       -6.2820     5.7610     0.0310 H     1 <1>   0.0800 
 28 H       -5.6030     8.9760    -0.8840 H     1 <1>   0.0800 
 29 H       -4.9380     9.6250     0.6080 H     1 <1>   0.0800 
 30 H       -3.7380     8.6240    -2.1890 H     1 <1>   0.0800 
 31 H       -2.3280     7.8230    -1.5730 H     1 <1>   0.0800 
 32 H       -5.9470     7.9600     1.8850 H     1 <1>   0.0800 
 33 H       -7.0690     7.9050     0.5410 H     1 <1>   0.0800 
 34 H       -2.6080     9.5890     0.9640 H     1 <1>   0.3700 
 35 H       -1.2600    12.0640    -0.1200 H     1 <1>   0.0800 
 36 H       -0.7440    11.2500     1.3420 H     1 <1>   0.0800 
 37 H       -2.3010    12.0600     1.2880 H     1 <1>   0.0800 
@<TRIPOS>BOND
  1   1   2  1   
  2   2   3  ar  
  3   2   4  ar  
  4   3   5  ar  
  5   3  21  1   
  6   4   6  ar  
  7   4  22  1   
  8   5   7  1   
  9   5   8  ar  
 10   6   8  ar  
 11   6  23  1   
 12   7   9  2   
 13   8  10  1   
 14   9  10  1   
 15   9  11  1   
 16  10  24  1   
 17  11  12  1   
 18  11  13  1   
 19  11  25  1   
 20  12  14  1   
 21  12  15  1   
 22  13  16  1   
 23  13  26  1   
 24  13  27  1   
 25  14  16  1   
 26  14  28  1   
 27  14  29  1   
 28  15  17  1   
 29  15  30  1   
 30  15  31  1   
 31  16  32  1   
 32  16  33  1   
 33  17  18  2   
 34  17  19  am  
 35  19  20  1   
 36  19  34  1   
 37  20  35  1   
 38  20  36  1   
 39  20  37  1   
@<TRIPOS>SUBSTRUCTURE
  1 ****  10 GROUP 4 **** **** 0

# MOE 2024.06 (io_trps.svl 2023.06)
