@<TRIPOS>MOLECULE
NONAME
50 52 1 0 0 
SMALL
USER_CHARGES


@<TRIPOS>ATOM
  1 S        0.4800     0.0000    -0.5310 S.o2  1 <1>   1.3330 
  2 O        0.2070    -0.0030    -1.9510 O.2   1 <1>  -0.6500 
  3 O        1.8480     0.0140    -0.0630 O.2   1 <1>  -0.6500 
  4 N       -0.2920    -1.3420     0.1620 N.am  1 <1>  -0.8490 
  5 C       -0.4000     1.3850     0.1840 C.3   1 <1>  -0.0550 
  6 C        0.1890    -1.6590     1.5110 C.3   1 <1>   0.1160 
  7 C       -0.2030    -2.5320    -0.6890 C.3   1 <1>   0.1160 
  8 C        0.0400     2.7480    -0.3860 C.3   1 <1>  -0.0800 
  9 C       -0.8000     3.9310     0.0990 C.3   1 <1>   0.2000 
 10 C        1.4850     3.1420    -0.0430 C.3   1 <1>   0.1400 
 11 O       -0.9860     3.8240     1.4690 O.3   1 <1>  -0.6800 
 12 C        0.0950     5.1390    -0.1620 C.3   1 <1>   0.1400 
 13 N        1.4710     4.6250     0.0600 N.am  1 <1>  -0.6600 
 14 C        2.6210     5.3810     0.0010 C.2   1 <1>   0.5440 
 15 O        3.6880     4.8060    -0.0960 O.2   1 <1>  -0.5700 
 16 C        2.5900     6.8280     0.0330 C.ar  1 <1>   0.0860 
 17 C        3.2120     7.5760    -0.9660 C.ar  1 <1>  -0.1500 
 18 C        1.9560     7.5350     1.0540 C.ar  1 <1>  -0.1500 
 19 C        3.1870     8.9570    -0.9570 C.ar  1 <1>  -0.1500 
 20 C        1.9280     8.9160     1.0650 C.ar  1 <1>  -0.1500 
 21 C        2.5430     9.6580     0.0600 C.ar  1 <1>   0.1170 
 22 N        2.5300    11.0600     0.0740 N.am  1 <1>  -0.4770 
 23 C        1.6040    11.9280     0.6100 C.2   1 <1>   0.6900 
 24 C        3.6880    11.8770    -0.3970 C.3   1 <1>   0.2010 
 25 O        0.5320    11.6330     1.0890 O.2   1 <1>  -0.5700 
 26 N        2.0310    13.2070     0.5420 N.am  1 <1>  -0.4900 
 27 C        3.2470    13.2790    -0.0280 C.2   1 <1>   0.5690 
 28 O        3.8760    14.2870    -0.2160 O.2   1 <1>  -0.5700 
 29 H       -1.4480     1.2590    -0.0090 H     1 <1>   0.0800 
 30 H       -0.2650     1.3790     1.2480 H     1 <1>   0.0800 
 31 H       -0.3920    -2.4610     1.9320 H     1 <1>   0.0800 
 32 H        0.0940    -0.7990     2.1520 H     1 <1>   0.0800 
 33 H        1.2260    -1.9550     1.4820 H     1 <1>   0.0800 
 34 H       -0.7160    -3.3590    -0.2310 H     1 <1>   0.0800 
 35 H        0.8280    -2.7990    -0.8530 H     1 <1>   0.0800 
 36 H       -0.6650    -2.3380    -1.6430 H     1 <1>   0.0800 
 37 H       -0.0370     2.7100    -1.4600 H     1 <1>   0.0800 
 38 H       -1.7640     4.0020    -0.3770 H     1 <1>   0.0800 
 39 H        2.1740     2.8150    -0.8050 H     1 <1>   0.0800 
 40 H        1.7900     2.7290     0.9040 H     1 <1>   0.0800 
 41 H       -0.1200     3.9510     1.9080 H     1 <1>   0.4000 
 42 H       -0.1520     5.9580     0.4910 H     1 <1>   0.0800 
 43 H       -0.0010     5.4540    -1.1870 H     1 <1>   0.0800 
 44 H        3.7220     7.0510    -1.7560 H     1 <1>   0.1500 
 45 H        1.4850     6.9880     1.8520 H     1 <1>   0.1500 
 46 H        3.6710     9.4880    -1.7550 H     1 <1>   0.1500 
 47 H        1.4270     9.4240     1.8700 H     1 <1>   0.1500 
 48 H        4.5870    11.6070     0.1270 H     1 <1>   0.0800 
 49 H        3.8160    11.7930    -1.4610 H     1 <1>   0.0800 
 50 H        1.4910    13.9950     0.8830 H     1 <1>   0.3700 
@<TRIPOS>BOND
  1   1   2  2   
  2   1   3  2   
  3   1   4  am  
  4   1   5  1   
  5   4   6  1   
  6   4   7  1   
  7   5   8  1   
  8   5  29  1   
  9   5  30  1   
 10   6  31  1   
 11   6  32  1   
 12   6  33  1   
 13   7  34  1   
 14   7  35  1   
 15   7  36  1   
 16   8   9  1   
 17   8  10  1   
 18   8  37  1   
 19   9  11  1   
 20   9  12  1   
 21   9  38  1   
 22  10  13  1   
 23  10  39  1   
 24  10  40  1   
 25  11  41  1   
 26  12  13  1   
 27  12  42  1   
 28  12  43  1   
 29  13  14  am  
 30  14  15  2   
 31  14  16  1   
 32  16  17  ar  
 33  16  18  ar  
 34  17  19  ar  
 35  17  44  1   
 36  18  20  ar  
 37  18  45  1   
 38  19  21  ar  
 39  19  46  1   
 40  20  21  ar  
 41  20  47  1   
 42  21  22  1   
 43  22  23  am  
 44  22  24  1   
 45  23  25  2   
 46  23  26  am  
 47  24  27  1   
 48  24  48  1   
 49  24  49  1   
 50  26  27  am  
 51  26  50  1   
 52  27  28  2   
@<TRIPOS>SUBSTRUCTURE
  1 ****  14 GROUP 4 **** **** 0

# MOE 2024.06 (io_trps.svl 2023.06)
