@<TRIPOS>MOLECULE
NONAME
50 53 1 0 0 
SMALL
USER_CHARGES


@<TRIPOS>ATOM
  1 O       -1.0210     0.8790    -0.9310 O.2   1 <1>  -0.5700 
  2 C       -0.9960     2.0880    -0.9490 C.2   1 <1>   0.5690 
  3 N       -1.4300     2.8670     0.0910 N.am  1 <1>  -0.5090 
  4 C       -0.4710     2.7820    -2.2010 C.3   1 <1>   0.1810 
  5 C       -1.5680     4.3490    -0.0680 C.3   1 <1>   0.3640 
  6 C       -1.9330     2.3070     1.3680 C.3   1 <1>   0.0490 
  7 O        0.1050     4.0230    -1.8890 O.3   1 <1>  -0.5600 
  8 C       -3.0420     4.7550    -0.1600 C.ar  1 <1>  -0.1440 
  9 C       -0.7870     4.9380    -1.2720 C.3   1 <1>   0.2610 
 10 C       -1.2700     2.7210     2.6450 C.3   1 <1>  -0.2000 
 11 C       -1.0900     1.3310     2.1260 C.3   1 <1>  -0.2000 
 12 C       -4.0020     3.9420    -0.7540 C.ar  1 <1>  -0.1500 
 13 C       -3.4320     5.9860     0.3500 C.ar  1 <1>  -0.1500 
 14 C       -0.0690     6.2100    -0.8020 C.2   1 <1>   0.5690 
 15 C       -5.3210     4.3520    -0.8260 C.ar  1 <1>  -0.1500 
 16 C       -4.7510     6.3980     0.2780 C.ar  1 <1>  -0.1500 
 17 O       -0.5960     7.2630    -1.0820 O.2   1 <1>  -0.5700 
 18 N        1.0850     6.1810    -0.0480 N.am  1 <1>  -0.6600 
 19 C       -5.7070     5.5780    -0.3130 C.ar  1 <1>   0.0820 
 20 C        1.7980     7.4400     0.3290 C.3   1 <1>   0.1400 
 21 C        1.8250     4.9500     0.3770 C.3   1 <1>   0.1400 
 22 O       -7.0180     5.9040    -0.4260 O.3   1 <1>  -0.3620 
 23 C        2.2360     7.4020     1.8020 C.3   1 <1>   0.1200 
 24 C        2.2740     5.0550     1.8440 C.3   1 <1>   0.1200 
 25 C       -7.5070     7.1430     0.0380 C.3   1 <1>   0.0400 
 26 O        2.9750     6.2440     2.0680 O.3   1 <1>  -0.5600 
 27 H       -1.2700     2.9340    -2.9050 H     1 <1>   0.0800 
 28 H        0.2880     2.1720    -2.6570 H     1 <1>   0.0800 
 29 H       -1.1730     4.7950     0.8280 H     1 <1>   0.0800 
 30 H       -3.0010     2.1590     1.3640 H     1 <1>   0.1000 
 31 H       -1.4920     5.2330    -2.0300 H     1 <1>   0.0800 
 32 H       -0.4190     3.3760     2.6240 H     1 <1>   0.1000 
 33 H       -1.8780     2.8570     3.5230 H     1 <1>   0.1000 
 34 H       -1.5820     0.5210     2.6350 H     1 <1>   0.1000 
 35 H       -0.1440     1.0380     1.7040 H     1 <1>   0.1000 
 36 H       -3.7400     2.9820    -1.1630 H     1 <1>   0.1500 
 37 H       -2.7090     6.6430     0.8040 H     1 <1>   0.1500 
 38 H       -6.0630     3.7210    -1.2810 H     1 <1>   0.1500 
 39 H       -5.0130     7.3580     0.6820 H     1 <1>   0.1500 
 40 H        2.6670     7.5520    -0.2940 H     1 <1>   0.0800 
 41 H        1.1670     8.2970     0.1730 H     1 <1>   0.0800 
 42 H        1.2170     4.0710     0.2730 H     1 <1>   0.0800 
 43 H        2.6910     4.8270    -0.2490 H     1 <1>   0.0800 
 44 H        1.3790     7.4230     2.4530 H     1 <1>   0.0800 
 45 H        2.8600     8.2480     2.0240 H     1 <1>   0.0800 
 46 H        2.9270     4.2380     2.0910 H     1 <1>   0.0800 
 47 H        1.4250     5.0300     2.5050 H     1 <1>   0.0800 
 48 H       -8.5630     7.1820    -0.1640 H     1 <1>   0.0800 
 49 H       -7.0050     7.9350    -0.4880 H     1 <1>   0.0800 
 50 H       -7.3350     7.2120     1.0970 H     1 <1>   0.0800 
@<TRIPOS>BOND
  1   1   2  2   
  2   2   3  am  
  3   2   4  1   
  4   3   5  1   
  5   3   6  1   
  6   4   7  1   
  7   4  27  1   
  8   4  28  1   
  9   5   8  1   
 10   5   9  1   
 11   5  29  1   
 12   6  10  1   
 13   6  11  1   
 14   6  30  1   
 15   7   9  1   
 16   8  12  ar  
 17   8  13  ar  
 18   9  14  1   
 19   9  31  1   
 20  10  11  1   
 21  10  32  1   
 22  10  33  1   
 23  11  34  1   
 24  11  35  1   
 25  12  15  ar  
 26  12  36  1   
 27  13  16  ar  
 28  13  37  1   
 29  14  17  2   
 30  14  18  am  
 31  15  19  ar  
 32  15  38  1   
 33  16  19  ar  
 34  16  39  1   
 35  18  20  1   
 36  18  21  1   
 37  19  22  1   
 38  20  23  1   
 39  20  40  1   
 40  20  41  1   
 41  21  24  1   
 42  21  42  1   
 43  21  43  1   
 44  22  25  1   
 45  23  26  1   
 46  23  44  1   
 47  23  45  1   
 48  24  26  1   
 49  24  46  1   
 50  24  47  1   
 51  25  48  1   
 52  25  49  1   
 53  25  50  1   
@<TRIPOS>SUBSTRUCTURE
  1 ****   5 GROUP 4 **** **** 0

# MOE 2024.06 (io_trps.svl 2023.06)
