@<TRIPOS>MOLECULE
NONAME
44 46 1 0 0 
SMALL
USER_CHARGES


@<TRIPOS>ATOM
  1 O        0.2660     1.2660    -0.0790 O.2   1 <1>  -0.5700 
  2 C       -0.0190     2.4280    -0.2240 C.2   1 <1>   0.5690 
  3 N       -0.9150     3.0270     0.5870 N.am  1 <1>  -0.7300 
  4 C        0.6020     3.2400    -1.3590 C.3   1 <1>   0.1810 
  5 C       -1.4010     4.4180     0.4000 C.3   1 <1>   0.3640 
  6 O        0.5700     4.6240    -1.0970 O.3   1 <1>  -0.5600 
  7 C       -2.9190     4.3620     0.2280 C.ar  1 <1>  -0.1440 
  8 C       -0.7230     5.1490    -0.7960 C.3   1 <1>   0.2610 
  9 C       -3.7260     5.2590     0.9150 C.ar  1 <1>  -0.1500 
 10 C       -3.5190     3.4280    -0.6080 C.ar  1 <1>  -0.1500 
 11 C       -0.6210     6.6500    -0.4940 C.2   1 <1>   0.5690 
 12 C       -5.1020     5.2230     0.7730 C.ar  1 <1>  -0.1500 
 13 C       -4.8950     3.3890    -0.7510 C.ar  1 <1>  -0.1500 
 14 O       -1.6130     7.2720    -0.1990 O.2   1 <1>  -0.5700 
 15 N        0.5980     7.2490    -0.5570 N.am  1 <1>  -0.7300 
 16 C       -5.6880     4.2870    -0.0600 C.ar  1 <1>  -0.1500 
 17 C        0.8910     8.6670    -0.3060 C.3   1 <1>   0.2200 
 18 C        1.5120     9.2740    -1.5680 C.3   1 <1>  -0.1600 
 19 C        1.8430     8.7720     0.8890 C.3   1 <1>  -0.1600 
 20 C        1.9410    10.7300    -1.3310 C.3   1 <1>  -0.1600 
 21 C        2.2730    10.2260     1.1310 C.3   1 <1>  -0.1600 
 22 C        2.8930    10.8390    -0.1320 C.3   1 <1>  -0.1600 
 23 H       -1.3800     2.4670     1.3020 H     1 <1>   0.3700 
 24 H        0.0730     3.0500    -2.2740 H     1 <1>   0.0800 
 25 H        1.6300     2.9510    -1.4820 H     1 <1>   0.0800 
 26 H       -1.1750     4.9640     1.3000 H     1 <1>   0.0800 
 27 H       -1.3300     5.0320    -1.6740 H     1 <1>   0.0800 
 28 H       -3.2880     6.0020     1.5600 H     1 <1>   0.1500 
 29 H       -2.9220     2.7180    -1.1540 H     1 <1>   0.1500 
 30 H       -5.7150     5.9260     1.3080 H     1 <1>   0.1500 
 31 H       -5.3500     2.6610    -1.3990 H     1 <1>   0.1500 
 32 H        1.3940     6.6590    -0.8120 H     1 <1>   0.3700 
 33 H       -6.7580     4.2590    -0.1700 H     1 <1>   0.1500 
 34 H       -0.0230     9.1920    -0.0760 H     1 <1>   0.0800 
 35 H        2.3740     8.6990    -1.8580 H     1 <1>   0.0800 
 36 H        0.7930     9.2420    -2.3680 H     1 <1>   0.0800 
 37 H        1.3500     8.3960     1.7690 H     1 <1>   0.0800 
 38 H        2.7190     8.1750     0.7060 H     1 <1>   0.0800 
 39 H        2.4260    11.1120    -2.2130 H     1 <1>   0.0800 
 40 H        1.0680    11.3320    -1.1480 H     1 <1>   0.0800 
 41 H        1.4140    10.8070     1.4230 H     1 <1>   0.0800 
 42 H        2.9850    10.2630     1.9380 H     1 <1>   0.0800 
 43 H        3.1280    11.8740     0.0480 H     1 <1>   0.0800 
 44 H        3.8140    10.3290    -0.3600 H     1 <1>   0.0800 
@<TRIPOS>BOND
  1   1   2  2   
  2   2   3  am  
  3   2   4  1   
  4   3   5  1   
  5   3  23  1   
  6   4   6  1   
  7   4  24  1   
  8   4  25  1   
  9   5   7  1   
 10   5   8  1   
 11   5  26  1   
 12   6   8  1   
 13   7   9  ar  
 14   7  10  ar  
 15   8  11  1   
 16   8  27  1   
 17   9  12  ar  
 18   9  28  1   
 19  10  13  ar  
 20  10  29  1   
 21  11  14  2   
 22  11  15  am  
 23  12  16  ar  
 24  12  30  1   
 25  13  16  ar  
 26  13  31  1   
 27  15  17  1   
 28  15  32  1   
 29  16  33  1   
 30  17  18  1   
 31  17  19  1   
 32  17  34  1   
 33  18  20  1   
 34  18  35  1   
 35  18  36  1   
 36  19  21  1   
 37  19  37  1   
 38  19  38  1   
 39  20  22  1   
 40  20  39  1   
 41  20  40  1   
 42  21  22  1   
 43  21  41  1   
 44  21  42  1   
 45  22  43  1   
 46  22  44  1   
@<TRIPOS>SUBSTRUCTURE
  1 ****  11 GROUP 4 **** **** 0

# MOE 2024.06 (io_trps.svl 2023.06)
