@<TRIPOS>MOLECULE
NONAME
41 41 1 0 0 
SMALL
USER_CHARGES


@<TRIPOS>ATOM
  1 O       -1.1960     0.0270    -2.2430 O.2   1 <1>  -0.5700 
  2 C       -1.5910    -0.6720    -1.3420 C.2   1 <1>   0.6590 
  3 O       -2.0690    -0.1870    -0.1990 O.3   1 <1>  -0.4300 
  4 C       -1.5710    -2.2150    -1.4430 C.3   1 <1>   0.2510 
  5 C       -2.1960     1.1650     0.1800 C.3   1 <1>   0.2800 
  6 N       -1.4590    -2.7320    -2.8250 N.3   1 <1>  -0.9900 
  7 C       -0.4170    -2.7940    -0.6040 C.3   1 <1>  -0.1600 
  8 C       -2.7960     1.1370     1.5860 C.3   1 <1>  -0.2400 
  9 C       -0.8140     1.8270     0.2270 C.3   1 <1>  -0.2400 
 10 C       -3.1560     1.8890    -0.7710 C.3   1 <1>  -0.2400 
 11 C       -0.3500    -4.3350    -0.5340 C.3   1 <1>  -0.0800 
 12 C       -1.6080    -4.9400     0.1190 C.3   1 <1>  -0.1600 
 13 C        0.9110    -4.7610     0.2400 C.3   1 <1>  -0.1600 
 14 C       -1.5010    -6.4650     0.2520 C.3   1 <1>  -0.1600 
 15 C        1.0150    -6.2870     0.3640 C.3   1 <1>  -0.1600 
 16 C       -0.2390    -6.8730     1.0210 C.3   1 <1>  -0.1600 
 17 H       -2.5040    -2.5590    -1.0350 H     1 <1>   0.0800 
 18 H       -0.5830    -2.3630    -3.2130 H     1 <1>   0.3600 
 19 H       -2.2010    -2.2990    -3.3860 H     1 <1>   0.3600 
 20 H        0.5080    -2.4180    -1.0060 H     1 <1>   0.0800 
 21 H       -0.5030    -2.4110     0.3980 H     1 <1>   0.0800 
 22 H       -2.9290     2.1380     1.9550 H     1 <1>   0.0800 
 23 H       -2.1450     0.6110     2.2600 H     1 <1>   0.0800 
 24 H       -3.7550     0.6520     1.5730 H     1 <1>   0.0800 
 25 H       -0.8970     2.8180     0.6330 H     1 <1>   0.0800 
 26 H       -0.3920     1.9140    -0.7570 H     1 <1>   0.0800 
 27 H       -0.1480     1.2590     0.8500 H     1 <1>   0.0800 
 28 H       -3.3470     2.8830    -0.4110 H     1 <1>   0.0800 
 29 H       -4.0910     1.3630    -0.8320 H     1 <1>   0.0800 
 30 H       -2.7330     1.9770    -1.7550 H     1 <1>   0.0800 
 31 H       -0.2700    -4.7240    -1.5360 H     1 <1>   0.0800 
 32 H       -1.7510    -4.5100     1.0960 H     1 <1>   0.0800 
 33 H       -2.4750    -4.7140    -0.4760 H     1 <1>   0.0800 
 34 H        1.7870    -4.3900    -0.2640 H     1 <1>   0.0800 
 35 H        0.8900    -4.3310     1.2270 H     1 <1>   0.0800 
 36 H       -2.3710    -6.8450     0.7590 H     1 <1>   0.0800 
 37 H       -1.4750    -6.9040    -0.7310 H     1 <1>   0.0800 
 38 H        1.1370    -6.7150    -0.6170 H     1 <1>   0.0800 
 39 H        1.8820    -6.5430     0.9470 H     1 <1>   0.0800 
 40 H       -0.1650    -7.9460     1.0490 H     1 <1>   0.0800 
 41 H       -0.3100    -6.5190     2.0360 H     1 <1>   0.0800 
@<TRIPOS>BOND
  1   1   2  2   
  2   2   3  1   
  3   2   4  1   
  4   3   5  1   
  5   4   6  1   
  6   4   7  1   
  7   4  17  1   
  8   5   8  1   
  9   5   9  1   
 10   5  10  1   
 11   6  18  1   
 12   6  19  1   
 13   7  11  1   
 14   7  20  1   
 15   7  21  1   
 16   8  22  1   
 17   8  23  1   
 18   8  24  1   
 19   9  25  1   
 20   9  26  1   
 21   9  27  1   
 22  10  28  1   
 23  10  29  1   
 24  10  30  1   
 25  11  12  1   
 26  11  13  1   
 27  11  31  1   
 28  12  14  1   
 29  12  32  1   
 30  12  33  1   
 31  13  15  1   
 32  13  34  1   
 33  13  35  1   
 34  14  16  1   
 35  14  36  1   
 36  14  37  1   
 37  15  16  1   
 38  15  38  1   
 39  15  39  1   
 40  16  40  1   
 41  16  41  1   
@<TRIPOS>SUBSTRUCTURE
  1 ****   7 GROUP 4 **** **** 0

# MOE 2024.06 (io_trps.svl 2023.06)
