@<TRIPOS>MOLECULE
NONAME
47 49 1 0 0 
SMALL
USER_CHARGES


@<TRIPOS>ATOM
  1 CL       0.2860     1.0880    -0.8520 Cl    1 <1>  -0.1770 
  2 C        1.7940     1.3920    -0.0100 C.ar  1 <1>   0.1770 
  3 C        2.7220     0.3940     0.3220 C.ar  1 <1>   0.0820 
  4 C        2.0360     2.7160     0.3030 C.ar  1 <1>  -0.1500 
  5 O        2.6280    -0.9390     0.0860 O.3   1 <1>  -0.3630 
  6 C        3.8860     0.7820     0.9680 C.ar  1 <1>  -0.1500 
  7 C        3.2080     3.1030     0.9470 C.ar  1 <1>   0.0860 
  8 C        1.4460    -1.6010    -0.2950 C.3   1 <1>   0.1200 
  9 C        4.1250     2.1080     1.2770 C.ar  1 <1>  -0.1500 
 10 C        3.4810     4.4910     1.2450 C.2   1 <1>   0.5440 
 11 C        1.6950    -3.1030    -0.1920 C.3   1 <1>  -0.2400 
 12 O        3.3170     4.8970     2.3800 O.2   1 <1>  -0.5700 
 13 N        3.9550     5.3710     0.2840 N.am  1 <1>  -0.6600 
 14 C        4.2970     6.7720     0.6930 C.3   1 <1>   0.1400 
 15 C        4.4540     4.8920    -1.0450 C.3   1 <1>   0.1400 
 16 C        5.8090     6.9880     0.9730 C.3   1 <1>   0.4230 
 17 C        5.9440     5.1960    -1.3190 C.3   1 <1>  -0.0800 
 18 N        6.5880     7.4020    -0.2520 N.4   1 <1>  -0.9590 
 19 C        6.5200     5.7980     1.6770 C.3   1 <1>   0.1200 
 20 C        6.9540     4.5240    -0.3620 C.3   1 <1>   0.1200 
 21 C        6.1870     6.6960    -1.5050 C.3   1 <1>   0.3430 
 22 C        6.5510     8.8840    -0.4500 C.3   1 <1>   0.2630 
 23 O        6.5540     4.5810     0.9700 O.3   1 <1>  -0.5600 
 24 H        1.3070     3.4620     0.0430 H     1 <1>   0.1500 
 25 H        4.6080     0.0290     1.2330 H     1 <1>   0.1500 
 26 H        0.6540    -1.3030     0.3700 H     1 <1>   0.0800 
 27 H        1.2140    -1.3290    -1.3100 H     1 <1>   0.0800 
 28 H        5.0340     2.3880     1.7830 H     1 <1>   0.1500 
 29 H        1.9450    -3.3670     0.8200 H     1 <1>   0.0800 
 30 H        2.4980    -3.3900    -0.8470 H     1 <1>   0.0800 
 31 H        0.8090    -3.6390    -0.4790 H     1 <1>   0.0800 
 32 H        3.9500     7.4600    -0.0550 H     1 <1>   0.0800 
 33 H        3.7620     7.0210     1.5930 H     1 <1>   0.0800 
 34 H        4.3170     3.8280    -1.1310 H     1 <1>   0.0800 
 35 H        3.8470     5.3420    -1.8120 H     1 <1>   0.0800 
 36 H        5.8630     7.8080     1.6690 H     1 <1>   0.0800 
 37 H        6.1380     4.7700    -2.2880 H     1 <1>   0.0800 
 38 H        7.5610     7.1290    -0.0570 H     1 <1>   0.4500 
 39 H        6.0060     5.5930     2.6010 H     1 <1>   0.0800 
 40 H        7.5320     6.0630     1.9230 H     1 <1>   0.0800 
 41 H        7.9420     4.9420    -0.4500 H     1 <1>   0.0800 
 42 H        7.0180     3.4770    -0.6060 H     1 <1>   0.0800 
 43 H        5.2890     7.1420    -1.9030 H     1 <1>   0.0800 
 44 H        6.9660     6.8300    -2.2390 H     1 <1>   0.0800 
 45 H        5.5430     9.2130    -0.6490 H     1 <1>   0.0800 
 46 H        7.1750     9.1670    -1.2820 H     1 <1>   0.0800 
 47 H        6.9100     9.3900     0.4320 H     1 <1>   0.0800 
@<TRIPOS>BOND
  1   1   2  1   
  2   2   3  ar  
  3   2   4  ar  
  4   3   5  1   
  5   3   6  ar  
  6   4   7  ar  
  7   4  24  1   
  8   5   8  1   
  9   6   9  ar  
 10   6  25  1   
 11   7   9  ar  
 12   7  10  1   
 13   8  11  1   
 14   8  26  1   
 15   8  27  1   
 16   9  28  1   
 17  10  12  2   
 18  10  13  am  
 19  11  29  1   
 20  11  30  1   
 21  11  31  1   
 22  13  14  1   
 23  13  15  1   
 24  14  16  1   
 25  14  32  1   
 26  14  33  1   
 27  15  17  1   
 28  15  34  1   
 29  15  35  1   
 30  16  18  1   
 31  16  19  1   
 32  16  36  1   
 33  17  20  1   
 34  17  21  1   
 35  17  37  1   
 36  18  21  1   
 37  18  22  1   
 38  18  38  1   
 39  19  23  1   
 40  19  39  1   
 41  19  40  1   
 42  20  23  1   
 43  20  41  1   
 44  20  42  1   
 45  21  43  1   
 46  21  44  1   
 47  22  45  1   
 48  22  46  1   
 49  22  47  1   
@<TRIPOS>SUBSTRUCTURE
  1 ****   7 GROUP 4 **** **** 0

# MOE 2024.06 (io_trps.svl 2023.06)
