@<TRIPOS>MOLECULE
NONAME
44 45 1 0 0 
SMALL
USER_CHARGES


@<TRIPOS>ATOM
  1 O       -0.3970    -2.5780     0.8950 O.2   1 <1>  -0.5700 
  2 C        0.5750    -2.1790     0.2780 C.2   1 <1>   0.6900 
  3 N        1.8090    -2.1060     0.8690 N.am  1 <1>  -0.6600 
  4 N        0.4470    -1.8560    -1.0310 N.am  1 <1>  -0.7300 
  5 C        2.0600    -2.7230     2.2010 C.3   1 <1>   0.0600 
  6 C        2.9470    -1.3170     0.3230 C.3   1 <1>   0.0600 
  7 C       -0.8130    -2.0420    -1.8200 C.3   1 <1>   0.2010 
  8 C       -1.1140    -3.5070    -2.1500 C.2   1 <1>   0.5690 
  9 O       -1.2580    -3.8410    -3.3020 O.2   1 <1>  -0.5700 
 10 N       -1.2010    -4.3940    -1.1290 N.am  1 <1>  -0.7300 
 11 C       -1.3870    -5.8540    -1.2460 C.3   1 <1>   0.2200 
 12 C       -2.4830    -6.2930    -0.2900 C.3   1 <1>  -0.0800 
 13 C       -0.1530    -6.5800    -0.7010 C.3   1 <1>   0.1200 
 14 C       -1.6910    -6.4760     1.0040 C.3   1 <1>   0.1200 
 15 C       -3.1420    -7.6040    -0.7600 C.3   1 <1>  -0.0170 
 16 O       -0.4400    -6.9550     0.6170 O.3   1 <1>  -0.5600 
 17 C       -4.2360    -8.0580     0.1940 C.ar  1 <1>  -0.1440 
 18 C       -5.4810    -7.4620     0.2100 C.ar  1 <1>  -0.1500 
 19 C       -4.0430    -9.0900     1.0910 C.ar  1 <1>  -0.1500 
 20 C       -6.4440    -7.9130     1.0980 C.ar  1 <1>   0.1600 
 21 C       -5.0730    -9.4640     1.9370 C.ar  1 <1>   0.1600 
 22 N       -6.2700    -8.9000     1.9620 N.ar  1 <1>  -0.6200 
 23 H        1.3080    -1.8400    -1.5710 H     1 <1>   0.3700 
 24 H        3.0030    -3.2400     2.1940 H     1 <1>   0.0800 
 25 H        1.2860    -3.4310     2.4450 H     1 <1>   0.0800 
 26 H        2.0780    -1.9570     2.9570 H     1 <1>   0.0800 
 27 H        3.4360    -0.7840     1.1200 H     1 <1>   0.0800 
 28 H        2.6020    -0.5980    -0.3990 H     1 <1>   0.0800 
 29 H        3.6550    -1.9790    -0.1440 H     1 <1>   0.0800 
 30 H       -1.6400    -1.6480    -1.2570 H     1 <1>   0.0800 
 31 H       -0.7410    -1.4870    -2.7370 H     1 <1>   0.0800 
 32 H       -0.9920    -4.0380    -0.1820 H     1 <1>   0.3700 
 33 H       -1.5870    -6.1190    -2.2710 H     1 <1>   0.0800 
 34 H       -3.2390    -5.5360    -0.1800 H     1 <1>   0.0800 
 35 H        0.7230    -5.9550    -0.7100 H     1 <1>   0.0800 
 36 H        0.0350    -7.4800    -1.2580 H     1 <1>   0.0800 
 37 H       -2.1420    -7.1680     1.6920 H     1 <1>   0.0800 
 38 H       -1.5390    -5.5280     1.4940 H     1 <1>   0.0800 
 39 H       -2.4000    -8.3790    -0.8510 H     1 <1>   0.0800 
 40 H       -3.5750    -7.4550    -1.7340 H     1 <1>   0.0800 
 41 H       -5.7100    -6.6530    -0.4580 H     1 <1>   0.1500 
 42 H       -3.1000    -9.6040     1.1400 H     1 <1>   0.1500 
 43 H       -7.4090    -7.4360     1.0960 H     1 <1>   0.1500 
 44 H       -4.9030   -10.2700     2.6300 H     1 <1>   0.1500 
@<TRIPOS>BOND
  1   1   2  2   
  2   2   3  am  
  3   2   4  am  
  4   3   5  1   
  5   3   6  1   
  6   4   7  1   
  7   4  23  1   
  8   5  24  1   
  9   5  25  1   
 10   5  26  1   
 11   6  27  1   
 12   6  28  1   
 13   6  29  1   
 14   7   8  1   
 15   7  30  1   
 16   7  31  1   
 17   8   9  2   
 18   8  10  am  
 19  10  11  1   
 20  10  32  1   
 21  11  12  1   
 22  11  13  1   
 23  11  33  1   
 24  12  14  1   
 25  12  15  1   
 26  12  34  1   
 27  13  16  1   
 28  13  35  1   
 29  13  36  1   
 30  14  16  1   
 31  14  37  1   
 32  14  38  1   
 33  15  17  1   
 34  15  39  1   
 35  15  40  1   
 36  17  18  ar  
 37  17  19  ar  
 38  18  20  ar  
 39  18  41  1   
 40  19  21  ar  
 41  19  42  1   
 42  20  22  ar  
 43  20  43  1   
 44  21  22  ar  
 45  21  44  1   
@<TRIPOS>SUBSTRUCTURE
  1 ****  12 GROUP 4 **** **** 0

# MOE 2024.06 (io_trps.svl 2023.06)
