@<TRIPOS>MOLECULE
NONAME
59 62 1 0 0 
SMALL
USER_CHARGES


@<TRIPOS>ATOM
  1 O       -4.2670     1.1410    -2.2070 O.2   1 <1>  -0.5700 
  2 C       -3.7840     1.3050    -1.1000 C.2   1 <1>   0.5440 
  3 N       -4.0950     0.3770    -0.1360 N.am  1 <1>  -0.6600 
  4 C       -2.9350     2.4510    -0.8280 C.ar  1 <1>   0.0860 
  5 C       -3.0960    -0.6290     0.3600 C.3   1 <1>   0.3640 
  6 C       -5.5020    -0.1120    -0.0450 C.3   1 <1>   0.1400 
  7 C       -2.2670     3.1150    -1.8590 C.ar  1 <1>  -0.1500 
  8 C       -2.7480     2.9480     0.4650 C.ar  1 <1>  -0.1500 
  9 C       -1.6430    -0.1900     0.1510 C.ar  1 <1>  -0.1430 
 10 C       -3.3760    -2.0340    -0.2460 C.3   1 <1>   0.2000 
 11 C       -5.6310    -1.5180    -0.6460 C.3   1 <1>   0.1200 
 12 C       -1.4580     4.2060    -1.6140 C.ar  1 <1>  -0.1500 
 13 C       -1.9420     4.0410     0.7130 C.ar  1 <1>  -0.1500 
 14 C       -1.0660    -0.1620    -1.1140 C.ar  1 <1>  -0.1500 
 15 C       -0.8700     0.1670     1.2480 C.ar  1 <1>  -0.1500 
 16 O       -4.7200    -2.3870    -0.0370 O.3   1 <1>  -0.5600 
 17 C       -2.5170    -3.1480     0.3780 C.3   1 <1>   0.1200 
 18 C       -1.2830     4.6940    -0.3240 C.ar  1 <1>   0.1000 
 19 C        0.2540     0.2140    -1.2770 C.ar  1 <1>  -0.1500 
 20 C        0.4520     0.5410     1.0850 C.ar  1 <1>  -0.1500 
 21 O       -1.2010    -3.0940    -0.0750 O.3   1 <1>  -0.6800 
 22 N       -0.4830     5.8070    -0.1010 N.pl3 1 <1>  -0.8380 
 23 C        1.0150     0.5650    -0.1770 C.ar  1 <1>  -0.1500 
 24 C       -0.7720     7.0850    -0.8150 C.3   1 <1>   0.2090 
 25 C        0.4800     5.8740     1.0390 C.3   1 <1>   0.2090 
 26 C       -1.0920     8.2170     0.1850 C.3   1 <1>   0.3430 
 27 C        0.1330     7.0380     1.9930 C.3   1 <1>   0.3430 
 28 N       -0.0480     8.3530     1.2700 N.4   1 <1>  -0.9590 
 29 C       -0.3960     9.4520     2.2210 C.3   1 <1>   0.2630 
 30 H       -3.2500    -0.7220     1.4210 H     1 <1>   0.0800 
 31 H       -5.8080    -0.1330     0.9860 H     1 <1>   0.0800 
 32 H       -6.1570     0.5610    -0.5710 H     1 <1>   0.0800 
 33 H       -2.3880     2.7570    -2.8670 H     1 <1>   0.1500 
 34 H       -3.2490     2.4630     1.2830 H     1 <1>   0.1500 
 35 H       -3.2080    -2.0230    -1.3080 H     1 <1>   0.0800 
 36 H       -5.4410    -1.4950    -1.7060 H     1 <1>   0.0800 
 37 H       -6.6210    -1.9060    -0.4790 H     1 <1>   0.0800 
 38 H       -0.9490     4.6840    -2.4300 H     1 <1>   0.1500 
 39 H       -1.8320     4.3930     1.7200 H     1 <1>   0.1500 
 40 H       -1.6440    -0.4280    -1.9840 H     1 <1>   0.1500 
 41 H       -1.2900     0.1560     2.2380 H     1 <1>   0.1500 
 42 H       -2.9090    -4.1100     0.0960 H     1 <1>   0.0800 
 43 H       -2.5080    -3.0690     1.4510 H     1 <1>   0.0800 
 44 H        0.6890     0.2350    -2.2610 H     1 <1>   0.1500 
 45 H        1.0440     0.8140     1.9410 H     1 <1>   0.1500 
 46 H       -0.8180    -2.1960     0.0410 H     1 <1>   0.4000 
 47 H        2.0430     0.8570    -0.3060 H     1 <1>   0.1500 
 48 H        0.0790     7.3560    -1.4170 H     1 <1>   0.0800 
 49 H       -1.6120     6.9520    -1.4740 H     1 <1>   0.0800 
 50 H        0.4720     4.9440     1.5810 H     1 <1>   0.0800 
 51 H        1.4730     6.0090     0.6490 H     1 <1>   0.0800 
 52 H       -2.0480     8.0010     0.6330 H     1 <1>   0.0800 
 53 H       -1.1840     9.1440    -0.3550 H     1 <1>   0.0800 
 54 H        0.9140     7.1290     2.7300 H     1 <1>   0.0800 
 55 H       -0.7780     6.7850     2.5080 H     1 <1>   0.0800 
 56 H        0.8460     8.5760     0.8090 H     1 <1>   0.4500 
 57 H       -1.3300     9.2400     2.7140 H     1 <1>   0.0800 
 58 H       -0.4900    10.3880     1.6930 H     1 <1>   0.0800 
 59 H        0.3730     9.5580     2.9690 H     1 <1>   0.0800 
@<TRIPOS>BOND
  1   1   2  2   
  2   2   3  am  
  3   2   4  1   
  4   3   5  1   
  5   3   6  1   
  6   4   7  ar  
  7   4   8  ar  
  8   5   9  1   
  9   5  10  1   
 10   5  30  1   
 11   6  11  1   
 12   6  31  1   
 13   6  32  1   
 14   7  12  ar  
 15   7  33  1   
 16   8  13  ar  
 17   8  34  1   
 18   9  14  ar  
 19   9  15  ar  
 20  10  16  1   
 21  10  17  1   
 22  10  35  1   
 23  11  16  1   
 24  11  36  1   
 25  11  37  1   
 26  12  18  ar  
 27  12  38  1   
 28  13  18  ar  
 29  13  39  1   
 30  14  19  ar  
 31  14  40  1   
 32  15  20  ar  
 33  15  41  1   
 34  17  21  1   
 35  17  42  1   
 36  17  43  1   
 37  18  22  1   
 38  19  23  ar  
 39  19  44  1   
 40  20  23  ar  
 41  20  45  1   
 42  21  46  1   
 43  22  24  1   
 44  22  25  1   
 45  23  47  1   
 46  24  26  1   
 47  24  48  1   
 48  24  49  1   
 49  25  27  1   
 50  25  50  1   
 51  25  51  1   
 52  26  28  1   
 53  26  52  1   
 54  26  53  1   
 55  27  28  1   
 56  27  54  1   
 57  27  55  1   
 58  28  29  1   
 59  28  56  1   
 60  29  57  1   
 61  29  58  1   
 62  29  59  1   
@<TRIPOS>SUBSTRUCTURE
  1 ****   8 GROUP 4 **** **** 0

# MOE 2024.06 (io_trps.svl 2023.06)
