@<TRIPOS>MOLECULE
NONAME
47 51 1 0 0 
SMALL
USER_CHARGES


@<TRIPOS>ATOM
  1 S        0.1040    -0.5430    -0.8490 S.3   1 <1>  -0.0800 
  2 C       -0.3240    -2.0830    -1.6000 C.ar  1 <1>   0.2970 
  3 C       -1.2290    -0.6880     0.2920 C.2   1 <1>  -0.1400 
  4 N        0.3430    -2.5840    -2.6180 N.ar  1 <1>  -0.5670 
  5 C       -1.4180    -2.6430    -0.9820 C.ar  1 <1>   0.0000 
  6 C       -1.9110    -1.8280     0.1060 C.2   1 <1>  -0.1810 
  7 C       -1.4800     0.3980     1.3130 C.3   1 <1>   0.0200 
  8 C       -0.1540    -3.7340    -3.0260 C.ar  1 <1>   0.4700 
  9 C       -1.8300    -3.8620    -1.5290 C.ar  1 <1>   0.4100 
 10 C       -3.1020    -2.1850     0.9820 C.3   1 <1>   0.0210 
 11 C       -2.8780     0.1930     1.9260 C.3   1 <1>  -0.1600 
 12 N       -1.1950    -4.4070    -2.5530 N.ar  1 <1>  -0.6200 
 13 N       -2.9060    -4.5640    -1.0380 N.pl3 1 <1>  -0.8380 
 14 C       -3.1580    -1.2920     2.2390 C.3   1 <1>  -0.1600 
 15 C       -4.0430    -4.8320    -1.9620 C.3   1 <1>   0.2090 
 16 C       -2.6090    -5.7930    -0.2550 C.3   1 <1>   0.2090 
 17 C       -4.3250    -6.3300    -1.8390 C.3   1 <1>   0.2000 
 18 C       -3.8080    -6.7190    -0.4600 C.3   1 <1>  -0.0800 
 19 O       -5.6800    -6.6200    -1.9360 O.3   1 <1>  -0.6800 
 20 C       -3.4730    -8.2170    -0.3530 C.3   1 <1>  -0.0170 
 21 C       -3.0640    -8.6070     1.0600 C.ar  1 <1>   0.1670 
 22 N       -1.8340    -8.2900     1.4310 N.ar  1 <1>  -0.6200 
 23 C       -3.9710    -9.2640     1.8900 C.ar  1 <1>   0.1600 
 24 C       -1.5740    -8.6710     2.6700 C.ar  1 <1>   0.1600 
 25 N       -3.7150    -9.6420     3.1310 N.ar  1 <1>  -0.6200 
 26 C       -2.4830    -9.3250     3.4930 C.ar  1 <1>   0.1600 
 27 H       -0.7260     0.3390     2.0780 H     1 <1>   0.0800 
 28 H       -1.4230     1.3660     0.8470 H     1 <1>   0.0800 
 29 H        0.3540    -4.1920    -3.8580 H     1 <1>   0.1500 
 30 H       -4.0010    -2.0650     0.4030 H     1 <1>   0.0800 
 31 H       -3.0350    -3.2130     1.2890 H     1 <1>   0.0800 
 32 H       -2.9660     0.7820     2.8220 H     1 <1>   0.0800 
 33 H       -3.6170     0.5430     1.2270 H     1 <1>   0.0800 
 34 H       -4.1240    -1.3910     2.7030 H     1 <1>   0.0800 
 35 H       -2.4200    -1.6400     2.9410 H     1 <1>   0.0800 
 36 H       -4.8910    -4.2540    -1.6420 H     1 <1>   0.0800 
 37 H       -3.7900    -4.5760    -2.9760 H     1 <1>   0.0800 
 38 H       -1.7080    -6.2520    -0.6300 H     1 <1>   0.0800 
 39 H       -2.4710    -5.5590     0.7870 H     1 <1>   0.0800 
 40 H       -3.8020    -6.8590    -2.6180 H     1 <1>   0.0800 
 41 H       -4.5410    -6.4590     0.2820 H     1 <1>   0.0800 
 42 H       -6.1820    -6.1230    -1.2620 H     1 <1>   0.4000 
 43 H       -2.6740    -8.4640    -1.0300 H     1 <1>   0.0800 
 44 H       -4.3330    -8.7910    -0.6480 H     1 <1>   0.0800 
 45 H       -4.9540    -9.4870     1.5120 H     1 <1>   0.1500 
 46 H       -0.5930    -8.4550     3.0550 H     1 <1>   0.1500 
 47 H       -2.1790    -9.5950     4.4880 H     1 <1>   0.1500 
@<TRIPOS>BOND
  1   1   2  1   
  2   1   3  1   
  3   2   4  ar  
  4   2   5  ar  
  5   3   6  2   
  6   3   7  1   
  7   4   8  ar  
  8   5   6  1   
  9   5   9  ar  
 10   6  10  1   
 11   7  11  1   
 12   7  27  1   
 13   7  28  1   
 14   8  12  ar  
 15   8  29  1   
 16   9  12  ar  
 17   9  13  1   
 18  10  14  1   
 19  10  30  1   
 20  10  31  1   
 21  11  14  1   
 22  11  32  1   
 23  11  33  1   
 24  13  15  1   
 25  13  16  1   
 26  14  34  1   
 27  14  35  1   
 28  15  17  1   
 29  15  36  1   
 30  15  37  1   
 31  16  18  1   
 32  16  38  1   
 33  16  39  1   
 34  17  18  1   
 35  17  19  1   
 36  17  40  1   
 37  18  20  1   
 38  18  41  1   
 39  19  42  1   
 40  20  21  1   
 41  20  43  1   
 42  20  44  1   
 43  21  22  ar  
 44  21  23  ar  
 45  22  24  ar  
 46  23  25  ar  
 47  23  45  1   
 48  24  26  ar  
 49  24  46  1   
 50  25  26  ar  
 51  26  47  1   
@<TRIPOS>SUBSTRUCTURE
  1 ****  16 GROUP 4 **** **** 0

# MOE 2024.06 (io_trps.svl 2023.06)
