@<TRIPOS>MOLECULE
NONAME
44 45 1 0 0 
SMALL
USER_CHARGES


@<TRIPOS>ATOM
  1 S        0.5250     0.5230    -1.6120 S.o2  1 <1>   1.3330 
  2 O        0.7450    -0.7960    -2.1620 O.2   1 <1>  -0.6500 
  3 O       -0.2280     1.4960    -2.3710 O.2   1 <1>  -0.6500 
  4 N       -0.2660     0.3360    -0.1200 N.am  1 <1>  -0.8490 
  5 C        2.1200     1.2140    -1.1710 C.3   1 <1>  -0.0550 
  6 C       -1.2970    -0.7040    -0.1700 C.3   1 <1>   0.1160 
  7 C       -0.8460     1.5830     0.3910 C.3   1 <1>   0.1160 
  8 C        3.0490     0.2380    -0.4160 C.3   1 <1>  -0.0800 
  9 C        4.4550     0.7600    -0.1690 C.3   1 <1>   0.2200 
 10 C        2.5840    -0.1480     0.9930 C.3   1 <1>   0.1200 
 11 N        4.4220     2.1740     0.2690 N.am  1 <1>  -0.7300 
 12 C        4.8800    -0.1150     1.0020 C.3   1 <1>   0.1200 
 13 O        3.7330    -0.2760     1.7800 O.3   1 <1>  -0.5600 
 14 C        4.6700     3.2740    -0.5040 C.2   1 <1>   0.5440 
 15 O        4.9280     3.0870    -1.6800 O.2   1 <1>  -0.5700 
 16 C        4.5980     4.6210     0.0700 C.ar  1 <1>   0.3960 
 17 N        4.2060     4.7570     1.3520 N.ar  1 <1>  -0.6200 
 18 C        4.9250     5.7270    -0.7090 C.ar  1 <1>  -0.1500 
 19 C        4.1520     5.9850     1.8360 C.ar  1 <1>   0.1600 
 20 C        4.8610     7.0010    -0.1930 C.ar  1 <1>   0.0820 
 21 C        4.4620     7.1270     1.1250 C.ar  1 <1>  -0.1500 
 22 O        5.1890     8.0330    -0.9990 O.3   1 <1>  -0.3620 
 23 C        5.1530     9.3680    -0.5460 C.3   1 <1>   0.0400 
 24 H        2.6190     1.5100    -2.0740 H     1 <1>   0.0800 
 25 H        1.9710     2.1000    -0.5880 H     1 <1>   0.0800 
 26 H       -1.7710    -0.8090     0.7910 H     1 <1>   0.0800 
 27 H       -0.8540    -1.6510    -0.4310 H     1 <1>   0.0800 
 28 H       -2.0420    -0.4570    -0.9090 H     1 <1>   0.0800 
 29 H       -1.2580     1.4250     1.3730 H     1 <1>   0.0800 
 30 H       -1.6280     1.9320    -0.2650 H     1 <1>   0.0800 
 31 H       -0.0890     2.3460     0.4610 H     1 <1>   0.0800 
 32 H        3.1300    -0.6690    -0.9910 H     1 <1>   0.0800 
 33 H        5.1010     0.6430    -1.0240 H     1 <1>   0.0800 
 34 H        2.0470    -1.0820     0.9970 H     1 <1>   0.0800 
 35 H        1.9760     0.6220     1.4350 H     1 <1>   0.0800 
 36 H        4.1790     2.3260     1.2550 H     1 <1>   0.3700 
 37 H        5.6620     0.3280     1.5920 H     1 <1>   0.0800 
 38 H        5.1840    -1.0890     0.6590 H     1 <1>   0.0800 
 39 H        5.2320     5.5920    -1.7300 H     1 <1>   0.1500 
 40 H        3.8420     6.0890     2.8630 H     1 <1>   0.1500 
 41 H        4.3880     8.0830     1.6050 H     1 <1>   0.1500 
 42 H        5.4540    10.0040    -1.3590 H     1 <1>   0.0800 
 43 H        5.8390     9.4780     0.2750 H     1 <1>   0.0800 
 44 H        4.1490     9.6090    -0.2470 H     1 <1>   0.0800 
@<TRIPOS>BOND
  1   1   2  2   
  2   1   3  2   
  3   1   4  am  
  4   1   5  1   
  5   4   6  1   
  6   4   7  1   
  7   5   8  1   
  8   5  24  1   
  9   5  25  1   
 10   6  26  1   
 11   6  27  1   
 12   6  28  1   
 13   7  29  1   
 14   7  30  1   
 15   7  31  1   
 16   8   9  1   
 17   8  10  1   
 18   8  32  1   
 19   9  11  1   
 20   9  12  1   
 21   9  33  1   
 22  10  13  1   
 23  10  34  1   
 24  10  35  1   
 25  11  14  am  
 26  11  36  1   
 27  12  13  1   
 28  12  37  1   
 29  12  38  1   
 30  14  15  2   
 31  14  16  1   
 32  16  17  ar  
 33  16  18  ar  
 34  17  19  ar  
 35  18  20  ar  
 36  18  39  1   
 37  19  21  ar  
 38  19  40  1   
 39  20  21  ar  
 40  20  22  1   
 41  21  41  1   
 42  22  23  1   
 43  23  42  1   
 44  23  43  1   
 45  23  44  1   
@<TRIPOS>SUBSTRUCTURE
  1 ****  11 GROUP 4 **** **** 0

# MOE 2024.06 (io_trps.svl 2023.06)
