@<TRIPOS>MOLECULE
NONAME
42 44 1 0 0 
SMALL
USER_CHARGES


@<TRIPOS>ATOM
  1 S        0.3160    -0.0270     1.5360 S.o2  1 <1>   1.4470 
  2 O        0.8490    -1.1320     2.3040 O.2   1 <1>  -0.6500 
  3 O       -0.3310     1.0640     2.2320 O.2   1 <1>  -0.6500 
  4 N        1.6190     0.6290     0.6700 N.am  1 <1>  -0.8490 
  5 C       -0.7860    -0.6430     0.2320 C.ar  1 <1>  -0.0090 
  6 C        2.4010     1.5860     1.4830 C.3   1 <1>   0.1960 
  7 C        2.4490    -0.4120     0.0400 C.3   1 <1>   0.1960 
  8 C       -1.5190    -1.8110     0.4100 C.ar  1 <1>  -0.1500 
  9 C       -0.9360     0.0420    -0.9690 C.ar  1 <1>  -0.1500 
 10 C        3.4200     2.4590     0.7010 C.3   1 <1>   0.2200 
 11 C        3.4370     0.1170    -1.0170 C.3   1 <1>  -0.0190 
 12 C       -2.3660    -2.2940    -0.5750 C.ar  1 <1>  -0.1440 
 13 C       -1.7780    -0.4290    -1.9610 C.ar  1 <1>  -0.1500 
 14 N        3.0950     2.5810    -0.7560 N.am  1 <1>  -0.6600 
 15 C        4.8740     1.9880     0.9030 C.3   1 <1>   0.1200 
 16 C        3.0530     1.4780    -1.5680 C.2   1 <1>   0.5690 
 17 C        4.8970     0.1100    -0.5410 C.3   1 <1>   0.1200 
 18 C       -2.4930    -1.5960    -1.7630 C.ar  1 <1>  -0.1500 
 19 C       -3.1510    -3.5730    -0.3480 C.3   1 <1>  -0.0960 
 20 C        2.6500     3.9220    -1.2230 C.3   1 <1>   0.0600 
 21 O        5.0220     0.6060     0.7560 O.3   1 <1>  -0.5600 
 22 O        2.7400     1.5460    -2.7340 O.2   1 <1>  -0.5700 
 23 H        1.7180     2.2750     1.9500 H     1 <1>   0.0800 
 24 H        2.9000     1.0610     2.2810 H     1 <1>   0.0800 
 25 H        2.9770    -0.9680     0.7990 H     1 <1>   0.0800 
 26 H        1.7950    -1.1070    -0.4600 H     1 <1>   0.0800 
 27 H       -1.4200    -2.3490     1.3370 H     1 <1>   0.1500 
 28 H       -0.3840     0.9530    -1.1330 H     1 <1>   0.1500 
 29 H        3.3750     3.4460     1.1280 H     1 <1>   0.0800 
 30 H        3.4020    -0.5670    -1.8460 H     1 <1>   0.0800 
 31 H       -1.8760     0.1150    -2.8850 H     1 <1>   0.1500 
 32 H        5.1790     2.2190     1.9080 H     1 <1>   0.0800 
 33 H        5.5400     2.4930     0.2260 H     1 <1>   0.0800 
 34 H        5.5280     0.6790    -1.2030 H     1 <1>   0.0800 
 35 H        5.2580    -0.9030    -0.5180 H     1 <1>   0.0800 
 36 H       -3.1480    -1.9550    -2.5370 H     1 <1>   0.1500 
 37 H       -3.3510    -4.0640    -1.2840 H     1 <1>   0.0800 
 38 H       -4.0860    -3.3460     0.1310 H     1 <1>   0.0800 
 39 H       -2.5960    -4.2490     0.2770 H     1 <1>   0.0800 
 40 H        3.4210     4.6490    -1.0360 H     1 <1>   0.0800 
 41 H        1.7540     4.2080    -0.7000 H     1 <1>   0.0800 
 42 H        2.4410     3.9090    -2.2790 H     1 <1>   0.0800 
@<TRIPOS>BOND
  1   1   2  2   
  2   1   3  2   
  3   1   4  am  
  4   1   5  1   
  5   4   6  1   
  6   4   7  1   
  7   5   8  ar  
  8   5   9  ar  
  9   6  10  1   
 10   6  23  1   
 11   6  24  1   
 12   7  11  1   
 13   7  25  1   
 14   7  26  1   
 15   8  12  ar  
 16   8  27  1   
 17   9  13  ar  
 18   9  28  1   
 19  10  14  1   
 20  10  15  1   
 21  10  29  1   
 22  11  16  1   
 23  11  17  1   
 24  11  30  1   
 25  12  18  ar  
 26  12  19  1   
 27  13  18  ar  
 28  13  31  1   
 29  14  16  am  
 30  14  20  1   
 31  15  21  1   
 32  15  32  1   
 33  15  33  1   
 34  16  22  2   
 35  17  21  1   
 36  17  34  1   
 37  17  35  1   
 38  18  36  1   
 39  19  37  1   
 40  19  38  1   
 41  19  39  1   
 42  20  40  1   
 43  20  41  1   
 44  20  42  1   
@<TRIPOS>SUBSTRUCTURE
  1 ****   4 GROUP 4 **** **** 0

# MOE 2024.06 (io_trps.svl 2023.06)
