@<TRIPOS>MOLECULE
NONAME
45 47 1 0 0 
SMALL
USER_CHARGES


@<TRIPOS>ATOM
  1 N        0.3910     0.2820    -0.7410 N.ar  1 <1>  -0.6200 
  2 C        1.4800    -0.3210    -0.3000 C.ar  1 <1>   0.4100 
  3 C        0.4030     1.5960    -0.6520 C.ar  1 <1>   0.4700 
  4 N        1.5260    -1.6990    -0.3580 N.pl3 1 <1>  -0.8380 
  5 C        2.5340     0.4000     0.2040 C.ar  1 <1>  -0.1500 
  6 N        1.3510     2.3840    -0.1850 N.ar  1 <1>  -0.6200 
  7 C        1.6220    -2.4550     0.9160 C.3   1 <1>   0.2090 
  8 C        0.7730    -2.4090    -1.4260 C.3   1 <1>   0.2090 
  9 C        2.4350     1.7700     0.2540 C.ar  1 <1>   0.4100 
 10 C        2.3020    -3.8040     0.6600 C.3   1 <1>  -0.1600 
 11 C        1.4360    -3.7620    -1.7070 C.3   1 <1>  -0.1600 
 12 N        3.4560     2.5590     0.7520 N.pl3 1 <1>  -0.8380 
 13 C        1.5760    -4.6050    -0.4310 C.3   1 <1>  -0.1600 
 14 C        3.6320     3.9620     0.2780 C.3   1 <1>   0.3530 
 15 C        4.3090     2.1280     1.8940 C.3   1 <1>   0.1290 
 16 C        5.1090     4.2770     0.0510 C.ar  1 <1>  -0.1430 
 17 C        5.8510     3.7430    -0.9920 C.ar  1 <1>  -0.1430 
 18 C        5.7800     5.1300     0.9050 C.ar  1 <1>  -0.1500 
 19 C        7.1900     4.0910    -1.1070 C.ar  1 <1>   0.1600 
 20 C        5.2300     2.7860    -2.0020 C.3   1 <1>  -0.0970 
 21 C        7.1190     5.4070     0.6920 C.ar  1 <1>   0.1600 
 22 N        7.8420     4.9070    -0.2930 N.ar  1 <1>  -0.6200 
 23 H       -0.4830     2.0940    -1.0080 H     1 <1>   0.1500 
 24 H        3.4170    -0.1040     0.5330 H     1 <1>   0.1500 
 25 H        0.6300    -2.6130     1.3050 H     1 <1>   0.0800 
 26 H        2.1830    -1.8940     1.6420 H     1 <1>   0.0800 
 27 H        0.7670    -1.8140    -2.3240 H     1 <1>   0.0800 
 28 H       -0.2460    -2.5510    -1.1070 H     1 <1>   0.0800 
 29 H        2.3220    -4.3710     1.5730 H     1 <1>   0.0800 
 30 H        3.3200    -3.6230     0.3600 H     1 <1>   0.0800 
 31 H        2.4080    -3.5830    -2.1320 H     1 <1>   0.0800 
 32 H        0.8530    -4.2980    -2.4350 H     1 <1>   0.0800 
 33 H        0.5980    -4.8820    -0.0780 H     1 <1>   0.0800 
 34 H        2.1230    -5.5070    -0.6470 H     1 <1>   0.0800 
 35 H        3.2150     4.6300     1.0100 H     1 <1>   0.0800 
 36 H        3.0990     4.1150    -0.6440 H     1 <1>   0.0800 
 37 H        3.8840     1.2680     2.3810 H     1 <1>   0.0800 
 38 H        4.3840     2.9230     2.6150 H     1 <1>   0.0800 
 39 H        5.2950     1.8830     1.5370 H     1 <1>   0.0800 
 40 H        5.2730     5.5830     1.7370 H     1 <1>   0.1500 
 41 H        7.7630     3.6730    -1.9160 H     1 <1>   0.1500 
 42 H        4.3550     3.2250    -2.4450 H     1 <1>   0.0800 
 43 H        4.9450     1.8720    -1.5130 H     1 <1>   0.0800 
 44 H        5.9230     2.5480    -2.7880 H     1 <1>   0.0800 
 45 H        7.6220     6.0760     1.3700 H     1 <1>   0.1500 
@<TRIPOS>BOND
  1   1   2  ar  
  2   1   3  ar  
  3   2   4  1   
  4   2   5  ar  
  5   3   6  ar  
  6   3  23  1   
  7   4   7  1   
  8   4   8  1   
  9   5   9  ar  
 10   5  24  1   
 11   6   9  ar  
 12   7  10  1   
 13   7  25  1   
 14   7  26  1   
 15   8  11  1   
 16   8  27  1   
 17   8  28  1   
 18   9  12  1   
 19  10  13  1   
 20  10  29  1   
 21  10  30  1   
 22  11  13  1   
 23  11  31  1   
 24  11  32  1   
 25  12  14  1   
 26  12  15  1   
 27  13  33  1   
 28  13  34  1   
 29  14  16  1   
 30  14  35  1   
 31  14  36  1   
 32  15  37  1   
 33  15  38  1   
 34  15  39  1   
 35  16  17  ar  
 36  16  18  ar  
 37  17  19  ar  
 38  17  20  1   
 39  18  21  ar  
 40  18  40  1   
 41  19  22  ar  
 42  19  41  1   
 43  20  42  1   
 44  20  43  1   
 45  20  44  1   
 46  21  22  ar  
 47  21  45  1   
@<TRIPOS>SUBSTRUCTURE
  1 ****   9 GROUP 4 **** **** 0

# MOE 2024.06 (io_trps.svl 2023.06)
