@<TRIPOS>MOLECULE
NONAME
50 51 1 0 0 
SMALL
USER_CHARGES


@<TRIPOS>ATOM
  1 O        0.4800     0.0960     2.2340 O.2   1 <1>  -0.5700 
  2 C        1.2910    -0.5210     1.5870 C.2   1 <1>   0.5690 
  3 N        2.2520     0.0650     0.8210 N.am  1 <1>  -0.4930 
  4 C        1.2170    -2.0380     1.6180 C.3   1 <1>  -0.0990 
  5 C        2.4960     1.4450     0.6010 C.2   1 <1>   0.0630 
  6 C        0.1870    -2.6200     0.6230 C.3   1 <1>  -0.0800 
  7 C        3.4550     1.9750    -0.1900 C.2   1 <1>  -0.3320 
  8 C        1.8240     2.5480     1.1300 C.2   1 <1>   0.1390 
  9 C       -1.2400    -2.1100     0.9040 C.3   1 <1>  -0.1600 
 10 C        0.2050    -4.1580     0.6760 C.3   1 <1>  -0.1600 
 11 N        3.3240     3.3250    -0.1060 N.pl3 1 <1>   0.3140 
 12 C        4.5100     1.2750    -1.0380 C.3   1 <1>  -0.0600 
 13 N        2.3130     3.6740     0.7080 N.2   1 <1>  -0.7070 
 14 C       -2.2860    -2.7800     0.0160 C.3   1 <1>   0.3430 
 15 C       -0.8730    -4.7810    -0.2130 C.3   1 <1>   0.3430 
 16 C        4.1330     4.3600    -0.7880 C.3   1 <1>   0.0960 
 17 N       -2.2150    -4.2590     0.1800 N.4   1 <1>  -0.9590 
 18 C        5.3710     4.7310     0.0400 C.3   1 <1>  -0.2400 
 19 C       -3.3210    -4.9170    -0.5680 C.3   1 <1>   0.3430 
 20 C       -3.5070    -6.3600    -0.0920 C.3   1 <1>  -0.1600 
 21 C       -4.7180    -7.0080    -0.7730 C.3   1 <1>  -0.2400 
 22 H        2.9120    -0.5460     0.3490 H     1 <1>   0.3700 
 23 H        0.9590    -2.3310     2.6210 H     1 <1>   0.0800 
 24 H        2.1920    -2.4370     1.4100 H     1 <1>   0.0800 
 25 H        0.4670    -2.3090    -0.3710 H     1 <1>   0.0800 
 26 H        0.9940     2.4830     1.8120 H     1 <1>   0.1500 
 27 H       -1.2890    -1.0490     0.7250 H     1 <1>   0.0800 
 28 H       -1.4960    -2.2670     1.9380 H     1 <1>   0.0800 
 29 H        0.0620    -4.4970     1.6880 H     1 <1>   0.0800 
 30 H        1.1670    -4.5170     0.3520 H     1 <1>   0.0800 
 31 H        4.4330     0.2080    -0.9430 H     1 <1>   0.0800 
 32 H        5.4940     1.5720    -0.7230 H     1 <1>   0.0800 
 33 H        4.3820     1.5330    -2.0740 H     1 <1>   0.0800 
 34 H       -2.1060    -2.5170    -1.0140 H     1 <1>   0.0800 
 35 H       -3.2660    -2.4230     0.2900 H     1 <1>   0.0800 
 36 H       -0.8430    -5.8540    -0.1060 H     1 <1>   0.0800 
 37 H       -0.6750    -4.5390    -1.2450 H     1 <1>   0.0800 
 38 H        3.5140     5.2270    -0.9240 H     1 <1>   0.0800 
 39 H        4.4220     3.9940    -1.7550 H     1 <1>   0.0800 
 40 H       -2.3470    -4.4590     1.1800 H     1 <1>   0.4500 
 41 H        5.0670     5.1090     1.0010 H     1 <1>   0.0800 
 42 H        5.9320     5.4960    -0.4660 H     1 <1>   0.0800 
 43 H        6.0040     3.8740     0.1810 H     1 <1>   0.0800 
 44 H       -3.1170    -4.9020    -1.6270 H     1 <1>   0.0800 
 45 H       -4.2410    -4.3800    -0.3960 H     1 <1>   0.0800 
 46 H       -3.6650    -6.3760     0.9730 H     1 <1>   0.0800 
 47 H       -2.6370    -6.9490    -0.3230 H     1 <1>   0.0800 
 48 H       -5.6220    -6.4680    -0.5440 H     1 <1>   0.0800 
 49 H       -4.8370    -8.0200    -0.4260 H     1 <1>   0.0800 
 50 H       -4.5910    -7.0330    -1.8420 H     1 <1>   0.0800 
@<TRIPOS>BOND
  1   1   2  2   
  2   2   3  am  
  3   2   4  1   
  4   3   5  1   
  5   3  22  1   
  6   4   6  1   
  7   4  23  1   
  8   4  24  1   
  9   5   7  2   
 10   5   8  1   
 11   6   9  1   
 12   6  10  1   
 13   6  25  1   
 14   7  11  1   
 15   7  12  1   
 16   8  13  2   
 17   8  26  1   
 18   9  14  1   
 19   9  27  1   
 20   9  28  1   
 21  10  15  1   
 22  10  29  1   
 23  10  30  1   
 24  11  13  1   
 25  11  16  1   
 26  12  31  1   
 27  12  32  1   
 28  12  33  1   
 29  14  17  1   
 30  14  34  1   
 31  14  35  1   
 32  15  17  1   
 33  15  36  1   
 34  15  37  1   
 35  16  18  1   
 36  16  38  1   
 37  16  39  1   
 38  17  19  1   
 39  17  40  1   
 40  18  41  1   
 41  18  42  1   
 42  18  43  1   
 43  19  20  1   
 44  19  44  1   
 45  19  45  1   
 46  20  21  1   
 47  20  46  1   
 48  20  47  1   
 49  21  48  1   
 50  21  49  1   
 51  21  50  1   
@<TRIPOS>SUBSTRUCTURE
  1 ****   2 GROUP 4 **** **** 0

# MOE 2024.06 (io_trps.svl 2023.06)
