@<TRIPOS>MOLECULE
NONAME
45 47 1 0 0 
SMALL
USER_CHARGES


@<TRIPOS>ATOM
  1 CL       3.8410     0.5300    -1.7150 Cl    1 <1>  -0.1240 
  2 C        4.0370     2.1530    -1.1190 C.2   1 <1>   0.1640 
  3 S        2.9520     3.3650    -1.7520 S.3   1 <1>  -0.0800 
  4 C        4.8990     2.6710    -0.2280 C.2   1 <1>  -0.1500 
  5 C        3.6990     4.6270    -0.7580 C.2   1 <1>  -0.0450 
  6 C        4.7080     4.0700    -0.0310 C.2   1 <1>  -0.1500 
  7 C        3.1800     5.9690    -0.8660 C.2   1 <1>   0.7150 
  8 O        2.9060     6.4070    -1.9690 O.2   1 <1>  -0.5700 
  9 N        2.9810     6.7830     0.2360 N.am  1 <1>  -0.6600 
 10 C        2.8460     6.2510     1.6340 C.3   1 <1>   0.1400 
 11 C        2.7780     8.2520     0.0640 C.3   1 <1>   0.1400 
 12 C        3.5040     7.1340     2.7110 C.3   1 <1>   0.1400 
 13 C        4.1160     8.9910     0.2000 C.3   1 <1>  -0.1600 
 14 N        4.7940     7.7200     2.2380 N.am  1 <1>  -0.6600 
 15 C        4.6540     9.0720     1.6340 C.3   1 <1>   0.1400 
 16 C        5.9520     6.9510     2.2130 C.2   1 <1>   0.7150 
 17 O        5.9060     5.8850     2.8120 O.2   1 <1>  -0.5700 
 18 C        7.1760     7.3170     1.5030 C.2   1 <1>   0.2930 
 19 S        8.5860     6.2870     1.7560 S.3   1 <1>  -0.0800 
 20 N        7.4390     8.2810     0.6780 N.2   1 <1>  -0.5650 
 21 C        9.5130     7.2610     0.6660 C.2   1 <1>  -0.1100 
 22 C        8.7360     8.2530     0.2040 C.2   1 <1>   0.0460 
 23 C        9.1330     9.3470    -0.7860 C.3   1 <1>   0.1010 
 24 C        8.4020     9.1490    -2.1200 C.3   1 <1>  -0.2400 
 25 C       10.6480     9.4030    -1.0260 C.3   1 <1>  -0.2400 
 26 H        5.6620     2.1210     0.2940 H     1 <1>   0.1500 
 27 H        5.3410     4.6120     0.6480 H     1 <1>   0.1500 
 28 H        3.2780     5.2710     1.7070 H     1 <1>   0.0800 
 29 H        1.8010     6.1470     1.8650 H     1 <1>   0.0800 
 30 H        2.0690     8.6150     0.7880 H     1 <1>   0.0800 
 31 H        2.3670     8.4530    -0.9110 H     1 <1>   0.0800 
 32 H        3.6720     6.5450     3.5970 H     1 <1>   0.0800 
 33 H        2.8260     7.9220     2.9860 H     1 <1>   0.0800 
 34 H        3.9800     9.9960    -0.1550 H     1 <1>   0.0800 
 35 H        4.8480     8.5310    -0.4420 H     1 <1>   0.0800 
 36 H        3.9780     9.6560     2.2350 H     1 <1>   0.0800 
 37 H        5.5960     9.5890     1.6460 H     1 <1>   0.0800 
 38 H       10.5350     6.9850     0.4870 H     1 <1>   0.1500 
 39 H        8.8270    10.2910    -0.3670 H     1 <1>   0.0800 
 40 H        8.6670     8.2010    -2.5540 H     1 <1>   0.0800 
 41 H        8.6560     9.9330    -2.8100 H     1 <1>   0.0800 
 42 H        7.3380     9.1640    -1.9630 H     1 <1>   0.0800 
 43 H       10.9940     8.4900    -1.4770 H     1 <1>   0.0800 
 44 H       11.1640     9.5510    -0.0940 H     1 <1>   0.0800 
 45 H       10.8890    10.2210    -1.6800 H     1 <1>   0.0800 
@<TRIPOS>BOND
  1   1   2  1   
  2   2   3  1   
  3   2   4  2   
  4   3   5  1   
  5   4   6  1   
  6   4  26  1   
  7   5   6  2   
  8   5   7  1   
  9   6  27  1   
 10   7   8  2   
 11   7   9  am  
 12   9  10  1   
 13   9  11  1   
 14  10  12  1   
 15  10  28  1   
 16  10  29  1   
 17  11  13  1   
 18  11  30  1   
 19  11  31  1   
 20  12  14  1   
 21  12  32  1   
 22  12  33  1   
 23  13  15  1   
 24  13  34  1   
 25  13  35  1   
 26  14  15  1   
 27  14  16  am  
 28  15  36  1   
 29  15  37  1   
 30  16  17  2   
 31  16  18  1   
 32  18  19  1   
 33  18  20  2   
 34  19  21  1   
 35  20  22  1   
 36  21  22  2   
 37  21  38  1   
 38  22  23  1   
 39  23  24  1   
 40  23  25  1   
 41  23  39  1   
 42  24  40  1   
 43  24  41  1   
 44  24  42  1   
 45  25  43  1   
 46  25  44  1   
 47  25  45  1   
@<TRIPOS>SUBSTRUCTURE
  1 ****  16 GROUP 4 **** **** 0

# MOE 2024.06 (io_trps.svl 2023.06)
