@<TRIPOS>MOLECULE
NONAME
60 63 1 0 0 
SMALL
USER_CHARGES


@<TRIPOS>ATOM
  1 O       -2.0670    -0.2570    -1.3210 O.2   1 <1>  -0.5700 
  2 C       -2.3320     0.5570    -0.4530 C.2   1 <1>   0.5440 
  3 N       -3.0490     0.0750     0.6320 N.am  1 <1>  -0.6600 
  4 C       -1.8990     1.9520    -0.6060 C.ar  1 <1>   0.3960 
  5 C       -4.1180     0.8290     1.3210 C.3   1 <1>   0.1400 
  6 C       -2.8790    -1.3170     1.0980 C.3   1 <1>   0.1400 
  7 N       -1.9370     2.8060     0.4340 N.ar  1 <1>  -0.6200 
  8 C       -1.4290     2.3760    -1.8580 C.ar  1 <1>   0.1600 
  9 C       -5.4460     0.1040     1.0870 C.3   1 <1>  -0.1600 
 10 C       -4.1720    -2.0790     0.8220 C.3   1 <1>  -0.1600 
 11 C       -1.4990     4.0170     0.1410 C.ar  1 <1>   0.1600 
 12 N       -0.9980     3.5930    -2.1550 N.ar  1 <1>  -0.6200 
 13 C       -5.3860    -1.3880     1.4670 C.3   1 <1>   0.4230 
 14 C       -1.0450     4.4000    -1.1130 C.ar  1 <1>   0.1600 
 15 N       -6.6580    -2.0630     1.0330 N.4   1 <1>  -0.9590 
 16 C       -6.6620    -3.5700     1.1190 C.3   1 <1>   0.3430 
 17 C       -7.8830    -1.4460     1.6400 C.3   1 <1>   0.3430 
 18 C       -7.9270    -4.2580     0.5070 C.3   1 <1>   0.4230 
 19 C       -9.1660    -2.2480     1.3500 C.3   1 <1>  -0.1600 
 20 N       -7.6940    -5.2910    -0.5920 N.4   1 <1>  -0.9590 
 21 C       -9.0870    -3.2720     0.1860 C.3   1 <1>   0.0000 
 22 C       -8.9680    -5.7390    -1.2580 C.3   1 <1>   0.3430 
 23 C       -6.6990    -4.9020    -1.6480 C.3   1 <1>   0.2630 
 24 C      -10.3910    -4.1190     0.1700 C.3   1 <1>  -0.1600 
 25 C       -9.0140    -2.5210    -1.1840 C.3   1 <1>   0.1200 
 26 C      -10.1820    -5.5670    -0.3340 C.3   1 <1>  -0.1600 
 27 O       -7.7640    -1.9770    -1.4520 O.3   1 <1>  -0.6800 
 28 H       -3.8890     0.8920     2.3720 H     1 <1>   0.0800 
 29 H       -4.1920     1.8310     0.9340 H     1 <1>   0.0800 
 30 H       -2.0540    -1.7850     0.5860 H     1 <1>   0.0800 
 31 H       -2.6540    -1.3120     2.1520 H     1 <1>   0.0800 
 32 H       -1.4110     1.6570    -2.6590 H     1 <1>   0.1500 
 33 H       -5.6940     0.2070     0.0450 H     1 <1>   0.0800 
 34 H       -6.1900     0.6150     1.6680 H     1 <1>   0.0800 
 35 H       -4.0380    -3.0670     1.2180 H     1 <1>   0.0800 
 36 H       -4.2950    -2.1370    -0.2460 H     1 <1>   0.0800 
 37 H       -1.4980     4.7470     0.9320 H     1 <1>   0.1500 
 38 H       -5.2850    -1.4620     2.5380 H     1 <1>   0.0800 
 39 H       -0.7080     5.4120    -1.2570 H     1 <1>   0.1500 
 40 H       -6.7510    -1.8490     0.0180 H     1 <1>   0.4500 
 41 H       -5.7920    -3.9650     0.6270 H     1 <1>   0.0800 
 42 H       -6.6020    -3.8460     2.1590 H     1 <1>   0.0800 
 43 H       -7.7590    -1.3520     2.7070 H     1 <1>   0.0800 
 44 H       -8.0070    -0.4530     1.2380 H     1 <1>   0.0800 
 45 H       -8.3080    -4.8310     1.3360 H     1 <1>   0.0800 
 46 H       -9.4190    -2.7640     2.2620 H     1 <1>   0.0800 
 47 H       -9.9690    -1.5510     1.1760 H     1 <1>   0.0800 
 48 H       -7.3220    -6.1370    -0.1310 H     1 <1>   0.4500 
 49 H       -9.1340    -5.1600    -2.1510 H     1 <1>   0.0800 
 50 H       -8.8830    -6.7730    -1.5560 H     1 <1>   0.0800 
 51 H       -7.0580    -4.0620    -2.2180 H     1 <1>   0.0800 
 52 H       -6.5380    -5.7230    -2.3280 H     1 <1>   0.0800 
 53 H       -5.7510    -4.6400    -1.2090 H     1 <1>   0.0800 
 54 H      -10.8180    -4.1840     1.1570 H     1 <1>   0.0800 
 55 H      -11.1370    -3.6340    -0.4400 H     1 <1>   0.0800 
 56 H       -9.7320    -1.7160    -1.1990 H     1 <1>   0.0800 
 57 H       -9.2550    -3.1770    -2.0020 H     1 <1>   0.0800 
 58 H      -11.0670    -5.8870    -0.8580 H     1 <1>   0.0800 
 59 H      -10.0700    -6.2330     0.5060 H     1 <1>   0.0800 
 60 H       -7.8070    -1.4320    -2.2760 H     1 <1>   0.4000 
@<TRIPOS>BOND
  1   1   2  2   
  2   2   3  am  
  3   2   4  1   
  4   3   5  1   
  5   3   6  1   
  6   4   7  ar  
  7   4   8  ar  
  8   5   9  1   
  9   5  28  1   
 10   5  29  1   
 11   6  10  1   
 12   6  30  1   
 13   6  31  1   
 14   7  11  ar  
 15   8  12  ar  
 16   8  32  1   
 17   9  13  1   
 18   9  33  1   
 19   9  34  1   
 20  10  13  1   
 21  10  35  1   
 22  10  36  1   
 23  11  14  ar  
 24  11  37  1   
 25  12  14  ar  
 26  13  15  1   
 27  13  38  1   
 28  14  39  1   
 29  15  16  1   
 30  15  17  1   
 31  15  40  1   
 32  16  18  1   
 33  16  41  1   
 34  16  42  1   
 35  17  19  1   
 36  17  43  1   
 37  17  44  1   
 38  18  20  1   
 39  18  21  1   
 40  18  45  1   
 41  19  21  1   
 42  19  46  1   
 43  19  47  1   
 44  20  22  1   
 45  20  23  1   
 46  20  48  1   
 47  21  24  1   
 48  21  25  1   
 49  22  26  1   
 50  22  49  1   
 51  22  50  1   
 52  23  51  1   
 53  23  52  1   
 54  23  53  1   
 55  24  26  1   
 56  24  54  1   
 57  24  55  1   
 58  25  27  1   
 59  25  56  1   
 60  25  57  1   
 61  26  58  1   
 62  26  59  1   
 63  27  60  1   
@<TRIPOS>SUBSTRUCTURE
  1 ****  13 GROUP 4 **** **** 0

# MOE 2024.06 (io_trps.svl 2023.06)
