@<TRIPOS>MOLECULE
NONAME
45 46 1 0 0 
SMALL
USER_CHARGES


@<TRIPOS>ATOM
  1 O        0.7240    -0.7940     0.1380 O.2   1 <1>  -0.5700 
  2 C        0.3400    -1.9270     0.3270 C.2   1 <1>   0.5440 
  3 N       -0.8450    -2.0470     0.9750 N.am  1 <1>  -0.8000 
  4 C        1.1230    -3.0670    -0.0830 C.ar  1 <1>   0.0860 
  5 C        0.5460    -4.1920    -0.6990 C.ar  1 <1>   0.4100 
  6 C        2.4940    -3.0810     0.1200 C.ar  1 <1>  -0.1500 
  7 N        1.2320    -5.2800    -1.0370 N.ar  1 <1>  -0.6200 
  8 N       -0.8040    -4.2340    -0.9930 N.pl3 1 <1>  -0.8690 
  9 C        3.2150    -4.1940    -0.2540 C.ar  1 <1>  -0.1430 
 10 C        2.5340    -5.2640    -0.8250 C.ar  1 <1>   0.1670 
 11 C       -1.3510    -4.9630    -2.1640 C.3   1 <1>   0.2090 
 12 C        4.7220    -4.2100    -0.0290 C.3   1 <1>  -0.0970 
 13 C        3.2770    -6.5170    -1.2530 C.3   1 <1>  -0.0970 
 14 C       -2.1150    -6.1920    -1.6780 C.3   1 <1>  -0.1600 
 15 C       -1.1910    -7.1600    -0.9360 C.3   1 <1>   0.3540 
 16 N       -1.9760    -8.2980    -0.3950 N.pl3 1 <1>  -0.4570 
 17 N       -2.4830    -9.2630    -1.2050 N.2   1 <1>  -0.2600 
 18 C       -2.2820    -8.5510     0.8620 C.cat 1 <1>   0.6560 
 19 C       -3.0820   -10.0650    -0.4010 C.2   1 <1>   0.4850 
 20 N       -2.9810    -9.6580     0.8880 N.pl3 1 <1>  -0.7000 
 21 C       -1.9050    -7.7260     2.0720 C.3   1 <1>  -0.0960 
 22 C       -3.8210   -11.3220    -0.8000 C.3   1 <1>  -0.0720 
 23 H       -1.2830    -1.1940     1.3290 H     1 <1>   0.3700 
 24 H       -1.1580    -2.9250     1.3880 H     1 <1>   0.3700 
 25 H        2.9720    -2.2240     0.5640 H     1 <1>   0.1500 
 26 H       -1.2870    -3.3400    -0.8330 H     1 <1>   0.4000 
 27 H       -0.5570    -5.2530    -2.8330 H     1 <1>   0.0800 
 28 H       -2.0150    -4.3100    -2.7060 H     1 <1>   0.0800 
 29 H        5.0430    -3.3310     0.5010 H     1 <1>   0.0800 
 30 H        5.2360    -4.2390    -0.9730 H     1 <1>   0.0800 
 31 H        5.0040    -5.0710     0.5510 H     1 <1>   0.0800 
 32 H        2.6280    -7.1710    -1.8070 H     1 <1>   0.0800 
 33 H        3.6370    -7.0420    -0.3880 H     1 <1>   0.0800 
 34 H        4.1070    -6.2590    -1.8840 H     1 <1>   0.0800 
 35 H       -2.5380    -6.6910    -2.5310 H     1 <1>   0.0800 
 36 H       -2.9150    -5.8740    -1.0350 H     1 <1>   0.0800 
 37 H       -0.7020    -6.6580    -0.1220 H     1 <1>   0.0800 
 38 H       -0.4320    -7.5330    -1.6030 H     1 <1>   0.0800 
 39 H       -3.3730   -10.1330     1.6990 H     1 <1>   0.4500 
 40 H       -2.2410    -6.7140     1.9420 H     1 <1>   0.0800 
 41 H       -0.8370    -7.7290     2.1950 H     1 <1>   0.0800 
 42 H       -2.3580    -8.1300     2.9580 H     1 <1>   0.0800 
 43 H       -3.7760   -11.4520    -1.8660 H     1 <1>   0.0800 
 44 H       -4.8510   -11.2540    -0.5030 H     1 <1>   0.0800 
 45 H       -3.3710   -12.1770    -0.3300 H     1 <1>   0.0800 
@<TRIPOS>BOND
  1   1   2  2   
  2   2   3  am  
  3   2   4  1   
  4   3  23  1   
  5   3  24  1   
  6   4   5  ar  
  7   4   6  ar  
  8   5   7  ar  
  9   5   8  1   
 10   6   9  ar  
 11   6  25  1   
 12   7  10  ar  
 13   8  11  1   
 14   8  26  1   
 15   9  10  ar  
 16   9  12  1   
 17  10  13  1   
 18  11  14  1   
 19  11  27  1   
 20  11  28  1   
 21  12  29  1   
 22  12  30  1   
 23  12  31  1   
 24  13  32  1   
 25  13  33  1   
 26  13  34  1   
 27  14  15  1   
 28  14  35  1   
 29  14  36  1   
 30  15  16  1   
 31  15  37  1   
 32  15  38  1   
 33  16  17  1   
 34  16  18  ar  
 35  17  19  2   
 36  18  20  ar  
 37  18  21  1   
 38  19  20  1   
 39  19  22  1   
 40  20  39  1   
 41  21  40  1   
 42  21  41  1   
 43  21  42  1   
 44  22  43  1   
 45  22  44  1   
 46  22  45  1   
@<TRIPOS>SUBSTRUCTURE
  1 ****   7 GROUP 4 **** **** 0

# MOE 2024.06 (io_trps.svl 2023.06)
