@<TRIPOS>MOLECULE
NONAME
44 46 1 0 0 
SMALL
USER_CHARGES


@<TRIPOS>ATOM
  1 N       -0.6220     2.1060    -1.1690 N.2   1 <1>  -0.5650 
  2 C       -0.0230     1.6450    -0.1200 C.2   1 <1>   0.0060 
  3 C       -1.5970     1.2080    -1.4100 C.2   1 <1>   0.0770 
  4 N       -0.5550     0.4890     0.3400 N.pl3 1 <1>   0.0330 
  5 C        1.1610     2.3370     0.5250 C.3   1 <1>   0.0200 
  6 C       -1.5700     0.2140    -0.4970 C.2   1 <1>  -0.3020 
  7 C        1.4160     3.6670    -0.1980 C.3   1 <1>   0.3430 
  8 N        2.5540     4.4500     0.3840 N.4   1 <1>  -0.9590 
  9 C        2.5090     5.8520    -0.1530 C.3   1 <1>   0.3430 
 10 C        3.8760     3.8080     0.1090 C.3   1 <1>   0.3430 
 11 C        3.6190     6.7250     0.4500 C.3   1 <1>   0.0630 
 12 C        4.9970     4.6250     0.7580 C.3   1 <1>  -0.1600 
 13 C        3.5680     8.1160    -0.1660 C.ar  1 <1>  -0.1430 
 14 C        5.0030     6.0800     0.2650 C.3   1 <1>  -0.1600 
 15 C        3.3380     9.2200     0.6430 C.ar  1 <1>  -0.1500 
 16 C        3.7390     8.3060    -1.5310 C.ar  1 <1>  -0.1500 
 17 C        3.2710    10.4940     0.1050 C.ar  1 <1>  -0.1430 
 18 C        3.6750     9.5770    -2.0740 C.ar  1 <1>  -0.1500 
 19 C        3.4410    10.6680    -1.2580 C.ar  1 <1>  -0.1500 
 20 C        3.0210    11.6940     1.0010 C.3   1 <1>  -0.0970 
 21 H       -2.2770     1.3230    -2.2390 H     1 <1>   0.1500 
 22 H       -0.2610    -0.0680     1.1490 H     1 <1>   0.2700 
 23 H        2.0170     1.6930     0.4450 H     1 <1>   0.0800 
 24 H        0.9380     2.5200     1.5600 H     1 <1>   0.0800 
 25 H       -2.2030    -0.6500    -0.4040 H     1 <1>   0.1500 
 26 H        0.5100     4.2500    -0.1410 H     1 <1>   0.0800 
 27 H        1.6000     3.4680    -1.2410 H     1 <1>   0.0800 
 28 H        2.4270     4.5090     1.4020 H     1 <1>   0.4500 
 29 H        1.5550     6.3030     0.0660 H     1 <1>   0.0800 
 30 H        2.6260     5.8310    -1.2240 H     1 <1>   0.0800 
 31 H        4.0420     3.7570    -0.9560 H     1 <1>   0.0800 
 32 H        3.8950     2.8050     0.5020 H     1 <1>   0.0800 
 33 H        3.4270     6.8130     1.5050 H     1 <1>   0.0800 
 34 H        5.9430     4.1700     0.5220 H     1 <1>   0.0800 
 35 H        4.8880     4.5980     1.8290 H     1 <1>   0.0800 
 36 H        5.7400     6.6490     0.8060 H     1 <1>   0.0800 
 37 H        5.2810     6.0980    -0.7750 H     1 <1>   0.0800 
 38 H        3.2110     9.1000     1.7050 H     1 <1>   0.1500 
 39 H        3.9270     7.4780    -2.1910 H     1 <1>   0.1500 
 40 H        3.8090     9.7220    -3.1320 H     1 <1>   0.1500 
 41 H        3.3950    11.6540    -1.6880 H     1 <1>   0.1500 
 42 H        2.4080    11.4190     1.8400 H     1 <1>   0.0800 
 43 H        2.5170    12.4730     0.4560 H     1 <1>   0.0800 
 44 H        3.9570    12.0770     1.3650 H     1 <1>   0.0800 
@<TRIPOS>BOND
  1   1   2  2   
  2   1   3  1   
  3   2   4  1   
  4   2   5  1   
  5   3   6  2   
  6   3  21  1   
  7   4   6  1   
  8   4  22  1   
  9   5   7  1   
 10   5  23  1   
 11   5  24  1   
 12   6  25  1   
 13   7   8  1   
 14   7  26  1   
 15   7  27  1   
 16   8   9  1   
 17   8  10  1   
 18   8  28  1   
 19   9  11  1   
 20   9  29  1   
 21   9  30  1   
 22  10  12  1   
 23  10  31  1   
 24  10  32  1   
 25  11  13  1   
 26  11  14  1   
 27  11  33  1   
 28  12  14  1   
 29  12  34  1   
 30  12  35  1   
 31  13  15  ar  
 32  13  16  ar  
 33  14  36  1   
 34  14  37  1   
 35  15  17  ar  
 36  15  38  1   
 37  16  18  ar  
 38  16  39  1   
 39  17  19  ar  
 40  17  20  1   
 41  18  19  ar  
 42  18  40  1   
 43  19  41  1   
 44  20  42  1   
 45  20  43  1   
 46  20  44  1   
@<TRIPOS>SUBSTRUCTURE
  1 ****   9 GROUP 4 **** **** 0

# MOE 2024.06 (io_trps.svl 2023.06)
