@<TRIPOS>MOLECULE
NONAME
24 24 1 0 0 
SMALL
USER_CHARGES


@<TRIPOS>ATOM
  1 S        0.0630    -0.0440     0.3240 S.3   1 <1>  -0.3320 
  2 C        0.0760    -1.7570    -0.1760 C.ar  1 <1>   0.7220 
  3 C        1.8090     0.5300     0.1240 C.3   1 <1>  -0.0100 
  4 N       -1.0810    -2.3620    -0.1020 N.ar  1 <1>  -0.6200 
  5 N        1.2160    -2.2440    -0.5630 N.ar  1 <1>  -0.6200 
  6 C       -1.0420    -3.6220    -0.4810 C.ar  1 <1>   0.4770 
  7 C        1.1240    -3.4970    -0.8970 C.ar  1 <1>   0.7200 
  8 N        0.0480    -4.2360    -0.8800 N.ar  1 <1>  -0.6200 
  9 C       -2.3670    -4.4440    -0.4260 C.3   1 <1>   0.4840 
 10 N        2.2420    -4.0910    -1.3080 N.pl3 1 <1>  -0.9000 
 11 F       -2.5140    -5.0870    -1.5830 F     1 <1>  -0.3400 
 12 C       -3.6440    -3.6010    -0.2810 C.3   1 <1>  -0.2400 
 13 C       -2.3210    -5.5360     0.6500 C.3   1 <1>  -0.2400 
 14 H        1.8510     1.5620     0.4200 H     1 <1>   0.0800 
 15 H        2.0790     0.4130    -0.9100 H     1 <1>   0.0800 
 16 H        2.4310    -0.0790     0.7560 H     1 <1>   0.0800 
 17 H        2.1720    -5.0080    -1.7420 H     1 <1>   0.4000 
 18 H        3.0590    -3.5240    -1.5160 H     1 <1>   0.4000 
 19 H       -3.6920    -2.8700    -1.0680 H     1 <1>   0.0800 
 20 H       -3.6370    -3.0830     0.6600 H     1 <1>   0.0800 
 21 H       -4.5170    -4.2270    -0.3200 H     1 <1>   0.0800 
 22 H       -1.4740    -6.1790     0.4870 H     1 <1>   0.0800 
 23 H       -3.2220    -6.1210     0.6350 H     1 <1>   0.0800 
 24 H       -2.2190    -5.0830     1.6190 H     1 <1>   0.0800 
@<TRIPOS>BOND
  1   1   2  1   
  2   1   3  1   
  3   2   4  ar  
  4   2   5  ar  
  5   3  14  1   
  6   3  15  1   
  7   3  16  1   
  8   4   6  ar  
  9   5   7  ar  
 10   6   8  ar  
 11   6   9  1   
 12   7   8  ar  
 13   7  10  1   
 14   9  11  1   
 15   9  12  1   
 16   9  13  1   
 17  10  17  1   
 18  10  18  1   
 19  12  19  1   
 20  12  20  1   
 21  12  21  1   
 22  13  22  1   
 23  13  23  1   
 24  13  24  1   
@<TRIPOS>SUBSTRUCTURE
  1 ****   6 GROUP 4 **** **** 0

# MOE 2024.06 (io_trps.svl 2023.06)
