@<TRIPOS>MOLECULE
NONAME
50 53 1 0 0 
SMALL
USER_CHARGES


@<TRIPOS>ATOM
  1 S        0.1390     0.0950     0.2110 S.o2  1 <1>   1.2040 
  2 O        1.0730     0.5650    -0.7870 O.2   1 <1>  -0.6500 
  3 O        0.2800     0.5010     1.5910 O.2   1 <1>  -0.6500 
  4 C        0.0220    -1.7110     0.1250 C.ar  1 <1>  -0.0090 
  5 C       -1.4870     0.5970    -0.3170 C.3   1 <1>  -0.1350 
  6 C        0.2750    -2.3940    -1.0580 C.ar  1 <1>  -0.1500 
  7 C       -0.3460    -2.4640     1.2340 C.ar  1 <1>  -0.1500 
  8 C        0.1550    -3.7700    -1.1320 C.ar  1 <1>  -0.1500 
  9 C       -0.4630    -3.8400     1.1610 C.ar  1 <1>  -0.1500 
 10 C       -0.2270    -4.5290    -0.0280 C.ar  1 <1>   0.0860 
 11 C       -0.3620    -5.9730    -0.1210 C.2   1 <1>   0.5440 
 12 O        0.4500    -6.6110    -0.7620 O.2   1 <1>  -0.5700 
 13 N       -1.4050    -6.6460     0.4760 N.am  1 <1>  -0.6600 
 14 C       -1.4070    -8.1390     0.6050 C.3   1 <1>   0.1400 
 15 C       -2.7740    -6.0630     0.6180 C.3   1 <1>   0.1400 
 16 C       -2.4820    -8.7720    -0.2980 C.3   1 <1>   0.3430 
 17 C       -3.7780    -6.8060    -0.2870 C.3   1 <1>   0.2950 
 18 O       -3.7320    -8.1810    -0.0440 O.3   1 <1>  -0.5600 
 19 C       -2.5650   -10.2770    -0.0590 C.ar  1 <1>  -0.1430 
 20 C       -5.2140    -6.3390    -0.0290 C.3   1 <1>  -0.1950 
 21 C       -1.7520   -11.1290    -0.7950 C.ar  1 <1>  -0.1500 
 22 C       -3.4240   -10.8190     0.8880 C.ar  1 <1>  -0.1500 
 23 C       -6.2790    -6.5110    -1.0650 C.3   1 <1>  -0.2000 
 24 C       -5.7750    -5.1370    -0.7230 C.3   1 <1>  -0.2000 
 25 C       -1.7970   -12.4970    -0.5880 C.ar  1 <1>  -0.1500 
 26 C       -3.4700   -12.1860     1.0960 C.ar  1 <1>  -0.1500 
 27 C       -2.6560   -13.0270     0.3580 C.ar  1 <1>  -0.1500 
 28 H       -1.6820     0.2480    -1.3120 H     1 <1>   0.0800 
 29 H       -1.5570     1.6680    -0.3120 H     1 <1>   0.0800 
 30 H       -2.2340     0.2040     0.3440 H     1 <1>   0.0800 
 31 H        0.5780    -1.8420    -1.9330 H     1 <1>   0.1500 
 32 H       -0.5330    -1.9650     2.1710 H     1 <1>   0.1500 
 33 H        0.3670    -4.2770    -2.0600 H     1 <1>   0.1500 
 34 H       -0.7360    -4.3980     2.0410 H     1 <1>   0.1500 
 35 H       -0.4450    -8.5460     0.3470 H     1 <1>   0.0800 
 36 H       -1.6070    -8.4080     1.6270 H     1 <1>   0.0800 
 37 H       -3.0910    -6.1460     1.6430 H     1 <1>   0.0800 
 38 H       -2.7770    -5.0220     0.3500 H     1 <1>   0.0800 
 39 H       -2.2340    -8.5920    -1.3300 H     1 <1>   0.0800 
 40 H       -3.5270    -6.6400    -1.3210 H     1 <1>   0.0800 
 41 H       -5.5080    -6.4960     0.9950 H     1 <1>   0.1000 
 42 H       -1.0770   -10.7310    -1.5330 H     1 <1>   0.1500 
 43 H       -4.0640   -10.1740     1.4650 H     1 <1>   0.1500 
 44 H       -6.0110    -6.9500    -2.0110 H     1 <1>   0.1000 
 45 H       -7.2620    -6.8050    -0.7410 H     1 <1>   0.1000 
 46 H       -6.4260    -4.4760    -0.1760 H     1 <1>   0.1000 
 47 H       -5.1870    -4.6180    -1.4600 H     1 <1>   0.1000 
 48 H       -1.1630   -13.1490    -1.1640 H     1 <1>   0.1500 
 49 H       -4.1410   -12.5950     1.8300 H     1 <1>   0.1500 
 50 H       -2.6920   -14.0900     0.5190 H     1 <1>   0.1500 
@<TRIPOS>BOND
  1   1   2  2   
  2   1   3  2   
  3   1   4  1   
  4   1   5  1   
  5   4   6  ar  
  6   4   7  ar  
  7   5  28  1   
  8   5  29  1   
  9   5  30  1   
 10   6   8  ar  
 11   6  31  1   
 12   7   9  ar  
 13   7  32  1   
 14   8  10  ar  
 15   8  33  1   
 16   9  10  ar  
 17   9  34  1   
 18  10  11  1   
 19  11  12  2   
 20  11  13  am  
 21  13  14  1   
 22  13  15  1   
 23  14  16  1   
 24  14  35  1   
 25  14  36  1   
 26  15  17  1   
 27  15  37  1   
 28  15  38  1   
 29  16  18  1   
 30  16  19  1   
 31  16  39  1   
 32  17  18  1   
 33  17  20  1   
 34  17  40  1   
 35  19  21  ar  
 36  19  22  ar  
 37  20  23  1   
 38  20  24  1   
 39  20  41  1   
 40  21  25  ar  
 41  21  42  1   
 42  22  26  ar  
 43  22  43  1   
 44  23  24  1   
 45  23  44  1   
 46  23  45  1   
 47  24  46  1   
 48  24  47  1   
 49  25  27  ar  
 50  25  48  1   
 51  26  27  ar  
 52  26  49  1   
 53  27  50  1   
@<TRIPOS>SUBSTRUCTURE
  1 ****  13 GROUP 4 **** **** 0

# MOE 2024.06 (io_trps.svl 2023.06)
