@<TRIPOS>MOLECULE
NONAME
45 48 1 0 0 
SMALL
USER_CHARGES


@<TRIPOS>ATOM
  1 S       -0.4900    -0.9850    -0.4240 S.o2  1 <1>   1.0900 
  2 O       -0.2220    -2.0290     0.5330 O.2   1 <1>  -0.6500 
  3 O        0.3990    -0.7340    -1.5340 O.2   1 <1>  -0.6500 
  4 C       -2.1350    -1.1610    -1.0950 C.3   1 <1>  -0.0550 
  5 C       -0.8090     0.5640     0.4000 C.3   1 <1>  -0.0550 
  6 C       -3.0090     0.0010    -0.5840 C.3   1 <1>   0.0250 
  7 C       -2.0510     1.1710    -0.2650 C.3   1 <1>  -0.1600 
  8 S       -4.0210    -0.4830     0.8370 S.o2  1 <1>   1.3330 
  9 O       -4.9520     0.5870     1.1140 O.2   1 <1>  -0.6500 
 10 O       -3.1270    -0.9370     1.8750 O.2   1 <1>  -0.6500 
 11 N       -4.8850    -1.8110     0.2300 N.am  1 <1>  -0.8490 
 12 C       -5.0030    -2.8990     1.2110 C.3   1 <1>   0.1960 
 13 C       -6.2070    -1.4320    -0.2850 C.3   1 <1>   0.1960 
 14 C       -5.6060    -4.1370     0.5470 C.3   1 <1>  -0.1600 
 15 C       -6.8400    -2.6170    -1.0130 C.3   1 <1>  -0.1600 
 16 C       -6.9650    -3.8250    -0.0790 C.3   1 <1>   0.4600 
 17 O       -7.8250    -3.4910     0.9920 O.3   1 <1>  -0.5600 
 18 C       -7.5310    -5.0410    -0.8010 C.2   1 <1>  -0.1400 
 19 C       -9.2150    -3.5990     0.7870 C.3   1 <1>   0.1200 
 20 S       -6.6690    -5.8730    -2.0860 S.3   1 <1>  -0.0800 
 21 C       -8.7160    -5.6230    -0.5710 C.2   1 <1>  -0.1810 
 22 C       -9.6320    -5.0540     0.4890 C.3   1 <1>   0.0210 
 23 C       -7.9830    -7.0300    -2.2610 C.2   1 <1>  -0.1100 
 24 C       -8.9790    -6.7620    -1.3940 C.2   1 <1>  -0.1500 
 25 H       -2.5510    -2.1150    -0.8310 H     1 <1>   0.0800 
 26 H       -2.0790    -1.1090    -2.1650 H     1 <1>   0.0800 
 27 H        0.0350     1.2230     0.3300 H     1 <1>   0.0800 
 28 H       -1.0110     0.3800     1.4390 H     1 <1>   0.0800 
 29 H       -3.6770     0.3010    -1.3690 H     1 <1>   0.0800 
 30 H       -1.7560     1.6470    -1.1850 H     1 <1>   0.0800 
 31 H       -2.5160     1.9080     0.3690 H     1 <1>   0.0800 
 32 H       -5.6120    -2.5830     2.0430 H     1 <1>   0.0800 
 33 H       -4.0290    -3.1640     1.5900 H     1 <1>   0.0800 
 34 H       -6.1100    -0.6100    -0.9740 H     1 <1>   0.0800 
 35 H       -6.8420    -1.1150     0.5280 H     1 <1>   0.0800 
 36 H       -5.7210    -4.9240     1.2700 H     1 <1>   0.0800 
 37 H       -4.9260    -4.4840    -0.2080 H     1 <1>   0.0800 
 38 H       -6.2200    -2.8780    -1.8510 H     1 <1>   0.0800 
 39 H       -7.8030    -2.3460    -1.3990 H     1 <1>   0.0800 
 40 H       -9.4910    -2.9580    -0.0310 H     1 <1>   0.0800 
 41 H       -9.7060    -3.2490     1.6780 H     1 <1>   0.0800 
 42 H      -10.6500    -5.0700     0.1470 H     1 <1>   0.0800 
 43 H       -9.5630    -5.6450     1.3850 H     1 <1>   0.0800 
 44 H       -7.8680    -7.7990    -3.0030 H     1 <1>   0.1500 
 45 H       -9.8930    -7.3210    -1.2990 H     1 <1>   0.1500 
@<TRIPOS>BOND
  1   1   2  2   
  2   1   3  2   
  3   1   4  1   
  4   1   5  1   
  5   4   6  1   
  6   4  25  1   
  7   4  26  1   
  8   5   7  1   
  9   5  27  1   
 10   5  28  1   
 11   6   7  1   
 12   6   8  1   
 13   6  29  1   
 14   7  30  1   
 15   7  31  1   
 16   8   9  2   
 17   8  10  2   
 18   8  11  am  
 19  11  12  1   
 20  11  13  1   
 21  12  14  1   
 22  12  32  1   
 23  12  33  1   
 24  13  15  1   
 25  13  34  1   
 26  13  35  1   
 27  14  16  1   
 28  14  36  1   
 29  14  37  1   
 30  15  16  1   
 31  15  38  1   
 32  15  39  1   
 33  16  17  1   
 34  16  18  1   
 35  17  19  1   
 36  18  20  1   
 37  18  21  2   
 38  19  22  1   
 39  19  40  1   
 40  19  41  1   
 41  20  23  1   
 42  21  22  1   
 43  21  24  1   
 44  22  42  1   
 45  22  43  1   
 46  23  24  2   
 47  23  44  1   
 48  24  45  1   
@<TRIPOS>SUBSTRUCTURE
  1 ****  11 GROUP 4 **** **** 0

# MOE 2024.06 (io_trps.svl 2023.06)
