@<TRIPOS>MOLECULE
NONAME
46 48 1 0 0 
SMALL
USER_CHARGES


@<TRIPOS>ATOM
  1 S        0.2710    -0.5710    -0.1770 S.3   1 <1>  -0.0800 
  2 C       -1.4530    -0.4410     0.0450 C.2   1 <1>  -0.1400 
  3 C        0.4390    -0.8620     1.5380 C.2   1 <1>   0.2280 
  4 C       -1.7390    -0.6320     1.3440 C.2   1 <1>   0.0460 
  5 C       -2.3130    -0.1510    -1.1590 C.3   1 <1>   0.5230 
  6 N       -0.6610    -0.8540     2.1770 N.2   1 <1>  -0.5650 
  7 C       -3.1020    -0.6280     2.0070 C.3   1 <1>  -0.0590 
  8 N       -2.4930     1.3180    -1.2330 N.4   1 <1>  -0.9590 
  9 C       -3.7690     1.7300    -1.8650 C.3   1 <1>   0.4860 
 10 C       -1.3220     2.0600    -1.7440 C.3   1 <1>   0.5240 
 11 C       -4.8680     1.3720    -0.8880 C.ar  1 <1>  -0.1440 
 12 C       -1.4810     3.4620    -1.2150 C.2   1 <1>  -0.1810 
 13 C       -5.0480     2.1460     0.2500 C.ar  1 <1>  -0.1500 
 14 C       -5.6860     0.2720    -1.1060 C.ar  1 <1>  -0.1500 
 15 C       -1.4030     3.9200     0.0570 C.2   1 <1>  -0.3320 
 16 C       -1.7840     4.5800    -1.9820 C.2   1 <1>   0.1390 
 17 C       -6.0240     1.8120     1.1710 C.ar  1 <1>  -0.1500 
 18 C       -6.6610    -0.0600    -0.1820 C.ar  1 <1>  -0.1500 
 19 N       -1.6630     5.2480     0.0020 N.pl3 1 <1>   0.3140 
 20 C       -1.0770     3.1840     1.3510 C.3   1 <1>  -0.0600 
 21 N       -1.9100     5.6410    -1.2570 N.2   1 <1>  -0.7070 
 22 C       -6.8270     0.7070     0.9570 C.ar  1 <1>  -0.1500 
 23 C       -1.6820     6.2110     1.1130 C.3   1 <1>   0.0160 
 24 H        1.4340    -1.0200     1.9210 H     1 <1>   0.1500 
 25 H       -3.2670    -0.6310    -1.0160 H     1 <1>   0.0800 
 26 H       -1.8610    -0.5400    -2.0570 H     1 <1>   0.0800 
 27 H       -3.8900    -0.4810     1.2930 H     1 <1>   0.0800 
 28 H       -3.1460     0.1550     2.7420 H     1 <1>   0.0800 
 29 H       -3.2610    -1.5680     2.5050 H     1 <1>   0.0800 
 30 H       -2.5770     1.6350    -0.2590 H     1 <1>   0.4500 
 31 H       -3.9150     1.2300    -2.8080 H     1 <1>   0.0800 
 32 H       -3.7840     2.7960    -2.0280 H     1 <1>   0.0800 
 33 H       -1.2910     2.0510    -2.8210 H     1 <1>   0.0800 
 34 H       -0.4060     1.6440    -1.3590 H     1 <1>   0.0800 
 35 H       -4.4390     3.0190     0.4300 H     1 <1>   0.1500 
 36 H       -5.5830    -0.3350    -1.9890 H     1 <1>   0.1500 
 37 H       -1.9110     4.5940    -3.0530 H     1 <1>   0.1500 
 38 H       -6.1660     2.4120     2.0540 H     1 <1>   0.1500 
 39 H       -7.2980    -0.9130    -0.3480 H     1 <1>   0.1500 
 40 H       -0.7940     2.1650     1.1630 H     1 <1>   0.0800 
 41 H       -1.9270     3.1890     2.0120 H     1 <1>   0.0800 
 42 H       -0.2540     3.6650     1.8510 H     1 <1>   0.0800 
 43 H       -7.5890     0.4480     1.6740 H     1 <1>   0.1500 
 44 H       -2.3730     5.8780     1.8630 H     1 <1>   0.0800 
 45 H       -1.9900     7.1710     0.7410 H     1 <1>   0.0800 
 46 H       -0.6950     6.2900     1.5290 H     1 <1>   0.0800 
@<TRIPOS>BOND
  1   1   2  1   
  2   1   3  1   
  3   2   4  2   
  4   2   5  1   
  5   3   6  2   
  6   3  24  1   
  7   4   6  1   
  8   4   7  1   
  9   5   8  1   
 10   5  25  1   
 11   5  26  1   
 12   7  27  1   
 13   7  28  1   
 14   7  29  1   
 15   8   9  1   
 16   8  10  1   
 17   8  30  1   
 18   9  11  1   
 19   9  31  1   
 20   9  32  1   
 21  10  12  1   
 22  10  33  1   
 23  10  34  1   
 24  11  13  ar  
 25  11  14  ar  
 26  12  15  2   
 27  12  16  1   
 28  13  17  ar  
 29  13  35  1   
 30  14  18  ar  
 31  14  36  1   
 32  15  19  1   
 33  15  20  1   
 34  16  21  2   
 35  16  37  1   
 36  17  22  ar  
 37  17  38  1   
 38  18  22  ar  
 39  18  39  1   
 40  19  21  1   
 41  19  23  1   
 42  20  40  1   
 43  20  41  1   
 44  20  42  1   
 45  22  43  1   
 46  23  44  1   
 47  23  45  1   
 48  23  46  1   
@<TRIPOS>SUBSTRUCTURE
  1 ****   8 GROUP 4 **** **** 0

# MOE 2024.06 (io_trps.svl 2023.06)
