@<TRIPOS>MOLECULE
NONAME
47 49 1 0 0 
SMALL
USER_CHARGES


@<TRIPOS>ATOM
  1 S        0.6220    -1.1940     0.1990 S.o2  1 <1>   1.4470 
  2 O        1.3300    -2.3080    -0.3880 O.2   1 <1>  -0.6500 
  3 O        0.3230    -1.2520     1.6150 O.2   1 <1>  -0.6500 
  4 N       -0.9000    -1.1630    -0.5520 N.am  1 <1>  -0.8490 
  5 C        1.3860     0.3830    -0.2720 C.ar  1 <1>  -0.0090 
  6 C       -1.5710    -2.4700    -0.4800 C.3   1 <1>   0.1960 
  7 C       -1.7600    -0.0740    -0.0490 C.3   1 <1>   0.1960 
  8 C        1.6410     0.6730    -1.6110 C.ar  1 <1>  -0.1500 
  9 C        1.7210     1.3360     0.6890 C.ar  1 <1>  -0.1500 
 10 C       -2.6640    -2.4250     0.6160 C.3   1 <1>   0.4230 
 11 C       -3.2700    -0.4080    -0.2370 C.3   1 <1>  -0.1600 
 12 C        2.2090     1.8780    -1.9900 C.ar  1 <1>  -0.1500 
 13 C        2.2890     2.5470     0.3300 C.ar  1 <1>  -0.1500 
 14 N       -2.5850    -3.5760     1.5850 N.4   1 <1>  -0.9590 
 15 C       -4.0030    -1.8540    -0.0460 C.3   1 <1>   0.0000 
 16 C        2.5220     2.7960    -1.0080 C.ar  1 <1>   0.1900 
 17 C       -3.0170    -4.8140     0.9660 C.3   1 <1>   0.3430 
 18 C       -1.2530    -3.7070     2.2660 C.3   1 <1>   0.2630 
 19 C       -4.8060    -3.2630     0.0380 C.3   1 <1>  -0.1600 
 20 C       -5.3360    -1.1910    -0.6680 C.3   1 <1>   0.1200 
 21 F        3.0550     3.9360    -1.3540 F     1 <1>  -0.1900 
 22 C       -4.4840    -4.5660     0.8030 C.3   1 <1>  -0.1600 
 23 O       -6.0970    -0.6920     0.3870 O.3   1 <1>  -0.6800 
 24 H       -2.0370    -2.6610    -1.4320 H     1 <1>   0.0800 
 25 H       -0.8670    -3.2650    -0.3150 H     1 <1>   0.0800 
 26 H       -1.5780     0.1060     0.9990 H     1 <1>   0.0800 
 27 H       -1.5150     0.8400    -0.5670 H     1 <1>   0.0800 
 28 H        1.3930    -0.0550    -2.3660 H     1 <1>   0.1500 
 29 H        1.5380     1.1300     1.7310 H     1 <1>   0.1500 
 30 H       -2.3650    -1.6470     1.2920 H     1 <1>   0.0800 
 31 H       -3.7860     0.3430     0.3420 H     1 <1>   0.0800 
 32 H       -3.3430    -0.1200    -1.2740 H     1 <1>   0.0800 
 33 H        2.4080     2.1050    -3.0230 H     1 <1>   0.1500 
 34 H        2.5500     3.2850     1.0680 H     1 <1>   0.1500 
 35 H       -3.2800    -3.3600     2.3140 H     1 <1>   0.4500 
 36 H       -2.5300    -4.9720     0.0160 H     1 <1>   0.0800 
 37 H       -2.8450    -5.6590     1.6140 H     1 <1>   0.0800 
 38 H       -0.4750    -3.9270     1.5530 H     1 <1>   0.0800 
 39 H       -1.2810    -4.4980     2.9970 H     1 <1>   0.0800 
 40 H       -1.0000    -2.7880     2.7700 H     1 <1>   0.0800 
 41 H       -5.8240    -3.1220     0.3750 H     1 <1>   0.0800 
 42 H       -4.8690    -3.6030    -0.9850 H     1 <1>   0.0800 
 43 H       -5.9730    -1.8530    -1.2340 H     1 <1>   0.0800 
 44 H       -5.2300    -0.3720    -1.3590 H     1 <1>   0.0800 
 45 H       -4.9260    -5.4040     0.2900 H     1 <1>   0.0800 
 46 H       -4.9400    -4.5340     1.7790 H     1 <1>   0.0800 
 47 H       -6.9270    -0.2820     0.0630 H     1 <1>   0.4000 
@<TRIPOS>BOND
  1   1   2  2   
  2   1   3  2   
  3   1   4  am  
  4   1   5  1   
  5   4   6  1   
  6   4   7  1   
  7   5   8  ar  
  8   5   9  ar  
  9   6  10  1   
 10   6  24  1   
 11   6  25  1   
 12   7  11  1   
 13   7  26  1   
 14   7  27  1   
 15   8  12  ar  
 16   8  28  1   
 17   9  13  ar  
 18   9  29  1   
 19  10  14  1   
 20  10  15  1   
 21  10  30  1   
 22  11  15  1   
 23  11  31  1   
 24  11  32  1   
 25  12  16  ar  
 26  12  33  1   
 27  13  16  ar  
 28  13  34  1   
 29  14  17  1   
 30  14  18  1   
 31  14  35  1   
 32  15  19  1   
 33  15  20  1   
 34  16  21  1   
 35  17  22  1   
 36  17  36  1   
 37  17  37  1   
 38  18  38  1   
 39  18  39  1   
 40  18  40  1   
 41  19  22  1   
 42  19  41  1   
 43  19  42  1   
 44  20  23  1   
 45  20  43  1   
 46  20  44  1   
 47  22  45  1   
 48  22  46  1   
 49  23  47  1   
@<TRIPOS>SUBSTRUCTURE
  1 ****   4 GROUP 4 **** **** 0

# MOE 2024.06 (io_trps.svl 2023.06)
