@<TRIPOS>MOLECULE
NONAME
36 37 1 0 0 
SMALL
USER_CHARGES


@<TRIPOS>ATOM
  1 S        0.4390    -0.1890     0.0330 S.3   1 <1>  -0.2860 
  2 C       -1.0800    -0.7060     0.8450 C.2   1 <1>   0.2420 
  3 C        0.4340     1.6450     0.2600 C.3   1 <1>   0.0700 
  4 N       -1.9120     0.0860     1.3980 N.2   1 <1>  -0.3380 
  5 N       -1.4700    -1.9620     0.9340 N.pl3 1 <1>   0.3140 
  6 C        1.5670     2.2390    -0.5730 C.3   1 <1>   0.2090 
  7 N       -2.8720    -0.7170     1.8580 N.2   1 <1>   0.0000 
  8 N       -2.6160    -1.9520     1.5840 N.2   1 <1>  -0.4180 
  9 C       -0.8180    -3.1830     0.4390 C.3   1 <1>   0.0160 
 10 N        1.5720     3.7240    -0.4370 N.pl3 1 <1>  -0.8690 
 11 C        2.5760     4.5030     0.0240 C.ar  1 <1>   0.4100 
 12 N        3.6870     3.9000     0.3980 N.ar  1 <1>  -0.6200 
 13 C        2.4180     5.9110     0.0900 C.ar  1 <1>  -0.1430 
 14 C        4.6710     4.6490     0.8370 C.ar  1 <1>   0.7710 
 15 C        3.4680     6.6400     0.5560 C.ar  1 <1>   0.2110 
 16 C        1.0920     6.5410    -0.3570 C.3   1 <1>  -0.0160 
 17 N        4.5950     5.9860     0.9260 N.ar  1 <1>  -0.1790 
 18 N        5.7830     4.0150     1.2020 N.pl3 1 <1>  -0.9000 
 19 C        1.0190     8.0680    -0.2300 C.3   1 <1>  -0.2400 
 20 H        0.5720     1.8350     1.3100 H     1 <1>   0.0800 
 21 H       -0.5260     2.0020    -0.0670 H     1 <1>   0.0800 
 22 H        1.4260     1.9810    -1.6090 H     1 <1>   0.0800 
 23 H        2.5030     1.8190    -0.2470 H     1 <1>   0.0800 
 24 H       -0.6550    -3.0940    -0.6190 H     1 <1>   0.0800 
 25 H       -1.4500    -4.0290     0.6360 H     1 <1>   0.0800 
 26 H        0.1230    -3.3110     0.9420 H     1 <1>   0.0800 
 27 H        0.7080     4.1620    -0.7660 H     1 <1>   0.4000 
 28 H        3.4520     7.7140     0.6460 H     1 <1>   0.1500 
 29 H        0.2920     6.1170     0.2270 H     1 <1>   0.0800 
 30 H        0.9150     6.2810    -1.3880 H     1 <1>   0.0800 
 31 H        5.4120     6.4730     1.2800 H     1 <1>   0.4570 
 32 H        6.6560     4.3980     1.5660 H     1 <1>   0.4000 
 33 H        5.7880     2.9940     1.1110 H     1 <1>   0.4000 
 34 H        1.1410     8.3750     0.7940 H     1 <1>   0.0800 
 35 H        0.0540     8.4090    -0.5630 H     1 <1>   0.0800 
 36 H        1.7660     8.5430    -0.8420 H     1 <1>   0.0800 
@<TRIPOS>BOND
  1   1   2  1   
  2   1   3  1   
  3   2   4  2   
  4   2   5  1   
  5   3   6  1   
  6   3  20  1   
  7   3  21  1   
  8   4   7  1   
  9   5   8  1   
 10   5   9  1   
 11   6  10  1   
 12   6  22  1   
 13   6  23  1   
 14   7   8  2   
 15   9  24  1   
 16   9  25  1   
 17   9  26  1   
 18  10  11  1   
 19  10  27  1   
 20  11  12  ar  
 21  11  13  ar  
 22  12  14  ar  
 23  13  15  ar  
 24  13  16  1   
 25  14  17  ar  
 26  14  18  1   
 27  15  17  ar  
 28  15  28  1   
 29  16  19  1   
 30  16  29  1   
 31  16  30  1   
 32  17  31  1   
 33  18  32  1   
 34  18  33  1   
 35  19  34  1   
 36  19  35  1   
 37  19  36  1   
@<TRIPOS>SUBSTRUCTURE
  1 ****   6 GROUP 4 **** **** 0

# MOE 2024.06 (io_trps.svl 2023.06)
