@<TRIPOS>MOLECULE
NONAME
26 26 1 0 0 
SMALL
USER_CHARGES


@<TRIPOS>ATOM
  1 BR       0.6310     0.1770    -1.5790 Br    1 <1>  -0.1110 
  2 C        0.1600     1.8900    -0.8380 C.ar  1 <1>   0.1110 
  3 C       -1.1350     2.3470    -0.9870 C.ar  1 <1>  -0.1500 
  4 C        1.1300     2.6180    -0.1770 C.ar  1 <1>  -0.1500 
  5 C       -1.4780     3.5820    -0.4560 C.ar  1 <1>  -0.1440 
  6 C        0.7840     3.8480     0.3540 C.ar  1 <1>  -0.1500 
  7 C       -0.5120     4.3240     0.2140 C.ar  1 <1>  -0.1500 
  8 C       -2.8960     4.1200    -0.6080 C.3   1 <1>  -0.0160 
  9 C       -3.8630     3.5440     0.4380 C.3   1 <1>   0.2510 
 10 N       -4.1480     2.1180     0.1330 N.3   1 <1>  -0.9900 
 11 C       -5.1240     4.4270     0.5230 C.2   1 <1>   0.6590 
 12 O       -5.3070     5.1870     1.4390 O.2   1 <1>  -0.5700 
 13 O       -5.9970     4.3060    -0.4750 O.3   1 <1>  -0.4300 
 14 C       -7.1910     5.0630    -0.5130 C.3   1 <1>   0.0400 
 15 H       -1.8620     1.7440    -1.5010 H     1 <1>   0.1500 
 16 H        2.1280     2.2290    -0.0800 H     1 <1>   0.1500 
 17 H        1.5190     4.4350     0.8760 H     1 <1>   0.1500 
 18 H       -0.7630     5.2820     0.6340 H     1 <1>   0.1500 
 19 H       -3.2660     3.9150    -1.5960 H     1 <1>   0.0800 
 20 H       -2.8650     5.1900    -0.4980 H     1 <1>   0.0800 
 21 H       -3.3770     3.5920     1.3980 H     1 <1>   0.0800 
 22 H       -4.7600     2.0830    -0.6920 H     1 <1>   0.3600 
 23 H       -4.6820     1.7120     0.9100 H     1 <1>   0.3600 
 24 H       -7.7340     4.8000    -1.4020 H     1 <1>   0.0800 
 25 H       -6.9400     6.1090    -0.5260 H     1 <1>   0.0800 
 26 H       -7.7760     4.8330     0.3610 H     1 <1>   0.0800 
@<TRIPOS>BOND
  1   1   2  1   
  2   2   3  ar  
  3   2   4  ar  
  4   3   5  ar  
  5   3  15  1   
  6   4   6  ar  
  7   4  16  1   
  8   5   7  ar  
  9   5   8  1   
 10   6   7  ar  
 11   6  17  1   
 12   7  18  1   
 13   8   9  1   
 14   8  19  1   
 15   8  20  1   
 16   9  10  1   
 17   9  11  1   
 18   9  21  1   
 19  10  22  1   
 20  10  23  1   
 21  11  12  2   
 22  11  13  1   
 23  13  14  1   
 24  14  24  1   
 25  14  25  1   
 26  14  26  1   
@<TRIPOS>SUBSTRUCTURE
  1 ****   8 GROUP 4 **** **** 0

# MOE 2024.06 (io_trps.svl 2023.06)
