@<TRIPOS>MOLECULE
NONAME
18 19 1 0 0 
SMALL
USER_CHARGES


@<TRIPOS>ATOM
  1 BR       0.2140    -0.3380    -1.0520 Br    1 <1>  -0.0580 
  2 C       -1.6590    -0.3110    -0.6260 C.2   1 <1>   0.0980 
  3 S       -2.2950     1.2150    -0.0550 S.3   1 <1>  -0.0800 
  4 C       -2.5880    -1.2800    -0.6900 C.2   1 <1>  -0.1500 
  5 C       -3.8950     0.4900     0.0980 C.2   1 <1>  -0.0450 
  6 C       -3.8750    -0.8090    -0.2700 C.2   1 <1>  -0.1500 
  7 C       -5.0120     1.3850     0.6000 C.3   1 <1>  -0.0150 
  8 C       -5.7410     2.2990    -0.3350 C.3   1 <1>  -0.2470 
  9 C       -6.4340     1.0890     0.2400 C.3   1 <1>  -0.2000 
 10 C       -6.1160     3.7080     0.0960 C.2   1 <1>   0.9470 
 11 O       -6.3530     3.9310     1.2890 O.co2 1 <1>  -0.9000 
 12 O       -6.1810     4.5850    -0.7700 O.co2 1 <1>  -0.9000 
 13 H       -2.4260    -2.2930    -1.0110 H     1 <1>   0.1500 
 14 H       -4.7290    -1.4610    -0.2620 H     1 <1>   0.1500 
 15 H       -4.8220     1.7660     1.5890 H     1 <1>   0.1000 
 16 H       -5.4560     2.2770    -1.3690 H     1 <1>   0.1000 
 17 H       -6.6660     0.2820    -0.4300 H     1 <1>   0.1000 
 18 H       -7.1970     1.2560     0.9800 H     1 <1>   0.1000 
@<TRIPOS>BOND
  1   1   2  1   
  2   2   3  1   
  3   2   4  2   
  4   3   5  1   
  5   4   6  1   
  6   4  13  1   
  7   5   6  2   
  8   5   7  1   
  9   6  14  1   
 10   7   8  1   
 11   7   9  1   
 12   7  15  1   
 13   8   9  1   
 14   8  10  1   
 15   8  16  1   
 16   9  17  1   
 17   9  18  1   
 18  10  11  ar  
 19  10  12  ar  
@<TRIPOS>SUBSTRUCTURE
  1 ****   5 GROUP 4 **** **** 0

# MOE 2024.06 (io_trps.svl 2023.06)
