@<TRIPOS>MOLECULE
NONAME
57 60 1 0 0 
SMALL
USER_CHARGES


@<TRIPOS>ATOM
  1 O        1.1900    -0.4910     1.6210 O.2   1 <1>  -0.5700 
  2 C        2.1950    -0.9660     1.1230 C.2   1 <1>   0.7160 
  3 N        3.4250    -0.4940     1.5790 N.am  1 <1>  -0.6600 
  4 C        2.0550    -1.9700     0.0750 C.2   1 <1>   0.2030 
  5 C        4.7050    -1.2360     1.3750 C.3   1 <1>   0.1400 
  6 C        3.5020     0.6990     2.4700 C.3   1 <1>   0.1400 
  7 N        2.9500    -2.3400    -0.7990 N.2   1 <1>  -0.4100 
  8 C        0.8960    -2.6900    -0.1730 C.2   1 <1>  -0.1500 
  9 C        5.4390    -0.7480     0.1090 C.3   1 <1>   0.3430 
 10 C        4.6580     1.6280     2.0820 C.3   1 <1>  -0.1600 
 11 O        2.4610    -3.2580    -1.5960 O.3   1 <1>  -0.0190 
 12 C        1.2200    -3.4630    -1.2130 C.2   1 <1>  -0.0400 
 13 N        5.9320     0.6730     0.1660 N.4   1 <1>  -0.9590 
 14 C        4.9110     1.6910     0.5740 C.3   1 <1>   0.3430 
 15 C        0.3860    -4.4820    -1.9610 C.3   1 <1>  -0.0600 
 16 C        6.5380     1.0400    -1.1390 C.3   1 <1>   0.5240 
 17 C        7.3430     2.3020    -0.9290 C.2   1 <1>  -0.1810 
 18 C        7.0180     3.5590    -1.4280 C.2   1 <1>   0.1080 
 19 C        8.4950     2.4890    -0.2430 C.2   1 <1>  -0.3320 
 20 N        7.8730     4.4540    -1.0700 N.2   1 <1>  -0.7070 
 21 C        5.8280     3.9150    -2.2960 C.3   1 <1>  -0.0590 
 22 N        8.8120     3.8140    -0.3340 N.pl3 1 <1>   0.5930 
 23 C        9.3710     1.4840     0.4960 C.3   1 <1>  -0.0600 
 24 C        9.9540     4.4680     0.2020 C.ar  1 <1>  -0.0230 
 25 C       10.9360     4.9710    -0.6460 C.ar  1 <1>  -0.1500 
 26 C       10.1180     4.6150     1.5770 C.ar  1 <1>  -0.1500 
 27 C       12.0620     5.5890    -0.1340 C.ar  1 <1>  -0.1500 
 28 C       11.2440     5.2330     2.0900 C.ar  1 <1>  -0.1500 
 29 C       12.2180     5.7180     1.2350 C.ar  1 <1>  -0.1500 
 30 H        4.4950    -2.2870     1.2750 H     1 <1>   0.0800 
 31 H        5.3390    -1.1280     2.2380 H     1 <1>   0.0800 
 32 H        3.6080     0.3780     3.4930 H     1 <1>   0.0800 
 33 H        2.5820     1.2590     2.4040 H     1 <1>   0.0800 
 34 H       -0.0260    -2.6070     0.3740 H     1 <1>   0.1500 
 35 H        4.7720    -0.8570    -0.7290 H     1 <1>   0.0800 
 36 H        6.2760    -1.4040    -0.0640 H     1 <1>   0.0800 
 37 H        5.5540     1.3560     2.6100 H     1 <1>   0.0800 
 38 H        4.3940     2.6150     2.4200 H     1 <1>   0.0800 
 39 H        6.7020     0.7480     0.8410 H     1 <1>   0.4500 
 40 H        5.2810     2.6780     0.3450 H     1 <1>   0.0800 
 41 H        3.9890     1.5450     0.0340 H     1 <1>   0.0800 
 42 H       -0.6010    -4.5380    -1.5390 H     1 <1>   0.0800 
 43 H        0.8480    -5.4500    -1.8980 H     1 <1>   0.0800 
 44 H        0.3050    -4.2000    -2.9960 H     1 <1>   0.0800 
 45 H        5.7730     1.1960    -1.8830 H     1 <1>   0.0800 
 46 H        7.1970     0.2580    -1.4790 H     1 <1>   0.0800 
 47 H        4.9300     3.9390    -1.7080 H     1 <1>   0.0800 
 48 H        5.7190     3.2080    -3.0970 H     1 <1>   0.0800 
 49 H        5.9770     4.8900    -2.7260 H     1 <1>   0.0800 
 50 H        9.0190     0.4790     0.3560 H     1 <1>   0.0800 
 51 H        9.3890     1.7040     1.5490 H     1 <1>   0.0800 
 52 H       10.3810     1.5390     0.1240 H     1 <1>   0.0800 
 53 H       10.8130     4.8800    -1.7120 H     1 <1>   0.1500 
 54 H        9.3620     4.2500     2.2490 H     1 <1>   0.1500 
 55 H       12.8150     5.9730    -0.8000 H     1 <1>   0.1500 
 56 H       11.3640     5.3420     3.1540 H     1 <1>   0.1500 
 57 H       13.0940     6.2010     1.6340 H     1 <1>   0.1500 
@<TRIPOS>BOND
  1   1   2  2   
  2   2   3  am  
  3   2   4  1   
  4   3   5  1   
  5   3   6  1   
  6   4   7  2   
  7   4   8  1   
  8   5   9  1   
  9   5  30  1   
 10   5  31  1   
 11   6  10  1   
 12   6  32  1   
 13   6  33  1   
 14   7  11  1   
 15   8  12  2   
 16   8  34  1   
 17   9  13  1   
 18   9  35  1   
 19   9  36  1   
 20  10  14  1   
 21  10  37  1   
 22  10  38  1   
 23  11  12  1   
 24  12  15  1   
 25  13  14  1   
 26  13  16  1   
 27  13  39  1   
 28  14  40  1   
 29  14  41  1   
 30  15  42  1   
 31  15  43  1   
 32  15  44  1   
 33  16  17  1   
 34  16  45  1   
 35  16  46  1   
 36  17  18  1   
 37  17  19  2   
 38  18  20  2   
 39  18  21  1   
 40  19  22  1   
 41  19  23  1   
 42  20  22  1   
 43  21  47  1   
 44  21  48  1   
 45  21  49  1   
 46  22  24  1   
 47  23  50  1   
 48  23  51  1   
 49  23  52  1   
 50  24  25  ar  
 51  24  26  ar  
 52  25  27  ar  
 53  25  53  1   
 54  26  28  ar  
 55  26  54  1   
 56  27  29  ar  
 57  27  55  1   
 58  28  29  ar  
 59  28  56  1   
 60  29  57  1   
@<TRIPOS>SUBSTRUCTURE
  1 ****  13 GROUP 4 **** **** 0

# MOE 2024.06 (io_trps.svl 2023.06)
