@<TRIPOS>MOLECULE
NONAME
47 49 1 0 0 
SMALL
USER_CHARGES


@<TRIPOS>ATOM
  1 O       -0.3120    -2.1490     0.8530 O.2   1 <1>  -0.5700 
  2 C       -1.3810    -2.2510     0.2760 C.2   1 <1>   0.5410 
  3 C       -2.1500    -1.1650    -0.2880 C.2   1 <1>   0.0910 
  4 C       -1.9700    -3.5410     0.1380 C.2   1 <1>  -0.1360 
  5 O       -1.7510     0.1460    -0.2570 O.3   1 <1>  -0.3570 
  6 C       -3.3420    -1.4320    -0.8750 C.2   1 <1>  -0.0730 
  7 C       -3.1720    -3.7160    -0.4630 C.2   1 <1>  -0.0620 
  8 C       -0.3760     0.4740    -0.2740 C.3   1 <1>   0.0400 
  9 O       -3.8440    -2.6730    -0.9600 O.3   1 <1>  -0.1530 
 10 C       -3.8510    -5.0660    -0.6330 C.3   1 <1>   0.4810 
 11 N       -5.1130    -5.1030     0.1680 N.4   1 <1>  -0.9590 
 12 C       -5.4510    -6.4520     0.7420 C.3   1 <1>   0.4230 
 13 C       -6.2070    -4.5900    -0.7140 C.3   1 <1>   0.3430 
 14 C       -6.7800    -6.3460     1.5150 C.3   1 <1>  -0.1600 
 15 C       -4.3790    -6.9970     1.7210 C.3   1 <1>  -0.1600 
 16 C       -7.5090    -4.4430     0.0660 C.3   1 <1>  -0.1600 
 17 C       -7.9270    -5.7820     0.6730 C.3   1 <1>  -0.1600 
 18 C       -3.1660    -7.7460     1.1250 C.3   1 <1>   0.0960 
 19 N       -3.5260    -8.5340    -0.0710 N.pl3 1 <1>   0.3140 
 20 N       -3.6920    -7.9500    -1.2760 N.2   1 <1>  -0.7070 
 21 C       -3.7520    -9.8590    -0.1340 C.2   1 <1>  -0.3020 
 22 C       -4.0000    -8.9280    -2.0770 C.2   1 <1>   0.1390 
 23 C       -4.0570   -10.1480    -1.4160 C.2   1 <1>  -0.1500 
 24 H       -1.3920    -4.3500     0.5440 H     1 <1>   0.1500 
 25 H       -3.9640    -0.6690    -1.3100 H     1 <1>   0.1500 
 26 H       -0.2830     1.5150    -0.5240 H     1 <1>   0.0800 
 27 H        0.1260    -0.1280    -1.0110 H     1 <1>   0.0800 
 28 H        0.0390     0.3000     0.7040 H     1 <1>   0.0800 
 29 H       -3.1700    -5.8220    -0.3010 H     1 <1>   0.0800 
 30 H       -4.0570    -5.2590    -1.6740 H     1 <1>   0.0800 
 31 H       -5.0060    -4.4430     0.9440 H     1 <1>   0.4500 
 32 H       -5.5960    -7.1550    -0.0630 H     1 <1>   0.0800 
 33 H       -6.3600    -5.2750    -1.5330 H     1 <1>   0.0800 
 34 H       -5.9370    -3.6310    -1.1250 H     1 <1>   0.0800 
 35 H       -6.6420    -5.7300     2.3880 H     1 <1>   0.0800 
 36 H       -7.0700    -7.3250     1.8580 H     1 <1>   0.0800 
 37 H       -4.8590    -7.7200     2.3570 H     1 <1>   0.0800 
 38 H       -4.0380    -6.2130     2.3730 H     1 <1>   0.0800 
 39 H       -8.2810    -4.0970    -0.5990 H     1 <1>   0.0800 
 40 H       -7.3890    -3.7020     0.8370 H     1 <1>   0.0800 
 41 H       -8.8040    -5.6500     1.2850 H     1 <1>   0.0800 
 42 H       -8.1750    -6.4760    -0.1130 H     1 <1>   0.0800 
 43 H       -2.7570    -8.4150     1.8600 H     1 <1>   0.0800 
 44 H       -2.3830    -7.0630     0.8520 H     1 <1>   0.0800 
 45 H       -3.6800   -10.5170     0.7140 H     1 <1>   0.1500 
 46 H       -4.1880    -8.8050    -3.1320 H     1 <1>   0.1500 
 47 H       -4.2930   -11.1000    -1.8590 H     1 <1>   0.1500 
@<TRIPOS>BOND
  1   1   2  2   
  2   2   3  1   
  3   2   4  1   
  4   3   5  1   
  5   3   6  2   
  6   4   7  2   
  7   4  24  1   
  8   5   8  1   
  9   6   9  1   
 10   6  25  1   
 11   7   9  1   
 12   7  10  1   
 13   8  26  1   
 14   8  27  1   
 15   8  28  1   
 16  10  11  1   
 17  10  29  1   
 18  10  30  1   
 19  11  12  1   
 20  11  13  1   
 21  11  31  1   
 22  12  14  1   
 23  12  15  1   
 24  12  32  1   
 25  13  16  1   
 26  13  33  1   
 27  13  34  1   
 28  14  17  1   
 29  14  35  1   
 30  14  36  1   
 31  15  18  1   
 32  15  37  1   
 33  15  38  1   
 34  16  17  1   
 35  16  39  1   
 36  16  40  1   
 37  17  41  1   
 38  17  42  1   
 39  18  19  1   
 40  18  43  1   
 41  18  44  1   
 42  19  20  1   
 43  19  21  1   
 44  20  22  2   
 45  21  23  2   
 46  21  45  1   
 47  22  23  1   
 48  22  46  1   
 49  23  47  1   
@<TRIPOS>SUBSTRUCTURE
  1 ****  10 GROUP 4 **** **** 0

# MOE 2024.06 (io_trps.svl 2023.06)
