@<TRIPOS>MOLECULE
NONAME
50 53 1 0 0 
SMALL
USER_CHARGES


@<TRIPOS>ATOM
  1 O       -0.0800     0.9800    -1.6800 O.2   1 <1>  -0.5700 
  2 C       -0.5780     1.7780    -0.8980 C.2   1 <1>   0.6160 
  3 N       -1.7420     1.5020    -0.2010 N.am  1 <1>  -0.4200 
  4 C        0.0040     3.0360    -0.6540 C.2   1 <1>  -0.1240 
  5 C       -2.2450     2.4570     0.6710 C.2   1 <1>   0.4490 
  6 C       -2.4260     0.1900    -0.4040 C.3   1 <1>   0.0600 
  7 C       -0.5570     3.8870     0.2040 C.2   1 <1>   0.0330 
  8 C        1.2540     3.5860    -1.2670 C.3   1 <1>   0.3470 
  9 N       -1.7020     3.6100     0.8870 N.2   1 <1>  -0.6210 
 10 C       -3.5190     2.1480     1.4340 C.3   1 <1>  -0.1790 
 11 C        0.2320     5.1670     0.3060 C.3   1 <1>   0.3470 
 12 N        1.4140     4.9270    -0.5950 N.pl3 1 <1>  -0.8380 
 13 C        2.6280     5.4860    -0.3570 C.ar  1 <1>   0.4100 
 14 N        3.6340     4.6510    -0.1930 N.ar  1 <1>  -0.6200 
 15 C        2.8110     6.8920    -0.2850 C.ar  1 <1>  -0.1430 
 16 C        4.8290     5.1390     0.0910 C.ar  1 <1>   0.7710 
 17 C        4.0500     7.3630     0.0230 C.ar  1 <1>   0.2180 
 18 C        1.6570     7.8560    -0.5730 C.3   1 <1>  -0.0170 
 19 N        5.0360     6.4570     0.2140 N.ar  1 <1>  -0.1790 
 20 N        5.8790     4.2870     0.2700 N.pl3 1 <1>  -0.8380 
 21 C        4.4030     8.8430     0.1420 C.3   1 <1>  -0.0170 
 22 C        2.1380     9.2810    -0.8760 C.3   1 <1>  -0.1600 
 23 C        5.6660     2.8000     0.3090 C.3   1 <1>   0.1290 
 24 C        7.3280     4.6480     0.3740 C.3   1 <1>   0.1290 
 25 C        3.1590     9.7410     0.1680 C.3   1 <1>  -0.1600 
 26 H       -1.8980    -0.4230    -1.1140 H     1 <1>   0.0800 
 27 H       -3.4220     0.3530    -0.7760 H     1 <1>   0.0800 
 28 H       -2.4740    -0.3430     0.5290 H     1 <1>   0.0800 
 29 H        1.1330     3.7110    -2.3290 H     1 <1>   0.0800 
 30 H        2.0830     2.9290    -1.0700 H     1 <1>   0.0800 
 31 H       -3.3790     1.2840     2.0560 H     1 <1>   0.0800 
 32 H       -4.3290     1.9780     0.7500 H     1 <1>   0.0800 
 33 H       -3.7810     2.9780     2.0660 H     1 <1>   0.0800 
 34 H        0.5470     5.3380     1.3210 H     1 <1>   0.0800 
 35 H       -0.3660     5.9870    -0.0490 H     1 <1>   0.0800 
 36 H        1.0070     7.8870     0.2840 H     1 <1>   0.0800 
 37 H        1.0840     7.5020    -1.4140 H     1 <1>   0.0800 
 38 H        5.9770     6.7230     0.4660 H     1 <1>   0.4570 
 39 H        5.0110     9.1200    -0.7030 H     1 <1>   0.0800 
 40 H        4.9740     9.0210     1.0370 H     1 <1>   0.0800 
 41 H        1.2940     9.9500    -0.8800 H     1 <1>   0.0800 
 42 H        2.5820     9.3110    -1.8570 H     1 <1>   0.0800 
 43 H        4.6640     2.5530     0.6180 H     1 <1>   0.0800 
 44 H        6.3460     2.3440     1.0080 H     1 <1>   0.0800 
 45 H        5.8370     2.3810    -0.6680 H     1 <1>   0.0800 
 46 H        7.5240     5.6390     0.0040 H     1 <1>   0.0800 
 47 H        7.9160     3.9610    -0.2130 H     1 <1>   0.0800 
 48 H        7.6500     4.5790     1.4000 H     1 <1>   0.0800 
 49 H        3.4440    10.7620    -0.0230 H     1 <1>   0.0800 
 50 H        2.7060     9.7060     1.1450 H     1 <1>   0.0800 
@<TRIPOS>BOND
  1   1   2  2   
  2   2   3  am  
  3   2   4  1   
  4   3   5  1   
  5   3   6  1   
  6   4   7  2   
  7   4   8  1   
  8   5   9  2   
  9   5  10  1   
 10   6  26  1   
 11   6  27  1   
 12   6  28  1   
 13   7   9  1   
 14   7  11  1   
 15   8  12  1   
 16   8  29  1   
 17   8  30  1   
 18  10  31  1   
 19  10  32  1   
 20  10  33  1   
 21  11  12  1   
 22  11  34  1   
 23  11  35  1   
 24  12  13  1   
 25  13  14  ar  
 26  13  15  ar  
 27  14  16  ar  
 28  15  17  ar  
 29  15  18  1   
 30  16  19  ar  
 31  16  20  1   
 32  17  19  ar  
 33  17  21  1   
 34  18  22  1   
 35  18  36  1   
 36  18  37  1   
 37  19  38  1   
 38  20  23  1   
 39  20  24  1   
 40  21  25  1   
 41  21  39  1   
 42  21  40  1   
 43  22  25  1   
 44  22  41  1   
 45  22  42  1   
 46  23  43  1   
 47  23  44  1   
 48  23  45  1   
 49  24  46  1   
 50  24  47  1   
 51  24  48  1   
 52  25  49  1   
 53  25  50  1   
@<TRIPOS>SUBSTRUCTURE
  1 ****  12 GROUP 4 **** **** 0

# MOE 2024.06 (io_trps.svl 2023.06)
