@<TRIPOS>MOLECULE
NONAME
58 60 1 0 0 
SMALL
USER_CHARGES


@<TRIPOS>ATOM
  1 O       -1.5530     0.3420     2.2000 O.2   1 <1>  -0.5700 
  2 C       -1.6900     0.7850     1.0860 C.2   1 <1>   0.5690 
  3 N       -1.8350    -0.0280    -0.0060 N.am  1 <1>  -0.6600 
  4 C       -1.6690     2.2960     0.9420 C.3   1 <1>  -0.0990 
  5 C       -1.8020    -1.5230     0.1590 C.3   1 <1>   0.3640 
  6 C       -2.0730     0.4710    -1.3980 C.3   1 <1>   0.1400 
  7 C       -0.2450     2.8000     0.6810 C.3   1 <1>  -0.0170 
  8 C       -0.4040    -2.1040    -0.1260 C.ar  1 <1>  -0.1440 
  9 C       -2.8970    -2.2180    -0.7140 C.3   1 <1>   0.2000 
 10 C       -2.2550    -0.6720    -2.4080 C.3   1 <1>   0.1200 
 11 C       -0.2380     4.3160     0.5240 C.ar  1 <1>  -0.1440 
 12 C       -0.1880    -3.4500     0.1480 C.ar  1 <1>  -0.1500 
 13 C        0.6590    -1.3570    -0.6270 C.ar  1 <1>  -0.1500 
 14 O       -3.2090    -1.5640    -1.9260 O.3   1 <1>  -0.5600 
 15 C       -4.2150    -2.3540     0.0590 C.3   1 <1>   0.1200 
 16 C       -0.3400     4.9510    -0.7120 C.ar  1 <1>  -0.1430 
 17 C       -0.1290     5.0820     1.6760 C.ar  1 <1>  -0.1500 
 18 C        1.0350    -4.0490    -0.0960 C.ar  1 <1>   0.0830 
 19 C        1.8930    -1.9400    -0.8560 C.ar  1 <1>  -0.1500 
 20 O       -4.0890    -3.3150     1.0590 O.3   1 <1>  -0.6800 
 21 C       -0.3300     6.3370    -0.7690 C.ar  1 <1>  -0.1500 
 22 C       -0.4650     4.1760    -2.0160 C.3   1 <1>  -0.0970 
 23 C       -0.1200     6.4630     1.6100 C.ar  1 <1>  -0.1500 
 24 O        1.1360    -5.3790     0.1530 O.3   1 <1>  -0.3620 
 25 C        2.0960    -3.2800    -0.5820 C.ar  1 <1>   0.0830 
 26 C       -0.2210     7.0920     0.3850 C.ar  1 <1>  -0.1500 
 27 C        1.4030    -6.2110    -0.9550 C.3   1 <1>   0.0400 
 28 O        3.3380    -3.7810    -0.7930 O.3   1 <1>  -0.3630 
 29 C        4.0490    -4.1790     0.3590 C.3   1 <1>   0.0400 
 30 H       -2.3300     2.6160     0.1610 H     1 <1>   0.0800 
 31 H       -2.0290     2.7270     1.8580 H     1 <1>   0.0800 
 32 H       -2.0130    -1.7640     1.1870 H     1 <1>   0.0800 
 33 H       -2.9630     1.0740    -1.4090 H     1 <1>   0.0800 
 34 H       -1.2460     1.0830    -1.7080 H     1 <1>   0.0800 
 35 H        0.1660     2.3250    -0.1890 H     1 <1>   0.0800 
 36 H        0.3820     2.5220     1.5110 H     1 <1>   0.0800 
 37 H       -2.5690    -3.2040    -0.9850 H     1 <1>   0.0800 
 38 H       -1.3350    -1.2020    -2.5810 H     1 <1>   0.0800 
 39 H       -2.6100    -0.2860    -3.3470 H     1 <1>   0.0800 
 40 H       -0.9750    -4.0570     0.5580 H     1 <1>   0.1500 
 41 H        0.5500    -0.3100    -0.8360 H     1 <1>   0.1500 
 42 H       -5.0120    -2.6580    -0.5970 H     1 <1>   0.0800 
 43 H       -4.4680    -1.4190     0.5270 H     1 <1>   0.0800 
 44 H       -0.0520     4.6040     2.6370 H     1 <1>   0.1500 
 45 H        2.7100    -1.3550    -1.2390 H     1 <1>   0.1500 
 46 H       -4.1600    -4.2170     0.6870 H     1 <1>   0.4000 
 47 H       -0.4070     6.8440    -1.7150 H     1 <1>   0.1500 
 48 H       -0.5780     4.8430    -2.8510 H     1 <1>   0.0800 
 49 H       -1.3270     3.5350    -1.9820 H     1 <1>   0.0800 
 50 H        0.4170     3.5830    -2.1770 H     1 <1>   0.0800 
 51 H       -0.0360     7.0460     2.5110 H     1 <1>   0.1500 
 52 H       -0.2140     8.1660     0.3280 H     1 <1>   0.1500 
 53 H        1.3070    -7.2330    -0.6380 H     1 <1>   0.0800 
 54 H        2.4030    -6.0300    -1.3060 H     1 <1>   0.0800 
 55 H        0.6900    -5.9960    -1.7320 H     1 <1>   0.0800 
 56 H        5.0380    -4.4730     0.0590 H     1 <1>   0.0800 
 57 H        3.5440    -5.0070     0.8220 H     1 <1>   0.0800 
 58 H        4.1000    -3.3470     1.0390 H     1 <1>   0.0800 
@<TRIPOS>BOND
  1   1   2  2   
  2   2   3  am  
  3   2   4  1   
  4   3   5  1   
  5   3   6  1   
  6   4   7  1   
  7   4  30  1   
  8   4  31  1   
  9   5   8  1   
 10   5   9  1   
 11   5  32  1   
 12   6  10  1   
 13   6  33  1   
 14   6  34  1   
 15   7  11  1   
 16   7  35  1   
 17   7  36  1   
 18   8  12  ar  
 19   8  13  ar  
 20   9  14  1   
 21   9  15  1   
 22   9  37  1   
 23  10  14  1   
 24  10  38  1   
 25  10  39  1   
 26  11  16  ar  
 27  11  17  ar  
 28  12  18  ar  
 29  12  40  1   
 30  13  19  ar  
 31  13  41  1   
 32  15  20  1   
 33  15  42  1   
 34  15  43  1   
 35  16  21  ar  
 36  16  22  1   
 37  17  23  ar  
 38  17  44  1   
 39  18  24  1   
 40  18  25  ar  
 41  19  25  ar  
 42  19  45  1   
 43  20  46  1   
 44  21  26  ar  
 45  21  47  1   
 46  22  48  1   
 47  22  49  1   
 48  22  50  1   
 49  23  26  ar  
 50  23  51  1   
 51  24  27  1   
 52  25  28  1   
 53  26  52  1   
 54  27  53  1   
 55  27  54  1   
 56  27  55  1   
 57  28  29  1   
 58  29  56  1   
 59  29  57  1   
 60  29  58  1   
@<TRIPOS>SUBSTRUCTURE
  1 ****   3 GROUP 4 **** **** 0

# MOE 2024.06 (io_trps.svl 2023.06)
