@<TRIPOS>MOLECULE
NONAME
49 52 1 0 0 
SMALL
USER_CHARGES


@<TRIPOS>ATOM
  1 O       -2.8780     0.6910    -2.4490 O.2   1 <1>  -0.5700 
  2 C       -2.4470     0.6820    -1.3100 C.2   1 <1>   0.6160 
  3 N       -2.0690    -0.5210    -0.7920 N.am  1 <1>  -0.7300 
  4 C       -2.3530     1.9090    -0.5580 C.2   1 <1>   0.0290 
  5 C       -2.3090    -1.8490    -1.4010 C.3   1 <1>   0.2200 
  6 C       -2.2640     1.8770     0.8740 C.2   1 <1>   0.6160 
  7 C       -2.3550     3.1390    -1.1730 C.2   1 <1>  -0.1500 
  8 C       -3.4380    -2.5760    -0.6850 C.3   1 <1>  -0.0800 
  9 C       -1.1340    -2.7670    -1.0870 C.3   1 <1>   0.1200 
 10 O       -2.2760     0.8600     1.5570 O.2   1 <1>  -0.5700 
 11 N       -2.1700     3.0600     1.5530 N.am  1 <1>  -0.5390 
 12 C       -2.2600     4.3360    -0.4300 C.2   1 <1>  -0.1380 
 13 C       -2.7270    -3.2000     0.5180 C.3   1 <1>   0.1200 
 14 C       -4.6650    -1.7210    -0.3150 C.3   1 <1>  -0.0170 
 15 O       -1.3690    -3.2700     0.1950 O.3   1 <1>  -0.5600 
 16 C       -2.1730     4.2790     0.9310 C.2   1 <1>  -0.0290 
 17 C       -2.2660     5.6590    -1.1870 C.3   1 <1>  -0.0220 
 18 C       -5.7380    -2.5670     0.3510 C.ar  1 <1>  -0.1430 
 19 C       -2.0690     5.5120     1.8170 C.3   1 <1>  -0.0220 
 20 C       -1.7640     6.8230    -0.3220 C.3   1 <1>  -0.1600 
 21 C       -6.6110    -3.3450    -0.3820 C.ar  1 <1>  -0.1500 
 22 C       -5.8930    -2.6010     1.7220 C.ar  1 <1>  -0.1500 
 23 C       -2.4260     6.7990     1.0610 C.3   1 <1>  -0.1600 
 24 C       -7.5670    -4.1020     0.2740 C.ar  1 <1>   0.1600 
 25 C       -6.8830    -3.3930     2.2790 C.ar  1 <1>   0.1600 
 26 N       -7.7230    -4.1470     1.5880 N.ar  1 <1>  -0.6200 
 27 H       -1.8210    -0.5520     0.2070 H     1 <1>   0.3700 
 28 H       -2.4770    -1.7580    -2.4610 H     1 <1>   0.0800 
 29 H       -2.4310     3.2070    -2.2460 H     1 <1>   0.1500 
 30 H       -3.7670    -3.3820    -1.3180 H     1 <1>   0.0800 
 31 H       -0.1890    -2.2540    -1.1080 H     1 <1>   0.0800 
 32 H       -1.1150    -3.6010    -1.7660 H     1 <1>   0.0800 
 33 H       -2.1040     2.9670     2.5670 H     1 <1>   0.3700 
 34 H       -3.0920    -4.1890     0.7350 H     1 <1>   0.0800 
 35 H       -2.8180    -2.5790     1.3920 H     1 <1>   0.0800 
 36 H       -5.0660    -1.2670    -1.2050 H     1 <1>   0.0800 
 37 H       -4.3830    -0.9260     0.3530 H     1 <1>   0.0800 
 38 H       -1.6460     5.5810    -2.0630 H     1 <1>   0.0800 
 39 H       -3.2720     5.8610    -1.5100 H     1 <1>   0.0800 
 40 H       -2.7250     5.4100     2.6630 H     1 <1>   0.0800 
 41 H       -1.0590     5.5820     2.1830 H     1 <1>   0.0800 
 42 H       -0.6970     6.7460    -0.2070 H     1 <1>   0.0800 
 43 H       -1.9780     7.7550    -0.8160 H     1 <1>   0.0800 
 44 H       -6.5570    -3.3690    -1.4550 H     1 <1>   0.1500 
 45 H       -5.2550    -2.0190     2.3620 H     1 <1>   0.1500 
 46 H       -3.4950     6.8550     0.9410 H     1 <1>   0.0800 
 47 H       -2.1110     7.6530     1.6350 H     1 <1>   0.0800 
 48 H       -8.2400    -4.7040    -0.3130 H     1 <1>   0.1500 
 49 H       -6.9890    -3.4070     3.3500 H     1 <1>   0.1500 
@<TRIPOS>BOND
  1   1   2  2   
  2   2   3  am  
  3   2   4  1   
  4   3   5  1   
  5   3  27  1   
  6   4   6  1   
  7   4   7  2   
  8   5   8  1   
  9   5   9  1   
 10   5  28  1   
 11   6  10  2   
 12   6  11  am  
 13   7  12  1   
 14   7  29  1   
 15   8  13  1   
 16   8  14  1   
 17   8  30  1   
 18   9  15  1   
 19   9  31  1   
 20   9  32  1   
 21  11  16  1   
 22  11  33  1   
 23  12  16  2   
 24  12  17  1   
 25  13  15  1   
 26  13  34  1   
 27  13  35  1   
 28  14  18  1   
 29  14  36  1   
 30  14  37  1   
 31  16  19  1   
 32  17  20  1   
 33  17  38  1   
 34  17  39  1   
 35  18  21  ar  
 36  18  22  ar  
 37  19  23  1   
 38  19  40  1   
 39  19  41  1   
 40  20  23  1   
 41  20  42  1   
 42  20  43  1   
 43  21  24  ar  
 44  21  44  1   
 45  22  25  ar  
 46  22  45  1   
 47  23  46  1   
 48  23  47  1   
 49  24  26  ar  
 50  24  48  1   
 51  25  26  ar  
 52  25  49  1   
@<TRIPOS>SUBSTRUCTURE
  1 ****   2 GROUP 4 **** **** 0

# MOE 2024.06 (io_trps.svl 2023.06)
