@<TRIPOS>MOLECULE
NONAME
45 47 1 0 0 
SMALL
USER_CHARGES


@<TRIPOS>ATOM
  1 O       -1.4520    -1.4740    -3.1780 O.2   1 <1>  -0.5700 
  2 C       -2.4720    -1.7550    -2.6080 C.2   1 <1>   0.5690 
  3 N       -3.6400    -1.1950    -3.0040 N.am  1 <1>  -0.8000 
  4 C       -2.3890    -2.7180    -1.4080 C.3   1 <1>   0.4040 
  5 N       -3.1100    -2.2240    -0.1800 N.4   1 <1>  -0.9590 
  6 C       -2.5980    -0.9120     0.3350 C.3   1 <1>   0.3430 
  7 C       -3.2790    -3.2150     0.9090 C.3   1 <1>   0.3430 
  8 C       -3.6730    -0.2720     1.2370 C.3   1 <1>   0.1430 
  9 C       -4.3440    -2.6800     1.8770 C.3   1 <1>  -0.1600 
 10 C       -4.8700     0.1020     0.3740 C.ar  1 <1>   0.1670 
 11 C       -4.0500    -1.2500     2.3770 C.3   1 <1>  -0.1600 
 12 C       -3.2430     1.1040     1.8070 C.3   1 <1>  -0.1600 
 13 N       -5.4130    -0.6690    -0.5390 N.ar  1 <1>  -0.6200 
 14 C       -5.2880     1.3750     0.6140 C.ar  1 <1>  -0.1430 
 15 C       -4.4700     2.0320     1.6970 C.3   1 <1>  -0.0170 
 16 C       -6.3840    -0.1010    -1.2480 C.ar  1 <1>   0.7200 
 17 C       -6.3280     1.8570    -0.1430 C.ar  1 <1>   0.1600 
 18 N       -6.8780     1.1250    -1.0860 N.ar  1 <1>  -0.6200 
 19 N       -6.8640    -0.8710    -2.2770 N.pl3 1 <1>  -0.8380 
 20 C       -7.5290    -2.1610    -1.9490 C.3   1 <1>   0.1290 
 21 C       -7.4300    -0.2010    -3.4830 C.3   1 <1>   0.1290 
 22 H       -3.6330    -0.5600    -3.8060 H     1 <1>   0.3700 
 23 H       -4.5620    -1.2610    -2.5420 H     1 <1>   0.3700 
 24 H       -1.3490    -2.8760    -1.1800 H     1 <1>   0.0800 
 25 H       -2.8070    -3.6600    -1.7170 H     1 <1>   0.0800 
 26 H       -4.0740    -1.9840    -0.4960 H     1 <1>   0.4500 
 27 H       -2.3970    -0.2460    -0.4890 H     1 <1>   0.0800 
 28 H       -1.6870    -1.0590     0.8900 H     1 <1>   0.0800 
 29 H       -2.3450    -3.3600     1.4270 H     1 <1>   0.0800 
 30 H       -3.6030    -4.1620     0.5080 H     1 <1>   0.0800 
 31 H       -4.4150    -3.3440     2.7210 H     1 <1>   0.0800 
 32 H       -5.3010    -2.6990     1.3850 H     1 <1>   0.0800 
 33 H       -4.9090    -0.8740     2.9100 H     1 <1>   0.0800 
 34 H       -3.2340    -1.3000     3.0780 H     1 <1>   0.0800 
 35 H       -2.4600     1.5190     1.1950 H     1 <1>   0.0800 
 36 H       -2.8850     1.0470     2.8200 H     1 <1>   0.0800 
 37 H       -4.1880     3.0370     1.4330 H     1 <1>   0.0800 
 38 H       -5.0290     2.0410     2.6180 H     1 <1>   0.0800 
 39 H       -6.7040     2.8550     0.0150 H     1 <1>   0.1500 
 40 H       -7.2240    -2.5130    -0.9790 H     1 <1>   0.0800 
 41 H       -7.2730    -2.9020    -2.6860 H     1 <1>   0.0800 
 42 H       -8.5980    -2.0290    -1.9420 H     1 <1>   0.0800 
 43 H       -6.8580     0.6800    -3.7220 H     1 <1>   0.0800 
 44 H       -8.4490     0.0920    -3.2950 H     1 <1>   0.0800 
 45 H       -7.4020    -0.8690    -4.3260 H     1 <1>   0.0800 
@<TRIPOS>BOND
  1   1   2  2   
  2   2   3  am  
  3   2   4  1   
  4   3  22  1   
  5   3  23  1   
  6   4   5  1   
  7   4  24  1   
  8   4  25  1   
  9   5   6  1   
 10   5   7  1   
 11   5  26  1   
 12   6   8  1   
 13   6  27  1   
 14   6  28  1   
 15   7   9  1   
 16   7  29  1   
 17   7  30  1   
 18   8  10  1   
 19   8  11  1   
 20   8  12  1   
 21   9  11  1   
 22   9  31  1   
 23   9  32  1   
 24  10  13  ar  
 25  10  14  ar  
 26  11  33  1   
 27  11  34  1   
 28  12  15  1   
 29  12  35  1   
 30  12  36  1   
 31  13  16  ar  
 32  14  15  1   
 33  14  17  ar  
 34  15  37  1   
 35  15  38  1   
 36  16  18  ar  
 37  16  19  1   
 38  17  18  ar  
 39  17  39  1   
 40  19  20  1   
 41  19  21  1   
 42  20  40  1   
 43  20  41  1   
 44  20  42  1   
 45  21  43  1   
 46  21  44  1   
 47  21  45  1   
@<TRIPOS>SUBSTRUCTURE
  1 ****  13 GROUP 4 **** **** 0

# MOE 2024.06 (io_trps.svl 2023.06)
