@<TRIPOS>MOLECULE
NONAME
47 50 1 0 0 
SMALL
USER_CHARGES


@<TRIPOS>ATOM
  1 O       -1.4140     0.0510     0.6310 O.2   1 <1>  -0.5700 
  2 C       -2.2230     0.9570     0.7320 C.2   1 <1>   0.5440 
  3 N       -3.5280     0.6230     1.0170 N.am  1 <1>  -0.6600 
  4 C       -1.8110     2.3330     0.5260 C.ar  1 <1>   0.0860 
  5 C       -3.8550    -0.7360     1.5340 C.3   1 <1>   0.1400 
  6 C       -4.6750     1.2730     0.3210 C.3   1 <1>   0.1400 
  7 C       -0.8580     2.6530    -0.4470 C.ar  1 <1>  -0.1500 
  8 C       -2.3490     3.3790     1.2940 C.ar  1 <1>  -0.1500 
  9 C       -4.2100    -1.6440     0.3340 C.3   1 <1>   0.4230 
 10 C       -5.1000     0.3830    -0.8580 C.3   1 <1>  -0.1600 
 11 C       -0.4990     3.9710    -0.6290 C.ar  1 <1>   0.0830 
 12 C       -1.9770     4.7020     1.1020 C.ar  1 <1>  -0.1500 
 13 N       -4.4420    -3.0850     0.6900 N.4   1 <1>  -0.9590 
 14 C       -5.4370    -1.0690    -0.4100 C.3   1 <1>  -0.1060 
 15 O        0.3770     4.4790    -1.5020 O.3   1 <1>  -0.3630 
 16 C       -1.0430     4.9710     0.1230 C.ar  1 <1>   0.0830 
 17 C       -4.6570    -3.9250    -0.5140 C.3   1 <1>   0.3430 
 18 C       -3.4390    -3.6710     1.6190 C.3   1 <1>   0.2630 
 19 C       -6.6410    -1.0770     0.5530 C.2   1 <1>   0.9060 
 20 C       -5.7310    -1.9230    -1.6670 C.3   1 <1>  -0.1600 
 21 C        0.3990     5.8890    -1.2880 C.3   1 <1>   0.4000 
 22 O       -0.5360     6.1490    -0.2430 O.3   1 <1>  -0.3630 
 23 C       -5.8550    -3.4140    -1.3180 C.3   1 <1>  -0.1600 
 24 O       -6.7280    -1.9820     1.3990 O.co2 1 <1>  -0.9000 
 25 O       -7.4810    -0.1810     0.4810 O.co2 1 <1>  -0.9000 
 26 H       -3.0020    -1.1210     2.0620 H     1 <1>   0.0800 
 27 H       -4.6780    -0.6660     2.2250 H     1 <1>   0.0800 
 28 H       -5.4940     1.3970     1.0120 H     1 <1>   0.0800 
 29 H       -4.4020     2.2470    -0.0470 H     1 <1>   0.0800 
 30 H       -0.4100     1.8820    -1.0480 H     1 <1>   0.1500 
 31 H       -3.0720     3.1440     2.0570 H     1 <1>   0.1500 
 32 H       -3.3670    -1.6030    -0.3350 H     1 <1>   0.0800 
 33 H       -5.9640     0.8250    -1.3250 H     1 <1>   0.0800 
 34 H       -4.3080     0.3790    -1.5850 H     1 <1>   0.0800 
 35 H       -2.3930     5.5010     1.6890 H     1 <1>   0.1500 
 36 H       -5.3780    -3.0190     1.1760 H     1 <1>   0.4500 
 37 H       -3.7740    -3.9030    -1.1310 H     1 <1>   0.0800 
 38 H       -4.8420    -4.9450    -0.2190 H     1 <1>   0.0800 
 39 H       -2.4550    -3.6250     1.1820 H     1 <1>   0.0800 
 40 H       -3.6850    -4.7000     1.8270 H     1 <1>   0.0800 
 41 H       -3.4350    -3.1300     2.5500 H     1 <1>   0.0800 
 42 H       -6.6470    -1.5830    -2.1210 H     1 <1>   0.0800 
 43 H       -4.9390    -1.7960    -2.3860 H     1 <1>   0.0800 
 44 H        1.3830     6.1910    -0.9750 H     1 <1>   0.0800 
 45 H        0.0900     6.3960    -2.1840 H     1 <1>   0.0800 
 46 H       -5.9430    -3.9860    -2.2240 H     1 <1>   0.0800 
 47 H       -6.7540    -3.5810    -0.7490 H     1 <1>   0.0800 
@<TRIPOS>BOND
  1   1   2  2   
  2   2   3  am  
  3   2   4  1   
  4   3   5  1   
  5   3   6  1   
  6   4   7  ar  
  7   4   8  ar  
  8   5   9  1   
  9   5  26  1   
 10   5  27  1   
 11   6  10  1   
 12   6  28  1   
 13   6  29  1   
 14   7  11  ar  
 15   7  30  1   
 16   8  12  ar  
 17   8  31  1   
 18   9  13  1   
 19   9  14  1   
 20   9  32  1   
 21  10  14  1   
 22  10  33  1   
 23  10  34  1   
 24  11  15  1   
 25  11  16  ar  
 26  12  16  ar  
 27  12  35  1   
 28  13  17  1   
 29  13  18  1   
 30  13  36  1   
 31  14  19  1   
 32  14  20  1   
 33  15  21  1   
 34  16  22  1   
 35  17  23  1   
 36  17  37  1   
 37  17  38  1   
 38  18  39  1   
 39  18  40  1   
 40  18  41  1   
 41  19  24  ar  
 42  19  25  ar  
 43  20  23  1   
 44  20  42  1   
 45  20  43  1   
 46  21  22  1   
 47  21  44  1   
 48  21  45  1   
 49  23  46  1   
 50  23  47  1   
@<TRIPOS>SUBSTRUCTURE
  1 ****   3 GROUP 4 **** **** 0

# MOE 2024.06 (io_trps.svl 2023.06)
