@<TRIPOS>MOLECULE
NONAME
44 47 1 0 0 
SMALL
USER_CHARGES


@<TRIPOS>ATOM
  1 O        0.5000     1.6540    -1.2020 O.2   1 <1>  -0.5700 
  2 C        0.0500     2.7760    -1.1430 C.2   1 <1>   0.5690 
  3 N       -0.6540     3.2560    -0.0710 N.am  1 <1>  -0.5090 
  4 C        0.2870     3.7090    -2.3240 C.3   1 <1>   0.1810 
  5 C       -1.1720     4.6650    -0.0580 C.3   1 <1>   0.3640 
  6 C       -0.7010     2.5290     1.2240 C.3   1 <1>   0.0490 
  7 O        0.4990     5.0230    -1.8820 O.3   1 <1>  -0.5600 
  8 C       -2.6970     4.6630    -0.1740 C.ar  1 <1>  -0.1440 
  9 C       -0.5890     5.5910    -1.1670 C.3   1 <1>   0.2610 
 10 C       -1.2560     1.1400     1.2490 C.3   1 <1>  -0.2000 
 11 C       -2.0070     2.2510     1.9050 C.3   1 <1>  -0.2000 
 12 C       -3.3610     3.7840    -1.0220 C.ar  1 <1>   0.1600 
 13 C       -3.4490     5.5580     0.5630 C.ar  1 <1>  -0.1500 
 14 C       -0.1800     6.9350    -0.5510 C.2   1 <1>   0.5690 
 15 N       -4.6710     3.7380    -1.1950 N.ar  1 <1>  -0.6200 
 16 C       -4.8170     5.5190     0.4000 C.ar  1 <1>  -0.1500 
 17 O       -0.9720     7.5410     0.1330 O.2   1 <1>  -0.5700 
 18 N        1.0640     7.4220    -0.7760 N.am  1 <1>  -0.7300 
 19 C       -5.3690     4.6050    -0.4790 C.ar  1 <1>   0.1600 
 20 C        1.6310     8.6580    -0.2100 C.3   1 <1>   0.3200 
 21 C        3.0820     8.4060     0.1520 C.2   1 <1>  -0.0400 
 22 O        3.9310     8.0690    -0.8020 O.3   1 <1>  -0.2800 
 23 C        3.7120     8.4620     1.3460 C.2   1 <1>  -0.1500 
 24 C        5.1130     7.9050    -0.2430 C.2   1 <1>  -0.0100 
 25 C        5.0490     8.1330     1.0850 C.2   1 <1>  -0.1500 
 26 H       -0.5560     3.6920    -2.9910 H     1 <1>   0.0800 
 27 H        1.1660     3.3950    -2.8570 H     1 <1>   0.0800 
 28 H       -0.9140     5.0840     0.8990 H     1 <1>   0.0800 
 29 H        0.1640     2.7300     1.8340 H     1 <1>   0.1000 
 30 H       -1.3570     5.7990    -1.8900 H     1 <1>   0.0800 
 31 H       -1.6350     0.7210     0.3330 H     1 <1>   0.1000 
 32 H       -0.7740     0.4050     1.8690 H     1 <1>   0.1000 
 33 H       -2.0450     2.2650     2.9800 H     1 <1>   0.1000 
 34 H       -2.9450     2.5320     1.4600 H     1 <1>   0.1000 
 35 H       -2.7900     3.0720    -1.5920 H     1 <1>   0.1500 
 36 H       -2.9960     6.2680     1.2370 H     1 <1>   0.1500 
 37 H       -5.4510     6.1930     0.9470 H     1 <1>   0.1500 
 38 H        1.7220     6.8620    -1.3290 H     1 <1>   0.3700 
 39 H       -6.4390     4.5850    -0.6000 H     1 <1>   0.1500 
 40 H        1.5740     9.4450    -0.9420 H     1 <1>   0.0800 
 41 H        1.0760     8.9540     0.6630 H     1 <1>   0.0800 
 42 H        3.3080     8.7020     2.3130 H     1 <1>   0.1500 
 43 H        5.9460     7.6260    -0.8650 H     1 <1>   0.1500 
 44 H        5.8350     8.0820     1.8170 H     1 <1>   0.1500 
@<TRIPOS>BOND
  1   1   2  2   
  2   2   3  am  
  3   2   4  1   
  4   3   5  1   
  5   3   6  1   
  6   4   7  1   
  7   4  26  1   
  8   4  27  1   
  9   5   8  1   
 10   5   9  1   
 11   5  28  1   
 12   6  10  1   
 13   6  11  1   
 14   6  29  1   
 15   7   9  1   
 16   8  12  ar  
 17   8  13  ar  
 18   9  14  1   
 19   9  30  1   
 20  10  11  1   
 21  10  31  1   
 22  10  32  1   
 23  11  33  1   
 24  11  34  1   
 25  12  15  ar  
 26  12  35  1   
 27  13  16  ar  
 28  13  36  1   
 29  14  17  2   
 30  14  18  am  
 31  15  19  ar  
 32  16  19  ar  
 33  16  37  1   
 34  18  20  1   
 35  18  38  1   
 36  19  39  1   
 37  20  21  1   
 38  20  40  1   
 39  20  41  1   
 40  21  22  1   
 41  21  23  2   
 42  22  24  1   
 43  23  25  1   
 44  23  42  1   
 45  24  25  2   
 46  24  43  1   
 47  25  44  1   
@<TRIPOS>SUBSTRUCTURE
  1 ****   9 GROUP 4 **** **** 0

# MOE 2024.06 (io_trps.svl 2023.06)
