@<TRIPOS>MOLECULE
NONAME
46 49 1 0 0 
SMALL
USER_CHARGES


@<TRIPOS>ATOM
  1 O       -0.4100     0.2130     0.9580 O.2   1 <1>  -0.5700 
  2 C       -1.3870     0.9430     0.8770 C.2   1 <1>   0.7160 
  3 N       -2.6380     0.3630     0.8290 N.am  1 <1>  -0.6600 
  4 C       -1.2370     2.3620     0.8100 C.2   1 <1>  -0.0860 
  5 C       -3.7250     0.8920    -0.0400 C.3   1 <1>   0.1400 
  6 C       -2.8600    -1.0870     1.0550 C.3   1 <1>   0.1400 
  7 C       -0.2400     3.1250     0.2550 C.2   1 <1>  -0.0680 
  8 C       -2.1170     3.3300     1.3170 C.2   1 <1>   0.1390 
  9 C       -4.6510    -0.2960    -0.3400 C.3   1 <1>   0.2000 
 10 C       -3.7690    -1.5230    -0.0950 C.3   1 <1>  -0.0800 
 11 N       -0.5720     4.4120     0.4370 N.pl3 1 <1>   0.6010 
 12 N        0.9630     3.0490    -0.4160 N.pl3 1 <1>  -0.5530 
 13 N       -1.7480     4.5570     1.0960 N.2   1 <1>  -0.7070 
 14 O       -5.7080    -0.3130     0.5760 O.3   1 <1>  -0.5600 
 15 C       -4.5390    -2.8250     0.1900 C.3   1 <1>   0.0200 
 16 C        0.4280     5.1880    -0.1190 C.2   1 <1>  -0.1810 
 17 C        1.3610     4.3590    -0.6330 C.2   1 <1>  -0.0500 
 18 C        1.7270     1.8130    -0.6940 C.3   1 <1>   0.1290 
 19 C       -6.8140     0.4580     0.2230 C.3   1 <1>   0.0400 
 20 C       -3.6380    -4.0470     0.2610 C.2   1 <1>  -0.0400 
 21 O       -4.1620    -5.1950     0.6010 O.3   1 <1>  -0.0190 
 22 C       -2.3290    -4.2480     0.0370 C.2   1 <1>  -0.1500 
 23 N       -3.2780    -6.1490     0.6190 N.2   1 <1>  -0.4100 
 24 C       -2.1630    -5.6080     0.2840 C.2   1 <1>   0.1080 
 25 C       -0.8530    -6.3550     0.1760 C.3   1 <1>  -0.0590 
 26 H       -4.2600     1.6840     0.4520 H     1 <1>   0.0800 
 27 H       -3.2960     1.2600    -0.9560 H     1 <1>   0.0800 
 28 H       -1.9390    -1.6430     1.0680 H     1 <1>   0.0800 
 29 H       -3.3630    -1.2150     1.9990 H     1 <1>   0.0800 
 30 H       -3.0200     3.0830     1.8500 H     1 <1>   0.1500 
 31 H       -5.0460    -0.2780    -1.3420 H     1 <1>   0.0800 
 32 H       -3.1540    -1.6660    -0.9660 H     1 <1>   0.0800 
 33 H       -5.2660    -2.9860    -0.5860 H     1 <1>   0.0800 
 34 H       -5.0720    -2.7380     1.1210 H     1 <1>   0.0800 
 35 H        0.3660     6.2570    -0.0830 H     1 <1>   0.1500 
 36 H        2.2840     4.5980    -1.1360 H     1 <1>   0.1500 
 37 H        2.5970     2.0420    -1.2820 H     1 <1>   0.0800 
 38 H        1.1040     1.1190    -1.2310 H     1 <1>   0.0800 
 39 H        2.0290     1.3640     0.2350 H     1 <1>   0.0800 
 40 H       -7.5440     0.3730     1.0090 H     1 <1>   0.0800 
 41 H       -7.2300     0.0820    -0.6960 H     1 <1>   0.0800 
 42 H       -6.5200     1.4870     0.1140 H     1 <1>   0.0800 
 43 H       -1.5570    -3.5640    -0.2620 H     1 <1>   0.1500 
 44 H       -0.0970    -5.8540     0.7520 H     1 <1>   0.0800 
 45 H       -0.5450    -6.4020    -0.8520 H     1 <1>   0.0800 
 46 H       -0.9700    -7.3560     0.5510 H     1 <1>   0.0800 
@<TRIPOS>BOND
  1   1   2  2   
  2   2   3  am  
  3   2   4  1   
  4   3   5  1   
  5   3   6  1   
  6   4   7  2   
  7   4   8  1   
  8   5   9  1   
  9   5  26  1   
 10   5  27  1   
 11   6  10  1   
 12   6  28  1   
 13   6  29  1   
 14   7  11  1   
 15   7  12  1   
 16   8  13  2   
 17   8  30  1   
 18   9  10  1   
 19   9  14  1   
 20   9  31  1   
 21  10  15  1   
 22  10  32  1   
 23  11  13  1   
 24  11  16  1   
 25  12  17  1   
 26  12  18  1   
 27  14  19  1   
 28  15  20  1   
 29  15  33  1   
 30  15  34  1   
 31  16  17  2   
 32  16  35  1   
 33  17  36  1   
 34  18  37  1   
 35  18  38  1   
 36  18  39  1   
 37  19  40  1   
 38  19  41  1   
 39  19  42  1   
 40  20  21  1   
 41  20  22  2   
 42  21  23  1   
 43  22  24  1   
 44  22  43  1   
 45  23  24  2   
 46  24  25  1   
 47  25  44  1   
 48  25  45  1   
 49  25  46  1   
@<TRIPOS>SUBSTRUCTURE
  1 ****   3 GROUP 4 **** **** 0

# MOE 2024.06 (io_trps.svl 2023.06)
