@<TRIPOS>MOLECULE
NONAME
37 38 1 0 0 
SMALL
USER_CHARGES


@<TRIPOS>ATOM
  1 O       -1.0950     1.3670    -1.0880 O.3   1 <1>  -0.5160 
  2 C       -2.0920     1.6360    -0.1100 C.3   1 <1>   0.2580 
  3 C       -1.1720    -0.0310    -0.8310 C.3   1 <1>   0.2580 
  4 C       -2.5940     0.1960    -0.2980 C.3   1 <1>   0.0000 
  5 C       -2.8720    -0.5020     1.0420 C.3   1 <1>   0.2090 
  6 C       -3.7070     0.0590    -1.3600 C.3   1 <1>  -0.2400 
  7 N       -3.0500    -1.9780     0.8630 N.pl3 1 <1>  -0.8380 
  8 C       -4.3110    -2.5540     0.7790 C.ar  1 <1>   0.4100 
  9 C       -1.8340    -2.8150     1.0520 C.3   1 <1>   0.1290 
 10 N       -5.3250    -1.9040     1.3220 N.ar  1 <1>  -0.6200 
 11 C       -4.5140    -3.7600     0.1470 C.ar  1 <1>  -0.1500 
 12 C       -6.5000    -2.4910     1.2170 C.ar  1 <1>   0.4700 
 13 C       -5.7840    -4.2850     0.1060 C.ar  1 <1>   0.4100 
 14 N       -6.8010    -3.6390     0.6460 N.ar  1 <1>  -0.6200 
 15 N       -6.0410    -5.5040    -0.5000 N.pl3 1 <1>  -0.8380 
 16 C       -7.4040    -5.8010    -1.0210 C.3   1 <1>   0.1290 
 17 C       -5.2440    -6.7010    -0.1240 C.3   1 <1>   0.1290 
 18 H       -2.7590     2.4060    -0.4550 H     1 <1>   0.0000 
 19 H       -1.6240     1.8380     0.8380 H     1 <1>   0.0000 
 20 H       -0.4430    -0.3040    -0.0870 H     1 <1>   0.0000 
 21 H       -1.1080    -0.5870    -1.7490 H     1 <1>   0.0000 
 22 H       -3.7530    -0.0650     1.4800 H     1 <1>   0.0800 
 23 H       -2.0630    -0.3210     1.7280 H     1 <1>   0.0800 
 24 H       -3.4670     0.6260    -2.2420 H     1 <1>   0.0800 
 25 H       -4.6420     0.4110    -0.9630 H     1 <1>   0.0800 
 26 H       -3.8240    -0.9730    -1.6400 H     1 <1>   0.0800 
 27 H       -1.2120    -2.4000     1.8260 H     1 <1>   0.0800 
 28 H       -1.2750    -2.8570     0.1330 H     1 <1>   0.0800 
 29 H       -2.1070    -3.8150     1.3430 H     1 <1>   0.0800 
 30 H       -3.7080    -4.2770    -0.3230 H     1 <1>   0.1500 
 31 H       -7.3260    -1.9610     1.6590 H     1 <1>   0.1500 
 32 H       -7.8460    -4.9050    -1.4230 H     1 <1>   0.0800 
 33 H       -8.0260    -6.1680    -0.2240 H     1 <1>   0.0800 
 34 H       -7.3470    -6.5380    -1.8020 H     1 <1>   0.0800 
 35 H       -4.4310    -6.4280     0.5270 H     1 <1>   0.0800 
 36 H       -4.8440    -7.1610    -1.0110 H     1 <1>   0.0800 
 37 H       -5.8690    -7.4100     0.3910 H     1 <1>   0.0800 
@<TRIPOS>BOND
  1   1   2  1   
  2   1   3  1   
  3   2   4  1   
  4   2  18  1   
  5   2  19  1   
  6   3   4  1   
  7   3  20  1   
  8   3  21  1   
  9   4   5  1   
 10   4   6  1   
 11   5   7  1   
 12   5  22  1   
 13   5  23  1   
 14   6  24  1   
 15   6  25  1   
 16   6  26  1   
 17   7   8  1   
 18   7   9  1   
 19   8  10  ar  
 20   8  11  ar  
 21   9  27  1   
 22   9  28  1   
 23   9  29  1   
 24  10  12  ar  
 25  11  13  ar  
 26  11  30  1   
 27  12  14  ar  
 28  12  31  1   
 29  13  14  ar  
 30  13  15  1   
 31  15  16  1   
 32  15  17  1   
 33  16  32  1   
 34  16  33  1   
 35  16  34  1   
 36  17  35  1   
 37  17  36  1   
 38  17  37  1   
@<TRIPOS>SUBSTRUCTURE
  1 ****   8 GROUP 4 **** **** 0

# MOE 2024.06 (io_trps.svl 2023.06)
