@<TRIPOS>MOLECULE
NONAME
55 58 1 0 0 
SMALL
USER_CHARGES


@<TRIPOS>ATOM
  1 O        0.5860    -1.6820     0.3200 O.3   1 <1>  -0.5600 
  2 C       -0.0460    -2.1750    -0.8360 C.3   1 <1>   0.2800 
  3 C        0.5470    -0.2900     0.5270 C.3   1 <1>   0.1200 
  4 C       -1.3540    -1.3950    -1.1310 C.3   1 <1>  -0.1600 
  5 C       -0.3100    -3.6730    -0.5690 C.3   1 <1>  -0.1600 
  6 C        0.9580    -2.0860    -2.0020 C.3   1 <1>  -0.1600 
  7 C       -0.8890     0.2030     0.7790 C.3   1 <1>   0.2000 
  8 C       -1.9560    -0.7160     0.1110 C.3   1 <1>   0.2800 
  9 C        0.9490    -4.5530    -0.5780 C.3   1 <1>   0.3430 
 10 C        2.2790    -2.8230    -1.7300 C.3   1 <1>   0.3430 
 11 O       -1.0960     0.3270     2.1520 O.3   1 <1>  -0.6800 
 12 O       -2.9870     0.0870    -0.3320 O.3   1 <1>  -0.6800 
 13 C       -2.6120    -1.7290     1.0630 C.3   1 <1>  -0.2400 
 14 N        2.1590    -3.6970    -0.5230 N.4   1 <1>  -0.9590 
 15 C        3.4040    -4.4250    -0.1550 C.3   1 <1>   0.4860 
 16 C        4.5410    -3.4410    -0.0040 C.ar  1 <1>  -0.1440 
 17 C        5.5930    -3.4240    -0.8870 C.ar  1 <1>   0.1600 
 18 C        4.5710    -2.5160     1.0130 C.ar  1 <1>   0.1600 
 19 N        6.5690    -2.5580    -0.7890 N.ar  1 <1>  -0.6200 
 20 N        5.5390    -1.6440     1.1290 N.ar  1 <1>  -0.6200 
 21 C        6.5230    -1.6850     0.2240 C.ar  1 <1>   0.6200 
 22 C        7.6070    -0.7160     0.3450 C.ar  1 <1>   0.0000 
 23 C        7.8900    -0.0780     1.5580 C.ar  1 <1>  -0.1500 
 24 C        8.4150    -0.3740    -0.7450 C.ar  1 <1>  -0.1500 
 25 C        8.9140     0.8440     1.6760 C.ar  1 <1>  -0.1500 
 26 C        9.4410     0.5460    -0.6340 C.ar  1 <1>  -0.1500 
 27 C        9.6930     1.1590     0.5790 C.ar  1 <1>  -0.1500 
 28 H        1.1740    -0.0530     1.3700 H     1 <1>   0.0800 
 29 H        0.9520     0.1950    -0.3430 H     1 <1>   0.0800 
 30 H       -1.1350    -0.6220    -1.8480 H     1 <1>   0.0800 
 31 H       -2.0780    -2.0410    -1.5930 H     1 <1>   0.0800 
 32 H       -0.8080    -3.7950     0.3740 H     1 <1>   0.0800 
 33 H       -0.9760    -4.0620    -1.3180 H     1 <1>   0.0800 
 34 H        0.5080    -2.5130    -2.8810 H     1 <1>   0.0800 
 35 H        1.1730    -1.0610    -2.2440 H     1 <1>   0.0800 
 36 H       -0.9670     1.1960     0.3700 H     1 <1>   0.0800 
 37 H        0.9690    -5.1510    -1.4750 H     1 <1>   0.0800 
 38 H        0.9210    -5.2170     0.2720 H     1 <1>   0.0800 
 39 H        3.0530    -2.0910    -1.5620 H     1 <1>   0.0800 
 40 H        2.5530    -3.4090    -2.5920 H     1 <1>   0.0800 
 41 H       -2.0000     0.6640     2.3080 H     1 <1>   0.4000 
 42 H       -3.7510    -0.4620    -0.5920 H     1 <1>   0.4000 
 43 H       -3.2120    -2.4400     0.5240 H     1 <1>   0.0800 
 44 H       -3.2320    -1.2250     1.7830 H     1 <1>   0.0800 
 45 H       -1.8580    -2.2610     1.6120 H     1 <1>   0.0800 
 46 H        1.9400    -3.0160     0.2330 H     1 <1>   0.4500 
 47 H        3.2600    -4.9510     0.7760 H     1 <1>   0.0800 
 48 H        3.6450    -5.1480    -0.9180 H     1 <1>   0.0800 
 49 H        5.6450    -4.1290    -1.7010 H     1 <1>   0.1500 
 50 H        3.7860    -2.4780     1.7510 H     1 <1>   0.1500 
 51 H        7.3000    -0.3060     2.4280 H     1 <1>   0.1500 
 52 H        8.2400    -0.8370    -1.7010 H     1 <1>   0.1500 
 53 H        9.1070     1.3170     2.6240 H     1 <1>   0.1500 
 54 H       10.0450     0.7870    -1.4920 H     1 <1>   0.1500 
 55 H       10.4910     1.8760     0.6680 H     1 <1>   0.1500 
@<TRIPOS>BOND
  1   1   2  1   
  2   1   3  1   
  3   2   4  1   
  4   2   5  1   
  5   2   6  1   
  6   3   7  1   
  7   3  28  1   
  8   3  29  1   
  9   4   8  1   
 10   4  30  1   
 11   4  31  1   
 12   5   9  1   
 13   5  32  1   
 14   5  33  1   
 15   6  10  1   
 16   6  34  1   
 17   6  35  1   
 18   7   8  1   
 19   7  11  1   
 20   7  36  1   
 21   8  12  1   
 22   8  13  1   
 23   9  14  1   
 24   9  37  1   
 25   9  38  1   
 26  10  14  1   
 27  10  39  1   
 28  10  40  1   
 29  11  41  1   
 30  12  42  1   
 31  13  43  1   
 32  13  44  1   
 33  13  45  1   
 34  14  15  1   
 35  14  46  1   
 36  15  16  1   
 37  15  47  1   
 38  15  48  1   
 39  16  17  ar  
 40  16  18  ar  
 41  17  19  ar  
 42  17  49  1   
 43  18  20  ar  
 44  18  50  1   
 45  19  21  ar  
 46  20  21  ar  
 47  21  22  1   
 48  22  23  ar  
 49  22  24  ar  
 50  23  25  ar  
 51  23  51  1   
 52  24  26  ar  
 53  24  52  1   
 54  25  27  ar  
 55  25  53  1   
 56  26  27  ar  
 57  26  54  1   
 58  27  55  1   
@<TRIPOS>SUBSTRUCTURE
  1 ****  18 GROUP 4 **** **** 0

# MOE 2024.06 (io_trps.svl 2023.06)
