@<TRIPOS>MOLECULE
NONAME
57 61 1 0 0 
SMALL
USER_CHARGES


@<TRIPOS>ATOM
  1 F        0.1930     0.7630    -0.6320 F     1 <1>  -0.1900 
  2 C       -0.1210     2.0080    -0.4060 C.ar  1 <1>   0.1900 
  3 C       -0.5690     2.3680     0.8490 C.ar  1 <1>  -0.1500 
  4 C        0.0060     2.9260    -1.4300 C.ar  1 <1>  -0.1500 
  5 C       -0.9080     3.6900     1.0800 C.ar  1 <1>  -0.1500 
  6 C       -0.3340     4.2450    -1.1860 C.ar  1 <1>  -0.1500 
  7 C       -0.8050     4.6460     0.0670 C.ar  1 <1>   0.0410 
  8 C       -1.1850     6.0170     0.3110 C.2   1 <1>   0.3090 
  9 N       -0.5340     6.8260     1.2040 N.pl3 1 <1>  -0.7000 
 10 C       -2.1900     6.7550    -0.2240 C.2   1 <1>   0.1820 
 11 C       -1.1130     8.0330     1.2120 C.cat 1 <1>   0.7910 
 12 N       -2.1510     8.0290     0.3320 N.pl3 1 <1>  -0.6290 
 13 C       -3.2160     6.2600    -1.2530 C.3   1 <1>   0.5110 
 14 C       -0.7930     9.1790     1.9570 C.2   1 <1>  -0.1410 
 15 C       -2.8860     9.1900     0.1520 C.2   1 <1>   0.2290 
 16 N       -4.6230     6.4740    -0.7890 N.4   1 <1>  -0.9590 
 17 C       -1.5280    10.3200     1.7930 C.2   1 <1>  -0.1500 
 18 C       -2.5900    10.3130     0.8690 C.2   1 <1>  -0.1500 
 19 C       -4.9980     5.8050     0.4870 C.3   1 <1>   0.3430 
 20 C       -5.6590     6.2390    -1.8440 C.3   1 <1>   0.3430 
 21 C       -6.2540     6.4770     1.0540 C.3   1 <1>  -0.1600 
 22 C       -7.0580     6.5860    -1.3100 C.3   1 <1>  -0.1600 
 23 C       -7.0160     7.3320     0.0300 C.3   1 <1>   0.4180 
 24 O       -6.2540     8.5160    -0.1390 O.3   1 <1>  -0.5600 
 25 C       -8.4070     7.6440     0.5610 C.2   1 <1>  -0.2880 
 26 C       -6.9390     9.6460    -0.6270 C.3   1 <1>   0.1200 
 27 C       -8.8840     8.8790     0.7290 C.2   1 <1>  -0.2760 
 28 C       -8.0430    10.0790     0.3450 C.3   1 <1>  -0.0220 
 29 C      -10.2530     9.2010     1.3020 C.3   1 <1>  -0.1020 
 30 H       -0.6450     1.6210     1.6220 H     1 <1>   0.1500 
 31 H        0.3710     2.6030    -2.3900 H     1 <1>   0.1500 
 32 H       -1.2530     3.9710     2.0620 H     1 <1>   0.1500 
 33 H       -0.2150     4.9610    -1.9820 H     1 <1>   0.1500 
 34 H        0.2900     6.5640     1.7530 H     1 <1>   0.4500 
 35 H       -3.0550     5.2120    -1.4450 H     1 <1>   0.0800 
 36 H       -3.0590     6.7950    -2.1750 H     1 <1>   0.0800 
 37 H        0.0300     9.1370     2.6470 H     1 <1>   0.1500 
 38 H       -3.6920     9.1970    -0.5630 H     1 <1>   0.1500 
 39 H       -4.7470     7.4800    -0.5640 H     1 <1>   0.4500 
 40 H       -1.3140    11.2210     2.3490 H     1 <1>   0.1500 
 41 H       -3.1610    11.2190     0.7390 H     1 <1>   0.1500 
 42 H       -4.2030     5.8820     1.2100 H     1 <1>   0.0800 
 43 H       -5.1960     4.7600     0.3050 H     1 <1>   0.0800 
 44 H       -5.6420     5.2100    -2.1690 H     1 <1>   0.0800 
 45 H       -5.4510     6.8640    -2.6980 H     1 <1>   0.0800 
 46 H       -5.9980     7.0910     1.8990 H     1 <1>   0.0800 
 47 H       -6.9000     5.7020     1.4240 H     1 <1>   0.0800 
 48 H       -7.6100     5.6720    -1.1780 H     1 <1>   0.0800 
 49 H       -7.5990     7.1600    -2.0400 H     1 <1>   0.0800 
 50 H       -8.9790     6.7660     0.8050 H     1 <1>   0.1500 
 51 H       -7.3660     9.4060    -1.5850 H     1 <1>   0.0800 
 52 H       -6.2290    10.4440    -0.7550 H     1 <1>   0.0800 
 53 H       -8.6550    10.8200    -0.1410 H     1 <1>   0.0800 
 54 H       -7.6140    10.5250     1.2240 H     1 <1>   0.0800 
 55 H      -10.1510     9.8030     2.1880 H     1 <1>   0.0800 
 56 H      -10.7770     8.2990     1.5630 H     1 <1>   0.0800 
 57 H      -10.8420     9.7400     0.5820 H     1 <1>   0.0800 
@<TRIPOS>BOND
  1   1   2  1   
  2   2   3  ar  
  3   2   4  ar  
  4   3   5  ar  
  5   3  30  1   
  6   4   6  ar  
  7   4  31  1   
  8   5   7  ar  
  9   5  32  1   
 10   6   7  ar  
 11   6  33  1   
 12   7   8  1   
 13   8   9  1   
 14   8  10  2   
 15   9  11  ar  
 16   9  34  1   
 17  10  12  1   
 18  10  13  1   
 19  11  12  ar  
 20  11  14  1   
 21  12  15  1   
 22  13  16  1   
 23  13  35  1   
 24  13  36  1   
 25  14  17  2   
 26  14  37  1   
 27  15  18  2   
 28  15  38  1   
 29  16  19  1   
 30  16  20  1   
 31  16  39  1   
 32  17  18  1   
 33  17  40  1   
 34  18  41  1   
 35  19  21  1   
 36  19  42  1   
 37  19  43  1   
 38  20  22  1   
 39  20  44  1   
 40  20  45  1   
 41  21  23  1   
 42  21  46  1   
 43  21  47  1   
 44  22  23  1   
 45  22  48  1   
 46  22  49  1   
 47  23  24  1   
 48  23  25  1   
 49  24  26  1   
 50  25  27  2   
 51  25  50  1   
 52  26  28  1   
 53  26  51  1   
 54  26  52  1   
 55  27  28  1   
 56  27  29  1   
 57  28  53  1   
 58  28  54  1   
 59  29  55  1   
 60  29  56  1   
 61  29  57  1   
@<TRIPOS>SUBSTRUCTURE
  1 ****  16 GROUP 4 **** **** 0

# MOE 2024.06 (io_trps.svl 2023.06)
