@<TRIPOS>MOLECULE
NONAME
27 27 1 0 0 
SMALL
USER_CHARGES


@<TRIPOS>ATOM
  1 F        0.6630    -0.0100    -0.6500 F     1 <1>  -0.1900 
  2 C        1.5920     0.7860    -0.1880 C.ar  1 <1>   0.1900 
  3 C        2.6840     0.2520     0.4840 C.ar  1 <1>  -0.1440 
  4 C        1.4280     2.1430    -0.3940 C.ar  1 <1>  -0.1500 
  5 C        3.6390     1.1370     0.9630 C.ar  1 <1>  -0.1500 
  6 C        2.8540    -1.2510     0.7100 C.3   1 <1>  -0.0160 
  7 C        2.3960     3.0140     0.0930 C.ar  1 <1>   0.0820 
  8 C        3.4950     2.5020     0.7680 C.ar  1 <1>  -0.1500 
  9 C        3.4550    -1.9910    -0.5010 C.3   1 <1>  -0.1860 
 10 O        2.3370     4.3620    -0.0490 O.3   1 <1>  -0.3630 
 11 C        3.5470    -3.4840    -0.1980 C.2   1 <1>   0.9060 
 12 C        4.8240    -1.4140    -0.9230 C.3   1 <1>  -0.2400 
 13 C        1.2590     4.9810    -0.7170 C.3   1 <1>   0.0400 
 14 O        4.1280    -3.8540     0.8300 O.co2 1 <1>  -0.9000 
 15 O        3.0350    -4.2830    -0.9880 O.co2 1 <1>  -0.9000 
 16 H        0.5600     2.4820    -0.9220 H     1 <1>   0.1500 
 17 H        4.5000     0.7590     1.4860 H     1 <1>   0.1500 
 18 H        1.8990    -1.6890     0.9420 H     1 <1>   0.0800 
 19 H        3.4850    -1.4160     1.5660 H     1 <1>   0.0800 
 20 H        4.2400     3.1800     1.1420 H     1 <1>   0.1500 
 21 H        2.7780    -1.8870    -1.3280 H     1 <1>   0.0800 
 22 H        5.5170    -1.4800    -0.1030 H     1 <1>   0.0800 
 23 H        4.7330    -0.3900    -1.2340 H     1 <1>   0.0800 
 24 H        5.2150    -1.9890    -1.7440 H     1 <1>   0.0800 
 25 H        1.4260     6.0430    -0.7070 H     1 <1>   0.0800 
 26 H        0.3470     4.7500    -0.1960 H     1 <1>   0.0800 
 27 H        1.2260     4.6250    -1.7310 H     1 <1>   0.0800 
@<TRIPOS>BOND
  1   1   2  1   
  2   2   3  ar  
  3   2   4  ar  
  4   3   5  ar  
  5   3   6  1   
  6   4   7  ar  
  7   4  16  1   
  8   5   8  ar  
  9   5  17  1   
 10   6   9  1   
 11   6  18  1   
 12   6  19  1   
 13   7   8  ar  
 14   7  10  1   
 15   8  20  1   
 16   9  11  1   
 17   9  12  1   
 18   9  21  1   
 19  10  13  1   
 20  11  14  ar  
 21  11  15  ar  
 22  12  22  1   
 23  12  23  1   
 24  12  24  1   
 25  13  25  1   
 26  13  26  1   
 27  13  27  1   
@<TRIPOS>SUBSTRUCTURE
  1 ****   3 GROUP 4 **** **** 0

# MOE 2024.06 (io_trps.svl 2023.06)
