@<TRIPOS>MOLECULE
NONAME
50 52 1 0 0 
SMALL
USER_CHARGES


@<TRIPOS>ATOM
  1 O       -0.3820     0.1110     0.8310 O.2   1 <1>  -0.5700 
  2 C       -1.3750     0.7640     0.5730 C.2   1 <1>   0.5440 
  3 N       -2.5410     0.0970     0.2760 N.am  1 <1>  -0.6600 
  4 C       -1.3010     2.2110     0.5690 C.ar  1 <1>   0.0860 
  5 C       -3.7500     0.6990    -0.3460 C.3   1 <1>   0.1400 
  6 C       -2.6170    -1.3860     0.1950 C.3   1 <1>   0.1400 
  7 C       -2.1460     2.9940     1.3570 C.ar  1 <1>  -0.1500 
  8 C       -0.3680     2.8740    -0.2270 C.ar  1 <1>  -0.1500 
  9 C       -4.7810    -0.4280    -0.3290 C.3   1 <1>   0.2000 
 10 C       -3.9320    -1.6850    -0.5330 C.3   1 <1>  -0.0800 
 11 C       -2.0760     4.3740     1.3320 C.ar  1 <1>  -0.1500 
 12 C       -0.2890     4.2540    -0.2570 C.ar  1 <1>  -0.1500 
 13 O       -5.3570    -0.4570     0.9330 O.3   1 <1>  -0.6800 
 14 C       -4.5930    -3.0090    -0.1060 C.3   1 <1>   0.0210 
 15 C       -1.1520     5.0170     0.5250 C.ar  1 <1>   0.0830 
 16 C       -3.6660    -4.1790    -0.3660 C.2   1 <1>   0.1080 
 17 O       -1.1480     6.3680     0.5550 O.3   1 <1>  -0.3630 
 18 N       -3.2980    -4.5340    -1.5580 N.2   1 <1>  -0.7070 
 19 C       -3.1030    -4.9840     0.6190 C.2   1 <1>  -0.1500 
 20 C       -0.2220     7.1250    -0.1910 C.3   1 <1>   0.1200 
 21 N       -2.4830    -5.5880    -1.3630 N.pl3 1 <1>   0.3000 
 22 C       -2.3480    -5.8780    -0.0510 C.2   1 <1>  -0.3320 
 23 C       -0.4800     8.6060     0.0880 C.3   1 <1>  -0.1600 
 24 C       -1.4910    -7.0090     0.4870 C.3   1 <1>  -0.0600 
 25 C        0.4920     9.4990    -0.6920 C.3   1 <1>  -0.2400 
 26 H       -4.1040     1.5620     0.1900 H     1 <1>   0.0800 
 27 H       -3.5210     0.9730    -1.3610 H     1 <1>   0.0800 
 28 H       -1.7740    -1.7870    -0.3440 H     1 <1>   0.0800 
 29 H       -2.6220    -1.7920     1.1920 H     1 <1>   0.0800 
 30 H       -2.8600     2.5090     1.9990 H     1 <1>   0.1500 
 31 H        0.3050     2.2840    -0.8260 H     1 <1>   0.1500 
 32 H       -5.5580    -0.3080    -1.0640 H     1 <1>   0.0800 
 33 H       -3.7020    -1.7570    -1.5820 H     1 <1>   0.0800 
 34 H       -2.7340     4.9670     1.9420 H     1 <1>   0.1500 
 35 H        0.4460     4.7160    -0.8890 H     1 <1>   0.1500 
 36 H       -4.6380    -0.4370     1.5970 H     1 <1>   0.4000 
 37 H       -5.4980    -3.1560    -0.6670 H     1 <1>   0.0800 
 38 H       -4.8480    -2.9880     0.9380 H     1 <1>   0.0800 
 39 H       -3.2550    -4.8900     1.6800 H     1 <1>   0.1500 
 40 H        0.7710     6.8470     0.1170 H     1 <1>   0.0800 
 41 H       -0.3660     6.9040    -1.2350 H     1 <1>   0.0800 
 42 H       -2.0360    -6.0840    -2.1420 H     1 <1>   0.2700 
 43 H       -1.4890     8.8480    -0.1950 H     1 <1>   0.0800 
 44 H       -0.3640     8.7910     1.1420 H     1 <1>   0.0800 
 45 H       -1.5470    -7.0350     1.5610 H     1 <1>   0.0800 
 46 H       -0.4640    -6.8660     0.2020 H     1 <1>   0.0800 
 47 H       -1.8360    -7.9530     0.1030 H     1 <1>   0.0800 
 48 H        0.3820     9.3420    -1.7510 H     1 <1>   0.0800 
 49 H        1.5090     9.2850    -0.4120 H     1 <1>   0.0800 
 50 H        0.2900    10.5340    -0.4780 H     1 <1>   0.0800 
@<TRIPOS>BOND
  1   1   2  2   
  2   2   3  am  
  3   2   4  1   
  4   3   5  1   
  5   3   6  1   
  6   4   7  ar  
  7   4   8  ar  
  8   5   9  1   
  9   5  26  1   
 10   5  27  1   
 11   6  10  1   
 12   6  28  1   
 13   6  29  1   
 14   7  11  ar  
 15   7  30  1   
 16   8  12  ar  
 17   8  31  1   
 18   9  10  1   
 19   9  13  1   
 20   9  32  1   
 21  10  14  1   
 22  10  33  1   
 23  11  15  ar  
 24  11  34  1   
 25  12  15  ar  
 26  12  35  1   
 27  13  36  1   
 28  14  16  1   
 29  14  37  1   
 30  14  38  1   
 31  15  17  1   
 32  16  18  2   
 33  16  19  1   
 34  17  20  1   
 35  18  21  1   
 36  19  22  2   
 37  19  39  1   
 38  20  23  1   
 39  20  40  1   
 40  20  41  1   
 41  21  22  1   
 42  21  42  1   
 43  22  24  1   
 44  23  25  1   
 45  23  43  1   
 46  23  44  1   
 47  24  45  1   
 48  24  46  1   
 49  24  47  1   
 50  25  48  1   
 51  25  49  1   
 52  25  50  1   
@<TRIPOS>SUBSTRUCTURE
  1 ****   3 GROUP 4 **** **** 0

# MOE 2024.06 (io_trps.svl 2023.06)
