@<TRIPOS>MOLECULE
NONAME
55 59 1 0 0 
SMALL
USER_CHARGES


@<TRIPOS>ATOM
  1 O       -1.5990     0.9300    -2.0790 O.2   1 <1>  -0.5700 
  2 C       -1.7500     0.9760    -0.8710 C.2   1 <1>   0.7160 
  3 N       -1.9590    -0.1980    -0.1730 N.am  1 <1>  -0.6600 
  4 C       -1.7220     2.2370    -0.2050 C.2   1 <1>  -0.0860 
  5 C       -2.2230    -0.2460     1.2890 C.3   1 <1>   0.1400 
  6 C       -2.1390    -1.5060    -0.8560 C.3   1 <1>   0.1400 
  7 C       -2.8070     3.0710     0.1050 C.2   1 <1>   0.3720 
  8 C       -0.6600     2.8630     0.3630 C.2   1 <1>   0.0870 
  9 C       -3.6780    -0.6630     1.5100 C.3   1 <1>  -0.1600 
 10 C       -3.5870    -1.9680    -0.6740 C.3   1 <1>  -0.1600 
 11 N       -2.4150     4.0700     0.8160 N.2   1 <1>  -0.4100 
 12 N       -4.1590     2.9130    -0.2440 N.pl3 1 <1>  -0.8210 
 13 O       -1.1230     3.9330     0.9530 O.3   1 <1>  -0.0190 
 14 C        0.7410     2.5320     0.4310 C.ar  1 <1>   0.0530 
 15 C       -4.0120    -1.9860     0.8030 C.3   1 <1>   0.1000 
 16 C       -4.5790     1.9480    -1.3060 C.3   1 <1>   0.2090 
 17 C       -5.1570     3.0850     0.8580 C.3   1 <1>   0.2090 
 18 C        1.5000     2.8700     1.5510 C.ar  1 <1>  -0.1500 
 19 C        1.3900     1.8630    -0.6070 C.ar  1 <1>  -0.1500 
 20 C       -5.5030    -2.2710     0.8910 C.2   1 <1>  -0.3320 
 21 C       -6.0570     2.1280    -1.6920 C.3   1 <1>   0.1200 
 22 C       -6.5960     3.1760     0.3200 C.3   1 <1>   0.1200 
 23 C        2.8410     2.5440     1.6400 C.ar  1 <1>  -0.1500 
 24 C        2.7300     1.5330    -0.5240 C.ar  1 <1>  -0.1500 
 25 N       -6.0190    -3.4920     1.1490 N.pl3 1 <1>   0.3000 
 26 C       -6.5580    -1.4390     0.7300 C.2   1 <1>  -0.1500 
 27 O       -6.8740     2.1190    -0.5550 O.3   1 <1>  -0.5600 
 28 C        3.4590     1.8710     0.6020 C.ar  1 <1>  -0.1500 
 29 N       -7.3650    -3.4740     1.1640 N.2   1 <1>  -0.7070 
 30 C       -7.6780    -2.2400     0.9110 C.2   1 <1>   0.1390 
 31 H       -2.0430     0.7070     1.7550 H     1 <1>   0.0800 
 32 H       -1.5600    -0.9640     1.7430 H     1 <1>   0.0800 
 33 H       -1.4630    -2.2240    -0.4240 H     1 <1>   0.0800 
 34 H       -1.9110    -1.4290    -1.9060 H     1 <1>   0.0800 
 35 H       -4.3130     0.1200     1.1440 H     1 <1>   0.0800 
 36 H       -3.8660    -0.7640     2.5640 H     1 <1>   0.0800 
 37 H       -3.7020    -2.9510    -1.0930 H     1 <1>   0.0800 
 38 H       -4.2310    -1.3090    -1.2270 H     1 <1>   0.0800 
 39 H       -3.4710    -2.7710     1.3040 H     1 <1>   0.0800 
 40 H       -4.4410     0.9420    -0.9590 H     1 <1>   0.0800 
 41 H       -3.9700     2.0910    -2.1820 H     1 <1>   0.0800 
 42 H       -4.9370     3.9840     1.4080 H     1 <1>   0.0800 
 43 H       -5.0860     2.2570     1.5380 H     1 <1>   0.0800 
 44 H        1.0310     3.3950     2.3650 H     1 <1>   0.1500 
 45 H        0.8460     1.6020    -1.4980 H     1 <1>   0.1500 
 46 H       -6.3720     1.3230    -2.3320 H     1 <1>   0.0800 
 47 H       -6.1970     3.0590    -2.2130 H     1 <1>   0.0800 
 48 H       -6.7400     4.1050    -0.2030 H     1 <1>   0.0800 
 49 H       -7.2980     3.1260     1.1330 H     1 <1>   0.0800 
 50 H        3.4050     2.8140     2.5160 H     1 <1>   0.1500 
 51 H        3.2080     1.0150    -1.3380 H     1 <1>   0.1500 
 52 H       -5.4890    -4.3550     1.3180 H     1 <1>   0.2700 
 53 H       -6.5760    -0.3860     0.5060 H     1 <1>   0.1500 
 54 H        4.5020     1.6150     0.6680 H     1 <1>   0.1500 
 55 H       -8.6940    -1.8860     0.8500 H     1 <1>   0.1500 
@<TRIPOS>BOND
  1   1   2  2   
  2   2   3  am  
  3   2   4  1   
  4   3   5  1   
  5   3   6  1   
  6   4   7  1   
  7   4   8  2   
  8   5   9  1   
  9   5  31  1   
 10   5  32  1   
 11   6  10  1   
 12   6  33  1   
 13   6  34  1   
 14   7  11  2   
 15   7  12  1   
 16   8  13  1   
 17   8  14  1   
 18   9  15  1   
 19   9  35  1   
 20   9  36  1   
 21  10  15  1   
 22  10  37  1   
 23  10  38  1   
 24  11  13  1   
 25  12  16  1   
 26  12  17  1   
 27  14  18  ar  
 28  14  19  ar  
 29  15  20  1   
 30  15  39  1   
 31  16  21  1   
 32  16  40  1   
 33  16  41  1   
 34  17  22  1   
 35  17  42  1   
 36  17  43  1   
 37  18  23  ar  
 38  18  44  1   
 39  19  24  ar  
 40  19  45  1   
 41  20  25  1   
 42  20  26  2   
 43  21  27  1   
 44  21  46  1   
 45  21  47  1   
 46  22  27  1   
 47  22  48  1   
 48  22  49  1   
 49  23  28  ar  
 50  23  50  1   
 51  24  28  ar  
 52  24  51  1   
 53  25  29  1   
 54  25  52  1   
 55  26  30  1   
 56  26  53  1   
 57  28  54  1   
 58  29  30  2   
 59  30  55  1   
@<TRIPOS>SUBSTRUCTURE
  1 ****   3 GROUP 4 **** **** 0

# MOE 2024.06 (io_trps.svl 2023.06)
