@<TRIPOS>MOLECULE
NONAME
54 56 1 0 0 
SMALL
USER_CHARGES


@<TRIPOS>ATOM
  1 O       -2.2030     2.0110    -2.0720 O.co2 1 <1>  -0.9000 
  2 C       -1.4810     1.7100    -1.1110 C.2   1 <1>   0.9060 
  3 O       -0.7980     0.6780    -1.1230 O.co2 1 <1>  -0.9000 
  4 C       -1.6590     2.4070     0.2690 C.3   1 <1>   0.4600 
  5 N       -2.8500     1.8960     1.0720 N.4   1 <1>  -0.9590 
  6 C       -1.6970     3.9370     0.3200 C.ar  1 <1>  -0.1430 
  7 C       -2.7210     0.4220     1.2920 C.3   1 <1>   0.3430 
  8 C       -4.1240     2.1440     0.3420 C.3   1 <1>   0.3430 
  9 C       -2.3750     4.7110    -0.6160 C.ar  1 <1>  -0.1500 
 10 C       -1.0440     4.5750     1.3670 C.ar  1 <1>  -0.1500 
 11 C       -3.9650    -0.2500     0.6760 C.3   1 <1>   0.0000 
 12 C       -4.9730     0.9060     0.5990 C.3   1 <1>  -0.1600 
 13 C       -2.4190     6.0910    -0.5030 C.ar  1 <1>   0.0830 
 14 C       -1.0630     5.9550     1.4760 C.ar  1 <1>  -0.1500 
 15 C       -4.4670    -1.4130     1.5570 C.3   1 <1>  -0.1600 
 16 C       -3.6330    -0.8000    -0.7330 C.3   1 <1>  -0.1600 
 17 O       -3.1440     6.7650    -1.4310 O.3   1 <1>  -0.3620 
 18 C       -1.7340     6.7210     0.5410 C.ar  1 <1>   0.0830 
 19 C       -5.5880    -2.2170     0.8930 C.3   1 <1>   0.3430 
 20 C       -4.7410    -1.6440    -1.3540 C.3   1 <1>   0.3430 
 21 C       -4.2270     7.5420    -0.9670 C.3   1 <1>   0.0400 
 22 O       -1.6800     8.0670     0.6830 O.3   1 <1>  -0.3630 
 23 N       -5.1180    -2.7420    -0.4200 N.4   1 <1>  -0.9590 
 24 C       -0.9530     8.7650    -0.3060 C.3   1 <1>   0.0400 
 25 C       -6.1420    -3.6330    -1.0450 C.3   1 <1>   0.2630 
 26 H       -0.7710     2.1210     0.8040 H     1 <1>   0.0800 
 27 H       -2.8580     2.4120     1.9570 H     1 <1>   0.4500 
 28 H       -2.6850     0.2240     2.3500 H     1 <1>   0.0800 
 29 H       -1.8200     0.0340     0.8410 H     1 <1>   0.0800 
 30 H       -3.9380     2.2310    -0.7170 H     1 <1>   0.0800 
 31 H       -4.6050     3.0470     0.6820 H     1 <1>   0.0800 
 32 H       -2.8830     4.2610    -1.4520 H     1 <1>   0.1500 
 33 H       -0.5060     4.0070     2.1070 H     1 <1>   0.1500 
 34 H       -5.7100     0.7840    -0.1740 H     1 <1>   0.0800 
 35 H       -5.4810     1.0400     1.5380 H     1 <1>   0.0800 
 36 H       -0.5500     6.4470     2.2830 H     1 <1>   0.1500 
 37 H       -4.8220    -1.0350     2.5010 H     1 <1>   0.0800 
 38 H       -3.6520    -2.0830     1.7740 H     1 <1>   0.0800 
 39 H       -2.7290    -1.3850    -0.7010 H     1 <1>   0.0800 
 40 H       -3.4460     0.0020    -1.4190 H     1 <1>   0.0800 
 41 H       -6.4510    -1.5860     0.7470 H     1 <1>   0.0800 
 42 H       -5.8730    -3.0350     1.5360 H     1 <1>   0.0800 
 43 H       -4.3920    -2.0530    -2.2890 H     1 <1>   0.0800 
 44 H       -5.5980    -1.0220    -1.5570 H     1 <1>   0.0800 
 45 H       -4.8110     7.8430    -1.8180 H     1 <1>   0.0800 
 46 H       -3.8530     8.4100    -0.4580 H     1 <1>   0.0800 
 47 H       -4.8250     6.9450    -0.3020 H     1 <1>   0.0800 
 48 H       -4.2660    -3.2970    -0.2540 H     1 <1>   0.4500 
 49 H       -0.9380     9.8060    -0.0410 H     1 <1>   0.0800 
 50 H       -1.4320     8.6350    -1.2590 H     1 <1>   0.0800 
 51 H        0.0500     8.3760    -0.3370 H     1 <1>   0.0800 
 52 H       -7.0470    -3.0830    -1.2460 H     1 <1>   0.0800 
 53 H       -6.3760    -4.4550    -0.3870 H     1 <1>   0.0800 
 54 H       -5.7700    -4.0350    -1.9740 H     1 <1>   0.0800 
@<TRIPOS>BOND
  1   1   2  ar  
  2   2   3  ar  
  3   2   4  1   
  4   4   5  1   
  5   4   6  1   
  6   4  26  1   
  7   5   7  1   
  8   5   8  1   
  9   5  27  1   
 10   6   9  ar  
 11   6  10  ar  
 12   7  11  1   
 13   7  28  1   
 14   7  29  1   
 15   8  12  1   
 16   8  30  1   
 17   8  31  1   
 18   9  13  ar  
 19   9  32  1   
 20  10  14  ar  
 21  10  33  1   
 22  11  12  1   
 23  11  15  1   
 24  11  16  1   
 25  12  34  1   
 26  12  35  1   
 27  13  17  1   
 28  13  18  ar  
 29  14  18  ar  
 30  14  36  1   
 31  15  19  1   
 32  15  37  1   
 33  15  38  1   
 34  16  20  1   
 35  16  39  1   
 36  16  40  1   
 37  17  21  1   
 38  18  22  1   
 39  19  23  1   
 40  19  41  1   
 41  19  42  1   
 42  20  23  1   
 43  20  43  1   
 44  20  44  1   
 45  21  45  1   
 46  21  46  1   
 47  21  47  1   
 48  22  24  1   
 49  23  25  1   
 50  23  48  1   
 51  24  49  1   
 52  24  50  1   
 53  24  51  1   
 54  25  52  1   
 55  25  53  1   
 56  25  54  1   
@<TRIPOS>SUBSTRUCTURE
  1 ****   8 GROUP 4 **** **** 0

# MOE 2024.06 (io_trps.svl 2023.06)
