@<TRIPOS>MOLECULE
NONAME
56 58 1 0 0 
SMALL
USER_CHARGES


@<TRIPOS>ATOM
  1 CL      -0.0680     0.2250    -0.6280 Cl    1 <1>  -0.1770 
  2 C       -1.7570     0.6470    -0.5430 C.ar  1 <1>   0.1770 
  3 C       -2.3210     1.4080    -1.5490 C.ar  1 <1>  -0.1500 
  4 C       -2.5130     0.2180     0.5310 C.ar  1 <1>  -0.1500 
  5 C       -3.6620     1.7390    -1.4760 C.ar  1 <1>  -0.1500 
  6 C       -3.8530     0.5570     0.5940 C.ar  1 <1>  -0.1500 
  7 C       -4.4580     1.3190    -0.4080 C.ar  1 <1>   0.0530 
  8 C       -5.8500     1.6860    -0.3550 C.2   1 <1>   0.0870 
  9 O       -6.1900     2.9290    -0.5890 O.3   1 <1>  -0.0190 
 10 C       -7.0020     0.9970    -0.1240 C.2   1 <1>  -0.0860 
 11 N       -7.4780     3.1300    -0.5190 N.2   1 <1>  -0.4100 
 12 C       -7.9840     1.9910    -0.2280 C.2   1 <1>   0.3720 
 13 C       -7.2420    -0.3940     0.1190 C.2   1 <1>   0.7160 
 14 N       -9.3530     1.8570    -0.0460 N.pl3 1 <1>  -0.8520 
 15 O       -6.3850    -1.0990     0.6130 O.2   1 <1>  -0.5700 
 16 N       -8.4590    -0.9190    -0.2020 N.am  1 <1>  -0.7300 
 17 C       -9.7580     1.6880     1.3780 C.3   1 <1>   0.2090 
 18 C       -9.0360    -2.2570     0.0210 C.3   1 <1>   0.3000 
 19 C      -11.2450     1.3480     1.4710 C.3   1 <1>   0.1200 
 20 C      -10.3960    -2.2250    -0.7130 C.3   1 <1>  -0.1600 
 21 C       -8.0710    -3.3250    -0.5380 C.3   1 <1>  -0.1600 
 22 C       -9.2200    -2.4090     1.5380 C.3   1 <1>  -0.2400 
 23 O      -11.5570     1.0950     2.8040 O.3   1 <1>  -0.5600 
 24 C      -11.3080    -3.4570    -0.5500 C.3   1 <1>  -0.1600 
 25 C       -8.6170    -4.7550    -0.7050 C.3   1 <1>  -0.1600 
 26 C      -12.8870     0.7450     3.0180 C.3   1 <1>   0.0400 
 27 C      -11.0510    -4.5880    -1.5560 C.3   1 <1>  -0.1600 
 28 C       -9.5830    -4.8830    -1.8910 C.3   1 <1>  -0.1600 
 29 H       -1.7140     1.7330    -2.3750 H     1 <1>   0.1500 
 30 H       -2.0570    -0.3730     1.3050 H     1 <1>   0.1500 
 31 H       -4.1050     2.3320    -2.2570 H     1 <1>   0.1500 
 32 H       -4.4390     0.2280     1.4350 H     1 <1>   0.1500 
 33 H       -9.7780     2.7220    -0.4020 H     1 <1>   0.4000 
 34 H       -9.1500    -0.2160    -0.4850 H     1 <1>   0.3700 
 35 H       -9.5640     2.5990     1.9180 H     1 <1>   0.0800 
 36 H       -9.1890     0.8910     1.8270 H     1 <1>   0.0800 
 37 H      -11.4620     0.4650     0.8980 H     1 <1>   0.0800 
 38 H      -11.8420     2.1750     1.1280 H     1 <1>   0.0800 
 39 H      -10.2300    -2.0520    -1.7630 H     1 <1>   0.0800 
 40 H      -10.9480    -1.3830    -0.3390 H     1 <1>   0.0800 
 41 H       -7.2230    -3.3920     0.1200 H     1 <1>   0.0800 
 42 H       -7.6990    -2.9910    -1.4910 H     1 <1>   0.0800 
 43 H       -9.9240    -1.6870     1.9100 H     1 <1>   0.0800 
 44 H       -8.2830    -2.2730     2.0460 H     1 <1>   0.0800 
 45 H       -9.5740    -3.3900     1.7890 H     1 <1>   0.0800 
 46 H      -12.3290    -3.1410    -0.6790 H     1 <1>   0.0800 
 47 H      -11.2420    -3.8490     0.4480 H     1 <1>   0.0800 
 48 H       -9.0730    -5.1090     0.2030 H     1 <1>   0.0800 
 49 H       -7.7750    -5.3960    -0.9020 H     1 <1>   0.0800 
 50 H      -13.0220     0.5740     4.0720 H     1 <1>   0.0800 
 51 H      -13.1110    -0.1560     2.4740 H     1 <1>   0.0800 
 52 H      -13.5240     1.5520     2.6970 H     1 <1>   0.0800 
 53 H      -11.5600    -4.3570    -2.4770 H     1 <1>   0.0800 
 54 H      -11.5030    -5.4840    -1.1670 H     1 <1>   0.0800 
 55 H       -9.5290    -5.8880    -2.2730 H     1 <1>   0.0800 
 56 H       -9.2590    -4.2350    -2.6870 H     1 <1>   0.0800 
@<TRIPOS>BOND
  1   1   2  1   
  2   2   3  ar  
  3   2   4  ar  
  4   3   5  ar  
  5   3  29  1   
  6   4   6  ar  
  7   4  30  1   
  8   5   7  ar  
  9   5  31  1   
 10   6   7  ar  
 11   6  32  1   
 12   7   8  1   
 13   8   9  1   
 14   8  10  2   
 15   9  11  1   
 16  10  12  1   
 17  10  13  1   
 18  11  12  2   
 19  12  14  1   
 20  13  15  2   
 21  13  16  am  
 22  14  17  1   
 23  14  33  1   
 24  16  18  1   
 25  16  34  1   
 26  17  19  1   
 27  17  35  1   
 28  17  36  1   
 29  18  20  1   
 30  18  21  1   
 31  18  22  1   
 32  19  23  1   
 33  19  37  1   
 34  19  38  1   
 35  20  24  1   
 36  20  39  1   
 37  20  40  1   
 38  21  25  1   
 39  21  41  1   
 40  21  42  1   
 41  22  43  1   
 42  22  44  1   
 43  22  45  1   
 44  23  26  1   
 45  24  27  1   
 46  24  46  1   
 47  24  47  1   
 48  25  28  1   
 49  25  48  1   
 50  25  49  1   
 51  26  50  1   
 52  26  51  1   
 53  26  52  1   
 54  27  28  1   
 55  27  53  1   
 56  27  54  1   
 57  28  55  1   
 58  28  56  1   
@<TRIPOS>SUBSTRUCTURE
  1 ****  13 GROUP 4 **** **** 0

# MOE 2024.06 (io_trps.svl 2023.06)
