@<TRIPOS>MOLECULE
NONAME
38 39 1 0 0 
SMALL
USER_CHARGES


@<TRIPOS>ATOM
  1 O        2.3310     0.1550    -1.8960 O.2   1 <1>  -0.5700 
  2 C        2.6350    -0.5230    -0.9160 C.2   1 <1>   0.6160 
  3 N        2.5940    -1.9120    -1.0400 N.am  1 <1>  -0.4690 
  4 C        3.0630     0.0780     0.3200 C.2   1 <1>   0.0290 
  5 C        3.0700    -2.7120    -0.0230 C.2   1 <1>  -0.0290 
  6 C        2.0590    -2.5150    -2.3020 C.3   1 <1>   0.0600 
  7 C        3.5450    -0.7530     1.3130 C.2   1 <1>  -0.1380 
  8 C        2.9580     1.5160     0.4570 C.2   1 <1>   0.6160 
  9 C        3.5370    -2.1490     1.1240 C.2   1 <1>  -0.1500 
 10 C        3.0810    -4.2260    -0.1870 C.3   1 <1>  -0.1020 
 11 C        4.1060    -0.2550     2.6430 C.3   1 <1>  -0.1020 
 12 O        2.6750     2.0120     1.5360 O.2   1 <1>  -0.5700 
 13 N        3.1750     2.3490    -0.6100 N.am  1 <1>  -0.4930 
 14 C        3.2260     3.7640    -0.6830 C.2   1 <1>   0.0630 
 15 C        3.1790     4.5390    -1.8440 C.2   1 <1>   0.1080 
 16 C        3.3370     4.6650     0.3130 C.2   1 <1>  -0.3020 
 17 N        3.2570     5.8100    -1.5940 N.2   1 <1>  -0.7070 
 18 C        3.0500     3.9950    -3.2500 C.3   1 <1>  -0.0590 
 19 N        3.3510     5.8870    -0.2560 N.pl3 1 <1>   0.3140 
 20 C        3.4510     7.1710     0.4430 C.3   1 <1>   0.0160 
 21 H        1.4360    -1.8160    -2.8320 H     1 <1>   0.0800 
 22 H        1.4580    -3.3780    -2.0810 H     1 <1>   0.0800 
 23 H        2.8780    -2.8000    -2.9370 H     1 <1>   0.0800 
 24 H        3.9100    -2.7710     1.9190 H     1 <1>   0.1500 
 25 H        3.6300    -4.5020    -1.0690 H     1 <1>   0.0800 
 26 H        2.0760    -4.6000    -0.2610 H     1 <1>   0.0800 
 27 H        3.5490    -4.6990     0.6570 H     1 <1>   0.0800 
 28 H        4.7880    -0.9690     3.0680 H     1 <1>   0.0800 
 29 H        3.3010    -0.0900     3.3380 H     1 <1>   0.0800 
 30 H        4.6410     0.6680     2.5130 H     1 <1>   0.0800 
 31 H        3.1070     1.8710    -1.5150 H     1 <1>   0.3700 
 32 H        3.4000     4.4970     1.3720 H     1 <1>   0.1500 
 33 H        2.2550     3.2730    -3.2930 H     1 <1>   0.0800 
 34 H        3.9720     3.5300    -3.5440 H     1 <1>   0.0800 
 35 H        2.8290     4.7960    -3.9310 H     1 <1>   0.0800 
 36 H        2.7970     7.1630     1.2940 H     1 <1>   0.0800 
 37 H        3.1630     7.9590    -0.2280 H     1 <1>   0.0800 
 38 H        4.4660     7.3190     0.7600 H     1 <1>   0.0800 
@<TRIPOS>BOND
  1   1   2  2   
  2   2   3  am  
  3   2   4  1   
  4   3   5  1   
  5   3   6  1   
  6   4   7  2   
  7   4   8  1   
  8   5   9  2   
  9   5  10  1   
 10   6  21  1   
 11   6  22  1   
 12   6  23  1   
 13   7   9  1   
 14   7  11  1   
 15   8  12  2   
 16   8  13  am  
 17   9  24  1   
 18  10  25  1   
 19  10  26  1   
 20  10  27  1   
 21  11  28  1   
 22  11  29  1   
 23  11  30  1   
 24  13  14  1   
 25  13  31  1   
 26  14  15  1   
 27  14  16  2   
 28  15  17  2   
 29  15  18  1   
 30  16  19  1   
 31  16  32  1   
 32  17  19  1   
 33  18  33  1   
 34  18  34  1   
 35  18  35  1   
 36  19  20  1   
 37  20  36  1   
 38  20  37  1   
 39  20  38  1   
@<TRIPOS>SUBSTRUCTURE
  1 ****   8 GROUP 4 **** **** 0

# MOE 2024.06 (io_trps.svl 2023.06)
