@<TRIPOS>MOLECULE
NONAME
44 46 1 0 0 
SMALL
USER_CHARGES


@<TRIPOS>ATOM
  1 F       -1.1850    -1.9600    -1.2990 F     1 <1>  -0.1900 
  2 C       -1.0630    -3.0490    -0.5860 C.ar  1 <1>   0.1900 
  3 C       -0.1490    -4.0180    -0.9750 C.ar  1 <1>  -0.1440 
  4 C       -1.8630    -3.1840     0.5320 C.ar  1 <1>  -0.1500 
  5 C       -0.0490    -5.1580    -0.1930 C.ar  1 <1>  -0.1500 
  6 C        0.7190    -3.8400    -2.2110 C.3   1 <1>  -0.0960 
  7 C       -1.7580    -4.3320     1.3020 C.ar  1 <1>  -0.1440 
  8 C       -0.8440    -5.3110     0.9330 C.ar  1 <1>  -0.1500 
  9 C       -2.6410    -4.5260     2.5330 C.3   1 <1>   0.0450 
 10 C       -3.3190    -5.8890     2.5810 C.2   1 <1>   0.5690 
 11 O       -3.1160    -6.5860     3.5470 O.2   1 <1>  -0.5700 
 12 N       -4.1410    -6.3050     1.5680 N.am  1 <1>  -0.6600 
 13 C       -4.4760    -5.5570     0.3310 C.3   1 <1>   0.1400 
 14 C       -4.6900    -7.6830     1.5030 C.3   1 <1>   0.1400 
 15 C       -5.5930    -6.3740    -0.3160 C.3   1 <1>   0.2000 
 16 C       -5.2980    -7.8180     0.0970 C.3   1 <1>  -0.0800 
 17 O       -6.7960    -6.0020     0.2590 O.3   1 <1>  -0.6800 
 18 C       -4.3220    -8.4810    -0.8960 C.3   1 <1>  -0.0170 
 19 C       -4.1070    -9.9560    -0.5910 C.ar  1 <1>   0.1670 
 20 N       -3.0280   -10.2670     0.1090 N.ar  1 <1>  -0.6200 
 21 C       -5.0260   -10.9000    -1.0460 C.ar  1 <1>   0.1600 
 22 C       -2.9320   -11.5680     0.3250 C.ar  1 <1>   0.1600 
 23 N       -4.9330   -12.2020    -0.8320 N.ar  1 <1>  -0.6200 
 24 C       -3.8540   -12.5040    -0.1300 C.ar  1 <1>   0.1600 
 25 H       -2.5510    -2.3980     0.7840 H     1 <1>   0.1500 
 26 H        0.6480    -5.9360    -0.4530 H     1 <1>   0.1500 
 27 H        1.3540    -4.6950    -2.3640 H     1 <1>   0.0800 
 28 H        1.3390    -2.9690    -2.1000 H     1 <1>   0.0800 
 29 H        0.0980    -3.7140    -3.0800 H     1 <1>   0.0800 
 30 H       -0.7480    -6.2080     1.5230 H     1 <1>   0.1500 
 31 H       -3.4030    -3.7710     2.5710 H     1 <1>   0.0800 
 32 H       -2.0310    -4.4150     3.4110 H     1 <1>   0.0800 
 33 H       -4.7880    -4.5480     0.5390 H     1 <1>   0.0800 
 34 H       -3.6150    -5.5430    -0.3150 H     1 <1>   0.0800 
 35 H       -3.9160    -8.4060     1.6950 H     1 <1>   0.0800 
 36 H       -5.4540    -7.7880     2.2550 H     1 <1>   0.0800 
 37 H       -5.6670    -6.2250    -1.3800 H     1 <1>   0.0800 
 38 H       -6.2040    -8.3990     0.1270 H     1 <1>   0.0800 
 39 H       -6.6980    -6.0190     1.2330 H     1 <1>   0.4000 
 40 H       -3.3710    -7.9760    -0.8780 H     1 <1>   0.0800 
 41 H       -4.7130    -8.3950    -1.8940 H     1 <1>   0.0800 
 42 H       -5.8770   -10.5640    -1.6110 H     1 <1>   0.1500 
 43 H       -2.0840   -11.9110     0.8890 H     1 <1>   0.1500 
 44 H       -3.6890   -13.5420     0.0960 H     1 <1>   0.1500 
@<TRIPOS>BOND
  1   1   2  1   
  2   2   3  ar  
  3   2   4  ar  
  4   3   5  ar  
  5   3   6  1   
  6   4   7  ar  
  7   4  25  1   
  8   5   8  ar  
  9   5  26  1   
 10   6  27  1   
 11   6  28  1   
 12   6  29  1   
 13   7   8  ar  
 14   7   9  1   
 15   8  30  1   
 16   9  10  1   
 17   9  31  1   
 18   9  32  1   
 19  10  11  2   
 20  10  12  am  
 21  12  13  1   
 22  12  14  1   
 23  13  15  1   
 24  13  33  1   
 25  13  34  1   
 26  14  16  1   
 27  14  35  1   
 28  14  36  1   
 29  15  16  1   
 30  15  17  1   
 31  15  37  1   
 32  16  18  1   
 33  16  38  1   
 34  17  39  1   
 35  18  19  1   
 36  18  40  1   
 37  18  41  1   
 38  19  20  ar  
 39  19  21  ar  
 40  20  22  ar  
 41  21  23  ar  
 42  21  42  1   
 43  22  24  ar  
 44  22  43  1   
 45  23  24  ar  
 46  24  44  1   
@<TRIPOS>SUBSTRUCTURE
  1 ****  12 GROUP 4 **** **** 0

# MOE 2024.06 (io_trps.svl 2023.06)
